data_PCOD8153698
_publ_section_title
;
Structure prediction by ZEFSAII (Michael W. Deem and Ramdas Pophale) SiO2 
 PCOD8153698
Probable space group: C 2/C
;
_chemical_formula_sum "Si O2"
_cell_formula_units_Z 60
_cell_length_a 14.563564
_cell_length_b 11.754433
_cell_length_c 16.942359
_cell_angle_alpha 90.000000
_cell_angle_beta 77.850045
_cell_angle_gamma 90.000000
_cell_volume 2835.335609
_symmetry_space_group_name_H-M "C 2/C"
_symmetry_group_IT_number 15
_symmetry_cell_setting 'monoclinic'
loop_
_space_group_symop_operation_xyz
x,y,z
-x,y,1/2-z
-x,-y,-z
x,-y,1/2+z
1/2+x,1/2+y,z
1/2-x,1/2+y,1/2-z
1/2-x,1/2-y,-z
1/2+x,1/2-y,1/2+z
loop_
_atom_site_type_symbol
_atom_site_label
_atom_site_fract_x
_atom_site_fract_y
_atom_site_fract_z
Si Si1 0.025454 0.156673 0.952725
Si Si2 0.500000 0.298780 0.750000
Si Si3 0.604387 0.894054 0.702103
Si Si4 0.775113 0.475202 0.108344
Si Si5 0.836868 0.633451 0.758477
Si Si6 0.076081 0.952669 0.597202
Si Si7 0.648682 0.806641 0.521692
Si Si8 0.320744 0.212422 0.162180
O O1 0.929295 0.219093 0.996593
O O2 0.081586 0.235692 0.882923
O O3 0.006863 0.040331 0.908417
O O4 0.087697 0.130180 0.019327
O O5 0.421417 0.220033 0.722609
O O6 0.549778 0.378454 0.677351
O O7 0.500000 0.869607 0.750000
O O8 0.621202 0.843118 0.613919
O O9 0.674915 0.830373 0.748532
O O10 0.623398 0.028703 0.698074
O O11 0.785598 0.409190 0.188870
O O12 0.667796 0.470478 0.097810
O O13 0.801142 0.607101 0.108458
O O14 0.847124 0.418432 0.033715
O O15 0.762103 0.695693 0.828551
O O16 0.750000 0.750000 0.500000
#
# Coordination Sequence:
#
# PCOD8153698 Si02
#       8
#     8   4   8   8   8   8   8   8
#     4  11  26  44  68 100 138 178 229 284 347 404
#     4  12  24  46  70  94 142 186 224 288 344 416
#     4  11  24  44  69 102 133 177 234 275 343 420
#     4  11  25  45  66 105 133 176 234 279 344 413
#     4  11  25  43  69  99 140 181 226 286 349 411
#     4  11  26  44  67 104 135 176 235 277 347 412
#     4  12  24  44  73  99 138 184 227 289 342 409
#     4  11  25  43  69 101 133 179 229 284 342 409
#
# _framework density 21.161517
#
# number of rings (size 3 to 8) (size 9 to 14) (size 15 to 20)
#    0.000    0.800    4.667    1.600    3.733    2.133 
#    0.000    0.000    0.000    0.000    0.000    0.000 
#    0.000    0.000    0.000    0.000    0.000    0.000 
#
# Total GULP energy -372148.099831 kJ/mol
# GULP energy per Si atom -12404.936661 kJ/mol
# Density = 2.111335 g / cm^3
# Si number density = 21.161517 Si / 1000 Ang^3
#
#
#
# Elastic Constant Matrix: (Units=GPa)
#
#
# Indices 1 2 3 4 5 6 
#
# 1 99.2570 29.4165 36.2393 0.0000 -5.2310 0.0000
# 2 29.4165 95.5078 56.3397 0.0000 -6.9392 0.0000
# 3 36.2393 56.3397 106.3993 0.0000 0.4274 0.0000
# 4 0.0000 0.0000 0.0000 30.8668 0.0000 -4.5569
# 5 -5.2310 -6.9392 0.4274 0.0000 38.2236 0.0000
# 6 0.0000 0.0000 0.0000 -4.5569 0.0000 43.5241
#
#
#
# Elastic Compliance Matrix: (Units=1/GPa)
#
#
# Indices 1 2 3 4 5 6 
#
# 1 0.011787 -0.001689 -0.003126 0.000000 0.001341 0.000000
# 2 -0.001689 0.015786 -0.007795 0.000000 0.002722 0.000000
# 3 -0.003126 -0.007795 0.014599 0.000000 -0.002006 0.000000
# 4 0.000000 0.000000 0.000000 0.032906 0.000000 0.003445
# 5 0.001341 0.002722 -0.002006 0.000000 0.026862 0.000000
# 6 0.000000 0.000000 0.000000 0.003445 0.000000 0.023336
#
#
# Mechanical properties :
#
#
# Convention : Reuss Voigt Hill
#
# Bulk Modulus (GPa) = 58.98586 60.57281 59.77934
# Shear Modulus (GPa) = 32.02109 34.46749 33.24429
#
# Velocity S-wave (km/s) = 3.89418 4.04019 3.96786
# Velocity P-wave (km/s) = 6.93932 7.10285 7.02156
#
# Compressibility (1/GPa) = 0.01695321
#
# Stress axis : x y z
#
# Youngs Moduli (GPa) = 84.83644 63.34540 68.49972
#
# Poissons Ratio (x) = 0.10701 0.21411
# Poissons Ratio (y) = 0.14331 0.53394
# Poissons Ratio (z) = 0.26517 0.49376
#
# Static dielectric constant tensor:
#      x y z
#    x 2.983960 0.000000 1.066670 
#    y 0.000000 4.084410 0.000000 
#    z 1.066670 0.000000 2.609110 
# 
# 
# High freq. dielectric constant tensor:
#      x y z
#    x 1.836380 0.000000 0.003790 
#    y 0.000000 1.850030 0.000000 
#    z 0.003790 0.000000 1.821440 
# 
# From -- ./inp_files/204431.got.cif
#   From: 2010.06.25/outbox.cif.g09.slc.cpg/sg15_103_cif.got.tgz:204431.got - 2010.06.28 07:06:18.
