data_PCOD8153131
_publ_section_title
;
Structure prediction by ZEFSAII (Michael W. Deem and Ramdas Pophale) SiO2 
 PCOD8153131
Probable space group: C 2/C
;
_chemical_formula_sum "Si O2"
_cell_formula_units_Z 48
_cell_length_a 16.274119
_cell_length_b 7.719535
_cell_length_c 18.073868
_cell_angle_alpha 90.000000
_cell_angle_beta 96.308930
_cell_angle_gamma 90.000000
_cell_volume 2256.844210
_symmetry_space_group_name_H-M "C 2/C"
_symmetry_group_IT_number 15
_symmetry_cell_setting 'monoclinic'
loop_
_space_group_symop_operation_xyz
x,y,z
-x,y,1/2-z
-x,-y,-z
x,-y,1/2+z
1/2+x,1/2+y,z
1/2-x,1/2+y,1/2-z
1/2-x,1/2-y,-z
1/2+x,1/2-y,1/2+z
loop_
_atom_site_type_symbol
_atom_site_label
_atom_site_fract_x
_atom_site_fract_y
_atom_site_fract_z
Si Si1 0.959737 0.925973 0.667086
Si Si2 0.441443 0.243845 0.364992
Si Si3 0.664880 0.106444 0.273954
Si Si4 0.565798 0.937218 0.388899
Si Si5 0.319039 0.863938 0.968569
Si Si6 0.723297 0.553514 0.838311
O O1 0.974052 0.754253 0.619217
O O2 0.000000 0.894966 0.750000
O O3 0.862206 0.951887 0.664455
O O4 0.001480 0.087145 0.629305
O O5 0.400300 0.218979 0.280394
O O6 0.371470 0.264274 0.420668
O O7 0.493383 0.074787 0.391277
O O8 0.710608 0.240404 0.333099
O O9 0.616420 0.967232 0.318211
O O10 0.730853 0.005706 0.231609
O O11 0.624720 0.956805 0.465215
O O12 0.278486 0.015426 0.915487
O O13 0.250000 0.750000 0.000000
#
# Coordination Sequence:
#
# PCOD8153131 Si02
#       6
#     8   8   8   8   8   8
#     4  12  22  40  71 101 130 177 232 280 338 392
#     4  11  24  46  67  99 138 174 229 288 329 398
#     4  11  23  43  71 101 139 171 231 289 333 403
#     4  12  24  43  70 100 138 179 224 278 342 406
#     4  11  26  46  65  98 143 179 223 279 337 414
#     4  11  23  43  67 102 135 178 220 282 340 392
#
# _framework density 21.268636000000001
#
# number of rings (size 3 to 8) (size 9 to 14) (size 15 to 20)
#    0.000    0.667    5.000    3.000    2.333    2.667 
#    0.000    0.000    0.000    0.000    0.000    0.000 
#    0.000    0.000    0.000    0.000    0.000    0.000 
#
# Total GULP energy -297780.107620 kJ/mol
# GULP energy per Si atom -12407.504484 kJ/mol
# Density = 2.122023 g / cm^3
# Si number density = 21.268636 Si / 1000 Ang^3
#
#
#
# Elastic Constant Matrix: (Units=GPa)
#
#
# Indices 1 2 3 4 5 6 
#
# 1 109.8363 34.3310 46.5499 0.0000 -0.6621 0.0000
# 2 34.3310 108.0974 24.0167 0.0000 0.2122 0.0000
# 3 46.5499 24.0167 113.5790 0.0000 1.0868 0.0000
# 4 0.0000 0.0000 0.0000 17.3709 0.0000 11.0275
# 5 -0.6621 0.2122 1.0868 0.0000 33.1033 0.0000
# 6 0.0000 0.0000 0.0000 11.0275 0.0000 31.0380
#
#
#
# Elastic Compliance Matrix: (Units=1/GPa)
#
#
# Indices 1 2 3 4 5 6 
#
# 1 0.011778 -0.002800 -0.004239 0.000000 0.000393 0.000000
# 2 -0.002800 0.010372 -0.001045 0.000000 -0.000088 0.000000
# 3 -0.004239 -0.001045 0.010767 0.000000 -0.000432 0.000000
# 4 0.000000 0.000000 0.000000 0.074333 0.000000 -0.026410
# 5 0.000393 -0.000088 -0.000432 0.000000 0.030231 0.000000
# 6 0.000000 0.000000 0.000000 -0.026410 0.000000 0.041602
#
#
# Mechanical properties :
#
#
# Convention : Reuss Voigt Hill
#
# Bulk Modulus (GPa) = 59.70074 60.14532 59.92303
# Shear Modulus (GPa) = 24.89604 31.41011 28.15308
#
# Velocity S-wave (km/s) = 3.42504 3.84712 3.64220
# Velocity P-wave (km/s) = 6.61604 6.93355 6.77665
#
# Compressibility (1/GPa) = 0.01675021
#
# Stress axis : x y z
#
# Youngs Moduli (GPa) = 84.90047 96.40938 92.87703
#
# Poissons Ratio (x) = 0.26992 0.39372
# Poissons Ratio (y) = 0.23770 0.09706
# Poissons Ratio (z) = 0.35990 0.10075
#
# Static dielectric constant tensor:
#      x y z
#    x 4.128350 0.000000 0.097580 
#    y 0.000000 3.757040 0.000000 
#    z 0.097580 0.000000 3.996040 
# 
# 
# High freq. dielectric constant tensor:
#      x y z
#    x 1.851290 0.000000 0.001300 
#    y 0.000000 1.831690 0.000000 
#    z 0.001300 0.000000 1.835490 
# 
# From -- ./inp_files/202967.got.cif
#   From: 2010.06.25/outbox.cif.g09.slc.cpg/sg15_102_cif.got.tgz:202967.got - 2010.06.28 07:06:18.
