data_PCOD8153151
_publ_section_title
;
Structure prediction by ZEFSAII (Michael W. Deem and Ramdas Pophale) SiO2 
 PCOD8153151
Probable space group: C 2/C
;
_chemical_formula_sum "Si O2"
_cell_formula_units_Z 48
_cell_length_a 25.883109
_cell_length_b 13.171144
_cell_length_c 19.385222
_cell_angle_alpha 90.000000
_cell_angle_beta 20.739479
_cell_angle_gamma 90.000000
_cell_volume 2340.239664
_symmetry_space_group_name_H-M "C 2/C"
_symmetry_group_IT_number 15
_symmetry_cell_setting 'monoclinic'
loop_
_space_group_symop_operation_xyz
x,y,z
-x,y,1/2-z
-x,-y,-z
x,-y,1/2+z
1/2+x,1/2+y,z
1/2-x,1/2+y,1/2-z
1/2-x,1/2-y,-z
1/2+x,1/2-y,1/2+z
loop_
_atom_site_type_symbol
_atom_site_label
_atom_site_fract_x
_atom_site_fract_y
_atom_site_fract_z
Si Si1 0.635053 0.726450 0.937776
Si Si2 0.794402 0.803243 0.873994
Si Si3 0.151582 0.564810 0.869377
Si Si4 0.849949 0.509381 0.477786
Si Si5 0.828292 0.735424 0.473106
Si Si6 0.645785 0.869127 0.801267
O O1 0.714009 0.744322 0.912280
O O2 0.703660 0.632182 0.810578
O O3 0.653745 0.824555 0.867591
O O4 0.466645 0.702523 0.155974
O O5 0.750000 0.750000 0.000000
O O6 0.755029 0.922679 0.921398
O O7 0.168511 0.490102 0.782331
O O8 0.129767 0.497452 0.965494
O O9 0.014457 0.642614 0.032855
O O10 0.784921 0.622107 0.550290
O O11 0.000000 0.497176 0.250000
O O12 0.750000 0.750000 0.500000
O O13 0.769888 0.819292 0.599263
O O14 0.000000 0.750464 0.250000
#
# Coordination Sequence:
#
# PCOD8153151 Si02
#       6
#     8   8   8   8   8   8
#     4  12  24  45  69 102 136 180 230 285 347 404
#     4  12  27  45  70 100 139 180 232 290 345 417
#     4  11  24  43  71 103 137 187 228 285 345 415
#     4  11  23  43  68  98 137 182 226 278 353 412
#     4  11  25  43  69  99 138 177 221 283 341 405
#     4  11  23  43  71 100 143 177 233 279 344 409
#
# _framework density 20.510719000000002
#
# number of rings (size 3 to 8) (size 9 to 14) (size 15 to 20)
#    0.000    0.667    5.000    3.500    0.000    3.333 
#    0.000    0.000    0.000    0.000    0.000    0.000 
#    0.000    0.000    0.000    0.000    0.000    0.000 
#
# Total GULP energy -297589.288967 kJ/mol
# GULP energy per Si atom -12399.553707 kJ/mol
# Density = 2.046404 g / cm^3
# Si number density = 20.510719 Si / 1000 Ang^3
#
#
#
# Elastic Constant Matrix: (Units=GPa)
#
#
# Indices 1 2 3 4 5 6 
#
# 1 124.9458 40.3707 74.2286 0.0012 4.0479 -0.0003
# 2 40.3707 113.4027 67.2433 0.0003 5.5304 -0.0001
# 3 74.2286 67.2433 153.6342 0.0000 -6.5765 -0.0003
# 4 0.0012 0.0003 0.0000 14.5602 -0.0006 -5.8530
# 5 4.0479 5.5304 -6.5765 -0.0006 35.4370 0.0002
# 6 -0.0003 -0.0001 -0.0003 -5.8530 0.0002 41.4328
#
#
#
# Elastic Compliance Matrix: (Units=1/GPa)
#
#
# Indices 1 2 3 4 5 6 
#
# 1 0.011476 -0.000862 -0.005260 -0.000001 -0.002153 0.000000
# 2 -0.000862 0.012266 -0.005070 0.000000 -0.002757 0.000000
# 3 -0.005260 -0.005070 0.011420 0.000001 0.003511 0.000000
# 4 -0.000001 0.000000 0.000001 0.072815 0.000001 0.010286
# 5 -0.002153 -0.002757 0.003511 0.000001 0.029547 0.000000
# 6 0.000000 0.000000 0.000000 0.010286 0.000000 0.025589
#
#
# Mechanical properties :
#
#
# Convention : Reuss Voigt Hill
#
# Bulk Modulus (GPa) = 78.25685 83.96307 81.10996
# Shear Modulus (GPa) = 26.34966 32.29535 29.32250
#
# Velocity S-wave (km/s) = 3.58813 3.97238 3.78513
# Velocity P-wave (km/s) = 7.44333 7.87812 7.66381
#
# Compressibility (1/GPa) = 0.01277843
#
# Stress axis : x y z
#
# Youngs Moduli (GPa) = 87.13512 81.52767 87.56763
#
# Poissons Ratio (x) = 0.07025 0.46059
# Poissons Ratio (y) = 0.07508 0.44399
# Poissons Ratio (z) = 0.45832 0.41336
#
# Static dielectric constant tensor:
#      x y z
#    x 10.822360 0.000020 1.434340 
#    y 0.000020 3.894920 0.000000 
#    z 1.434340 0.000000 3.945300 
# 
# 
# High freq. dielectric constant tensor:
#      x y z
#    x 1.815350 0.000000 0.006020 
#    y 0.000000 1.813150 0.000000 
#    z 0.006020 0.000000 1.802870 
# 
# From -- ./inp_files/66397.got.cif
#   From: 2010.06.25/outbox.cif.g09.slc.cpg/sg15_34_cif.got.tgz:66397.got - 2010.06.28 07:06:18.
