data_PCOD8153118
_publ_section_title
;
Structure prediction by ZEFSAII (Michael W. Deem and Ramdas Pophale) SiO2 
 PCOD8153118
Probable space group: C 2/C
;
_chemical_formula_sum "Si O2"
_cell_formula_units_Z 40
_cell_length_a 10.513930
_cell_length_b 8.687775
_cell_length_c 20.657008
_cell_angle_alpha 90.000000
_cell_angle_beta 106.543275
_cell_angle_gamma 90.000000
_cell_volume 1808.759103
_symmetry_space_group_name_H-M "C 2/C"
_symmetry_group_IT_number 15
_symmetry_cell_setting 'monoclinic'
loop_
_space_group_symop_operation_xyz
x,y,z
-x,y,1/2-z
-x,-y,-z
x,-y,1/2+z
1/2+x,1/2+y,z
1/2-x,1/2+y,1/2-z
1/2-x,1/2-y,-z
1/2+x,1/2-y,1/2+z
loop_
_atom_site_type_symbol
_atom_site_label
_atom_site_fract_x
_atom_site_fract_y
_atom_site_fract_z
Si Si1 0.186404 0.915176 0.500957
Si Si2 0.126981 0.959984 0.225895
Si Si3 0.995326 0.114014 0.408675
Si Si4 0.454680 0.961257 0.066920
Si Si5 0.096165 0.601340 0.205065
O O1 0.250000 0.750000 0.500000
O O2 0.063047 0.889036 0.528641
O O3 0.127375 0.003325 0.428395
O O4 0.296872 0.022978 0.548599
O O5 0.130960 0.779058 0.216434
O O6 0.000000 0.010168 0.250000
O O7 0.266985 0.006339 0.277322
O O8 0.112648 0.051745 0.156982
O O9 0.022825 0.292682 0.400220
O O10 0.525233 0.080058 0.125669
O O11 0.500000 0.000000 0.000000
O O12 0.000000 0.547405 0.250000
#
# Coordination Sequence:
#
# PCOD8153118 Si02
#       5
#     8   8   8   8   8
#     4  11  23  43  65  96 140 174 219 277 341 403
#     4  11  26  45  73  99 136 182 232 285 342 413
#     4  11  25  42  68 100 132 181 224 277 342 403
#     4  12  25  42  70 102 137 177 226 281 340 408
#     4  11  26  48  69  99 140 183 230 284 347 414
#
# _framework density 22.114609999999999
#
# number of rings (size 3 to 8) (size 9 to 14) (size 15 to 20)
#    0.000    0.800    2.000    4.200    5.600    8.000 
#    0.000    0.000    0.000    0.000    0.000    0.000 
#    0.000    0.000    0.000    0.000    0.000    0.000 
#
# Total GULP energy -247947.262209 kJ/mol
# GULP energy per Si atom -12397.363110 kJ/mol
# Density = 2.206428 g / cm^3
# Si number density = 22.114610 Si / 1000 Ang^3
#
#
#
# Elastic Constant Matrix: (Units=GPa)
#
#
# Indices 1 2 3 4 5 6 
#
# 1 91.2595 30.8414 19.3516 0.0000 12.2466 0.0000
# 2 30.8414 94.0267 9.3968 0.0000 -3.0109 0.0000
# 3 19.3516 9.3968 105.3811 0.0000 8.4014 0.0000
# 4 0.0000 0.0000 0.0000 40.9150 0.0000 8.0820
# 5 12.2466 -3.0109 8.4014 0.0000 38.4583 0.0000
# 6 0.0000 0.0000 0.0000 8.0820 0.0000 37.7297
#
#
#
# Elastic Compliance Matrix: (Units=1/GPa)
#
#
# Indices 1 2 3 4 5 6 
#
# 1 0.013358 -0.004344 -0.001730 0.000000 -0.004216 0.000000
# 2 -0.004344 0.012187 -0.000484 0.000000 0.002443 0.000000
# 3 -0.001730 -0.000484 0.009983 0.000000 -0.001668 0.000000
# 4 0.000000 0.000000 0.000000 0.025521 0.000000 -0.005467
# 5 -0.004216 0.002443 -0.001668 0.000000 0.027900 0.000000
# 6 0.000000 0.000000 0.000000 -0.005467 0.000000 0.027675
#
#
# Mechanical properties :
#
#
# Convention : Reuss Voigt Hill
#
# Bulk Modulus (GPa) = 44.61547 45.53854 45.07700
# Shear Modulus (GPa) = 36.44048 38.82577 37.63312
#
# Velocity S-wave (km/s) = 4.06372 4.19461 4.12968
# Velocity P-wave (km/s) = 6.49899 6.64051 6.57013
#
# Compressibility (1/GPa) = 0.02241375
#
# Stress axis : x y z
#
# Youngs Moduli (GPa) = 74.85994 82.05712 100.16930
#
# Poissons Ratio (x) = 0.35644 0.17325
# Poissons Ratio (y) = 0.32517 0.04846
# Poissons Ratio (z) = 0.12948 0.03970
#
# Static dielectric constant tensor:
#      x y z
#    x 3.422350 0.000000 -0.213180 
#    y 0.000000 2.435640 0.000000 
#    z -0.213180 0.000000 3.768620 
# 
# 
# High freq. dielectric constant tensor:
#      x y z
#    x 1.875030 0.000000 0.016440 
#    y 0.000000 1.887630 0.000000 
#    z 0.016440 0.000000 1.874200 
# 
# From -- ./inp_files/267883.got.cif
#   From: 2010.06.25/outbox.cif.g09.slc.cpg/sg15_134_cif.got.tgz:267883.got - 2010.06.28 07:06:18.
