data_PCOD8153236
_publ_section_title
;
Structure prediction by ZEFSAII (Michael W. Deem and Ramdas Pophale) SiO2 
 PCOD8153236
Probable space group: C 2/C
;
_chemical_formula_sum "Si O2"
_cell_formula_units_Z 44
_cell_length_a 14.672539
_cell_length_b 10.814124
_cell_length_c 13.372792
_cell_angle_alpha 90.000000
_cell_angle_beta 98.568051
_cell_angle_gamma 90.000000
_cell_volume 2098.188789
_symmetry_space_group_name_H-M "C 2/C"
_symmetry_group_IT_number 15
_symmetry_cell_setting 'monoclinic'
loop_
_space_group_symop_operation_xyz
x,y,z
-x,y,1/2-z
-x,-y,-z
x,-y,1/2+z
1/2+x,1/2+y,z
1/2-x,1/2+y,1/2-z
1/2-x,1/2-y,-z
1/2+x,1/2-y,1/2+z
loop_
_atom_site_type_symbol
_atom_site_label
_atom_site_fract_x
_atom_site_fract_y
_atom_site_fract_z
Si Si1 0.707150 0.191551 0.396550
Si Si2 0.000000 0.692066 0.750000
Si Si3 0.080403 0.480586 0.436883
Si Si4 0.400459 0.666348 0.773312
Si Si5 0.793468 0.679625 0.416179
Si Si6 0.351076 0.610738 0.272991
O O1 0.750000 0.250000 0.500000
O O2 0.677843 0.304151 0.320630
O O3 0.786881 0.110021 0.359660
O O4 0.616177 0.108886 0.397115
O O5 0.949204 0.609220 0.658480
O O6 0.924651 0.778165 0.791715
O O7 0.160336 0.434882 0.522265
O O8 0.000000 0.500000 0.500000
O O9 0.500000 0.712319 0.750000
O O10 0.369872 0.737416 0.869942
O O11 0.404316 0.518944 0.786358
O O12 0.750000 0.750000 0.500000
O O13 0.712398 0.626494 0.334395
#
# Coordination Sequence:
#
# PCOD8153236 Si02
#       6
#     8   4   8   8   8   8
#     4  11  25  44  69  98 133 177 225 274 340 402
#     4  12  26  44  66 102 134 178 226 276 342 392
#     4  12  26  43  72 100 137 174 226 282 335 409
#     4  11  24  42  68 100 131 174 223 279 335 397
#     4  11  23  44  67  97 134 181 223 270 347 405
#     4  11  24  44  68  95 140 175 225 280 334 407
#
# _framework density 20.970466999999999
#
# number of rings (size 3 to 8) (size 9 to 14) (size 15 to 20)
#    0.000    0.727    2.727    4.364    8.909    0.000 
#    0.000    2.727    0.000    0.000    0.000    0.000 
#    0.000    0.000    0.000    0.000    0.000    0.000 
#
# Total GULP energy -272781.964468 kJ/mol
# GULP energy per Si atom -12399.180203 kJ/mol
# Density = 2.092274 g / cm^3
# Si number density = 20.970467 Si / 1000 Ang^3
#
#
#
# Elastic Constant Matrix: (Units=GPa)
#
#
# Indices 1 2 3 4 5 6 
#
# 1 102.0621 13.7564 22.5852 0.0000 -20.8034 0.0000
# 2 13.7564 86.0494 22.4636 0.0000 -0.7333 0.0000
# 3 22.5852 22.4636 112.0544 0.0000 -4.3784 0.0000
# 4 0.0000 0.0000 0.0000 25.6294 0.0000 3.6952
# 5 -20.8034 -0.7333 -4.3784 0.0000 49.7683 0.0000
# 6 0.0000 0.0000 0.0000 3.6952 0.0000 50.8193
#
#
#
# Elastic Compliance Matrix: (Units=1/GPa)
#
#
# Indices 1 2 3 4 5 6 
#
# 1 0.011306 -0.001288 -0.001843 0.000000 0.004545 0.000000
# 2 -0.001288 0.012410 -0.002250 0.000000 -0.000553 0.000000
# 3 -0.001843 -0.002250 0.009749 0.000000 0.000054 0.000000
# 4 0.000000 0.000000 0.000000 0.039431 0.000000 -0.002867
# 5 0.004545 -0.000553 0.000054 0.000000 0.021989 0.000000
# 6 0.000000 0.000000 0.000000 -0.002867 0.000000 0.019886
#
#
# Mechanical properties :
#
#
# Convention : Reuss Voigt Hill
#
# Bulk Modulus (GPa) = 44.04641 46.41961 45.23301
# Shear Modulus (GPa) = 37.56588 41.33410 39.44999
#
# Velocity S-wave (km/s) = 4.23705 4.44448 4.34200
# Velocity P-wave (km/s) = 6.70719 6.96575 6.83769
#
# Compressibility (1/GPa) = 0.02270332
#
# Stress axis : x y z
#
# Youngs Moduli (GPa) = 88.45093 80.58216 102.57607
#
# Poissons Ratio (x) = 0.10375 0.18905
# Poissons Ratio (y) = 0.11388 0.23078
# Poissons Ratio (z) = 0.16302 0.18130
#
# Static dielectric constant tensor:
#      x y z
#    x 3.859880 0.000000 -0.182610 
#    y 0.000000 3.786810 0.000000 
#    z -0.182610 0.000000 3.854470 
# 
# 
# High freq. dielectric constant tensor:
#      x y z
#    x 1.839200 0.000000 -0.006520 
#    y 0.000000 1.827260 0.000000 
#    z -0.006520 0.000000 1.831280 
# 
# From -- ./inp_files/95061.got.cif
#   From: 2010.06.25/outbox.cif.g09.slc.cpg/sg15_48_cif.got.tgz:95061.got - 2010.06.28 07:06:18.
