data_PCOD8153361
_publ_section_title
;
Structure prediction by ZEFSAII (Michael W. Deem and Ramdas Pophale) SiO2 
 PCOD8153361
Probable space group: C 2/C
;
_chemical_formula_sum "Si O2"
_cell_formula_units_Z 48
_cell_length_a 22.463740
_cell_length_b 13.247191
_cell_length_c 10.243021
_cell_angle_alpha 90.000000
_cell_angle_beta 137.997299
_cell_angle_gamma 90.000000
_cell_volume 2039.705923
_symmetry_space_group_name_H-M "C 2/C"
_symmetry_group_IT_number 15
_symmetry_cell_setting 'monoclinic'
loop_
_space_group_symop_operation_xyz
x,y,z
-x,y,1/2-z
-x,-y,-z
x,-y,1/2+z
1/2+x,1/2+y,z
1/2-x,1/2+y,1/2-z
1/2-x,1/2-y,-z
1/2+x,1/2-y,1/2+z
loop_
_atom_site_type_symbol
_atom_site_label
_atom_site_fract_x
_atom_site_fract_y
_atom_site_fract_z
Si Si1 0.356210 0.384480 0.507373
Si Si2 0.763604 0.673941 0.904909
Si Si3 0.563628 0.221580 0.463126
Si Si4 0.258166 0.048068 0.464574
Si Si5 0.069135 0.947437 0.518073
Si Si6 0.577026 0.816857 0.277816
O O1 0.330156 0.336286 0.324744
O O2 0.263975 0.422718 0.422073
O O3 0.420241 0.481491 0.592852
O O4 0.406985 0.303041 0.679097
O O5 0.793272 0.566148 0.011847
O O6 0.750000 0.750000 0.000000
O O7 0.835393 0.715727 0.920333
O O8 0.500000 0.169785 0.250000
O O9 0.532944 0.337854 0.422472
O O10 0.551465 0.166231 0.583806
O O11 0.167322 0.064991 0.238530
O O12 0.334876 0.122271 0.537724
O O13 0.000000 0.000000 0.500000
O O14 0.500000 0.854199 0.250000
#
# Coordination Sequence:
#
# PCOD8153361 Si02
#       6
#     8   8   8   8   8   8
#     4  11  23  45  73 105 143 193 249 306 372 455
#     4  11  26  46  73 107 144 191 241 312 387 446
#     4  12  27  46  68 109 152 187 249 319 373 445
#     4  11  24  47  74 103 144 196 248 305 370 460
#     4  11  25  41  72 111 146 185 244 311 383 446
#     4  12  26  48  75 104 146 205 256 301 373 458
#
# _framework density 23.532803999999999
#
# number of rings (size 3 to 8) (size 9 to 14) (size 15 to 20)
#    0.000    0.667    3.333    3.500    9.333    2.000 
#    0.000    1.667    0.000    0.000    0.000    0.000 
#    0.000    0.000    0.000    0.000    0.000    0.000 
#
# Total GULP energy -297666.501443 kJ/mol
# GULP energy per Si atom -12402.770893 kJ/mol
# Density = 2.347924 g / cm^3
# Si number density = 23.532804 Si / 1000 Ang^3
#
#
#
# Elastic Constant Matrix: (Units=GPa)
#
#
# Indices 1 2 3 4 5 6 
#
# 1 173.6311 29.5535 42.4638 0.0000 8.9637 0.0000
# 2 29.5535 76.8692 12.3047 0.0000 1.9321 0.0000
# 3 42.4638 12.3047 104.3039 0.0000 -8.6624 0.0000
# 4 0.0000 0.0000 0.0000 18.1898 0.0000 -0.3209
# 5 8.9637 1.9321 -8.6624 0.0000 46.7270 0.0000
# 6 0.0000 0.0000 0.0000 -0.3209 0.0000 45.7049
#
#
#
# Elastic Compliance Matrix: (Units=1/GPa)
#
#
# Indices 1 2 3 4 5 6 
#
# 1 0.006875 -0.002170 -0.002686 0.000000 -0.001727 0.000000
# 2 -0.002170 0.013978 -0.000791 0.000000 -0.000308 0.000000
# 3 -0.002686 -0.000791 0.010989 0.000000 0.002585 0.000000
# 4 0.000000 0.000000 0.000000 0.054983 0.000000 0.000386
# 5 -0.001727 -0.000308 0.002585 0.000000 0.022224 0.000000
# 6 0.000000 0.000000 0.000000 0.000386 0.000000 0.021882
#
#
# Mechanical properties :
#
#
# Convention : Reuss Voigt Hill
#
# Bulk Modulus (GPa) = 48.66881 58.16091 53.41486
# Shear Modulus (GPa) = 33.54036 40.15647 36.84842
#
# Velocity S-wave (km/s) = 3.77936 4.13535 3.96135
# Velocity P-wave (km/s) = 6.30642 6.89710 6.60836
#
# Compressibility (1/GPa) = 0.02054704
#
# Stress axis : x y z
#
# Youngs Moduli (GPa) = 145.45936 71.54252 90.99964
#
# Poissons Ratio (x) = 0.15523 0.24445
# Poissons Ratio (y) = 0.31560 0.07200
# Poissons Ratio (z) = 0.39075 0.05661
#
# Static dielectric constant tensor:
#      x y z
#    x 4.519480 0.000000 -0.091770 
#    y 0.000000 4.279880 0.000000 
#    z -0.091770 0.000000 4.067740 
# 
# 
# High freq. dielectric constant tensor:
#      x y z
#    x 1.944840 0.000000 -0.005060 
#    y 0.000000 1.924820 0.000000 
#    z -0.005060 0.000000 1.931500 
# 
# From -- ./inp_files/112995.got.cif
#   From: 2010.06.25/outbox.cif.g09.slc.cpg/sg15_57_cif.got.tgz:112995.got - 2010.06.28 07:06:18.
