data_PCOD8153669
_publ_section_title
;
Structure prediction by ZEFSAII (Michael W. Deem and Ramdas Pophale) SiO2 
 PCOD8153669
Probable space group: C 2/C
;
_chemical_formula_sum "Si O2"
_cell_formula_units_Z 40
_cell_length_a 15.741301
_cell_length_b 9.450758
_cell_length_c 12.681390
_cell_angle_alpha 90.000000
_cell_angle_beta 98.751973
_cell_angle_gamma 90.000000
_cell_volume 1864.608447
_symmetry_space_group_name_H-M "C 2/C"
_symmetry_group_IT_number 15
_symmetry_cell_setting 'monoclinic'
loop_
_space_group_symop_operation_xyz
x,y,z
-x,y,1/2-z
-x,-y,-z
x,-y,1/2+z
1/2+x,1/2+y,z
1/2-x,1/2+y,1/2-z
1/2-x,1/2-y,-z
1/2+x,1/2-y,1/2+z
loop_
_atom_site_type_symbol
_atom_site_label
_atom_site_fract_x
_atom_site_fract_y
_atom_site_fract_z
Si Si1 0.405776 0.828441 0.269409
Si Si2 0.717943 0.892218 0.443170
Si Si3 0.421128 0.935088 0.925200
Si Si4 0.993779 0.146934 0.872683
Si Si5 0.622395 0.593240 0.070431
O O1 0.500000 0.774108 0.250000
O O2 0.339135 0.835133 0.162877
O O3 0.365392 0.729824 0.353240
O O4 0.413000 0.989113 0.311514
O O5 0.750000 0.750000 0.500000
O O6 0.661622 0.970546 0.520284
O O7 0.790141 0.004214 0.422147
O O8 0.434331 0.767938 0.912630
O O9 0.500000 0.000000 0.000000
O O10 0.000000 0.176116 0.750000
O O11 0.949038 0.997955 0.883252
O O12 0.087260 0.141625 0.948185
#
# Coordination Sequence:
#
# PCOD8153669 Si02
#       5
#     8   8   8   8   8
#     4  12  26  47  76 100 144 191 234 294 355 418
#     4  12  28  47  71 102 150 182 238 295 349 419
#     4  12  24  48  70 104 139 188 234 286 354 420
#     4  11  24  43  76 102 141 186 232 285 352 424
#     4  11  26  45  70 109 139 183 239 287 349 422
#
# _framework density 21.452226
#
# number of rings (size 3 to 8) (size 9 to 14) (size 15 to 20)
#    0.000    0.400    6.000    1.200    8.400    0.800 
#    0.000    0.000    0.000    0.000    0.000    0.000 
#    0.000    0.000    0.000    0.000    0.000    0.000 
#
# Total GULP energy -248019.447109 kJ/mol
# GULP energy per Si atom -12400.972355 kJ/mol
# Density = 2.140340 g / cm^3
# Si number density = 21.452226 Si / 1000 Ang^3
#
#
#
# Elastic Constant Matrix: (Units=GPa)
#
#
# Indices 1 2 3 4 5 6 
#
# 1 134.7234 31.6057 62.3117 0.0000 6.1614 0.0000
# 2 31.6057 96.4599 37.2991 0.0000 7.0493 0.0000
# 3 62.3117 37.2991 157.5154 0.0000 20.5083 0.0000
# 4 0.0000 0.0000 0.0000 44.7318 0.0000 -4.0449
# 5 6.1614 7.0493 20.5083 0.0000 40.3400 0.0000
# 6 0.0000 0.0000 0.0000 -4.0449 0.0000 29.3906
#
#
#
# Elastic Compliance Matrix: (Units=1/GPa)
#
#
# Indices 1 2 3 4 5 6 
#
# 1 0.009374 -0.001817 -0.003355 0.000000 0.000591 0.000000
# 2 -0.001817 0.011781 -0.001969 0.000000 -0.000780 0.000000
# 3 -0.003355 -0.001969 0.008600 0.000000 -0.003515 0.000000
# 4 0.000000 0.000000 0.000000 0.022637 0.000000 0.003115
# 5 0.000591 -0.000780 -0.003515 0.000000 0.026623 0.000000
# 6 0.000000 0.000000 0.000000 0.003115 0.000000 0.034453
#
#
# Mechanical properties :
#
#
# Convention : Reuss Voigt Hill
#
# Bulk Modulus (GPa) = 64.63452 72.34796 68.49124
# Shear Modulus (GPa) = 37.62033 40.05795 38.83914
#
# Velocity S-wave (km/s) = 4.19224 4.32593 4.25961
# Velocity P-wave (km/s) = 7.32312 7.66485 7.49593
#
# Compressibility (1/GPa) = 0.01547161
#
# Stress axis : x y z
#
# Youngs Moduli (GPa) = 106.68339 84.88305 116.28298
#
# Poissons Ratio (x) = 0.15426 0.39010
# Poissons Ratio (y) = 0.19388 0.22899
# Poissons Ratio (z) = 0.35790 0.16715
#
# Static dielectric constant tensor:
#      x y z
#    x 3.698230 0.000000 0.023020 
#    y 0.000000 4.026060 0.000000 
#    z 0.023020 0.000000 3.937600 
# 
# 
# High freq. dielectric constant tensor:
#      x y z
#    x 1.837920 0.000000 0.003220 
#    y 0.000000 1.856000 0.000000 
#    z 0.003220 0.000000 1.855680 
# 
# From -- ./inp_files/102857.got.cif
#   From: 2010.06.25/outbox.cif.g09.slc.cpg/sg15_52_cif.got.tgz:102857.got - 2010.06.28 07:06:18.
