data_PCOD8153936
_publ_section_title
;
Structure prediction by ZEFSAII (Michael W. Deem and Ramdas Pophale) SiO2 
 PCOD8153936
Probable space group: C 2/C
;
_chemical_formula_sum "Si O2"
_cell_formula_units_Z 40
_cell_length_a 8.738068
_cell_length_b 18.759928
_cell_length_c 11.604062
_cell_angle_alpha 90.000000
_cell_angle_beta 77.379041
_cell_angle_gamma 90.000000
_cell_volume 1856.238875
_symmetry_space_group_name_H-M "C 2/C"
_symmetry_group_IT_number 15
_symmetry_cell_setting 'monoclinic'
loop_
_space_group_symop_operation_xyz
x,y,z
-x,y,1/2-z
-x,-y,-z
x,-y,1/2+z
1/2+x,1/2+y,z
1/2-x,1/2+y,1/2-z
1/2-x,1/2-y,-z
1/2+x,1/2-y,1/2+z
loop_
_atom_site_type_symbol
_atom_site_label
_atom_site_fract_x
_atom_site_fract_y
_atom_site_fract_z
Si Si1 0.077080 0.074214 0.949190
Si Si2 0.176902 0.289700 0.684460
Si Si3 0.168445 0.533917 0.778114
Si Si4 0.262464 0.644823 0.939221
Si Si5 0.170635 0.105589 0.178204
O O1 0.200923 0.064179 0.828377
O O2 0.945633 0.127345 0.923556
O O3 0.165429 0.111965 0.041127
O O4 0.000000 0.000000 0.000000
O O5 0.183967 0.345391 0.577319
O O6 0.256407 0.215695 0.634070
O O7 0.278110 0.319288 0.775087
O O8 0.000000 0.277054 0.750000
O O9 0.170705 0.580181 0.894417
O O10 0.202187 0.452557 0.804419
O O11 0.000000 0.539482 0.750000
O O12 0.000000 0.081352 0.250000
#
# Coordination Sequence:
#
# PCOD8153936 Si02
#       5
#     8   8   8   8   8
#     4  12  22  43  72  96 130 180 223 271 332 400
#     4  11  25  44  68  98 136 174 220 280 330 391
#     4  12  26  41  66 101 135 171 224 280 327 391
#     4  11  24  47  68  95 137 179 219 271 336 398
#     4  12  23  42  69  98 133 175 224 270 336 396
#
# _framework density 21.548950999999999
#
# number of rings (size 3 to 8) (size 9 to 14) (size 15 to 20)
#    0.000    0.400    6.000    2.400    2.800    1.600 
#    0.000    2.000    0.000    0.000    0.000    0.000 
#    0.000    0.000    0.000    0.000    0.000    0.000 
#
# Total GULP energy -248160.255339 kJ/mol
# GULP energy per Si atom -12408.012767 kJ/mol
# Density = 2.149990 g / cm^3
# Si number density = 21.548951 Si / 1000 Ang^3
#
#
#
# Elastic Constant Matrix: (Units=GPa)
#
#
# Indices 1 2 3 4 5 6 
#
# 1 85.4672 10.8383 19.8633 0.0000 14.1132 0.0000
# 2 10.8383 80.6606 16.8592 0.0000 19.9871 0.0000
# 3 19.8633 16.8592 56.3628 0.0000 25.9274 0.0000
# 4 0.0000 0.0000 0.0000 34.0327 0.0000 1.9295
# 5 14.1132 19.9871 25.9274 0.0000 42.7850 0.0000
# 6 0.0000 0.0000 0.0000 1.9295 0.0000 17.3560
#
#
#
# Elastic Compliance Matrix: (Units=1/GPa)
#
#
# Indices 1 2 3 4 5 6 
#
# 1 0.012896 -0.000533 -0.003526 0.000000 -0.001868 0.000000
# 2 -0.000533 0.014152 -0.001504 0.000000 -0.005524 0.000000
# 3 -0.003526 -0.001504 0.025756 0.000000 -0.013742 0.000000
# 4 0.000000 0.000000 0.000000 0.029570 0.000000 -0.003287
# 5 -0.001868 -0.005524 -0.013742 0.000000 0.034897 0.000000
# 6 0.000000 0.000000 0.000000 -0.003287 0.000000 0.057982
#
#
# Mechanical properties :
#
#
# Convention : Reuss Voigt Hill
#
# Bulk Modulus (GPa) = 23.99334 35.29026 29.64180
# Shear Modulus (GPa) = 24.96585 30.49674 27.73129
#
# Velocity S-wave (km/s) = 3.40746 3.76604 3.59123
# Velocity P-wave (km/s) = 5.16135 5.94332 5.56609
#
# Compressibility (1/GPa) = 0.04167824
#
# Stress axis : x y z
#
# Youngs Moduli (GPa) = 77.54382 70.65912 38.82527
#
# Poissons Ratio (x) = 0.03765 0.13690
# Poissons Ratio (y) = 0.04132 0.05841
# Poissons Ratio (z) = 0.27342 0.10630
#
# Static dielectric constant tensor:
#      x y z
#    x 4.189740 0.000000 0.001290 
#    y 0.000000 3.869370 0.000000 
#    z 0.001290 0.000000 4.253410 
# 
# 
# High freq. dielectric constant tensor:
#      x y z
#    x 1.841910 0.000000 0.006740 
#    y 0.000000 1.843760 0.000000 
#    z 0.006740 0.000000 1.862990 
# 
# From -- ./inp_files/76681.got.cif
#   From: 2010.06.25/outbox.cif.g09.slc.cpg/sg15_39_cif.got.tgz:76681.got - 2010.06.28 07:06:18.
