data_PCOD8153945
_publ_section_title
;
Structure prediction by ZEFSAII (Michael W. Deem and Ramdas Pophale) SiO2 
 PCOD8153945
Probable space group: C 2/C
;
_chemical_formula_sum "Si O2"
_cell_formula_units_Z 48
_cell_length_a 15.172968
_cell_length_b 11.695629
_cell_length_c 22.754226
_cell_angle_alpha 90.000000
_cell_angle_beta 144.581262
_cell_angle_gamma 90.000000
_cell_volume 2340.159154
_symmetry_space_group_name_H-M "C 2/C"
_symmetry_group_IT_number 15
_symmetry_cell_setting 'monoclinic'
loop_
_space_group_symop_operation_xyz
x,y,z
-x,y,1/2-z
-x,-y,-z
x,-y,1/2+z
1/2+x,1/2+y,z
1/2-x,1/2+y,1/2-z
1/2-x,1/2-y,-z
1/2+x,1/2-y,1/2+z
loop_
_atom_site_type_symbol
_atom_site_label
_atom_site_fract_x
_atom_site_fract_y
_atom_site_fract_z
Si Si1 0.239428 0.126524 0.467495
Si Si2 0.000000 0.962944 0.750000
Si Si3 0.000008 0.375750 0.474313
Si Si4 0.210577 0.015703 0.065234
Si Si5 0.000000 0.658730 0.250000
Si Si6 0.657564 0.345071 0.260757
Si Si7 0.087940 0.842739 0.087822
O O1 0.250000 0.250000 0.500000
O O2 0.409590 0.106968 0.537009
O O3 0.116224 0.118382 0.348167
O O4 0.191390 0.033456 0.489515
O O5 0.094454 0.039631 0.755560
O O6 0.832309 0.327370 0.372613
O O7 0.000000 0.500000 0.500000
O O8 0.086147 0.287820 0.564560
O O9 0.370809 0.078047 0.154271
O O10 0.201662 0.914509 0.108151
O O11 0.081352 0.108041 0.007707
O O12 0.939176 0.736730 0.270075
O O13 0.650660 0.350890 0.187233
#
# Coordination Sequence:
#
# PCOD8153945 Si02
#       7
#     8   4   8   8   4   8   8
#     4  12  26  46  70 103 144 186 230 293 358 419
#     4  11  24  47  70 100 140 187 235 290 352 412
#     4  12  26  46  68 107 142 183 234 286 354 416
#     4  11  25  46  69 103 142 181 230 290 350 414
#     4  11  26  43  74 106 136 185 239 280 344 420
#     4  11  25  44  73 103 137 186 237 287 344 419
#     4  11  25  47  70 101 143 183 229 292 350 411
#
# _framework density 20.511424999999999
#
# number of rings (size 3 to 8) (size 9 to 14) (size 15 to 20)
#    0.000    0.667    6.667    0.000    4.667    2.667 
#    0.000    0.000    0.000    0.000    0.000    0.000 
#    0.000    0.000    0.000    0.000    0.000    0.000 
#
# Total GULP energy -297692.738747 kJ/mol
# GULP energy per Si atom -12403.864114 kJ/mol
# Density = 2.046474 g / cm^3
# Si number density = 20.511425 Si / 1000 Ang^3
#
#
#
# Elastic Constant Matrix: (Units=GPa)
#
#
# Indices 1 2 3 4 5 6 
#
# 1 139.0173 52.1798 47.2300 0.0000 -4.4750 0.0000
# 2 52.1798 141.2491 55.6487 0.0000 -7.5911 0.0000
# 3 47.2300 55.6487 122.8458 0.0001 -4.1057 0.0001
# 4 0.0000 0.0000 0.0001 36.4393 0.0001 0.7403
# 5 -4.4750 -7.5911 -4.1057 0.0001 42.8235 0.0000
# 6 0.0000 0.0000 0.0001 0.7403 0.0000 31.8811
#
#
#
# Elastic Compliance Matrix: (Units=1/GPa)
#
#
# Indices 1 2 3 4 5 6 
#
# 1 0.008877 -0.002341 -0.002343 0.000000 0.000288 0.000000
# 2 -0.002341 0.009292 -0.003273 0.000000 0.001089 0.000000
# 3 -0.002343 -0.003273 0.010530 0.000000 0.000185 0.000000
# 4 0.000000 0.000000 0.000000 0.027456 0.000000 -0.000638
# 5 0.000288 0.001089 0.000185 0.000000 0.023592 0.000000
# 6 0.000000 0.000000 0.000000 -0.000638 0.000000 0.031381
#
#
# Mechanical properties :
#
#
# Convention : Reuss Voigt Hill
#
# Bulk Modulus (GPa) = 78.21151 79.24770 78.72960
# Shear Modulus (GPa) = 38.07925 38.76570 38.42248
#
# Velocity S-wave (km/s) = 4.31337 4.35208 4.33277
# Velocity P-wave (km/s) = 7.93854 7.99837 7.96851
#
# Compressibility (1/GPa) = 0.01278584
#
# Stress axis : x y z
#
# Youngs Moduli (GPa) = 112.64732 107.61395 94.96721
#
# Poissons Ratio (x) = 0.25191 0.22251
# Poissons Ratio (y) = 0.26369 0.31084
# Poissons Ratio (z) = 0.26393 0.35223
#
# Static dielectric constant tensor:
#      x y z
#    x 4.095580 0.000000 -0.318810 
#    y 0.000000 3.815190 0.000000 
#    z -0.318810 0.000000 4.467160 
# 
# 
# High freq. dielectric constant tensor:
#      x y z
#    x 1.823170 0.000000 0.002940 
#    y 0.000000 1.812420 0.000000 
#    z 0.002940 0.000000 1.797680 
# 
# From -- ./inp_files/152766.got.cif
#   From: 2010.06.25/outbox.cif.g09.slc.cpg/sg15_77_cif.got.tgz:152766.got - 2010.06.28 07:06:18.
