data_PCOD8153109
_publ_section_title
;
Structure prediction by ZEFSAII (Michael W. Deem and Ramdas Pophale) SiO2 
 PCOD8153109
Probable space group: C 2/C
;
_chemical_formula_sum "Si O2"
_cell_formula_units_Z 40
_cell_length_a 10.444279
_cell_length_b 8.755170
_cell_length_c 20.666107
_cell_angle_alpha 90.000000
_cell_angle_beta 77.898813
_cell_angle_gamma 90.000000
_cell_volume 1847.746465
_symmetry_space_group_name_H-M "C 2/C"
_symmetry_group_IT_number 15
_symmetry_cell_setting 'monoclinic'
loop_
_space_group_symop_operation_xyz
x,y,z
-x,y,1/2-z
-x,-y,-z
x,-y,1/2+z
1/2+x,1/2+y,z
1/2-x,1/2+y,1/2-z
1/2-x,1/2-y,-z
1/2+x,1/2-y,1/2+z
loop_
_atom_site_type_symbol
_atom_site_label
_atom_site_fract_x
_atom_site_fract_y
_atom_site_fract_z
Si Si1 0.908456 0.039627 0.070760
Si Si2 0.368717 0.052498 0.224624
Si Si3 0.690870 0.083168 0.516513
Si Si4 0.103714 0.090101 0.794772
Si Si5 0.396222 0.104871 0.586689
O O1 0.884640 0.215427 0.085981
O O2 0.764075 0.982753 0.070424
O O3 0.962031 0.954277 0.129237
O O4 0.000000 0.000000 0.000000
O O5 0.500000 0.010842 0.250000
O O6 0.364149 0.231304 0.209219
O O7 0.237077 0.007908 0.276772
O O8 0.365154 0.952637 0.160923
O O9 0.750000 0.250000 0.500000
O O10 0.542129 0.068838 0.551232
O O11 0.707239 0.979746 0.450158
O O12 0.000000 0.045805 0.750000
#
# Coordination Sequence:
#
# PCOD8153109 Si02
#       5
#     8   8   8   8   8
#     4  12  25  43  69 102 140 181 227 281 347 411
#     4  11  25  47  72  99 140 182 238 289 352 418
#     4  11  23  43  65 100 139 177 226 281 343 408
#     4  11  27  46  71 102 139 185 235 291 350 420
#     4  11  25  41  70  99 135 184 226 286 344 410
#
# _framework density 21.647991999999999
#
# number of rings (size 3 to 8) (size 9 to 14) (size 15 to 20)
#    0.000    0.800    2.000    4.200    5.600    6.400 
#    0.000    0.000    0.000    0.000    0.000    0.000 
#    0.000    0.000    0.000    0.000    0.000    0.000 
#
# Total GULP energy -247976.954678 kJ/mol
# GULP energy per Si atom -12398.847734 kJ/mol
# Density = 2.159872 g / cm^3
# Si number density = 21.647992 Si / 1000 Ang^3
#
#
#
# Elastic Constant Matrix: (Units=GPa)
#
#
# Indices 1 2 3 4 5 6 
#
# 1 106.2115 40.1372 44.9826 0.0000 15.2995 0.0000
# 2 40.1372 144.2460 61.7707 0.0000 17.3587 0.0000
# 3 44.9826 61.7707 158.0948 0.0000 18.5852 0.0000
# 4 0.0000 0.0000 0.0000 44.1558 0.0000 3.7593
# 5 15.2995 17.3587 18.5852 0.0000 41.1629 0.0000
# 6 0.0000 0.0000 0.0000 3.7593 0.0000 34.3971
#
#
#
# Elastic Compliance Matrix: (Units=1/GPa)
#
#
# Indices 1 2 3 4 5 6 
#
# 1 0.011435 -0.001943 -0.002208 0.000000 -0.002434 0.000000
# 2 -0.001943 0.008841 -0.002691 0.000000 -0.001791 0.000000
# 3 -0.002208 -0.002691 0.008211 0.000000 -0.001752 0.000000
# 4 0.000000 0.000000 0.000000 0.022860 0.000000 -0.002498
# 5 -0.002434 -0.001791 -0.001752 0.000000 0.026745 0.000000
# 6 0.000000 0.000000 0.000000 -0.002498 0.000000 0.029345
#
#
# Mechanical properties :
#
#
# Convention : Reuss Voigt Hill
#
# Bulk Modulus (GPa) = 67.55677 78.03703 72.79690
# Shear Modulus (GPa) = 39.66473 41.38729 40.52601
#
# Velocity S-wave (km/s) = 4.28513 4.37719 4.33141
# Velocity P-wave (km/s) = 7.46712 7.85321 7.66259
#
# Compressibility (1/GPa) = 0.01480237
#
# Stress axis : x y z
#
# Youngs Moduli (GPa) = 87.44769 113.10613 121.78840
#
# Poissons Ratio (x) = 0.21981 0.26894
# Poissons Ratio (y) = 0.16995 0.32772
# Poissons Ratio (z) = 0.19311 0.30436
#
# Static dielectric constant tensor:
#      x y z
#    x 4.187080 0.000000 0.240760 
#    y 0.000000 7.170800 0.000000 
#    z 0.240760 0.000000 4.322480 
# 
# 
# High freq. dielectric constant tensor:
#      x y z
#    x 1.860330 0.000000 0.008080 
#    y 0.000000 1.865760 0.000000 
#    z 0.008080 0.000000 1.863990 
# 
# From -- ./inp_files/195071.got.cif
#   From: 2010.06.25/outbox.cif.g09.slc.cpg/sg15_98_cif.got.tgz:195071.got - 2010.06.28 07:06:18.
