data_PCOD8153875
_publ_section_title
;
Structure prediction by ZEFSAII (Michael W. Deem and Ramdas Pophale) SiO2 
 PCOD8153875
Probable space group: C 2/C
;
_chemical_formula_sum "Si O2"
_cell_formula_units_Z 48
_cell_length_a 8.691712
_cell_length_b 14.006598
_cell_length_c 29.080943
_cell_angle_alpha 90.000000
_cell_angle_beta 142.021425
_cell_angle_gamma 90.000000
_cell_volume 2178.615126
_symmetry_space_group_name_H-M "C 2/C"
_symmetry_group_IT_number 15
_symmetry_cell_setting 'monoclinic'
loop_
_space_group_symop_operation_xyz
x,y,z
-x,y,1/2-z
-x,-y,-z
x,-y,1/2+z
1/2+x,1/2+y,z
1/2-x,1/2+y,1/2-z
1/2-x,1/2-y,-z
1/2+x,1/2-y,1/2+z
loop_
_atom_site_type_symbol
_atom_site_label
_atom_site_fract_x
_atom_site_fract_y
_atom_site_fract_z
Si Si1 0.703788 0.273067 0.084271
Si Si2 0.271891 0.550816 0.320652
Si Si3 0.984853 0.848239 0.363077
Si Si4 0.533271 0.105705 0.991890
Si Si5 0.760968 0.755065 0.224038
Si Si6 0.533678 0.588383 0.474124
O O1 0.591326 0.305648 0.105946
O O2 0.996179 0.304435 0.148231
O O3 0.683856 0.159982 0.068584
O O4 0.521426 0.318665 0.002931
O O5 0.453592 0.463310 0.352021
O O6 0.282927 0.640824 0.288544
O O7 0.321787 0.588056 0.384613
O O8 0.000000 0.504957 0.250000
O O9 0.819678 0.787290 0.289320
O O10 0.278014 0.836426 0.422156
O O11 0.692087 0.096555 0.983102
O O12 0.500000 0.000000 0.000000
O O13 0.000000 0.787848 0.250000
O O14 0.500000 0.500000 0.500000
#
# Coordination Sequence:
#
# PCOD8153875 Si02
#       6
#     8   8   8   8   8   8
#     4  12  24  44  72 103 138 187 232 296 358 435
#     4  11  24  46  69  97 141 182 237 285 358 437
#     4  12  25  46  71 105 140 187 236 298 365 434
#     4  12  24  45  66 107 146 176 239 298 352 427
#     4  11  25  45  69  98 140 187 234 295 355 434
#     4  12  24  44  74 101 134 188 234 294 355 425
#
# _framework density 22.032347000000001
#
# number of rings (size 3 to 8) (size 9 to 14) (size 15 to 20)
#    0.000    0.333    5.000    3.500    4.667    0.000 
#    0.000    1.667    0.000    0.000    0.000    0.000 
#    0.000    0.000    0.000    0.000    0.000    0.000 
#
# Total GULP energy -297409.038626 kJ/mol
# GULP energy per Si atom -12392.043276 kJ/mol
# Density = 2.198220 g / cm^3
# Si number density = 22.032347 Si / 1000 Ang^3
#
#
#
# Elastic Constant Matrix: (Units=GPa)
#
#
# Indices 1 2 3 4 5 6 
#
# 1 130.3050 47.2661 62.1923 -0.0001 -0.8802 0.0000
# 2 47.2661 114.7555 58.1381 0.0000 -25.9968 0.0000
# 3 62.1923 58.1381 166.1945 -0.0002 0.6495 0.0000
# 4 -0.0001 0.0000 -0.0002 43.1921 -0.0001 -4.9194
# 5 -0.8802 -25.9968 0.6495 -0.0001 47.2494 0.0000
# 6 0.0000 0.0000 0.0000 -4.9194 0.0000 28.7069
#
#
#
# Elastic Compliance Matrix: (Units=1/GPa)
#
#
# Indices 1 2 3 4 5 6 
#
# 1 0.010076 -0.003140 -0.002666 0.000000 -0.001503 0.000000
# 2 -0.003140 0.013500 -0.003577 0.000000 0.007418 0.000000
# 3 -0.002666 -0.003577 0.008274 0.000000 -0.002131 0.000000
# 4 0.000000 0.000000 0.000000 0.023613 0.000000 0.004046
# 5 -0.001503 0.007418 -0.002131 0.000000 0.025247 0.000000
# 6 0.000000 0.000000 0.000000 0.004046 0.000000 0.035528
#
#
# Mechanical properties :
#
#
# Convention : Reuss Voigt Hill
#
# Bulk Modulus (GPa) = 76.42511 82.93868 79.68189
# Shear Modulus (GPa) = 35.87695 40.07358 37.97526
#
# Velocity S-wave (km/s) = 4.03969 4.26943 4.15615
# Velocity P-wave (km/s) = 7.51810 7.87590 7.69908
#
# Compressibility (1/GPa) = 0.01308470
#
# Stress axis : x y z
#
# Youngs Moduli (GPa) = 99.24992 74.07429 120.85644
#
# Poissons Ratio (x) = 0.23257 0.32223
# Poissons Ratio (y) = 0.31162 0.43226
# Poissons Ratio (z) = 0.26462 0.26494
#
# Static dielectric constant tensor:
#      x y z
#    x 3.892850 0.000000 0.406910 
#    y 0.000000 4.055500 0.000000 
#    z 0.406910 0.000000 4.352030 
# 
# 
# High freq. dielectric constant tensor:
#      x y z
#    x 1.861060 0.000000 0.015180 
#    y 0.000000 1.874190 0.000000 
#    z 0.015180 0.000000 1.884000 
# 
# From -- ./inp_files/289112.got.cif
#   From: 2010.06.25/outbox.cif.g09.slc.cpg/sg15_145_cif.got.tgz:289112.got - 2010.06.28 07:06:18.
