data_PCOD8153727
_publ_section_title
;
Structure prediction by ZEFSAII (Michael W. Deem and Ramdas Pophale) SiO2 
 PCOD8153727
Probable space group: C 2/C
;
_chemical_formula_sum "Si O2"
_cell_formula_units_Z 40
_cell_length_a 9.579481
_cell_length_b 14.741380
_cell_length_c 14.370318
_cell_angle_alpha 90.000000
_cell_angle_beta 69.354249
_cell_angle_gamma 90.000000
_cell_volume 1898.975956
_symmetry_space_group_name_H-M "C 2/C"
_symmetry_group_IT_number 15
_symmetry_cell_setting 'monoclinic'
loop_
_space_group_symop_operation_xyz
x,y,z
-x,y,1/2-z
-x,-y,-z
x,-y,1/2+z
1/2+x,1/2+y,z
1/2-x,1/2+y,1/2-z
1/2-x,1/2-y,-z
1/2+x,1/2-y,1/2+z
loop_
_atom_site_type_symbol
_atom_site_label
_atom_site_fract_x
_atom_site_fract_y
_atom_site_fract_z
Si Si1 0.644102 0.702356 0.097642
Si Si2 0.657236 0.510614 0.012893
Si Si3 0.825328 0.520641 0.296295
Si Si4 0.668620 0.398240 0.183030
Si Si5 0.307691 0.716656 0.201691
O O1 0.655229 0.594792 0.083555
O O2 0.473789 0.733742 0.123607
O O3 0.700286 0.729032 0.186000
O O4 0.750000 0.750000 0.000000
O O5 0.693703 0.424384 0.069297
O O6 0.500000 0.500000 0.000000
O O7 0.784323 0.524516 0.905070
O O8 0.777680 0.454554 0.224385
O O9 0.743122 0.616710 0.313668
O O10 0.000000 0.536353 0.250000
O O11 0.500000 0.420961 0.250000
O O12 0.699820 0.291226 0.182045
#
# Coordination Sequence:
#
# PCOD8153727 Si02
#       5
#     8   8   8   8   8
#     4  11  24  44  71 102 141 184 236 284 352 417
#     4  12  24  46  75 101 136 194 234 284 357 420
#     4  12  27  46  71 106 144 180 240 297 354 418
#     4  12  25  45  74 102 142 188 235 288 350 422
#     4  11  25  45  68 103 144 184 227 295 351 411
#
# _framework density 21.063984000000001
#
# number of rings (size 3 to 8) (size 9 to 14) (size 15 to 20)
#    0.000    0.400    6.000    1.800    5.600    3.200 
#    0.000    0.000    0.000    0.000    0.000    0.000 
#    0.000    0.000    0.000    0.000    0.000    0.000 
#
# Total GULP energy -248139.143081 kJ/mol
# GULP energy per Si atom -12406.957154 kJ/mol
# Density = 2.101604 g / cm^3
# Si number density = 21.063984 Si / 1000 Ang^3
#
#
#
# Elastic Constant Matrix: (Units=GPa)
#
#
# Indices 1 2 3 4 5 6 
#
# 1 84.2307 11.4349 43.9460 0.0000 -8.1761 0.0000
# 2 11.4349 91.0559 12.5809 0.0000 9.3980 0.0000
# 3 43.9460 12.5809 131.8729 0.0000 -13.9706 0.0000
# 4 0.0000 0.0000 0.0000 38.3690 0.0000 3.4143
# 5 -8.1761 9.3980 -13.9706 0.0000 32.8086 0.0000
# 6 0.0000 0.0000 0.0000 3.4143 0.0000 41.1506
#
#
#
# Elastic Compliance Matrix: (Units=1/GPa)
#
#
# Indices 1 2 3 4 5 6 
#
# 1 0.014628 -0.001434 -0.004512 0.000000 0.002135 0.000000
# 2 -0.001434 0.011744 -0.001086 0.000000 -0.004184 0.000000
# 3 -0.004512 -0.001086 0.009534 0.000000 0.003247 0.000000
# 4 0.000000 0.000000 0.000000 0.026257 0.000000 -0.002179
# 5 0.002135 -0.004184 0.003247 0.000000 0.033593 0.000000
# 6 0.000000 0.000000 0.000000 -0.002179 0.000000 0.024482
#
#
# Mechanical properties :
#
#
# Convention : Reuss Voigt Hill
#
# Bulk Modulus (GPa) = 45.78067 49.23146 47.50606
# Shear Modulus (GPa) = 35.31539 38.41215 36.86377
#
# Velocity S-wave (km/s) = 4.09904 4.27499 4.18794
# Velocity P-wave (km/s) = 6.64712 6.91306 6.78139
#
# Compressibility (1/GPa) = 0.02184328
#
# Stress axis : x y z
#
# Youngs Moduli (GPa) = 68.36208 85.14855 104.88672
#
# Poissons Ratio (x) = 0.12210 0.47322
# Poissons Ratio (y) = 0.09803 0.11388
# Poissons Ratio (z) = 0.30843 0.09245
#
# Static dielectric constant tensor:
#      x y z
#    x 3.790620 0.000000 -0.000330 
#    y 0.000000 9.831790 0.000000 
#    z -0.000330 0.000000 4.098040 
# 
# 
# High freq. dielectric constant tensor:
#      x y z
#    x 1.825970 0.000000 -0.001230 
#    y 0.000000 1.834260 0.000000 
#    z -0.001230 0.000000 1.838410 
# 
# From -- ./inp_files/133069.got.cif
#   From: 2010.06.25/outbox.cif.g09.slc.cpg/sg15_67_cif.got.tgz:133069.got - 2010.06.28 07:06:18.
