data_PCOD8153103
_publ_section_title
;
Structure prediction by ZEFSAII (Michael W. Deem and Ramdas Pophale) SiO2 
 PCOD8153103
Probable space group: C 2/C
;
_chemical_formula_sum "Si O2"
_cell_formula_units_Z 32
_cell_length_a 12.873014
_cell_length_b 13.584764
_cell_length_c 7.575190
_cell_angle_alpha 90.000000
_cell_angle_beta 94.368359
_cell_angle_gamma 90.000000
_cell_volume 1320.877049
_symmetry_space_group_name_H-M "C 2/C"
_symmetry_group_IT_number 15
_symmetry_cell_setting 'monoclinic'
loop_
_space_group_symop_operation_xyz
x,y,z
-x,y,1/2-z
-x,-y,-z
x,-y,1/2+z
1/2+x,1/2+y,z
1/2-x,1/2+y,1/2-z
1/2-x,1/2-y,-z
1/2+x,1/2-y,1/2+z
loop_
_atom_site_type_symbol
_atom_site_label
_atom_site_fract_x
_atom_site_fract_y
_atom_site_fract_z
Si Si1 0.066708 0.584384 0.598217
Si Si2 0.119025 0.118419 0.403648
Si Si3 0.399086 0.295989 0.951416
Si Si4 0.204795 0.076698 0.780972
O O1 0.081954 0.683262 0.484220
O O2 0.177078 0.539440 0.674388
O O3 0.000000 0.625568 0.750000
O O4 0.000000 0.500000 0.500000
O O5 0.148281 0.199362 0.255879
O O6 0.196209 0.118356 0.580668
O O7 0.003602 0.137899 0.464252
O O8 0.126184 0.013718 0.302593
O O9 0.317980 0.337207 0.082689
#
# Coordination Sequence:
#
# PCOD8153103 Si02
#       4
#     8   8   8   8
#     4  12  28  52  68 101 152 196 245 296 355 436
#     4  11  23  42  75 110 145 177 241 303 363 426
#     4  11  25  47  72 109 146 187 242 303 364 431
#     4  12  24  44  78 108 143 193 237 297 370 429
#
# _framework density 24.226330000000001
#
# number of rings (size 3 to 8) (size 9 to 14) (size 15 to 20)
#    0.000    0.500    5.000    3.750    3.500    3.000 
#    4.500    0.000    0.000    0.000    0.000    0.000 
#    0.000    0.000    0.000    0.000    0.000    0.000 
#
# Total GULP energy -198361.242349 kJ/mol
# GULP energy per Si atom -12397.577647 kJ/mol
# Density = 2.417119 g / cm^3
# Si number density = 24.226330 Si / 1000 Ang^3
#
#
#
# Elastic Constant Matrix: (Units=GPa)
#
#
# Indices 1 2 3 4 5 6 
#
# 1 104.8950 38.7188 49.5095 0.0000 20.6252 0.0000
# 2 38.7188 143.7148 47.7887 0.0000 15.7393 0.0000
# 3 49.5095 47.7887 166.5774 0.0000 14.6533 0.0000
# 4 0.0000 0.0000 0.0000 30.3931 0.0000 2.9452
# 5 20.6252 15.7393 14.6533 0.0000 42.9435 0.0000
# 6 0.0000 0.0000 0.0000 2.9452 0.0000 15.5588
#
#
#
# Elastic Compliance Matrix: (Units=1/GPa)
#
#
# Indices 1 2 3 4 5 6 
#
# 1 0.012397 -0.001956 -0.002745 0.000000 -0.004300 0.000000
# 2 -0.001956 0.008194 -0.001637 0.000000 -0.001505 0.000000
# 3 -0.002745 -0.001637 0.007340 0.000000 -0.000586 0.000000
# 4 0.000000 0.000000 0.000000 0.033517 0.000000 -0.006345
# 5 -0.004300 -0.001505 -0.000586 0.000000 0.026104 0.000000
# 6 0.000000 0.000000 0.000000 -0.006345 0.000000 0.065473
#
#
# Mechanical properties :
#
#
# Convention : Reuss Voigt Hill
#
# Bulk Modulus (GPa) = 65.55232 76.35791 70.95511
# Shear Modulus (GPa) = 29.27636 36.39044 32.83340
#
# Velocity S-wave (km/s) = 3.48005 3.87990 3.68540
# Velocity P-wave (km/s) = 6.57759 7.18739 6.88924
#
# Compressibility (1/GPa) = 0.01525499
#
# Stress axis : x y z
#
# Youngs Moduli (GPa) = 80.66765 122.03397 136.23415
#
# Poissons Ratio (x) = 0.23871 0.37396
# Poissons Ratio (y) = 0.15779 0.22303
# Poissons Ratio (z) = 0.22143 0.19978
#
# Static dielectric constant tensor:
#      x y z
#    x 3.942450 0.000000 0.296480 
#    y 0.000000 4.195550 0.000000 
#    z 0.296480 0.000000 3.918030 
# 
# 
# High freq. dielectric constant tensor:
#      x y z
#    x 1.968130 0.000000 -0.009470 
#    y 0.000000 1.963690 0.000000 
#    z -0.009470 0.000000 1.955140 
# 
# From -- ./inp_files/28014.got.cif
#   From: 2010.06.25/outbox.cif.g09.slc.cpg/sg15_15_cif.got.tgz:28014.got - 2010.06.28 07:06:18.
