data_PCOD8153101
_publ_section_title
;
Structure prediction by ZEFSAII (Michael W. Deem and Ramdas Pophale) SiO2 
 PCOD8153101
Probable space group: C 2/C
;
_chemical_formula_sum "Si O2"
_cell_formula_units_Z 40
_cell_length_a 19.146460
_cell_length_b 5.802528
_cell_length_c 20.170679
_cell_angle_alpha 90.000000
_cell_angle_beta 127.821414
_cell_angle_gamma 90.000000
_cell_volume 1770.160305
_symmetry_space_group_name_H-M "C 2/C"
_symmetry_group_IT_number 15
_symmetry_cell_setting 'monoclinic'
loop_
_space_group_symop_operation_xyz
x,y,z
-x,y,1/2-z
-x,-y,-z
x,-y,1/2+z
1/2+x,1/2+y,z
1/2-x,1/2+y,1/2-z
1/2-x,1/2-y,-z
1/2+x,1/2-y,1/2+z
loop_
_atom_site_type_symbol
_atom_site_label
_atom_site_fract_x
_atom_site_fract_y
_atom_site_fract_z
Si Si1 0.047388 0.401446 0.091081
Si Si2 0.016623 0.886663 0.833741
Si Si3 0.703168 0.501232 0.486471
Si Si4 0.697802 0.588934 0.131605
Si Si5 0.353317 0.697455 0.781917
O O1 0.104550 0.201173 0.093035
O O2 0.109719 0.573702 0.165054
O O3 0.979336 0.311551 0.107782
O O4 0.000000 0.500000 0.000000
O O5 0.000000 0.785770 0.750000
O O6 0.110851 0.015719 0.892442
O O7 0.933851 0.050240 0.800755
O O8 0.750000 0.250000 0.500000
O O9 0.686079 0.527702 0.554252
O O10 0.750000 0.750000 0.500000
O O11 0.709638 0.406945 0.197686
O O12 0.785331 0.750111 0.182075
#
# Coordination Sequence:
#
# PCOD8153101 Si02
#       5
#     8   8   8   8   8
#     4  11  24  43  75 103 145 187 247 311 368 448
#     4  11  27  47  70 106 146 196 247 308 383 447
#     4  12  30  48  75 107 152 199 247 312 375 448
#     4  11  24  44  73 108 142 189 252 301 378 440
#     4  11  23  42  74 104 141 192 241 312 362 451
#
# _framework density 22.596826
#
# number of rings (size 3 to 8) (size 9 to 14) (size 15 to 20)
#    0.000    0.800    2.000    3.600   11.200    4.000 
#    0.000    0.000    0.000    0.000    0.000    0.000 
#    0.000    0.000    0.000    0.000    0.000    0.000 
#
# Total GULP energy -247784.391980 kJ/mol
# GULP energy per Si atom -12389.219599 kJ/mol
# Density = 2.254539 g / cm^3
# Si number density = 22.596826 Si / 1000 Ang^3
#
#
#
# Elastic Constant Matrix: (Units=GPa)
#
#
# Indices 1 2 3 4 5 6 
#
# 1 121.4294 47.5843 61.7404 0.0000 -10.4305 0.0000
# 2 47.5843 101.6287 27.6737 0.0000 -12.0222 -0.0012
# 3 61.7404 27.6737 157.2887 -0.0001 -14.1947 0.0000
# 4 0.0000 0.0000 -0.0001 37.7135 0.0000 -9.6738
# 5 -10.4305 -12.0222 -14.1947 0.0000 44.4267 0.0000
# 6 0.0000 -0.0012 0.0000 -9.6738 0.0000 31.5238
#
#
#
# Elastic Compliance Matrix: (Units=1/GPa)
#
#
# Indices 1 2 3 4 5 6 
#
# 1 0.012016 -0.004525 -0.003889 0.000000 0.000354 0.000000
# 2 -0.004525 0.012269 -0.000184 0.000000 0.002199 0.000001
# 3 -0.003889 -0.000184 0.008062 0.000000 0.001613 0.000000
# 4 0.000000 0.000000 0.000000 0.028781 0.000000 0.008832
# 5 0.000354 0.002199 0.001613 0.000000 0.023703 0.000000
# 6 0.000000 0.000001 0.000000 0.008832 0.000000 0.034432
#
#
# Mechanical properties :
#
#
# Convention : Reuss Voigt Hill
#
# Bulk Modulus (GPa) = 66.00021 72.70482 69.35252
# Shear Modulus (GPa) = 35.33340 38.95602 37.14471
#
# Velocity S-wave (km/s) = 3.95858 4.15656 4.05878
# Velocity P-wave (km/s) = 7.08273 7.43510 7.26105
#
# Compressibility (1/GPa) = 0.01515147
#
# Stress axis : x y z
#
# Youngs Moduli (GPa) = 83.22158 81.50772 124.03858
#
# Poissons Ratio (x) = 0.36886 0.48232
# Poissons Ratio (y) = 0.37661 0.02280
# Poissons Ratio (z) = 0.32361 0.01498
#
# Static dielectric constant tensor:
#      x y z
#    x 2.911110 0.000000 0.664860 
#    y 0.000000 4.630880 0.000000 
#    z 0.664860 0.000000 3.855070 
# 
# 
# High freq. dielectric constant tensor:
#      x y z
#    x 1.901090 0.000000 0.001210 
#    y 0.000000 1.888350 0.000000 
#    z 0.001210 0.000000 1.913440 
# 
# From -- ./inp_files/251135.got.cif
#   From: 2010.06.25/outbox.cif.g09.slc.cpg/sg15_126_cif.got.tgz:251135.got - 2010.06.28 07:06:18.
