data_PCOD8153799
_publ_section_title
;
Structure prediction by ZEFSAII (Michael W. Deem and Ramdas Pophale) SiO2 
 PCOD8153799
Probable space group: C 2/C
;
_chemical_formula_sum "Si O2"
_cell_formula_units_Z 36
_cell_length_a 7.211517
_cell_length_b 11.860433
_cell_length_c 21.036421
_cell_angle_alpha 90.000000
_cell_angle_beta 78.240766
_cell_angle_gamma 90.000000
_cell_volume 1761.518988
_symmetry_space_group_name_H-M "C 2/C"
_symmetry_group_IT_number 15
_symmetry_cell_setting 'monoclinic'
loop_
_space_group_symop_operation_xyz
x,y,z
-x,y,1/2-z
-x,-y,-z
x,-y,1/2+z
1/2+x,1/2+y,z
1/2-x,1/2+y,1/2-z
1/2-x,1/2-y,-z
1/2+x,1/2-y,1/2+z
loop_
_atom_site_type_symbol
_atom_site_label
_atom_site_fract_x
_atom_site_fract_y
_atom_site_fract_z
Si Si1 0.573514 0.875431 0.358628
Si Si2 0.500000 0.040302 0.250000
Si Si3 0.905220 0.039528 0.915154
Si Si4 0.729705 0.626486 0.973942
Si Si5 0.104546 0.872580 0.807703
O O1 0.403512 0.906665 0.417227
O O2 0.543610 0.750634 0.334369
O O3 0.576997 0.963188 0.301130
O O4 0.773042 0.882506 0.381008
O O5 0.669325 0.121630 0.216217
O O6 0.044798 0.963022 0.864108
O O7 0.772420 0.962012 0.968319
O O8 0.033011 0.122190 0.948837
O O9 0.750000 0.750000 0.000000
O O10 0.000000 0.902441 0.750000
#
# Coordination Sequence:
#
# PCOD8153799 Si02
#       5
#     8   4   8   8   8
#     4  12  25  43  70  98 136 174 218 275 336 387
#     4  12  26  42  68  98 132 176 222 272 336 388
#     4  11  25  44  69  98 136 173 221 273 330 394
#     4  11  24  45  70 100 134 174 223 274 329 396
#     4  12  25  43  68  99 130 176 224 270 326 400
#
# _framework density 20.436907000000001
#
# number of rings (size 3 to 8) (size 9 to 14) (size 15 to 20)
#    0.000    0.444    7.778    0.667    0.000    6.222 
#    0.000    0.000    0.000    0.000    0.000    0.000 
#    0.000    0.000    0.000    0.000    0.000    0.000 
#
# Total GULP energy -223350.082876 kJ/mol
# GULP energy per Si atom -12408.337938 kJ/mol
# Density = 2.039039 g / cm^3
# Si number density = 20.436907 Si / 1000 Ang^3
#
#
#
# Elastic Constant Matrix: (Units=GPa)
#
#
# Indices 1 2 3 4 5 6 
#
# 1 99.4165 31.1728 34.8702 0.0000 2.2575 0.0000
# 2 31.1728 76.2819 31.2073 0.0000 0.1887 0.0000
# 3 34.8702 31.2073 110.9128 0.0000 -6.0143 0.0000
# 4 0.0000 0.0000 0.0000 20.7027 0.0000 1.8220
# 5 2.2575 0.1887 -6.0143 0.0000 46.6359 0.0000
# 6 0.0000 0.0000 0.0000 1.8220 0.0000 33.7233
#
#
#
# Elastic Compliance Matrix: (Units=1/GPa)
#
#
# Indices 1 2 3 4 5 6 
#
# 1 0.012282 -0.003860 -0.002826 0.000000 -0.000943 0.000000
# 2 -0.003860 0.016045 -0.003317 0.000000 -0.000306 0.000000
# 3 -0.002826 -0.003317 0.010923 0.000000 0.001559 0.000000
# 4 0.000000 0.000000 0.000000 0.048534 0.000000 -0.002622
# 5 -0.000943 -0.000306 0.001559 0.000000 0.021691 0.000000
# 6 0.000000 0.000000 0.000000 -0.002622 0.000000 0.029795
#
#
# Mechanical properties :
#
#
# Convention : Reuss Voigt Hill
#
# Bulk Modulus (GPa) = 51.97226 53.45687 52.71457
# Shear Modulus (GPa) = 30.17681 32.83644 31.50662
#
# Velocity S-wave (km/s) = 3.84680 4.01274 3.93065
# Velocity P-wave (km/s) = 6.72431 6.90531 6.81541
#
# Compressibility (1/GPa) = 0.01924103
#
# Stress axis : x y z
#
# Youngs Moduli (GPa) = 81.42058 62.32561 91.55341
#
# Poissons Ratio (x) = 0.24060 0.25876
# Poissons Ratio (y) = 0.31432 0.30372
# Poissons Ratio (z) = 0.23012 0.20676
#
# Static dielectric constant tensor:
#      x y z
#    x 3.721380 0.000000 -0.046850 
#    y 0.000000 3.472740 0.000000 
#    z -0.046850 0.000000 4.174780 
# 
# 
# High freq. dielectric constant tensor:
#      x y z
#    x 1.808900 0.000000 -0.000560 
#    y 0.000000 1.793310 0.000000 
#    z -0.000560 0.000000 1.823270 
# 
# From -- ./inp_files/187594.got.cif
#   From: 2010.06.25/outbox.cif.g09.slc.cpg/sg15_94_cif.got.tgz:187594.got - 2010.06.28 07:06:18.
