data_PCOD8153403
_publ_section_title
;
Structure prediction by ZEFSAII (Michael W. Deem and Ramdas Pophale) SiO2 
 PCOD8153403
Probable space group: C 2/C
;
_chemical_formula_sum "Si O2"
_cell_formula_units_Z 60
_cell_length_a 15.904517
_cell_length_b 16.893380
_cell_length_c 12.230256
_cell_angle_alpha 90.000000
_cell_angle_beta 59.785336
_cell_angle_gamma 90.000000
_cell_volume 2839.616717
_symmetry_space_group_name_H-M "C 2/C"
_symmetry_group_IT_number 15
_symmetry_cell_setting 'monoclinic'
loop_
_space_group_symop_operation_xyz
x,y,z
-x,y,1/2-z
-x,-y,-z
x,-y,1/2+z
1/2+x,1/2+y,z
1/2-x,1/2+y,1/2-z
1/2-x,1/2-y,-z
1/2+x,1/2-y,1/2+z
loop_
_atom_site_type_symbol
_atom_site_label
_atom_site_fract_x
_atom_site_fract_y
_atom_site_fract_z
Si Si1 0.290651 0.742713 0.356073
Si Si2 0.300716 0.453611 0.585025
Si Si3 0.673151 0.101296 0.353762
Si Si4 0.184709 0.887334 0.331342
Si Si5 0.981832 0.681166 0.393607
Si Si6 0.000000 0.795943 0.750000
Si Si7 0.188880 0.442527 0.448728
Si Si8 0.980186 0.841866 0.516218
O O1 0.250000 0.750000 0.500000
O O2 0.264245 0.655915 0.329661
O O3 0.245457 0.808901 0.310881
O O4 0.405854 0.757441 0.288877
O O5 0.206066 0.439232 0.720998
O O6 0.320590 0.547887 0.568355
O O7 0.268721 0.427498 0.487867
O O8 0.395731 0.406024 0.560226
O O9 0.579265 0.154566 0.392153
O O10 0.650493 0.033444 0.460114
O O11 0.241392 0.927413 0.197396
O O12 0.072897 0.864978 0.381036
O O13 0.902068 0.613992 0.469137
O O14 0.944957 0.759092 0.483775
O O15 0.000000 0.693685 0.250000
O O16 0.012066 0.841856 0.625042
#
# Coordination Sequence:
#
# PCOD8153403 Si02
#       8
#     8   8   8   8   8   4   8   8
#     4  12  22  42  71  97 136 175 231 285 345 409
#     4  11  25  44  66 101 137 181 228 286 350 405
#     4  11  23  46  68  98 137 178 231 285 348 415
#     4  11  25  44  67 102 134 181 236 282 346 416
#     4  12  25  45  73 103 142 183 233 287 346 424
#     4  12  24  42  70 104 136 184 232 296 340 414
#     4  11  26  43  71  99 139 181 229 293 347 413
#     4  12  26  42  70 103 140 184 236 283 349 412
#
# _framework density 21.129612000000002
#
# number of rings (size 3 to 8) (size 9 to 14) (size 15 to 20)
#    0.000    0.533    5.333    2.400    1.867    0.533 
#    0.000    2.667    0.000    0.000    0.000    0.000 
#    0.000    0.000    0.000    0.000    0.000    0.000 
#
# Total GULP energy -371697.923170 kJ/mol
# GULP energy per Si atom -12389.930772 kJ/mol
# Density = 2.108152 g / cm^3
# Si number density = 21.129612 Si / 1000 Ang^3
#
#
#
# Elastic Constant Matrix: (Units=GPa)
#
#
# Indices 1 2 3 4 5 6 
#
# 1 102.3914 23.1247 26.6924 0.0000 -8.3252 0.0000
# 2 23.1247 109.0431 21.3081 0.0000 0.0025 0.0000
# 3 26.6924 21.3081 78.1538 0.0000 0.7538 0.0000
# 4 0.0000 0.0000 0.0000 26.3073 0.0000 -7.2754
# 5 -8.3252 0.0025 0.7538 0.0000 41.0478 0.0000
# 6 0.0000 0.0000 0.0000 -7.2754 0.0000 14.0243
#
#
#
# Elastic Compliance Matrix: (Units=1/GPa)
#
#
# Indices 1 2 3 4 5 6 
#
# 1 0.011228 -0.001719 -0.003389 0.000000 0.002340 0.000000
# 2 -0.001719 0.009950 -0.002123 0.000000 -0.000310 0.000000
# 3 -0.003389 -0.002123 0.014541 0.000000 -0.000954 0.000000
# 4 0.000000 0.000000 0.000000 0.044379 0.000000 0.023023
# 5 0.002340 -0.000310 -0.000954 0.000000 0.024854 0.000000
# 6 0.000000 0.000000 0.000000 0.023023 0.000000 0.083248
#
#
# Mechanical properties :
#
#
# Convention : Reuss Voigt Hill
#
# Bulk Modulus (GPa) = 47.04121 47.98210 47.51165
# Shear Modulus (GPa) = 23.83820 30.84009 27.33915
#
# Velocity S-wave (km/s) = 3.36250 3.82457 3.60095
# Velocity P-wave (km/s) = 6.11446 6.50084 6.31061
#
# Compressibility (1/GPa) = 0.02125796
#
# Stress axis : x y z
#
# Youngs Moduli (GPa) = 89.06039 100.50201 68.77290
#
# Poissons Ratio (x) = 0.17277 0.23306
# Poissons Ratio (y) = 0.15310 0.14598
# Poissons Ratio (z) = 0.30181 0.21334
#
# Static dielectric constant tensor:
#      x y z
#    x 3.853700 0.000000 0.004810 
#    y 0.000000 3.736900 0.000000 
#    z 0.004810 0.000000 4.045560 
# 
# 
# High freq. dielectric constant tensor:
#      x y z
#    x 1.835800 0.000000 -0.005820 
#    y 0.000000 1.834620 0.000000 
#    z -0.005820 0.000000 1.838610 
# 
# From -- ./inp_files/98757.got.cif
#   From: 2010.06.25/outbox.cif.g09.slc.cpg/sg15_50_cif.got.tgz:98757.got - 2010.06.28 07:06:18.
