data_PCOD8153209
_publ_section_title
;
Structure prediction by ZEFSAII (Michael W. Deem and Ramdas Pophale) SiO2 
 PCOD8153209
Probable space group: C 2/C
;
_chemical_formula_sum "Si O2"
_cell_formula_units_Z 32
_cell_length_a 14.245380
_cell_length_b 19.017637
_cell_length_c 9.247910
_cell_angle_alpha 90.000000
_cell_angle_beta 34.315774
_cell_angle_gamma 90.000000
_cell_volume 1412.418530
_symmetry_space_group_name_H-M "C 2/C"
_symmetry_group_IT_number 15
_symmetry_cell_setting 'monoclinic'
loop_
_space_group_symop_operation_xyz
x,y,z
-x,y,1/2-z
-x,-y,-z
x,-y,1/2+z
1/2+x,1/2+y,z
1/2-x,1/2+y,1/2-z
1/2-x,1/2-y,-z
1/2+x,1/2-y,1/2+z
loop_
_atom_site_type_symbol
_atom_site_label
_atom_site_fract_x
_atom_site_fract_y
_atom_site_fract_z
Si Si1 0.272842 0.657795 0.686723
Si Si2 0.880944 0.479747 0.021341
Si Si3 0.692318 0.868894 0.975658
Si Si4 0.435651 0.284579 0.492211
O O1 0.255077 0.577775 0.762758
O O2 0.297463 0.655279 0.482350
O O3 0.429649 0.693545 0.561349
O O4 0.107031 0.702045 0.939428
O O5 0.785924 0.548149 0.080934
O O6 0.000000 0.445867 0.750000
O O7 0.000000 0.500000 0.000000
O O8 0.765008 0.827239 0.744810
O O9 0.500000 0.849996 0.250000
O O10 0.500000 0.302871 0.250000
#
# Coordination Sequence:
#
# PCOD8153209 Si02
#       4
#     8   8   8   8
#     4  12  25  46  72 107 146 192 239 297 362 430
#     4  11  23  43  74 104 145 192 240 291 361 432
#     4  11  24  47  74 105 143 191 238 294 363 431
#     4  12  28  45  74 109 149 186 242 303 356 429
#
# _framework density 22.656174
#
# number of rings (size 3 to 8) (size 9 to 14) (size 15 to 20)
#    0.000    0.500    5.000    4.500    3.500    1.000 
#    0.000    0.000    0.000    0.000    0.000    0.000 
#    0.000    0.000    0.000    0.000    0.000    0.000 
#
# Total GULP energy -198412.786476 kJ/mol
# GULP energy per Si atom -12400.799155 kJ/mol
# Density = 2.260461 g / cm^3
# Si number density = 22.656174 Si / 1000 Ang^3
#
#
#
# Elastic Constant Matrix: (Units=GPa)
#
#
# Indices 1 2 3 4 5 6 
#
# 1 128.3231 49.3077 39.9615 0.0061 -0.0229 -0.0087
# 2 49.3077 123.4262 59.9784 0.0006 -2.4669 -0.0055
# 3 39.9615 59.9784 144.3512 0.0023 23.3048 -0.0078
# 4 0.0061 0.0006 0.0023 23.5542 -0.0042 5.2761
# 5 -0.0229 -2.4669 23.3048 -0.0042 39.2070 0.0098
# 6 -0.0087 -0.0055 -0.0078 5.2761 0.0098 36.0889
#
#
#
# Elastic Compliance Matrix: (Units=1/GPa)
#
#
# Indices 1 2 3 4 5 6 
#
# 1 0.009414 -0.003042 -0.001451 -0.000002 0.000677 0.000002
# 2 -0.003042 0.011583 -0.004522 0.000002 0.003415 -0.000001
# 3 -0.001451 -0.004522 0.010237 -0.000002 -0.006370 0.000003
# 4 -0.000002 0.000002 -0.000002 0.043893 0.000008 -0.006417
# 5 0.000677 0.003415 -0.006370 0.000008 0.029507 -0.000010
# 6 0.000002 -0.000001 0.000003 -0.006417 -0.000010 0.028648
#
#
# Mechanical properties :
#
#
# Convention : Reuss Voigt Hill
#
# Bulk Modulus (GPa) = 75.74140 77.17729 76.45935
# Shear Modulus (GPa) = 32.11052 36.22689 34.16871
#
# Velocity S-wave (km/s) = 3.76878 4.00307 3.88769
# Velocity P-wave (km/s) = 7.24166 7.45014 7.34664
#
# Compressibility (1/GPa) = 0.01320282
#
# Stress axis : x y z
#
# Youngs Moduli (GPa) = 106.22735 86.33431 97.68815
#
# Poissons Ratio (x) = 0.26262 0.14179
# Poissons Ratio (y) = 0.32313 0.44174
# Poissons Ratio (z) = 0.15418 0.39040
#
# Static dielectric constant tensor:
#      x y z
#    x 4.021600 -0.000050 0.306580 
#    y -0.000050 4.690060 -0.000070 
#    z 0.306580 -0.000070 4.355320 
# 
# 
# High freq. dielectric constant tensor:
#      x y z
#    x 1.893220 0.000000 0.015420 
#    y 0.000000 1.903090 0.000000 
#    z 0.015420 0.000000 1.896840 
# 
# From -- ./inp_files/40509.got.cif
#   From: 2010.06.25/outbox.cif.g09.slc.cpg/sg15_21_cif.got.tgz:40509.got - 2010.06.28 07:06:18.
