data_PCOD8153474
_publ_section_title
;
Structure prediction by ZEFSAII (Michael W. Deem and Ramdas Pophale) SiO2 
 PCOD8153474
Probable space group: C 2/C
;
_chemical_formula_sum "Si O2"
_cell_formula_units_Z 36
_cell_length_a 18.685685
_cell_length_b 6.742676
_cell_length_c 19.141068
_cell_angle_alpha 90.000000
_cell_angle_beta 39.323154
_cell_angle_gamma 90.000000
_cell_volume 1528.223103
_symmetry_space_group_name_H-M "C 2/C"
_symmetry_group_IT_number 15
_symmetry_cell_setting 'monoclinic'
loop_
_space_group_symop_operation_xyz
x,y,z
-x,y,1/2-z
-x,-y,-z
x,-y,1/2+z
1/2+x,1/2+y,z
1/2-x,1/2+y,1/2-z
1/2-x,1/2-y,-z
1/2+x,1/2-y,1/2+z
loop_
_atom_site_type_symbol
_atom_site_label
_atom_site_fract_x
_atom_site_fract_y
_atom_site_fract_z
Si Si1 0.825985 0.478922 0.164677
Si Si2 0.538156 0.700319 0.006302
Si Si3 0.500000 0.334935 0.250000
Si Si4 0.693766 0.826157 0.681241
Si Si5 0.672586 0.571894 0.030597
O O1 0.932082 0.339780 0.089516
O O2 0.737882 0.387481 0.175881
O O3 0.780204 0.511421 0.278045
O O4 0.860406 0.698566 0.113389
O O5 0.575972 0.666279 0.056395
O O6 0.500000 0.500000 0.000000
O O7 0.440515 0.198687 0.234935
O O8 0.605848 0.464189 0.143315
O O9 0.757018 0.904096 0.564281
O O10 0.750000 0.750000 0.000000
#
# Coordination Sequence:
#
# PCOD8153474 Si02
#       5
#     8   8   4   8   8
#     4  11  26  44  78 107 150 188 255 316 377 449
#     4  11  23  47  75 109 142 197 251 315 377 447
#     4  12  30  46  74 106 156 196 248 308 380 452
#     4  12  27  48  75 111 150 198 252 315 381 453
#     4  12  28  47  74 105 155 197 255 303 386 450
#
# _framework density 23.556768999999999
#
# number of rings (size 3 to 8) (size 9 to 14) (size 15 to 20)
#    0.000    0.444    2.222    4.667   12.444    0.000 
#    0.000    0.000    0.000    0.000    0.000    0.000 
#    0.000    0.000    0.000    0.000    0.000    0.000 
#
# Total GULP energy -223208.229097 kJ/mol
# GULP energy per Si atom -12400.457172 kJ/mol
# Density = 2.350315 g / cm^3
# Si number density = 23.556769 Si / 1000 Ang^3
#
#
#
# Elastic Constant Matrix: (Units=GPa)
#
#
# Indices 1 2 3 4 5 6 
#
# 1 170.8972 60.1434 26.8030 0.0000 -9.3696 0.0008
# 2 60.1434 140.4068 47.9946 -0.0001 2.8410 0.0030
# 3 26.8030 47.9946 111.0410 -0.0001 9.3810 0.0004
# 4 0.0000 -0.0001 -0.0001 26.2973 0.0000 7.2428
# 5 -9.3696 2.8410 9.3810 0.0000 36.2475 -0.0004
# 6 0.0008 0.0030 0.0004 7.2428 -0.0004 56.7574
#
#
#
# Elastic Compliance Matrix: (Units=1/GPa)
#
#
# Indices 1 2 3 4 5 6 
#
# 1 0.007081 -0.002851 -0.000665 0.000000 0.002226 0.000000
# 2 -0.002851 0.009508 -0.003370 0.000000 -0.000610 0.000000
# 3 -0.000665 -0.003370 0.010852 0.000000 -0.002716 0.000000
# 4 0.000000 0.000000 0.000000 0.039412 0.000000 -0.005029
# 5 0.002226 -0.000610 -0.002716 0.000000 0.028914 0.000000
# 6 0.000000 0.000000 0.000000 -0.005029 0.000000 0.018261
#
#
# Mechanical properties :
#
#
# Convention : Reuss Voigt Hill
#
# Bulk Modulus (GPa) = 73.15562 76.91411 75.03487
# Shear Modulus (GPa) = 37.77701 43.02070 40.39885
#
# Velocity S-wave (km/s) = 4.00891 4.27811 4.14570
# Velocity P-wave (km/s) = 7.24921 7.55807 7.40525
#
# Compressibility (1/GPa) = 0.01366949
#
# Stress axis : x y z
#
# Youngs Moduli (GPa) = 141.22033 105.17957 92.14752
#
# Poissons Ratio (x) = 0.29986 0.06128
# Poissons Ratio (y) = 0.40261 0.31051
# Poissons Ratio (z) = 0.09392 0.35442
#
# Static dielectric constant tensor:
#      x y z
#    x 4.448250 0.000020 -0.091320 
#    y 0.000020 6.955340 0.000100 
#    z -0.091320 0.000100 4.225070 
# 
# 
# High freq. dielectric constant tensor:
#      x y z
#    x 1.953490 0.000000 -0.003400 
#    y 0.000000 1.945000 0.000000 
#    z -0.003400 0.000000 1.931480 
# 
# From -- ./inp_files/179941.got.cif
#   From: 2010.06.25/outbox.cif.g09.slc.cpg/sg15_90_cif.got.tgz:179941.got - 2010.06.28 07:06:18.
