data_PCOD8153198
_publ_section_title
;
Structure prediction by ZEFSAII (Michael W. Deem and Ramdas Pophale) SiO2 
 PCOD8153198
Probable space group: C 2/C
;
_chemical_formula_sum "Si O2"
_cell_formula_units_Z 44
_cell_length_a 17.563354
_cell_length_b 8.730074
_cell_length_c 18.759942
_cell_angle_alpha 90.000000
_cell_angle_beta 49.240403
_cell_angle_gamma 90.000000
_cell_volume 2178.783477
_symmetry_space_group_name_H-M "C 2/C"
_symmetry_group_IT_number 15
_symmetry_cell_setting 'monoclinic'
loop_
_space_group_symop_operation_xyz
x,y,z
-x,y,1/2-z
-x,-y,-z
x,-y,1/2+z
1/2+x,1/2+y,z
1/2-x,1/2+y,1/2-z
1/2-x,1/2-y,-z
1/2+x,1/2-y,1/2+z
loop_
_atom_site_type_symbol
_atom_site_label
_atom_site_fract_x
_atom_site_fract_y
_atom_site_fract_z
Si Si1 0.367481 0.765934 0.440320
Si Si2 0.759724 0.818798 0.602906
Si Si3 0.000000 0.085172 0.250000
Si Si4 0.895838 0.918322 0.064919
Si Si5 0.575722 0.683589 0.798377
Si Si6 0.383032 0.885075 0.934398
O O1 0.250000 0.750000 0.500000
O O2 0.419606 0.691641 0.339142
O O3 0.394605 0.686188 0.496867
O O4 0.409395 0.937258 0.426879
O O5 0.673334 0.746105 0.701528
O O6 0.712375 0.883097 0.559504
O O7 0.846589 0.694512 0.530449
O O8 0.806194 0.958699 0.618612
O O9 0.052006 0.981919 0.279146
O O10 0.890951 0.821293 0.140001
O O11 0.000000 0.000000 0.000000
O O12 0.479549 0.793781 0.845108
#
# Coordination Sequence:
#
# PCOD8153198 Si02
#       6
#     8   8   4   8   8   8
#     4  12  26  43  71 103 138 178 234 286 342 406
#     4  11  23  44  73  97 138 186 228 275 351 415
#     4  12  24  42  72 102 138 182 228 284 348 406
#     4  12  25  49  66 102 146 179 222 297 349 397
#     4  12  25  45  73 101 140 186 233 279 351 417
#     4  11  23  43  73 103 133 182 235 281 336 418
#
# _framework density 20.194756000000002
#
# number of rings (size 3 to 8) (size 9 to 14) (size 15 to 20)
#    0.000    0.364    7.273    1.091    2.545    3.636 
#    3.273    0.000    0.000    0.000    0.000    0.000 
#    0.000    0.000    0.000    0.000    0.000    0.000 
#
# Total GULP energy -272821.263257 kJ/mol
# GULP energy per Si atom -12400.966512 kJ/mol
# Density = 2.014879 g / cm^3
# Si number density = 20.194756 Si / 1000 Ang^3
#
#
#
# Elastic Constant Matrix: (Units=GPa)
#
#
# Indices 1 2 3 4 5 6 
#
# 1 59.6445 33.7285 35.8775 0.0000 30.2152 0.0000
# 2 33.7285 136.5681 54.4442 -0.0001 -5.6506 0.0001
# 3 35.8775 54.4442 139.2101 0.0000 -15.0003 0.0000
# 4 0.0000 -0.0001 0.0000 36.4327 0.0000 0.8718
# 5 30.2152 -5.6506 -15.0003 0.0000 21.7748 0.0000
# 6 0.0000 0.0001 0.0000 0.8718 0.0000 36.8931
#
#
#
# Elastic Compliance Matrix: (Units=1/GPa)
#
#
# Indices 1 2 3 4 5 6 
#
# 1 -0.095572 0.016028 0.035755 0.000000 0.161408 0.000000
# 2 0.016028 0.005987 -0.009399 0.000000 -0.027162 0.000000
# 3 0.035755 -0.009399 -0.004282 0.000000 -0.055003 0.000000
# 4 0.000000 0.000000 0.000000 0.027463 0.000000 -0.000649
# 5 0.161408 -0.027162 -0.055003 0.000000 -0.222987 0.000001
# 6 0.000000 0.000000 0.000000 -0.000649 0.000001 0.027121
#
#
# Mechanical properties :
#
#
# Convention : Reuss Voigt Hill
#
# Bulk Modulus (GPa) = -109.89092 64.83590 -22.52751
# Shear Modulus (GPa) = -14.28283 33.11162 9.41440
#
# Velocity S-wave (km/s) = -2.66231 4.05361 2.16146
# Velocity P-wave (km/s) = 7.99901 7.35418 2.22488
#
# Compressibility (1/GPa) = -0.00909993
#
# Stress axis : x y z
#
# Youngs Moduli (GPa) = -10.46330 167.02708 -233.52666
#
# Poissons Ratio (x) = -2.67712 8.34967
# Poissons Ratio (y) = 0.16771 -2.19493
# Poissons Ratio (z) = 0.37411 1.56990
#
# Static dielectric constant tensor:
#      x y z
#    x 3.522000 0.000000 -0.164190 
#    y 0.000000 3.833600 0.000000 
#    z -0.164190 0.000000 3.604450 
# 
# 
# High freq. dielectric constant tensor:
#      x y z
#    x 1.790020 0.000000 -0.004010 
#    y 0.000000 1.794970 0.000000 
#    z -0.004010 0.000000 1.803910 
# 
# From -- ./inp_files/159442.got.cif
#   From: 2010.06.25/outbox.cif.g09.slc.cpg/sg15_80_cif.got.tgz:159442.got - 2010.06.28 07:06:18.
