data_PCOD8153041
_publ_section_title
;
Structure prediction by ZEFSAII (Michael W. Deem and Ramdas Pophale) SiO2 
 PCOD8153041
Probable space group: C 2/C
;
_chemical_formula_sum "Si O2"
_cell_formula_units_Z 48
_cell_length_a 14.611436
_cell_length_b 25.620109
_cell_length_c 8.784920
_cell_angle_alpha 90.000000
_cell_angle_beta 39.377178
_cell_angle_gamma 90.000000
_cell_volume 2086.365422
_symmetry_space_group_name_H-M "C 2/C"
_symmetry_group_IT_number 15
_symmetry_cell_setting 'monoclinic'
loop_
_space_group_symop_operation_xyz
x,y,z
-x,y,1/2-z
-x,-y,-z
x,-y,1/2+z
1/2+x,1/2+y,z
1/2-x,1/2+y,1/2-z
1/2-x,1/2-y,-z
1/2+x,1/2-y,1/2+z
loop_
_atom_site_type_symbol
_atom_site_label
_atom_site_fract_x
_atom_site_fract_y
_atom_site_fract_z
Si Si1 0.378463 0.331413 0.529155
Si Si2 0.971273 0.919268 0.624717
Si Si3 0.289123 0.489060 0.289957
Si Si4 0.891627 0.539432 0.212938
Si Si5 0.093927 0.256276 0.270867
Si Si6 0.444180 0.158788 0.152147
O O1 0.500000 0.342697 0.250000
O O2 0.376448 0.380556 0.644684
O O3 0.427546 0.280568 0.557028
O O4 0.221873 0.322522 0.653969
O O5 0.124604 0.935408 0.352756
O O6 0.000000 0.891486 0.750000
O O7 0.884269 0.972618 0.772735
O O8 0.256933 0.525198 0.183842
O O9 0.141582 0.470609 0.565204
O O10 0.950330 0.597347 0.110406
O O11 0.000000 0.500000 0.000000
O O12 0.000000 0.238489 0.250000
O O13 0.047082 0.313605 0.393586
O O14 0.250000 0.250000 0.000000
O O15 0.500000 0.172182 0.250000
#
# Coordination Sequence:
#
# PCOD8153041 Si02
#       6
#     8   8   8   8   8   8
#     4  12  27  48  79 112 150 200 256 315 383 453
#     4  11  23  43  74 105 147 195 247 316 360 436
#     4  11  23  42  68 106 147 193 253 300 368 437
#     4  12  25  45  68 104 151 200 246 304 371 450
#     4  12  28  53  81 112 147 192 252 321 390 458
#     4  12  28  50  75 110 152 198 252 313 384 456
#
# _framework density 23.006515
#
# number of rings (size 3 to 8) (size 9 to 14) (size 15 to 20)
#    0.000    0.333    5.000    3.500    2.333    4.000 
#    3.000    0.000    0.000    0.000    0.000    0.000 
#    0.000    0.000    0.000    0.000    0.000    0.000 
#
# Total GULP energy -297568.738620 kJ/mol
# GULP energy per Si atom -12398.697442 kJ/mol
# Density = 2.295415 g / cm^3
# Si number density = 23.006515 Si / 1000 Ang^3
#
#
#
# Elastic Constant Matrix: (Units=GPa)
#
#
# Indices 1 2 3 4 5 6 
#
# 1 153.3266 43.2698 39.1154 0.0000 3.5774 0.0000
# 2 43.2698 125.5833 53.3047 0.0000 4.2168 0.0000
# 3 39.1154 53.3047 145.8355 0.0000 -6.7588 0.0000
# 4 0.0000 0.0000 0.0000 37.0796 0.0000 2.4161
# 5 3.5774 4.2168 -6.7588 0.0000 31.0512 0.0000
# 6 0.0000 0.0000 0.0000 2.4161 0.0000 36.0344
#
#
#
# Elastic Compliance Matrix: (Units=1/GPa)
#
#
# Indices 1 2 3 4 5 6 
#
# 1 0.007435 -0.001975 -0.001313 0.000000 -0.000874 0.000000
# 2 -0.001975 0.010081 -0.003241 0.000000 -0.001847 0.000000
# 3 -0.001313 -0.003241 0.008507 0.000000 0.002443 0.000000
# 4 0.000000 0.000000 0.000000 0.027087 0.000000 -0.001816
# 5 -0.000874 -0.001847 0.002443 0.000000 0.033088 0.000000
# 6 0.000000 0.000000 0.000000 -0.001816 0.000000 0.027873
#
#
# Mechanical properties :
#
#
# Convention : Reuss Voigt Hill
#
# Bulk Modulus (GPa) = 77.12642 77.34723 77.23683
# Shear Modulus (GPa) = 38.03747 40.10340 39.07044
#
# Velocity S-wave (km/s) = 4.07053 4.17961 4.12543
# Velocity P-wave (km/s) = 7.46249 7.54884 7.50579
#
# Compressibility (1/GPa) = 0.01296573
#
# Stress axis : x y z
#
# Youngs Moduli (GPa) = 134.50462 99.19817 117.55321
#
# Poissons Ratio (x) = 0.19593 0.15431
# Poissons Ratio (y) = 0.26566 0.38093
# Poissons Ratio (z) = 0.17656 0.32145
#
# Static dielectric constant tensor:
#      x y z
#    x 4.004160 0.000000 -0.167180 
#    y 0.000000 4.162090 0.000000 
#    z -0.167180 0.000000 3.962830 
# 
# 
# High freq. dielectric constant tensor:
#      x y z
#    x 1.938390 0.000000 -0.001620 
#    y 0.000000 1.902850 0.000000 
#    z -0.001620 0.000000 1.907720 
# 
# From -- ./inp_files/43845.got.cif
#   From: 2010.06.25/outbox.cif.g09.slc.cpg/sg15_22_cif.got.tgz:43845.got - 2010.06.28 07:06:18.
