data_PCOD8153663
_publ_section_title
;
Structure prediction by ZEFSAII (Michael W. Deem and Ramdas Pophale) SiO2 
 PCOD8153663
Probable space group: C 2/C
;
_chemical_formula_sum "Si O2"
_cell_formula_units_Z 60
_cell_length_a 28.045128
_cell_length_b 11.330645
_cell_length_c 18.686767
_cell_angle_alpha 90.000000
_cell_angle_beta 25.305747
_cell_angle_gamma 90.000000
_cell_volume 2538.224738
_symmetry_space_group_name_H-M "C 2/C"
_symmetry_group_IT_number 15
_symmetry_cell_setting 'monoclinic'
loop_
_space_group_symop_operation_xyz
x,y,z
-x,y,1/2-z
-x,-y,-z
x,-y,1/2+z
1/2+x,1/2+y,z
1/2-x,1/2+y,1/2-z
1/2-x,1/2-y,-z
1/2+x,1/2-y,1/2+z
loop_
_atom_site_type_symbol
_atom_site_label
_atom_site_fract_x
_atom_site_fract_y
_atom_site_fract_z
Si Si1 0.224462 0.524707 0.828449
Si Si2 0.800254 0.631073 0.402566
Si Si3 0.959932 0.693461 0.448462
Si Si4 0.952146 0.130567 0.549255
Si Si5 0.334046 0.392301 0.553505
Si Si6 0.801124 0.588113 0.990463
Si Si7 0.500000 0.445544 0.750000
Si Si8 0.406881 0.717432 0.267158
O O1 0.317685 0.618360 0.731154
O O2 0.284000 0.429296 0.697559
O O3 0.166891 0.454216 0.972870
O O4 0.129244 0.590898 0.910433
O O5 0.750000 0.750000 0.500000
O O6 0.765616 0.612528 0.367708
O O7 0.752704 0.524428 0.514074
O O8 0.933293 0.630934 0.230810
O O9 0.894463 0.766384 0.476844
O O10 0.002575 0.777989 0.453619
O O11 0.986483 0.191025 0.427318
O O12 0.000000 0.000000 0.500000
O O13 0.432940 0.479827 0.398752
O O14 0.703157 0.685999 0.129800
O O15 0.901015 0.649164 0.808199
O O16 0.590168 0.366212 0.667958
#
# Coordination Sequence:
#
# PCOD8153663 Si02
#       8
#     8   8   8   8   8   8   4   8
#     4  12  27  47  77 108 153 198 261 321 385 468
#     4  12  27  48  76 106 153 198 251 319 383 460
#     4  12  27  46  75 108 145 202 249 319 387 455
#     4  12  22  48  78 107 147 207 259 319 386 473
#     4  12  25  46  75 107 146 198 262 307 377 477
#     4  11  25  47  69 111 152 196 247 321 389 450
#     4  12  22  42  74 110 138 196 258 306 376 468
#     4  11  24  43  74 105 153 195 251 317 388 458
#
# _framework density 23.638569
#
# number of rings (size 3 to 8) (size 9 to 14) (size 15 to 20)
#    0.000    0.267    5.333    3.200    1.867    4.267 
#    4.800    0.000    0.000    0.000    0.000    0.000 
#    0.000    0.000    0.000    0.000    0.000    0.000 
#
# Total GULP energy -371970.106012 kJ/mol
# GULP energy per Si atom -12399.003534 kJ/mol
# Density = 2.358477 g / cm^3
# Si number density = 23.638569 Si / 1000 Ang^3
#
#
#
# Elastic Constant Matrix: (Units=GPa)
#
#
# Indices 1 2 3 4 5 6 
#
# 1 103.1138 35.6688 42.7927 0.0000 5.5402 0.0000
# 2 35.6688 107.5719 46.1544 0.0001 8.0375 0.0000
# 3 42.7927 46.1544 106.2605 0.0001 -5.6671 0.0000
# 4 0.0000 0.0001 0.0001 39.9051 0.0000 0.9712
# 5 5.5402 8.0375 -5.6671 0.0000 48.7192 0.0000
# 6 0.0000 0.0000 0.0000 0.9712 0.0000 43.7551
#
#
#
# Elastic Compliance Matrix: (Units=1/GPa)
#
#
# Indices 1 2 3 4 5 6 
#
# 1 0.012219 -0.002205 -0.004043 0.000000 -0.001496 0.000000
# 2 -0.002205 0.012128 -0.004501 0.000000 -0.002274 0.000000
# 3 -0.004043 -0.004501 0.013140 0.000000 0.002731 0.000000
# 4 0.000000 0.000000 0.000000 0.025073 0.000000 -0.000557
# 5 -0.001496 -0.002274 0.002731 0.000000 0.021389 0.000000
# 6 0.000000 0.000000 0.000000 -0.000557 0.000000 0.022867
#
#
# Mechanical properties :
#
#
# Convention : Reuss Voigt Hill
#
# Bulk Modulus (GPa) = 62.54384 62.90868 62.72626
# Shear Modulus (GPa) = 37.41299 39.29791 38.35545
#
# Velocity S-wave (km/s) = 3.98264 4.08174 4.03249
# Velocity P-wave (km/s) = 6.90394 6.99175 6.94799
#
# Compressibility (1/GPa) = 0.01598878
#
# Stress axis : x y z
#
# Youngs Moduli (GPa) = 81.83996 82.45053 76.10568
#
# Poissons Ratio (x) = 0.18182 0.30767
# Poissons Ratio (y) = 0.18048 0.34257
# Poissons Ratio (z) = 0.33085 0.37113
#
# Static dielectric constant tensor:
#      x y z
#    x 4.360050 0.000000 -0.304040 
#    y 0.000000 4.391730 0.000000 
#    z -0.304040 0.000000 4.609480 
# 
# 
# High freq. dielectric constant tensor:
#      x y z
#    x 1.938270 0.000000 -0.003720 
#    y 0.000000 1.942360 0.000000 
#    z -0.003720 0.000000 1.931610 
# 
# From -- ./inp_files/222531.got.cif
#   From: 2010.06.25/outbox.cif.g09.slc.cpg/sg15_112_cif.got.tgz:222531.got - 2010.06.28 07:06:18.
