data_PCOD8153458
_publ_section_title
;
Structure prediction by ZEFSAII (Michael W. Deem and Ramdas Pophale) SiO2 
 PCOD8153458
Probable space group: C 2/C
;
_chemical_formula_sum "Si O2"
_cell_formula_units_Z 36
_cell_length_a 12.055687
_cell_length_b 10.298000
_cell_length_c 22.617049
_cell_angle_alpha 90.000000
_cell_angle_beta 153.476320
_cell_angle_gamma 90.000000
_cell_volume 1253.914849
_symmetry_space_group_name_H-M "C 2/C"
_symmetry_group_IT_number 15
_symmetry_cell_setting 'monoclinic'
loop_
_space_group_symop_operation_xyz
x,y,z
-x,y,1/2-z
-x,-y,-z
x,-y,1/2+z
1/2+x,1/2+y,z
1/2-x,1/2+y,1/2-z
1/2-x,1/2-y,-z
1/2+x,1/2-y,1/2+z
loop_
_atom_site_type_symbol
_atom_site_label
_atom_site_fract_x
_atom_site_fract_y
_atom_site_fract_z
Si Si1 0.890554 0.416650 0.125129
Si Si2 0.097230 0.856294 0.734950
Si Si3 0.854255 0.632685 0.012364
Si Si4 0.000000 0.788685 0.250000
Si Si5 0.844149 0.065201 0.365549
O O1 0.920420 0.263906 0.131018
O O2 0.135356 0.456571 0.280522
O O3 0.894928 0.497440 0.066048
O O4 0.620584 0.451213 0.027613
O O5 0.089428 0.947040 0.673052
O O6 0.000000 0.918433 0.750000
O O7 0.380986 0.817585 0.885003
O O8 0.654668 0.613144 0.865079
O O9 0.750000 0.750000 0.000000
O O10 0.205173 0.701482 0.313322
#
# Coordination Sequence:
#
# PCOD8153458 Si02
#       5
#     8   8   8   4   8
#     4  11  24  44  75 102 143 187 241 289 357 430
#     4  11  24  46  72 105 145 185 244 298 356 423
#     4  11  23  47  71 107 150 186 237 300 362 428
#     4  12  24  46  74 102 152 186 234 304 360 418
#     4  11  26  44  71 106 144 187 238 298 356 429
#
# _framework density 28.710083999999998
#
# number of rings (size 3 to 8) (size 9 to 14) (size 15 to 20)
#    0.000    0.889    4.444    3.333    1.556    0.889 
#    2.000    3.333    0.000    0.000    0.000    0.000 
#    0.000    0.000    0.000    0.000    0.000    0.000 
#
# Total GULP energy -223018.315888 kJ/mol
# GULP energy per Si atom -12389.906438 kJ/mol
# Density = 2.864474 g / cm^3
# Si number density = 28.710084 Si / 1000 Ang^3
#
#
#
# Elastic Constant Matrix: (Units=GPa)
#
#
# Indices 1 2 3 4 5 6 
#
# 1 175.7710 7.2070 63.1631 0.0004 25.2857 0.0001
# 2 7.2070 59.4346 21.6332 0.0001 8.7371 -0.0002
# 3 63.1631 21.6332 276.3817 0.0001 18.2351 -0.0005
# 4 0.0004 0.0001 0.0001 30.7763 0.0007 6.9666
# 5 25.2857 8.7371 18.2351 0.0007 61.6515 0.0002
# 6 0.0001 -0.0002 -0.0005 6.9666 0.0002 16.2638
#
#
#
# Elastic Compliance Matrix: (Units=1/GPa)
#
#
# Indices 1 2 3 4 5 6 
#
# 1 0.006495 0.000033 -0.001337 0.000000 -0.002273 0.000000
# 2 0.000033 0.017588 -0.001243 0.000000 -0.002138 0.000000
# 3 -0.001337 -0.001243 0.004052 0.000000 -0.000474 0.000000
# 4 0.000000 0.000000 0.000000 0.035981 0.000000 -0.015413
# 5 -0.002273 -0.002138 -0.000474 0.000000 0.017596 0.000000
# 6 0.000000 0.000000 0.000000 -0.015413 0.000000 0.068088
#
#
# Mechanical properties :
#
#
# Convention : Reuss Voigt Hill
#
# Bulk Modulus (GPa) = 43.39953 77.28822 60.34387
# Shear Modulus (GPa) = 30.75488 49.71058 40.23273
#
# Velocity S-wave (km/s) = 3.27650 4.16560 3.74752
# Velocity P-wave (km/s) = 5.42801 7.07920 6.30786
#
# Compressibility (1/GPa) = 0.02304172
#
# Stress axis : x y z
#
# Youngs Moduli (GPa) = 153.95657 56.85685 246.77177
#
# Poissons Ratio (x) = -0.00189 0.32994
# Poissons Ratio (y) = -0.00511 0.30678
# Poissons Ratio (z) = 0.20585 0.07068
#
# Static dielectric constant tensor:
#      x y z
#    x 6.094380 -0.000010 0.016400 
#    y -0.000010 4.856250 -0.000010 
#    z 0.016400 -0.000010 6.693830 
# 
# 
# High freq. dielectric constant tensor:
#      x y z
#    x 2.189090 0.000000 0.005380 
#    y 0.000000 2.132960 0.000000 
#    z 0.005380 0.000000 2.222920 
# 
# From -- ./inp_files/269399.got.cif
#   From: 2010.06.25/outbox.cif.g09.slc.cpg/sg15_135_cif.got.tgz:269399.got - 2010.06.28 07:06:18.
