data_PCOD8153569
_publ_section_title
;
Structure prediction by ZEFSAII (Michael W. Deem and Ramdas Pophale) SiO2 
 PCOD8153569
Probable space group: C 2/C
;
_chemical_formula_sum "Si O2"
_cell_formula_units_Z 48
_cell_length_a 19.099859
_cell_length_b 13.892344
_cell_length_c 18.890697
_cell_angle_alpha 90.000000
_cell_angle_beta 154.342199
_cell_angle_gamma 90.000000
_cell_volume 2170.385442
_symmetry_space_group_name_H-M "C 2/C"
_symmetry_group_IT_number 15
_symmetry_cell_setting 'monoclinic'
loop_
_space_group_symop_operation_xyz
x,y,z
-x,y,1/2-z
-x,-y,-z
x,-y,1/2+z
1/2+x,1/2+y,z
1/2-x,1/2+y,1/2-z
1/2-x,1/2-y,-z
1/2+x,1/2-y,1/2+z
loop_
_atom_site_type_symbol
_atom_site_label
_atom_site_fract_x
_atom_site_fract_y
_atom_site_fract_z
Si Si1 0.915424 0.372372 0.527055
Si Si2 0.391666 0.470765 0.003369
Si Si3 0.937288 0.798501 0.268510
Si Si4 0.559293 0.943349 0.227231
Si Si5 0.371052 0.620881 0.335765
Si Si6 0.517516 0.175920 0.973346
O O1 0.745711 0.333024 0.399785
O O2 0.945950 0.472922 0.592856
O O3 0.053963 0.294381 0.672505
O O4 0.921360 0.383452 0.447072
O O5 0.331204 0.433298 0.872304
O O6 0.242436 0.522725 0.904709
O O7 0.444133 0.382650 0.099360
O O8 0.540238 0.545144 0.134374
O O9 0.000000 0.763043 0.250000
O O10 0.500000 0.908842 0.250000
O O11 0.552100 0.854354 0.166327
O O12 0.489184 0.710583 0.458399
O O13 0.207965 0.655423 0.149778
#
# Coordination Sequence:
#
# PCOD8153569 Si02
#       6
#     8   8   8   8   8   8
#     4  12  23  40  66  97 134 176 226 271 332 404
#     4  11  24  42  66 100 133 177 222 274 329 395
#     4  12  24  40  63  97 140 178 216 276 344 397
#     4  12  26  45  68 100 138 176 223 279 339 398
#     4  11  24  42  70  98 132 170 232 278 319 390
#     4  12  24  45  69 101 128 181 225 278 330 394
#
# _framework density 22.115888000000002
#
# number of rings (size 3 to 8) (size 9 to 14) (size 15 to 20)
#    0.000    0.333    3.333    6.500    4.667    0.000 
#    0.000    4.167    0.000    0.000    0.000    0.000 
#    0.000    0.000    0.000    0.000    0.000    0.000 
#
# Total GULP energy -297826.575557 kJ/mol
# GULP energy per Si atom -12409.440648 kJ/mol
# Density = 2.206555 g / cm^3
# Si number density = 22.115888 Si / 1000 Ang^3
#
#
#
# Elastic Constant Matrix: (Units=GPa)
#
#
# Indices 1 2 3 4 5 6 
#
# 1 135.9141 19.8272 15.0105 -0.0020 -6.8751 -0.0010
# 2 19.8272 55.5867 2.9702 -0.0015 -3.3466 -0.0009
# 3 15.0105 2.9702 48.8563 -0.0051 6.9235 -0.0033
# 4 -0.0020 -0.0015 -0.0051 39.4420 -0.0025 0.8224
# 5 -6.8751 -3.3466 6.9235 -0.0025 33.5127 -0.0016
# 6 -0.0010 -0.0009 -0.0033 0.8224 -0.0016 28.1925
#
#
#
# Elastic Compliance Matrix: (Units=1/GPa)
#
#
# Indices 1 2 3 4 5 6 
#
# 1 0.008130 -0.002643 -0.002613 0.000000 0.001944 0.000000
# 2 -0.002643 0.019051 -0.000555 0.000001 0.001475 0.000001
# 3 -0.002613 -0.000555 0.022034 0.000002 -0.005143 0.000002
# 4 0.000000 0.000001 0.000002 0.025369 0.000001 -0.000740
# 5 0.001944 0.001475 -0.005143 0.000001 0.031448 0.000001
# 6 0.000000 0.000001 0.000002 -0.000740 0.000001 0.035492
#
#
# Mechanical properties :
#
#
# Convention : Reuss Voigt Hill
#
# Bulk Modulus (GPa) = 26.60087 35.10812 30.85449
# Shear Modulus (GPa) = 30.17924 33.73272 31.95598
#
# Velocity S-wave (km/s) = 3.69805 3.90971 3.80535
# Velocity P-wave (km/s) = 5.50347 6.02413 5.76968
#
# Compressibility (1/GPa) = 0.03759276
#
# Stress axis : x y z
#
# Youngs Moduli (GPa) = 123.00050 52.49014 45.38543
#
# Poissons Ratio (x) = 0.13875 0.11857
# Poissons Ratio (y) = 0.32513 0.02519
# Poissons Ratio (z) = 0.32135 0.02914
#
# Static dielectric constant tensor:
#      x y z
#    x 3.909370 0.000000 0.018400 
#    y 0.000000 4.070870 0.000000 
#    z 0.018400 0.000000 3.941960 
# 
# 
# High freq. dielectric constant tensor:
#      x y z
#    x 1.867480 0.000000 0.011200 
#    y 0.000000 1.871800 0.000000 
#    z 0.011200 0.000000 1.876470 
# 
# From -- ./inp_files/66385.got.cif
#   From: 2010.06.25/outbox.cif.g09.slc.cpg/sg15_34_cif.got.tgz:66385.got - 2010.06.28 07:06:18.
