data_PCOD8153977
_publ_section_title
;
Structure prediction by ZEFSAII (Michael W. Deem and Ramdas Pophale) SiO2 
 PCOD8153977
Probable space group: C 2/C
;
_chemical_formula_sum "Si O2"
_cell_formula_units_Z 44
_cell_length_a 15.932935
_cell_length_b 8.294581
_cell_length_c 17.212263
_cell_angle_alpha 90.000000
_cell_angle_beta 125.818039
_cell_angle_gamma 90.000000
_cell_volume 1844.525191
_symmetry_space_group_name_H-M "C 2/C"
_symmetry_group_IT_number 15
_symmetry_cell_setting 'monoclinic'
loop_
_space_group_symop_operation_xyz
x,y,z
-x,y,1/2-z
-x,-y,-z
x,-y,1/2+z
1/2+x,1/2+y,z
1/2-x,1/2+y,1/2-z
1/2-x,1/2-y,-z
1/2+x,1/2-y,1/2+z
loop_
_atom_site_type_symbol
_atom_site_label
_atom_site_fract_x
_atom_site_fract_y
_atom_site_fract_z
Si Si1 0.514777 0.230559 0.620889
Si Si2 0.366522 0.937216 0.777808
Si Si3 0.160792 0.844988 0.579057
Si Si4 0.863486 0.975022 0.592986
Si Si5 0.000000 0.220354 0.750000
Si Si6 0.344458 0.967590 0.942951
O O1 0.572327 0.361260 0.596897
O O2 0.443480 0.326929 0.641748
O O3 0.450332 0.100751 0.535483
O O4 0.600087 0.124990 0.713270
O O5 0.270200 0.901226 0.671307
O O6 0.462875 0.827001 0.802844
O O7 0.336208 0.902922 0.850567
O O8 0.138478 0.963439 0.496147
O O9 0.160686 0.660105 0.551708
O O10 0.753793 0.904225 0.561597
O O11 0.901678 0.114762 0.671089
#
# Coordination Sequence:
#
# PCOD8153977 Si02
#       6
#     8   8   8   8   4   8
#     4  11  26  45  73 106 149 182 237 298 350 420
#     4  11  26  46  72 103 143 192 237 289 351 426
#     4  11  24  47  75 104 143 193 234 285 360 430
#     4  12  26  45  73 108 143 188 237 294 354 425
#     4  12  26  48  72  96 146 192 244 284 360 430
#     4  11  24  49  71 108 144 188 237 289 356 426
#
# _framework density 23.854376999999999
#
# number of rings (size 3 to 8) (size 9 to 14) (size 15 to 20)
#    0.000    0.727    1.818    6.000    5.091    3.636 
#    3.273    0.000    0.000    0.000    0.000    0.000 
#    0.000    0.000    0.000    0.000    0.000    0.000 
#
# Total GULP energy -272888.054332 kJ/mol
# GULP energy per Si atom -12404.002470 kJ/mol
# Density = 2.380008 g / cm^3
# Si number density = 23.854377 Si / 1000 Ang^3
#
#
#
# Elastic Constant Matrix: (Units=GPa)
#
#
# Indices 1 2 3 4 5 6 
#
# 1 116.2885 44.9142 8.6615 0.0000 5.4462 0.0000
# 2 44.9142 85.4117 39.2657 0.0000 -8.9030 0.0000
# 3 8.6615 39.2657 68.8171 0.0000 11.1506 0.0000
# 4 0.0000 0.0000 0.0000 31.0851 0.0000 3.6777
# 5 5.4462 -8.9030 11.1506 0.0000 31.1274 0.0000
# 6 0.0000 0.0000 0.0000 3.6777 0.0000 41.9215
#
#
#
# Elastic Compliance Matrix: (Units=1/GPa)
#
#
# Indices 1 2 3 4 5 6 
#
# 1 0.012123 -0.009265 0.004813 0.000000 -0.006495 0.000000
# 2 -0.009265 0.025242 -0.015573 0.000000 0.014419 0.000000
# 3 0.004813 -0.015573 0.025128 0.000000 -0.014298 0.000000
# 4 0.000000 0.000000 0.000000 0.032507 0.000000 -0.002852
# 5 -0.006495 0.014419 -0.014298 0.000000 0.042508 0.000000
# 6 0.000000 0.000000 0.000000 -0.002852 0.000000 0.024104
#
#
# Mechanical properties :
#
#
# Convention : Reuss Voigt Hill
#
# Bulk Modulus (GPa) = 44.55628 50.68891 47.62260
# Shear Modulus (GPa) = 23.90697 32.67186 28.28941
#
# Velocity S-wave (km/s) = 3.16920 3.70488 3.44746
# Velocity P-wave (km/s) = 5.66663 6.29261 5.98781
#
# Compressibility (1/GPa) = 0.02244352
#
# Stress axis : x y z
#
# Youngs Moduli (GPa) = 82.48553 39.61626 39.79653
#
# Poissons Ratio (x) = 0.36703 -0.19153
# Poissons Ratio (y) = 0.76420 0.61975
# Poissons Ratio (z) = -0.39699 0.61694
#
# Static dielectric constant tensor:
#      x y z
#    x 4.592590 0.000000 0.020440 
#    y 0.000000 4.218020 0.000000 
#    z 0.020440 0.000000 4.119120 
# 
# 
# High freq. dielectric constant tensor:
#      x y z
#    x 1.969580 0.000000 0.002960 
#    y 0.000000 1.941610 0.000000 
#    z 0.002960 0.000000 1.940780 
# 
# From -- ./inp_files/159806.got.cif
#   From: 2010.06.25/outbox.cif.g09.slc.cpg/sg15_80_cif.got.tgz:159806.got - 2010.06.28 07:06:18.
