data_PCOD8153327
_publ_section_title
;
Structure prediction by ZEFSAII (Michael W. Deem and Ramdas Pophale) SiO2 
 PCOD8153327
Probable space group: C 2/C
;
_chemical_formula_sum "Si O2"
_cell_formula_units_Z 56
_cell_length_a 9.561571
_cell_length_b 27.658390
_cell_length_c 17.903701
_cell_angle_alpha 90.000000
_cell_angle_beta 34.171007
_cell_angle_gamma 90.000000
_cell_volume 2659.354056
_symmetry_space_group_name_H-M "C 2/C"
_symmetry_group_IT_number 15
_symmetry_cell_setting 'monoclinic'
loop_
_space_group_symop_operation_xyz
x,y,z
-x,y,1/2-z
-x,-y,-z
x,-y,1/2+z
1/2+x,1/2+y,z
1/2-x,1/2+y,1/2-z
1/2-x,1/2-y,-z
1/2+x,1/2-y,1/2+z
loop_
_atom_site_type_symbol
_atom_site_label
_atom_site_fract_x
_atom_site_fract_y
_atom_site_fract_z
Si Si1 0.589819 0.111348 0.364934
Si Si2 0.429254 0.348722 0.463085
Si Si3 0.218972 0.492516 0.841841
Si Si4 0.574424 0.148664 0.535891
Si Si5 0.070723 0.816646 0.868168
Si Si6 0.657040 0.278835 0.248453
Si Si7 0.138690 0.576411 0.761227
O O1 0.325642 0.126557 0.448937
O O2 0.642186 0.054857 0.329491
O O3 0.617689 0.121400 0.439942
O O4 0.804709 0.138450 0.226871
O O5 0.409329 0.325447 0.552976
O O6 0.486150 0.301771 0.387841
O O7 0.635353 0.390189 0.366383
O O8 0.500000 0.488086 0.750000
O O9 0.234271 0.535397 0.774859
O O10 0.000000 0.500000 0.000000
O O11 0.322904 0.178811 0.640232
O O12 0.560732 0.109061 0.607155
O O13 0.789166 0.186030 0.463454
O O14 0.190419 0.766494 0.787056
O O15 0.500000 0.257108 0.250000
O O16 0.000000 0.554129 0.750000
#
# Coordination Sequence:
#
# PCOD8153327 Si02
#       7
#     8   8   8   8   8   8   8
#     4  12  25  45  71  99 142 181 230 290 351 416
#     4  11  25  46  69 101 141 183 239 284 356 423
#     4  12  26  46  75 109 140 187 245 295 356 433
#     4  11  23  45  67  98 138 181 230 283 346 412
#     4  12  26  43  66 102 143 178 230 293 347 415
#     4  11  24  42  72  97 132 188 235 283 344 417
#     4  11  24  45  73 100 139 185 230 291 351 421
#
# _framework density 21.057746000000002
#
# number of rings (size 3 to 8) (size 9 to 14) (size 15 to 20)
#    0.000    0.571    4.286    3.857    2.000    2.286 
#    2.571    2.143    0.000    0.000    0.000    0.000 
#    0.000    0.000    0.000    0.000    0.000    0.000 
#
# Total GULP energy -347262.346240 kJ/mol
# GULP energy per Si atom -12402.226651 kJ/mol
# Density = 2.100982 g / cm^3
# Si number density = 21.057746 Si / 1000 Ang^3
#
#
#
# Elastic Constant Matrix: (Units=GPa)
#
#
# Indices 1 2 3 4 5 6 
#
# 1 599.1199 572.7713 429.6169 -0.0010 48.1893 -0.0001
# 2 572.7713 746.0073 476.3384 -0.0013 69.4683 0.0000
# 3 429.6169 476.3384 420.0381 -0.0008 50.1137 -0.0003
# 4 -0.0010 -0.0013 -0.0008 24.6703 -0.0002 5.6406
# 5 48.1893 69.4683 50.1137 -0.0002 39.4142 0.0001
# 6 -0.0001 0.0000 -0.0003 5.6406 0.0001 20.3663
#
#
#
# Elastic Compliance Matrix: (Units=1/GPa)
#
#
# Indices 1 2 3 4 5 6 
#
# 1 0.008196 -0.003536 -0.004622 0.000000 0.002088 0.000000
# 2 -0.003536 0.006499 -0.003422 0.000000 -0.002781 0.000000
# 3 -0.004622 -0.003422 0.011312 0.000000 -0.002699 0.000000
# 4 0.000000 0.000000 0.000000 0.043275 0.000000 -0.011985
# 5 0.002088 -0.002781 -0.002699 0.000000 0.031151 0.000000
# 6 0.000000 0.000000 0.000000 -0.011985 0.000000 0.052420
#
#
# Mechanical properties :
#
#
# Convention : Reuss Voigt Hill
#
# Bulk Modulus (GPa) = 351.37230 524.73540 438.05385
# Shear Modulus (GPa) = 28.25453 35.98608 32.12031
#
# Velocity S-wave (km/s) = 3.66698 4.13840 3.90980
# Velocity P-wave (km/s) = 13.60708 16.50954 15.12808
#
# Compressibility (1/GPa) = 0.00284598
#
# Stress axis : x y z
#
# Youngs Moduli (GPa) = 122.01006 153.86344 88.40466
#
# Poissons Ratio (x) = 0.54402 0.40865
# Poissons Ratio (y) = 0.43139 0.30255
# Poissons Ratio (z) = 0.56399 0.52657
#
# Static dielectric constant tensor:
#      x y z
#    x 3.832770 0.000000 -0.052510 
#    y 0.000000 3.823830 0.000000 
#    z -0.052510 0.000000 4.008540 
# 
# 
# High freq. dielectric constant tensor:
#      x y z
#    x 1.833540 0.000000 -0.004030 
#    y 0.000000 1.832450 0.000000 
#    z -0.004030 0.000000 1.839910 
# 
# From -- ./inp_files/81235.got.cif
#   From: 2010.06.25/outbox.cif.g09.slc.cpg/sg15_41_cif.got.tgz:81235.got - 2010.06.28 07:06:18.
