data_PCOD8153188
_publ_section_title
;
Structure prediction by ZEFSAII (Michael W. Deem and Ramdas Pophale) SiO2 
 PCOD8153188
Probable space group: C 2/C
;
_chemical_formula_sum "Si O2"
_cell_formula_units_Z 64
_cell_length_a 18.173185
_cell_length_b 16.379094
_cell_length_c 14.475391
_cell_angle_alpha 90.000000
_cell_angle_beta 40.283871
_cell_angle_gamma 90.000000
_cell_volume 2785.929839
_symmetry_space_group_name_H-M "C 2/C"
_symmetry_group_IT_number 15
_symmetry_cell_setting 'monoclinic'
loop_
_space_group_symop_operation_xyz
x,y,z
-x,y,1/2-z
-x,-y,-z
x,-y,1/2+z
1/2+x,1/2+y,z
1/2-x,1/2+y,1/2-z
1/2-x,1/2-y,-z
1/2+x,1/2-y,1/2+z
loop_
_atom_site_type_symbol
_atom_site_label
_atom_site_fract_x
_atom_site_fract_y
_atom_site_fract_z
Si Si1 0.560211 0.672038 0.409761
Si Si2 0.955579 0.667101 0.977631
Si Si3 0.342781 0.058229 0.647303
Si Si4 0.283689 0.804660 0.803401
Si Si5 0.480765 0.480808 0.669611
Si Si6 0.611427 0.965948 0.083217
Si Si7 0.364756 0.362744 0.233766
Si Si8 0.266224 0.471001 0.587987
O O1 0.501638 0.743250 0.404007
O O2 0.677401 0.707635 0.336411
O O3 0.578355 0.587624 0.336824
O O4 0.482242 0.653022 0.571069
O O5 0.058191 0.605275 0.896166
O O6 0.886488 0.627418 0.957472
O O7 0.887919 0.672702 0.137438
O O8 0.233414 0.116226 0.745022
O O9 0.383161 0.027131 0.508715
O O10 0.306901 0.985138 0.749184
O O11 0.319219 0.721289 0.825228
O O12 0.253946 0.873685 0.908469
O O13 0.500000 0.440002 0.750000
O O14 0.393402 0.558080 0.770273
O O15 0.602816 0.508849 0.512499
O O16 0.500000 0.986297 0.250000
O O17 0.722036 0.977887 0.042288
#
# Coordination Sequence:
#
# PCOD8153188 Si02
#       8
#     8   8   8   8   8   8   8   8
#     4  11  23  44  71 103 136 188 238 288 356 420
#     4  11  24  42  69 102 143 181 233 295 351 419
#     4  12  22  45  70 100 139 191 236 285 354 420
#     4  11  23  43  72 103 134 185 241 291 353 414
#     4  12  26  44  69 105 143 186 238 288 354 422
#     4  12  25  41  68 105 144 186 236 288 355 426
#     4  11  23  44  73  99 133 184 241 291 348 422
#     4  12  24  44  71 103 144 190 231 292 351 424
#
# _framework density 22.972581999999999
#
# number of rings (size 3 to 8) (size 9 to 14) (size 15 to 20)
#    0.000    0.500    6.250    3.000    1.750    0.500 
#    0.000    6.250    0.000    0.000    0.000    0.000 
#    0.000    0.000    0.000    0.000    0.000    0.000 
#
# Total GULP energy -396612.088962 kJ/mol
# GULP energy per Si atom -12394.127780 kJ/mol
# Density = 2.292030 g / cm^3
# Si number density = 22.972582 Si / 1000 Ang^3
#
#
#
# Elastic Constant Matrix: (Units=GPa)
#
#
# Indices 1 2 3 4 5 6 
#
# 1 83.0234 35.0153 2.5693 0.0000 -8.8677 0.0000
# 2 35.0153 129.9315 14.1641 0.0000 -8.2699 0.0000
# 3 2.5693 14.1641 51.9437 0.0000 -8.1305 0.0000
# 4 0.0000 0.0000 0.0000 22.5305 0.0000 0.9169
# 5 -8.8677 -8.2699 -8.1305 0.0000 36.6924 0.0000
# 6 0.0000 0.0000 0.0000 0.9169 0.0000 36.5340
#
#
#
# Elastic Compliance Matrix: (Units=1/GPa)
#
#
# Indices 1 2 3 4 5 6 
#
# 1 0.013844 -0.003639 0.000728 0.000000 0.002687 0.000000
# 2 -0.003639 0.008954 -0.002158 0.000000 0.000660 0.000000
# 3 0.000728 -0.002158 0.020465 0.000000 0.004224 0.000000
# 4 0.000000 0.000000 0.000000 0.044430 0.000000 -0.001115
# 5 0.002687 0.000660 0.004224 0.000000 0.028988 0.000000
# 6 0.000000 0.000000 0.000000 -0.001115 0.000000 0.027400
#
#
# Mechanical properties :
#
#
# Convention : Reuss Voigt Hill
#
# Bulk Modulus (GPa) = 30.18863 40.93289 35.56076
# Shear Modulus (GPa) = 30.25508 33.36139 31.80823
#
# Velocity S-wave (km/s) = 3.63300 3.81494 3.72508
# Velocity P-wave (km/s) = 5.54688 6.10425 5.83223
#
# Compressibility (1/GPa) = 0.03312505
#
# Stress axis : x y z
#
# Youngs Moduli (GPa) = 72.23301 111.67682 48.86310
#
# Poissons Ratio (x) = 0.40642 -0.03558
# Poissons Ratio (y) = 0.26287 0.10546
# Poissons Ratio (z) = -0.05259 0.24103
#
# Static dielectric constant tensor:
#      x y z
#    x 4.057290 0.000000 -0.313770 
#    y 0.000000 4.534740 0.000000 
#    z -0.313770 0.000000 4.107610 
# 
# 
# High freq. dielectric constant tensor:
#      x y z
#    x 1.892820 0.000000 -0.024850 
#    y 0.000000 1.915600 0.000000 
#    z -0.024850 0.000000 1.911360 
# 
# From -- ./inp_files/163264.got.cif
#   From: 2010.06.25/outbox.cif.g09.slc.cpg/sg15_82_cif.got.tgz:163264.got - 2010.06.28 07:06:18.
