data_PCOD8153752
_publ_section_title
;
Structure prediction by ZEFSAII (Michael W. Deem and Ramdas Pophale) SiO2 
 PCOD8153752
Probable space group: C 2/C
;
_chemical_formula_sum "Si O2"
_cell_formula_units_Z 44
_cell_length_a 7.752918
_cell_length_b 16.645222
_cell_length_c 16.061777
_cell_angle_alpha 90.000000
_cell_angle_beta 93.075906
_cell_angle_gamma 90.000000
_cell_volume 2069.770750
_symmetry_space_group_name_H-M "C 2/C"
_symmetry_group_IT_number 15
_symmetry_cell_setting 'monoclinic'
loop_
_space_group_symop_operation_xyz
x,y,z
-x,y,1/2-z
-x,-y,-z
x,-y,1/2+z
1/2+x,1/2+y,z
1/2-x,1/2+y,1/2-z
1/2-x,1/2-y,-z
1/2+x,1/2-y,1/2+z
loop_
_atom_site_type_symbol
_atom_site_label
_atom_site_fract_x
_atom_site_fract_y
_atom_site_fract_z
Si Si1 0.311665 0.411339 0.207200
Si Si2 0.117935 0.927131 0.477038
Si Si3 0.631800 0.252370 0.680180
Si Si4 0.879360 0.627450 0.111080
Si Si5 0.046701 0.755433 0.997696
Si Si6 0.000000 0.516163 0.250000
O O1 0.500000 0.423869 0.250000
O O2 0.312811 0.442443 0.113271
O O3 0.258838 0.318456 0.211241
O O4 0.171852 0.461993 0.255839
O O5 0.283678 0.926843 0.540659
O O6 0.011476 0.844585 0.479900
O O7 0.000000 0.000000 0.500000
O O8 0.500000 0.272120 0.750000
O O9 0.740681 0.333132 0.670040
O O10 0.534492 0.227879 0.592213
O O11 0.004710 0.570895 0.167520
O O12 0.985540 0.697328 0.069194
O O13 0.250000 0.750000 0.000000
#
# Coordination Sequence:
#
# PCOD8153752 Si02
#       6
#     8   8   8   8   8   4
#     4  12  26  46  70 103 142 180 239 294 351 416
#     4  11  24  45  71  98 138 183 229 291 351 415
#     4  11  24  44  74 101 136 184 239 286 348 425
#     4  11  25  48  66 102 142 182 230 294 345 423
#     4  11  25  44  70 105 137 186 237 281 356 423
#     4  12  30  44  70 108 138 186 240 288 364 412
#
# _framework density 21.258393000000002
#
# number of rings (size 3 to 8) (size 9 to 14) (size 15 to 20)
#    0.000    0.727    4.545    2.182    8.909    4.364 
#    0.000    0.000    0.000    0.000    0.000    0.000 
#    0.000    0.000    0.000    0.000    0.000    0.000 
#
# Total GULP energy -272952.134586 kJ/mol
# GULP energy per Si atom -12406.915208 kJ/mol
# Density = 2.121001 g / cm^3
# Si number density = 21.258393 Si / 1000 Ang^3
#
#
#
# Elastic Constant Matrix: (Units=GPa)
#
#
# Indices 1 2 3 4 5 6 
#
# 1 137.3922 40.8989 43.1814 0.0000 5.3187 0.0000
# 2 40.8989 92.8670 43.0099 0.0000 9.0637 0.0000
# 3 43.1814 43.0099 115.1343 0.0000 -7.0045 0.0000
# 4 0.0000 0.0000 0.0000 17.3507 0.0000 -1.5635
# 5 5.3187 9.0637 -7.0045 0.0000 46.1224 0.0000
# 6 0.0000 0.0000 0.0000 -1.5635 0.0000 23.3071
#
#
#
# Elastic Compliance Matrix: (Units=1/GPa)
#
#
# Indices 1 2 3 4 5 6 
#
# 1 0.008864 -0.002730 -0.002356 0.000000 -0.000843 0.000000
# 2 -0.002730 0.014389 -0.004546 0.000000 -0.003203 0.000000
# 3 -0.002356 -0.004546 0.011444 0.000000 0.002903 0.000000
# 4 0.000000 0.000000 0.000000 0.057985 0.000000 0.003890
# 5 -0.000843 -0.003203 0.002903 0.000000 0.022849 0.000000
# 6 0.000000 0.000000 0.000000 0.003890 0.000000 0.043166
#
#
# Mechanical properties :
#
#
# Convention : Reuss Voigt Hill
#
# Bulk Modulus (GPa) = 64.79896 66.61933 65.70914
# Shear Modulus (GPa) = 27.30663 31.90958 29.60811
#
# Velocity S-wave (km/s) = 3.58790 3.87852 3.73604
# Velocity P-wave (km/s) = 6.90737 7.17378 7.04184
#
# Compressibility (1/GPa) = 0.01543235
#
# Stress axis : x y z
#
# Youngs Moduli (GPa) = 112.81168 69.49984 87.38318
#
# Poissons Ratio (x) = 0.18977 0.20587
# Poissons Ratio (y) = 0.30803 0.39723
# Poissons Ratio (z) = 0.26577 0.31593
#
# Static dielectric constant tensor:
#      x y z
#    x 3.825500 0.000000 0.008260 
#    y 0.000000 3.819310 0.000000 
#    z 0.008260 0.000000 4.011140 
# 
# 
# High freq. dielectric constant tensor:
#      x y z
#    x 1.840740 0.000000 -0.003300 
#    y 0.000000 1.837100 0.000000 
#    z -0.003300 0.000000 1.847120 
# 
# From -- ./inp_files/134441.got.cif
#   From: 2010.06.25/outbox.cif.g09.slc.cpg/sg15_68_cif.got.tgz:134441.got - 2010.06.28 07:06:18.
