data_PCOD8153648
_publ_section_title
;
Structure prediction by ZEFSAII (Michael W. Deem and Ramdas Pophale) SiO2 
 PCOD8153648
Probable space group: C 2/C
;
_chemical_formula_sum "Si O2"
_cell_formula_units_Z 44
_cell_length_a 10.511345
_cell_length_b 18.470413
_cell_length_c 11.369729
_cell_angle_alpha 90.000000
_cell_angle_beta 105.127608
_cell_angle_gamma 90.000000
_cell_volume 2130.926445
_symmetry_space_group_name_H-M "C 2/C"
_symmetry_group_IT_number 15
_symmetry_cell_setting 'monoclinic'
loop_
_space_group_symop_operation_xyz
x,y,z
-x,y,1/2-z
-x,-y,-z
x,-y,1/2+z
1/2+x,1/2+y,z
1/2-x,1/2+y,1/2-z
1/2-x,1/2-y,-z
1/2+x,1/2-y,1/2+z
loop_
_atom_site_type_symbol
_atom_site_label
_atom_site_fract_x
_atom_site_fract_y
_atom_site_fract_z
Si Si1 0.681480 0.956827 0.590121
Si Si2 0.500000 0.654934 0.750000
Si Si3 0.730601 0.219871 0.627311
Si Si4 0.600193 0.444500 0.475277
Si Si5 0.636264 0.359397 0.715428
Si Si6 0.460074 0.091107 0.868892
O O1 0.750112 0.893774 0.679000
O O2 0.590906 0.912153 0.478824
O O3 0.780232 0.011323 0.550032
O O4 0.597735 0.009607 0.654658
O O5 0.370424 0.704884 0.724353
O O6 0.483961 0.603892 0.633947
O O7 0.750000 0.250000 0.500000
O O8 0.657283 0.274510 0.697993
O O9 0.645621 0.146207 0.599055
O O10 0.500000 0.500000 0.500000
O O11 0.650292 0.394572 0.591571
O O12 0.500000 0.373306 0.750000
O O13 0.500000 0.118830 0.750000
#
# Coordination Sequence:
#
# PCOD8153648 Si02
#       6
#     8   4   8   8   8   8
#     4  11  24  43  72 101 136 181 226 294 350 407
#     4  12  26  46  76  94 140 192 224 290 352 414
#     4  12  27  48  66 100 138 185 233 278 351 424
#     4  12  23  44  73 103 137 175 237 289 351 413
#     4  12  25  43  68 103 138 174 235 289 336 421
#     4  11  25  45  68 100 139 178 232 286 351 422
#
# _framework density 20.648295999999998
#
# number of rings (size 3 to 8) (size 9 to 14) (size 15 to 20)
#    0.000    0.364    5.455    2.727    5.091    1.455 
#    0.000    2.727    0.000    0.000    0.000    0.000 
#    0.000    0.000    0.000    0.000    0.000    0.000 
#
# Total GULP energy -272794.844461 kJ/mol
# GULP energy per Si atom -12399.765657 kJ/mol
# Density = 2.060130 g / cm^3
# Si number density = 20.648296 Si / 1000 Ang^3
#
#
#
# Elastic Constant Matrix: (Units=GPa)
#
#
# Indices 1 2 3 4 5 6 
#
# 1 86.3499 26.9512 61.4707 0.0000 18.2100 0.0000
# 2 26.9512 96.6874 50.0616 0.0000 13.3850 0.0000
# 3 61.4707 50.0616 130.6938 0.0000 17.7332 0.0000
# 4 0.0000 0.0000 0.0000 35.0694 0.0000 -0.7487
# 5 18.2100 13.3850 17.7332 0.0000 42.0926 0.0000
# 6 0.0000 0.0000 0.0000 -0.7487 0.0000 54.9882
#
#
#
# Elastic Compliance Matrix: (Units=1/GPa)
#
#
# Indices 1 2 3 4 5 6 
#
# 1 0.018201 -0.000421 -0.007795 0.000000 -0.004456 0.000000
# 2 -0.000421 0.013096 -0.004538 0.000000 -0.002071 0.000000
# 3 -0.007795 -0.004538 0.013154 0.000000 -0.000727 0.000000
# 4 0.000000 0.000000 0.000000 0.028523 0.000000 0.000388
# 5 -0.004456 -0.002071 -0.000727 0.000000 0.026650 0.000000
# 6 0.000000 0.000000 0.000000 0.000388 0.000000 0.018191
#
#
# Mechanical properties :
#
#
# Convention : Reuss Voigt Hill
#
# Bulk Modulus (GPa) = 52.78369 65.63310 59.20840
# Shear Modulus (GPa) = 33.41442 38.11321 35.76382
#
# Velocity S-wave (km/s) = 4.02713 4.30097 4.16630
# Velocity P-wave (km/s) = 6.87331 7.51796 7.20285
#
# Compressibility (1/GPa) = 0.01894524
#
# Stress axis : x y z
#
# Youngs Moduli (GPa) = 54.94253 76.35978 76.02019
#
# Poissons Ratio (x) = 0.03211 0.59257
# Poissons Ratio (y) = 0.02311 0.34494
# Poissons Ratio (z) = 0.42827 0.34648
#
# Static dielectric constant tensor:
#      x y z
#    x 3.794660 0.000000 0.148390 
#    y 0.000000 3.939110 0.000000 
#    z 0.148390 0.000000 4.050670 
# 
# 
# High freq. dielectric constant tensor:
#      x y z
#    x 1.821060 0.000000 0.002620 
#    y 0.000000 1.822660 0.000000 
#    z 0.002620 0.000000 1.813290 
# 
# From -- ./inp_files/87552.got.cif
#   From: 2010.06.25/outbox.cif.g09.slc.cpg/sg15_44_cif.got.tgz:87552.got - 2010.06.28 07:06:18.
