data_PCOD8153119
_publ_section_title
;
Structure prediction by ZEFSAII (Michael W. Deem and Ramdas Pophale) SiO2 
 PCOD8153119
Probable space group: C 2/C
;
_chemical_formula_sum "Si O2"
_cell_formula_units_Z 48
_cell_length_a 22.147381
_cell_length_b 23.954116
_cell_length_c 11.553918
_cell_angle_alpha 90.000000
_cell_angle_beta 157.423293
_cell_angle_gamma 90.000000
_cell_volume 2353.274065
_symmetry_space_group_name_H-M "C 2/C"
_symmetry_group_IT_number 15
_symmetry_cell_setting 'monoclinic'
loop_
_space_group_symop_operation_xyz
x,y,z
-x,y,1/2-z
-x,-y,-z
x,-y,1/2+z
1/2+x,1/2+y,z
1/2-x,1/2+y,1/2-z
1/2-x,1/2-y,-z
1/2+x,1/2-y,1/2+z
loop_
_atom_site_type_symbol
_atom_site_label
_atom_site_fract_x
_atom_site_fract_y
_atom_site_fract_z
Si Si1 0.183701 0.389337 0.754382
Si Si2 0.742155 0.984205 0.027011
Si Si3 0.521445 0.568860 0.154482
Si Si4 0.000000 0.840813 0.250000
Si Si5 0.463754 0.207167 0.820360
Si Si6 0.000000 0.453726 0.250000
Si Si7 0.604923 0.682708 0.179868
O O1 0.085385 0.332830 0.604150
O O2 0.128820 0.413938 0.535295
O O3 0.162673 0.432933 0.819662
O O4 0.368495 0.379510 0.073225
O O5 0.865296 0.964110 0.341164
O O6 0.826841 0.028677 0.091814
O O7 0.588842 0.010074 0.813120
O O8 0.500000 0.586120 0.250000
O O9 0.538744 0.623547 0.105591
O O10 0.074130 0.805847 0.488036
O O11 0.500000 0.210670 0.750000
O O12 0.484483 0.268612 0.909883
O O13 0.289692 0.183665 0.533467
#
# Coordination Sequence:
#
# PCOD8153119 Si02
#       7
#     8   8   8   4   8   4   8
#     4  12  23  41  67  96 134 170 223 272 335 399
#     4  11  25  39  65  99 132 179 223 276 337 394
#     4  11  23  43  65  97 135 174 224 279 332 403
#     4  12  22  42  67  96 129 170 222 274 334 404
#     4  11  23  44  67  94 129 174 222 275 335 403
#     4  12  24  42  65  96 137 180 218 276 326 406
#     4  11  24  43  68  96 127 177 224 274 337 395
#
# _framework density 20.397113999999998
#
# number of rings (size 3 to 8) (size 9 to 14) (size 15 to 20)
#    0.000    0.667    4.167    4.000    3.500    2.000 
#    0.000    0.833    0.000    0.000    0.000    0.000 
#    0.000    0.000    0.000    0.000    0.000    0.000 
#
# Total GULP energy -297694.469995 kJ/mol
# GULP energy per Si atom -12403.936250 kJ/mol
# Density = 2.035069 g / cm^3
# Si number density = 20.397114 Si / 1000 Ang^3
#
#
#
# Elastic Constant Matrix: (Units=GPa)
#
#
# Indices 1 2 3 4 5 6 
#
# 1 86.6716 37.5461 18.1273 0.0000 -1.0715 0.0000
# 2 37.5461 116.5325 31.4947 0.0000 6.3471 0.0000
# 3 18.1273 31.4947 85.5720 0.0000 7.3968 0.0000
# 4 0.0000 0.0000 0.0000 20.0876 0.0000 -4.3391
# 5 -1.0715 6.3471 7.3968 0.0000 37.0528 0.0000
# 6 0.0000 0.0000 0.0000 -4.3391 0.0000 20.8946
#
#
#
# Elastic Compliance Matrix: (Units=1/GPa)
#
#
# Indices 1 2 3 4 5 6 
#
# 1 0.013630 -0.004058 -0.001514 0.000000 0.001392 0.000000
# 2 -0.004058 0.010770 -0.002986 0.000000 -0.001366 0.000000
# 3 -0.001514 -0.002986 0.013295 0.000000 -0.002186 0.000000
# 4 0.000000 0.000000 0.000000 0.052120 0.000000 0.010823
# 5 0.001392 -0.001366 -0.002186 0.000000 0.027699 0.000000
# 6 0.000000 0.000000 0.000000 0.010823 0.000000 0.050107
#
#
# Mechanical properties :
#
#
# Convention : Reuss Voigt Hill
#
# Bulk Modulus (GPa) = 48.59509 51.45692 50.02600
# Shear Modulus (GPa) = 26.09652 29.04754 27.57203
#
# Velocity S-wave (km/s) = 3.58078 3.77782 3.68062
# Velocity P-wave (km/s) = 6.40095 6.65669 6.53007
#
# Compressibility (1/GPa) = 0.02057821
#
# Stress axis : x y z
#
# Youngs Moduli (GPa) = 73.36984 92.84838 75.21710
#
# Poissons Ratio (x) = 0.37678 0.11388
# Poissons Ratio (y) = 0.29773 0.22462
# Poissons Ratio (z) = 0.11108 0.27727
#
# Static dielectric constant tensor:
#      x y z
#    x 3.677560 0.000000 -0.023520 
#    y 0.000000 3.765290 0.000000 
#    z -0.023520 0.000000 3.905480 
# 
# 
# High freq. dielectric constant tensor:
#      x y z
#    x 1.796900 0.000000 0.002280 
#    y 0.000000 1.799260 0.000000 
#    z 0.002280 0.000000 1.809700 
# 
# From -- ./inp_files/79925.got.cif
#   From: 2010.06.25/outbox.cif.g09.slc.cpg/sg15_40_cif.got.tgz:79925.got - 2010.06.28 07:06:18.
