data_PCOD8153081
_publ_section_title
;
Structure prediction by ZEFSAII (Michael W. Deem and Ramdas Pophale) SiO2 
 PCOD8153081
Probable space group: C 2/C
;
_chemical_formula_sum "Si O2"
_cell_formula_units_Z 44
_cell_length_a 8.663577
_cell_length_b 18.209001
_cell_length_c 14.419386
_cell_angle_alpha 90.000000
_cell_angle_beta 64.022039
_cell_angle_gamma 90.000000
_cell_volume 2044.898477
_symmetry_space_group_name_H-M "C 2/C"
_symmetry_group_IT_number 15
_symmetry_cell_setting 'monoclinic'
loop_
_space_group_symop_operation_xyz
x,y,z
-x,y,1/2-z
-x,-y,-z
x,-y,1/2+z
1/2+x,1/2+y,z
1/2-x,1/2+y,1/2-z
1/2-x,1/2-y,-z
1/2+x,1/2-y,1/2+z
loop_
_atom_site_type_symbol
_atom_site_label
_atom_site_fract_x
_atom_site_fract_y
_atom_site_fract_z
Si Si1 0.769678 0.777726 0.724276
Si Si2 0.000000 0.385489 0.750000
Si Si3 0.830376 0.113099 0.744852
Si Si4 0.518744 0.992053 0.385748
Si Si5 0.344509 0.693641 0.410249
Si Si6 0.852354 0.061696 0.540997
O O1 0.663748 0.833293 0.686354
O O2 0.699497 0.697132 0.722017
O O3 0.751450 0.804628 0.835479
O O4 0.965051 0.776243 0.644112
O O5 0.943885 0.431051 0.674069
O O6 0.665533 0.065989 0.819978
O O7 0.876851 0.112008 0.624176
O O8 0.000000 0.081663 0.750000
O O9 0.334537 0.971670 0.393135
O O10 0.500000 0.000000 0.500000
O O11 0.250000 0.750000 0.500000
O O12 0.349508 0.610492 0.448361
O O13 0.000000 0.000000 0.500000
#
# Coordination Sequence:
#
# PCOD8153081 Si02
#       6
#     8   4   8   8   8   8
#     4  11  25  43  70 104 144 183 236 300 353 427
#     4  12  24  48  68 110 142 182 236 296 348 428
#     4  12  25  46  71 101 144 189 239 295 357 421
#     4  12  26  47  74 102 145 189 237 293 363 426
#     4  11  23  42  71 101 139 189 236 287 364 424
#     4  12  24  45  72 105 139 186 238 295 355 431
#
# _framework density 21.516960000000001
#
# number of rings (size 3 to 8) (size 9 to 14) (size 15 to 20)
#    0.000    0.364    4.545    4.364    2.545    0.000 
#    0.000    2.727    0.000    0.000    0.000    0.000 
#    0.000    0.000    0.000    0.000    0.000    0.000 
#
# Total GULP energy -272789.707618 kJ/mol
# GULP energy per Si atom -12399.532164 kJ/mol
# Density = 2.146799 g / cm^3
# Si number density = 21.516960 Si / 1000 Ang^3
#
#
#
# Elastic Constant Matrix: (Units=GPa)
#
#
# Indices 1 2 3 4 5 6 
#
# 1 122.7854 49.6427 29.0269 0.0000 -15.1894 0.0000
# 2 49.6427 149.7396 47.5028 0.0000 -8.3869 0.0000
# 3 29.0269 47.5028 109.5998 0.0000 1.5475 0.0000
# 4 0.0000 0.0000 0.0000 30.0129 0.0000 -4.4780
# 5 -15.1894 -8.3869 1.5475 0.0000 36.3735 0.0000
# 6 0.0000 0.0000 0.0000 -4.4780 0.0000 44.0581
#
#
#
# Elastic Compliance Matrix: (Units=1/GPa)
#
#
# Indices 1 2 3 4 5 6 
#
# 1 0.010027 -0.002621 -0.001571 0.000000 0.003650 0.000000
# 2 -0.002621 0.008566 -0.003033 0.000000 0.001009 0.000000
# 3 -0.001571 -0.003033 0.010880 0.000000 -0.001818 0.000000
# 4 0.000000 0.000000 0.000000 0.033832 0.000000 0.003439
# 5 0.003650 0.001009 -0.001818 0.000000 0.029327 0.000000
# 6 0.000000 0.000000 0.000000 0.003439 0.000000 0.023047
#
#
# Mechanical properties :
#
#
# Convention : Reuss Voigt Hill
#
# Bulk Modulus (GPa) = 66.56396 70.49664 68.53030
# Shear Modulus (GPa) = 36.99961 39.15239 38.07600
#
# Velocity S-wave (km/s) = 4.15125 4.27031 4.21120
# Velocity P-wave (km/s) = 7.34710 7.55966 7.45414
#
# Compressibility (1/GPa) = 0.01502314
#
# Stress axis : x y z
#
# Youngs Moduli (GPa) = 99.73060 116.74142 91.90971
#
# Poissons Ratio (x) = 0.30603 0.14438
# Poissons Ratio (y) = 0.26144 0.27873
# Poissons Ratio (z) = 0.15667 0.35403
#
# Static dielectric constant tensor:
#      x y z
#    x 4.626860 0.000000 0.151500 
#    y 0.000000 3.900290 0.000000 
#    z 0.151500 0.000000 4.161030 
# 
# 
# High freq. dielectric constant tensor:
#      x y z
#    x 1.863720 0.000000 -0.003650 
#    y 0.000000 1.854960 0.000000 
#    z -0.003650 0.000000 1.847390 
# 
# From -- ./inp_files/134263.got.cif
#   From: 2010.06.25/outbox.cif.g09.slc.cpg/sg15_68_cif.got.tgz:134263.got - 2010.06.28 07:06:18.
