data_PCOD8153821
_publ_section_title
;
Structure prediction by ZEFSAII (Michael W. Deem and Ramdas Pophale) SiO2 
 PCOD8153821
Probable space group: C 2/C
;
_chemical_formula_sum "Si O2"
_cell_formula_units_Z 40
_cell_length_a 17.250617
_cell_length_b 17.442860
_cell_length_c 8.016782
_cell_angle_alpha 90.000000
_cell_angle_beta 46.184651
_cell_angle_gamma 90.000000
_cell_volume 1740.619120
_symmetry_space_group_name_H-M "C 2/C"
_symmetry_group_IT_number 15
_symmetry_cell_setting 'monoclinic'
loop_
_space_group_symop_operation_xyz
x,y,z
-x,y,1/2-z
-x,-y,-z
x,-y,1/2+z
1/2+x,1/2+y,z
1/2-x,1/2+y,1/2-z
1/2-x,1/2-y,-z
1/2+x,1/2-y,1/2+z
loop_
_atom_site_type_symbol
_atom_site_label
_atom_site_fract_x
_atom_site_fract_y
_atom_site_fract_z
Si Si1 0.806663 0.179942 0.741485
Si Si2 0.079167 0.042414 0.761942
Si Si3 0.395316 0.047881 0.017766
Si Si4 0.909210 0.686945 0.245305
Si Si5 0.239555 0.570875 0.588271
O O1 0.900560 0.244690 0.617302
O O2 0.772717 0.156143 0.603066
O O3 0.844958 0.101087 0.762136
O O4 0.699444 0.201741 0.995641
O O5 0.155731 0.981857 0.555354
O O6 0.000000 0.085146 0.750000
O O7 0.000000 0.000000 0.000000
O O8 0.500000 0.030987 0.750000
O O9 0.301809 0.082112 0.039170
O O10 0.420602 0.106853 0.130521
O O11 0.355515 0.967645 0.157211
O O12 0.000000 0.697313 0.250000
#
# Coordination Sequence:
#
# PCOD8153821 Si02
#       5
#     8   8   8   8   8
#     4  11  24  45  71  99 138 184 225 287 342 414
#     4  12  22  40  66  99 134 175 225 280 341 396
#     4  12  24  42  71 103 141 179 225 285 343 412
#     4  11  25  48  69  96 143 187 229 273 349 422
#     4  12  23  43  67 107 136 170 237 282 339 400
#
# _framework density 22.980329999999999
#
# number of rings (size 3 to 8) (size 9 to 14) (size 15 to 20)
#    0.000    0.400    6.000    2.400    0.000    2.400 
#    3.600    0.000    0.000    0.000    0.000    0.000 
#    0.000    0.000    0.000    0.000    0.000    0.000 
#
# Total GULP energy -247848.292931 kJ/mol
# GULP energy per Si atom -12392.414647 kJ/mol
# Density = 2.292803 g / cm^3
# Si number density = 22.980330 Si / 1000 Ang^3
#
#
#
# Elastic Constant Matrix: (Units=GPa)
#
#
# Indices 1 2 3 4 5 6 
#
# 1 170.1622 50.6326 20.8955 0.0000 7.4084 0.0000
# 2 50.6326 67.6595 -4.6445 0.0000 -3.5369 0.0000
# 3 20.8955 -4.6445 62.1586 0.0000 -20.0928 0.0000
# 4 0.0000 0.0000 0.0000 19.0294 0.0000 10.2411
# 5 7.4084 -3.5369 -20.0928 0.0000 36.4037 0.0000
# 6 0.0000 0.0000 0.0000 10.2411 0.0000 44.7878
#
#
#
# Elastic Compliance Matrix: (Units=1/GPa)
#
#
# Indices 1 2 3 4 5 6 
#
# 1 0.008960 -0.007358 -0.005334 0.000000 -0.005482 0.000000
# 2 -0.007358 0.021088 0.006324 0.000000 0.007036 0.000000
# 3 -0.005334 0.006324 0.023008 0.000000 0.014399 0.000000
# 4 0.000000 0.000000 0.000000 0.059924 0.000000 -0.013702
# 5 -0.005482 0.007036 0.014399 0.000000 0.037216 0.000000
# 6 0.000000 0.000000 0.000000 -0.013702 0.000000 0.025461
#
#
# Mechanical properties :
#
#
# Convention : Reuss Voigt Hill
#
# Bulk Modulus (GPa) = 24.80179 48.19417 36.49798
# Shear Modulus (GPa) = 24.77303 35.58397 30.17850
#
# Velocity S-wave (km/s) = 3.28687 3.93931 3.62779
# Velocity P-wave (km/s) = 5.02202 6.45820 5.78485
#
# Compressibility (1/GPa) = 0.04031967
#
# Stress axis : x y z
#
# Youngs Moduli (GPa) = 111.61071 47.42066 43.46339
#
# Poissons Ratio (x) = 0.34891 0.23183
# Poissons Ratio (y) = 0.82119 -0.27484
# Poissons Ratio (z) = 0.59531 -0.29987
#
# Static dielectric constant tensor:
#      x y z
#    x 3.988350 0.000000 0.282660 
#    y 0.000000 4.017700 0.000000 
#    z 0.282660 0.000000 4.021250 
# 
# 
# High freq. dielectric constant tensor:
#      x y z
#    x 1.945580 0.000000 -0.002840 
#    y 0.000000 1.886660 0.000000 
#    z -0.002840 0.000000 1.896110 
# 
# From -- ./inp_files/48302.got.cif
#   From: 2010.06.25/outbox.cif.g09.slc.cpg/sg15_25_cif.got.tgz:48302.got - 2010.06.28 07:06:18.
