data_PCOD8153385
_publ_section_title
;
Structure prediction by ZEFSAII (Michael W. Deem and Ramdas Pophale) SiO2 
 PCOD8153385
Probable space group: C 2/C
;
_chemical_formula_sum "Si O2"
_cell_formula_units_Z 48
_cell_length_a 14.822346
_cell_length_b 26.427662
_cell_length_c 7.958718
_cell_angle_alpha 90.000000
_cell_angle_beta 40.072925
_cell_angle_gamma 90.000000
_cell_volume 2006.985383
_symmetry_space_group_name_H-M "C 2/C"
_symmetry_group_IT_number 15
_symmetry_cell_setting 'monoclinic'
loop_
_space_group_symop_operation_xyz
x,y,z
-x,y,1/2-z
-x,-y,-z
x,-y,1/2+z
1/2+x,1/2+y,z
1/2-x,1/2+y,1/2-z
1/2-x,1/2-y,-z
1/2+x,1/2-y,1/2+z
loop_
_atom_site_type_symbol
_atom_site_label
_atom_site_fract_x
_atom_site_fract_y
_atom_site_fract_z
Si Si1 0.507733 0.851677 0.546990
Si Si2 0.162179 0.011015 0.789714
Si Si3 0.959126 0.144233 0.037273
Si Si4 0.740792 0.580218 0.368222
Si Si5 0.695020 0.605441 0.916862
Si Si6 0.088077 0.246911 0.280125
O O1 0.500000 0.835236 0.750000
O O2 0.376043 0.884277 0.673199
O O3 0.641141 0.886260 0.329442
O O4 0.521218 0.800359 0.423109
O O5 0.229847 0.045914 0.549427
O O6 0.170546 0.044811 0.949746
O O7 0.246827 0.958852 0.700733
O O8 0.000000 0.000000 0.000000
O O9 0.897012 0.115937 0.960689
O O10 0.861902 0.129498 0.333584
O O11 0.938662 0.204615 0.037104
O O12 0.118526 0.128691 0.856998
O O13 0.000000 0.225330 0.250000
O O14 0.250000 0.250000 0.000000
#
# Coordination Sequence:
#
# PCOD8153385 Si02
#       6
#     8   8   8   8   8   8
#     4  12  27  49  68 112 160 194 239 319 385 443
#     4  12  25  45  75 107 141 200 256 303 366 446
#     4  11  23  45  76 110 136 199 254 311 360 449
#     4  12  27  46  76 108 150 195 251 314 375 439
#     4  11  23  46  74 101 151 186 251 306 368 439
#     4  12  23  47  78 108 144 200 253 302 376 459
#
# _framework density 23.916466
#
# number of rings (size 3 to 8) (size 9 to 14) (size 15 to 20)
#    0.000    0.333    6.667    2.500    2.333    0.667 
#    3.000    2.500    0.000    0.000    0.000    0.000 
#    0.000    0.000    0.000    0.000    0.000    0.000 
#
# Total GULP energy -297578.964792 kJ/mol
# GULP energy per Si atom -12399.123533 kJ/mol
# Density = 2.386203 g / cm^3
# Si number density = 23.916466 Si / 1000 Ang^3
#
#
#
# Elastic Constant Matrix: (Units=GPa)
#
#
# Indices 1 2 3 4 5 6 
#
# 1 113.6643 48.8979 37.1402 0.0000 -22.3706 0.0000
# 2 48.8979 197.5080 43.1660 0.0000 -26.5589 0.0000
# 3 37.1402 43.1660 81.9032 0.0000 -31.3898 0.0000
# 4 0.0000 0.0000 0.0000 40.8059 0.0000 -14.3455
# 5 -22.3706 -26.5589 -31.3898 0.0000 41.2944 0.0000
# 6 0.0000 0.0000 0.0000 -14.3455 0.0000 23.5076
#
#
#
# Elastic Compliance Matrix: (Units=1/GPa)
#
#
# Indices 1 2 3 4 5 6 
#
# 1 0.011056 -0.001713 -0.003157 0.000000 0.002488 0.000000
# 2 -0.001713 0.006102 -0.001822 0.000000 0.001612 0.000000
# 3 -0.003157 -0.001822 0.019045 0.000000 0.011595 0.000000
# 4 0.000000 0.000000 0.000000 0.031200 0.000000 0.019039
# 5 0.002488 0.001612 0.011595 0.000000 0.035415 0.000000
# 6 0.000000 0.000000 0.000000 0.019039 0.000000 0.054158
#
#
# Mechanical properties :
#
#
# Convention : Reuss Voigt Hill
#
# Bulk Modulus (GPa) = 43.82095 72.38708 58.10402
# Shear Modulus (GPa) = 28.09533 38.71301 33.40417
#
# Velocity S-wave (km/s) = 3.43115 4.02764 3.74130
# Velocity P-wave (km/s) = 5.83604 7.20844 6.55823
#
# Compressibility (1/GPa) = 0.02282013
#
# Stress axis : x y z
#
# Youngs Moduli (GPa) = 90.44946 163.88191 52.50663
#
# Poissons Ratio (x) = 0.28066 0.16578
# Poissons Ratio (y) = 0.15490 0.09564
# Poissons Ratio (z) = 0.28559 0.29851
#
# Static dielectric constant tensor:
#      x y z
#    x 4.498340 0.000000 0.149230 
#    y 0.000000 4.822370 0.000000 
#    z 0.149230 0.000000 4.106770 
# 
# 
# High freq. dielectric constant tensor:
#      x y z
#    x 1.957890 0.000000 0.003740 
#    y 0.000000 1.973660 0.000000 
#    z 0.003740 0.000000 1.936760 
# 
# From -- ./inp_files/43808.got.cif
#   From: 2010.06.25/outbox.cif.g09.slc.cpg/sg15_22_cif.got.tgz:43808.got - 2010.06.28 07:06:18.
