data_PCOD8153596
_publ_section_title
;
Structure prediction by ZEFSAII (Michael W. Deem and Ramdas Pophale) SiO2 
 PCOD8153596
Probable space group: C 2/C
;
_chemical_formula_sum "Si O2"
_cell_formula_units_Z 64
_cell_length_a 11.127494
_cell_length_b 14.113856
_cell_length_c 18.379563
_cell_angle_alpha 90.000000
_cell_angle_beta 89.310240
_cell_angle_gamma 90.000000
_cell_volume 2886.335167
_symmetry_space_group_name_H-M "C 2/C"
_symmetry_group_IT_number 15
_symmetry_cell_setting 'monoclinic'
loop_
_space_group_symop_operation_xyz
x,y,z
-x,y,1/2-z
-x,-y,-z
x,-y,1/2+z
1/2+x,1/2+y,z
1/2-x,1/2+y,1/2-z
1/2-x,1/2-y,-z
1/2+x,1/2-y,1/2+z
loop_
_atom_site_type_symbol
_atom_site_label
_atom_site_fract_x
_atom_site_fract_y
_atom_site_fract_z
Si Si1 0.183374 0.155224 0.478058
Si Si2 0.513340 0.109817 0.664652
Si Si3 0.180081 0.656306 0.425029
Si Si4 0.638002 0.789601 0.763013
Si Si5 0.069855 0.759974 0.551859
Si Si6 0.771958 0.546949 0.607609
Si Si7 0.140312 0.926124 0.248117
Si Si8 0.793949 0.451600 0.843183
O O1 0.250000 0.250000 0.500000
O O2 0.179711 0.093407 0.551437
O O3 0.260701 0.095337 0.419794
O O4 0.050040 0.176094 0.449367
O O5 0.500000 0.131956 0.750000
O O6 0.582072 0.195866 0.624464
O O7 0.382064 0.114439 0.629112
O O8 0.579129 0.007924 0.653070
O O9 0.162566 0.704013 0.347702
O O10 0.076994 0.694839 0.479804
O O11 0.315348 0.672143 0.452302
O O12 0.162554 0.544622 0.424552
O O13 0.500000 0.808977 0.750000
O O14 0.675762 0.684110 0.738501
O O15 0.708867 0.867989 0.716449
O O16 0.695536 0.518556 0.679126
O O17 0.000000 0.942468 0.250000
O O18 0.195066 0.970042 0.321288
#
# Coordination Sequence:
#
# PCOD8153596 Si02
#       8
#     8   8   8   8   8   8   8   8
#     4  12  28  45  72 105 143 187 238 292 362 420
#     4  12  24  46  73 104 140 182 242 298 352 419
#     4  11  25  47  69 101 142 184 234 288 359 418
#     4  11  24  42  74 102 141 185 235 289 352 428
#     4  11  28  46  69 103 141 189 234 294 353 426
#     4  12  25  46  70 102 138 186 235 291 356 423
#     4  11  26  45  68 105 144 186 230 293 354 421
#     4  12  25  45  73 108 139 187 240 291 355 428
#
# _framework density 22.173446999999999
#
# number of rings (size 3 to 8) (size 9 to 14) (size 15 to 20)
#    0.000    0.500    3.750    3.375    8.750    2.500 
#    0.000    0.000    0.000    0.000    0.000    0.000 
#    0.000    0.000    0.000    0.000    0.000    0.000 
#
# Total GULP energy -396901.441950 kJ/mol
# GULP energy per Si atom -12403.170061 kJ/mol
# Density = 2.212298 g / cm^3
# Si number density = 22.173447 Si / 1000 Ang^3
#
#
#
# Elastic Constant Matrix: (Units=GPa)
#
#
# Indices 1 2 3 4 5 6 
#
# 1 94.7818 27.8070 34.3348 0.0000 5.7924 0.0000
# 2 27.8070 67.2072 24.7722 0.0000 3.2384 0.0000
# 3 34.3348 24.7722 123.5493 0.0000 0.3132 0.0000
# 4 0.0000 0.0000 0.0000 86.0422 0.0000 -20.0627
# 5 5.7924 3.2384 0.3132 0.0000 32.2255 0.0000
# 6 0.0000 0.0000 0.0000 -20.0627 0.0000 46.1535
#
#
#
# Elastic Compliance Matrix: (Units=1/GPa)
#
#
# Indices 1 2 3 4 5 6 
#
# 1 0.012897 -0.004240 -0.002729 0.000000 -0.001866 0.000000
# 2 -0.004240 0.017542 -0.002336 0.000000 -0.000978 0.000000
# 3 -0.002729 -0.002336 0.009319 0.000000 0.000635 0.000000
# 4 0.000000 0.000000 0.000000 0.012933 0.000000 0.005622
# 5 -0.001866 -0.000978 0.000635 0.000000 0.031459 0.000000
# 6 0.000000 0.000000 0.000000 0.005622 0.000000 0.024111
#
#
# Mechanical properties :
#
#
# Convention : Reuss Voigt Hill
#
# Bulk Modulus (GPa) = 47.28889 51.04072 49.16480
# Shear Modulus (GPa) = 37.33516 46.12586 41.73051
#
# Velocity S-wave (km/s) = 4.10784 4.56590 4.34291
# Velocity P-wave (km/s) = 6.62361 7.13200 6.88250
#
# Compressibility (1/GPa) = 0.02114662
#
# Stress axis : x y z
#
# Youngs Moduli (GPa) = 77.53581 57.00571 107.30471
#
# Poissons Ratio (x) = 0.24172 0.29286
# Poissons Ratio (y) = 0.32878 0.25071
# Poissons Ratio (z) = 0.21162 0.13319
#
# Static dielectric constant tensor:
#      x y z
#    x 3.922600 0.000000 0.044650 
#    y 0.000000 4.078650 0.000000 
#    z 0.044650 0.000000 4.090210 
# 
# 
# High freq. dielectric constant tensor:
#      x y z
#    x 1.874650 0.000000 0.004790 
#    y 0.000000 1.878500 0.000000 
#    z 0.004790 0.000000 1.883200 
# 
# From -- ./inp_files/198335.got.cif
#   From: 2010.06.25/outbox.cif.g09.slc.cpg/sg15_100_cif.got.tgz:198335.got - 2010.06.28 07:06:18.
