data_PCOD8153439
_publ_section_title
;
Structure prediction by ZEFSAII (Michael W. Deem and Ramdas Pophale) SiO2 
 PCOD8153439
Probable space group: C 2/C
;
_chemical_formula_sum "Si O2"
_cell_formula_units_Z 36
_cell_length_a 16.496889
_cell_length_b 8.792057
_cell_length_c 11.287139
_cell_angle_alpha 90.000000
_cell_angle_beta 78.235557
_cell_angle_gamma 90.000000
_cell_volume 1602.715727
_symmetry_space_group_name_H-M "C 2/C"
_symmetry_group_IT_number 15
_symmetry_cell_setting 'monoclinic'
loop_
_space_group_symop_operation_xyz
x,y,z
-x,y,1/2-z
-x,-y,-z
x,-y,1/2+z
1/2+x,1/2+y,z
1/2-x,1/2+y,1/2-z
1/2-x,1/2-y,-z
1/2+x,1/2-y,1/2+z
loop_
_atom_site_type_symbol
_atom_site_label
_atom_site_fract_x
_atom_site_fract_y
_atom_site_fract_z
Si Si1 0.936743 0.935220 0.870211
Si Si2 0.153971 0.433298 0.311929
Si Si3 0.233643 0.803575 0.636245
Si Si4 0.955144 0.239166 0.989547
Si Si5 0.500000 0.929660 0.750000
O O1 0.853017 0.890958 0.829459
O O2 0.000000 0.986545 0.750000
O O3 0.917212 0.078408 0.960197
O O4 0.972666 0.793948 0.935870
O O5 0.227427 0.340337 0.225948
O O6 0.190984 0.591628 0.345472
O O7 0.118604 0.338338 0.433208
O O8 0.080842 0.464720 0.239147
O O9 0.250000 0.750000 0.500000
O O10 0.995306 0.328996 0.869149
#
# Coordination Sequence:
#
# PCOD8153439 Si02
#       5
#     8   8   8   8   4
#     4  11  23  46  75 106 143 185 241 294 358 427
#     4  12  27  45  73 103 147 185 240 294 362 420
#     4  12  28  46  71 106 147 188 238 298 356 422
#     4  11  24  43  75 104 137 192 233 293 356 425
#     4  12  24  46  72 104 140 184 240 288 354 438
#
# _framework density 22.461874999999999
#
# number of rings (size 3 to 8) (size 9 to 14) (size 15 to 20)
#    0.000    0.444    3.333    4.667    6.222    0.889 
#    0.000    0.000    0.000    0.000    0.000    0.000 
#    0.000    0.000    0.000    0.000    0.000    0.000 
#
# Total GULP energy -223346.188394 kJ/mol
# GULP energy per Si atom -12408.121577 kJ/mol
# Density = 2.241075 g / cm^3
# Si number density = 22.461875 Si / 1000 Ang^3
#
#
#
# Elastic Constant Matrix: (Units=GPa)
#
#
# Indices 1 2 3 4 5 6 
#
# 1 108.6569 47.7916 32.3470 0.0000 2.6692 0.0000
# 2 47.7916 116.2841 58.6029 0.0000 -3.5437 0.0000
# 3 32.3470 58.6029 138.5927 0.0000 -6.3417 0.0000
# 4 0.0000 0.0000 0.0000 52.2861 0.0000 -3.6682
# 5 2.6692 -3.5437 -6.3417 0.0000 33.2007 0.0000
# 6 0.0000 0.0000 0.0000 -3.6682 0.0000 44.0474
#
#
#
# Elastic Compliance Matrix: (Units=1/GPa)
#
#
# Indices 1 2 3 4 5 6 
#
# 1 0.011392 -0.004262 -0.000928 0.000000 -0.001548 0.000000
# 2 -0.004262 0.012525 -0.004262 0.000000 0.000865 0.000000
# 3 -0.000928 -0.004262 0.009298 0.000000 0.001396 0.000000
# 4 0.000000 0.000000 0.000000 0.019238 0.000000 0.001602
# 5 -0.001548 0.000865 0.001396 0.000000 0.030603 0.000000
# 6 0.000000 0.000000 0.000000 0.001602 0.000000 0.022836
#
#
# Mechanical properties :
#
#
# Convention : Reuss Voigt Hill
#
# Bulk Modulus (GPa) = 69.86848 71.22409 70.54629
# Shear Modulus (GPa) = 38.59035 40.89301 39.74168
#
# Velocity S-wave (km/s) = 4.14942 4.27142 4.21086
# Velocity P-wave (km/s) = 7.35730 7.49029 7.42409
#
# Compressibility (1/GPa) = 0.01431260
#
# Stress axis : x y z
#
# Youngs Moduli (GPa) = 87.78173 79.83790 107.55083
#
# Poissons Ratio (x) = 0.34024 0.09977
# Poissons Ratio (y) = 0.37409 0.45838
# Poissons Ratio (z) = 0.08143 0.34027
#
# Static dielectric constant tensor:
#      x y z
#    x 5.019910 0.000000 0.149340 
#    y 0.000000 4.198810 0.000000 
#    z 0.149340 0.000000 4.128300 
# 
# 
# High freq. dielectric constant tensor:
#      x y z
#    x 1.876950 0.000000 0.001250 
#    y 0.000000 1.899540 0.000000 
#    z 0.001250 0.000000 1.899580 
# 
# From -- ./inp_files/102431.got.cif
#   From: 2010.06.25/outbox.cif.g09.slc.cpg/sg15_52_cif.got.tgz:102431.got - 2010.06.28 07:06:18.
