data_PCOD8153595
_publ_section_title
;
Structure prediction by ZEFSAII (Michael W. Deem and Ramdas Pophale) SiO2 
 PCOD8153595
Probable space group: C 2/C
;
_chemical_formula_sum "Si O2"
_cell_formula_units_Z 44
_cell_length_a 16.527945
_cell_length_b 8.739442
_cell_length_c 14.850071
_cell_angle_alpha 90.000000
_cell_angle_beta 89.582445
_cell_angle_gamma 90.000000
_cell_volume 2144.961792
_symmetry_space_group_name_H-M "C 2/C"
_symmetry_group_IT_number 15
_symmetry_cell_setting 'monoclinic'
loop_
_space_group_symop_operation_xyz
x,y,z
-x,y,1/2-z
-x,-y,-z
x,-y,1/2+z
1/2+x,1/2+y,z
1/2-x,1/2+y,1/2-z
1/2-x,1/2-y,-z
1/2+x,1/2-y,1/2+z
loop_
_atom_site_type_symbol
_atom_site_label
_atom_site_fract_x
_atom_site_fract_y
_atom_site_fract_z
Si Si1 0.500000 0.531067 0.250000
Si Si2 0.658665 0.216268 0.029324
Si Si3 0.253498 0.812167 0.645148
Si Si4 0.162895 0.110317 0.710554
Si Si5 0.864694 0.635247 0.985185
Si Si6 0.489962 0.344499 0.556144
O O1 0.420184 0.428403 0.236986
O O2 0.489425 0.634427 0.338955
O O3 0.637935 0.297465 0.122570
O O4 0.637003 0.040102 0.044783
O O5 0.750000 0.250000 0.000000
O O6 0.602306 0.288265 0.952178
O O7 0.278574 0.707203 0.727438
O O8 0.190546 0.727343 0.582712
O O9 0.332423 0.856461 0.587350
O O10 0.212074 0.960881 0.684714
O O11 0.953501 0.709695 0.983393
O O12 0.500000 0.500000 0.500000
#
# Coordination Sequence:
#
# PCOD8153595 Si02
#       6
#     4   8   8   8   8   8
#     4  12  26  44  72 102 140 184 236 284 358 418
#     4  12  26  45  71 102 141 185 237 292 354 423
#     4  11  24  42  72 100 140 178 234 287 348 418
#     4  12  25  45  68 106 136 187 234 287 353 425
#     4  11  24  46  69 103 138 187 230 293 354 416
#     4  12  25  48  73 100 142 186 236 291 355 426
#
# _framework density 20.513188
#
# number of rings (size 3 to 8) (size 9 to 14) (size 15 to 20)
#    0.000    0.364    5.455    2.727    7.636    0.000 
#    3.273    0.000    0.000    0.000    0.000    0.000 
#    0.000    0.000    0.000    0.000    0.000    0.000 
#
# Total GULP energy -272927.966942 kJ/mol
# GULP energy per Si atom -12405.816679 kJ/mol
# Density = 2.046650 g / cm^3
# Si number density = 20.513188 Si / 1000 Ang^3
#
#
#
# Elastic Constant Matrix: (Units=GPa)
#
#
# Indices 1 2 3 4 5 6 
#
# 1 131.1632 63.6330 34.8583 0.0000 -4.4098 0.0000
# 2 63.6330 160.8908 44.5116 0.0000 -9.9574 0.0000
# 3 34.8583 44.5116 97.3666 0.0000 -2.6623 0.0000
# 4 0.0000 0.0000 0.0000 23.2083 0.0000 13.6389
# 5 -4.4098 -9.9574 -2.6623 0.0000 29.2439 0.0000
# 6 0.0000 0.0000 0.0000 13.6389 0.0000 65.9435
#
#
#
# Elastic Compliance Matrix: (Units=1/GPa)
#
#
# Indices 1 2 3 4 5 6 
#
# 1 0.009757 -0.003301 -0.001980 0.000000 0.000167 0.000000
# 2 -0.003301 0.008367 -0.002585 0.000000 0.002116 0.000000
# 3 -0.001980 -0.002585 0.012159 0.000000 -0.000072 0.000000
# 4 0.000000 0.000000 0.000000 0.049050 0.000000 -0.010145
# 5 0.000167 0.002116 -0.000072 0.000000 0.034934 0.000000
# 6 0.000000 0.000000 0.000000 -0.010145 0.000000 0.017263
#
#
# Mechanical properties :
#
#
# Convention : Reuss Voigt Hill
#
# Bulk Modulus (GPa) = 68.72121 75.04737 71.88429
# Shear Modulus (GPa) = 32.87027 40.10698 36.48863
#
# Velocity S-wave (km/s) = 4.00734 4.42654 4.22214
# Velocity P-wave (km/s) = 7.41521 7.92402 7.67383
#
# Compressibility (1/GPa) = 0.01455155
#
# Stress axis : x y z
#
# Youngs Moduli (GPa) = 102.48756 119.51426 82.24262
#
# Poissons Ratio (x) = 0.39452 0.16280
# Poissons Ratio (y) = 0.33832 0.21263
# Poissons Ratio (z) = 0.20288 0.30900
#
# Static dielectric constant tensor:
#      x y z
#    x 3.920790 0.000000 -0.040920 
#    y 0.000000 3.926720 0.000000 
#    z -0.040920 0.000000 3.827160 
# 
# 
# High freq. dielectric constant tensor:
#      x y z
#    x 1.817420 0.000000 0.002450 
#    y 0.000000 1.813060 0.000000 
#    z 0.002450 0.000000 1.808650 
# 
# From -- ./inp_files/159361.got.cif
#   From: 2010.06.25/outbox.cif.g09.slc.cpg/sg15_80_cif.got.tgz:159361.got - 2010.06.28 07:06:18.
