data_PCOD8153509
_publ_section_title
;
Structure prediction by ZEFSAII (Michael W. Deem and Ramdas Pophale) SiO2 
 PCOD8153509
Probable space group: C 2/C
;
_chemical_formula_sum "Si O2"
_cell_formula_units_Z 36
_cell_length_a 6.435400
_cell_length_b 33.210877
_cell_length_c 13.426878
_cell_angle_alpha 90.000000
_cell_angle_beta 43.363421
_cell_angle_gamma 90.000000
_cell_volume 1970.378235
_symmetry_space_group_name_H-M "C 2/C"
_symmetry_group_IT_number 15
_symmetry_cell_setting 'monoclinic'
loop_
_space_group_symop_operation_xyz
x,y,z
-x,y,1/2-z
-x,-y,-z
x,-y,1/2+z
1/2+x,1/2+y,z
1/2-x,1/2+y,1/2-z
1/2-x,1/2-y,-z
1/2+x,1/2-y,1/2+z
loop_
_atom_site_type_symbol
_atom_site_label
_atom_site_fract_x
_atom_site_fract_y
_atom_site_fract_z
Si Si1 0.122764 0.811631 0.096315
Si Si2 0.500000 0.422773 0.750000
Si Si3 0.398177 0.114587 0.394475
Si Si4 0.833850 0.963966 0.610445
Si Si5 0.802425 0.743734 0.096016
O O1 0.000000 0.817769 0.250000
O O2 0.874152 0.786564 0.122042
O O3 0.177881 0.854565 0.026653
O O4 0.437029 0.788390 0.979407
O O5 0.510046 0.451117 0.649180
O O6 0.799884 0.394740 0.646564
O O7 0.500000 0.130943 0.250000
O O8 0.196491 0.074447 0.451917
O O9 0.500000 0.980157 0.750000
O O10 0.000000 0.000000 0.500000
O O11 0.500000 0.725484 0.250000
O O12 0.750000 0.750000 0.000000
#
# Coordination Sequence:
#
# PCOD8153509 Si02
#       5
#     8   4   8   8   8
#     4  11  24  40  57  91 121 145 205 251 285 352
#     4   8  18  38  58  80 114 156 188 224 298 340
#     4   9  21  37  59  84 116 155 195 238 288 354
#     4   9  19  38  58  86 114 148 194 234 283 355
#     4  11  24  41  61  83 116 163 193 239 301 347
#
# _framework density 18.270603999999999
#
# number of rings (size 3 to 8) (size 9 to 14) (size 15 to 20)
#    0.000    2.667    2.222    0.000    4.667    5.333 
#    6.000    0.000    0.000    0.000    0.000    0.000 
#    0.000    0.000    0.000    0.000    0.000    0.000 
#
# Total GULP energy -223171.181688 kJ/mol
# GULP energy per Si atom -12398.398983 kJ/mol
# Density = 1.822902 g / cm^3
# Si number density = 18.270604 Si / 1000 Ang^3
#
#
#
# Elastic Constant Matrix: (Units=GPa)
#
#
# Indices 1 2 3 4 5 6 
#
# 1 121.6566 41.5027 46.2795 0.0000 5.2816 0.0000
# 2 41.5027 122.5345 71.7581 0.0000 8.2090 0.0000
# 3 46.2795 71.7581 131.1732 0.0000 11.0376 0.0000
# 4 0.0000 0.0000 0.0000 42.3861 0.0000 7.7387
# 5 5.2816 8.2090 11.0376 0.0000 29.4985 0.0000
# 6 0.0000 0.0000 0.0000 7.7387 0.0000 15.4452
#
#
#
# Elastic Compliance Matrix: (Units=1/GPa)
#
#
# Indices 1 2 3 4 5 6 
#
# 1 0.009790 -0.001894 -0.002390 0.000000 -0.000331 0.000000
# 2 -0.001894 0.012398 -0.006043 0.000000 -0.000850 0.000000
# 3 -0.002390 -0.006043 0.011972 0.000000 -0.002370 0.000000
# 4 0.000000 0.000000 0.000000 0.025968 0.000000 -0.013011
# 5 -0.000331 -0.000850 -0.002370 0.000000 0.035083 0.000000
# 6 0.000000 0.000000 0.000000 -0.013011 0.000000 0.071264
#
#
# Mechanical properties :
#
#
# Convention : Reuss Voigt Hill
#
# Bulk Modulus (GPa) = 74.03900 77.16054 75.59977
# Shear Modulus (GPa) = 26.09205 31.85423 28.97314
#
# Velocity S-wave (km/s) = 3.78311 4.18002 3.98650
# Velocity P-wave (km/s) = 7.72619 8.10065 7.91563
#
# Compressibility (1/GPa) = 0.01350640
#
# Stress axis : x y z
#
# Youngs Moduli (GPa) = 102.15022 80.65784 83.53034
#
# Poissons Ratio (x) = 0.15276 0.19963
# Poissons Ratio (y) = 0.19347 0.50474
# Poissons Ratio (z) = 0.24412 0.48738
#
# Static dielectric constant tensor:
#      x y z
#    x 3.556720 0.000000 -0.097330 
#    y 0.000000 3.281270 0.000000 
#    z -0.097330 0.000000 3.332450 
# 
# 
# High freq. dielectric constant tensor:
#      x y z
#    x 1.724950 0.000000 -0.003050 
#    y 0.000000 1.700040 0.000000 
#    z -0.003050 0.000000 1.703250 
# 
# From -- ./inp_files/73551.got.cif
#   From: 2010.06.25/outbox.cif.g09.slc.cpg/sg15_37_cif.got.tgz:73551.got - 2010.06.28 07:06:18.
