data_PCOD8153481
_publ_section_title
;
Structure prediction by ZEFSAII (Michael W. Deem and Ramdas Pophale) SiO2 
 PCOD8153481
Probable space group: C 2/C
;
_chemical_formula_sum "Si O2"
_cell_formula_units_Z 36
_cell_length_a 5.440831
_cell_length_b 22.165788
_cell_length_c 11.889780
_cell_angle_alpha 90.000000
_cell_angle_beta 98.893127
_cell_angle_gamma 90.000000
_cell_volume 1416.673231
_symmetry_space_group_name_H-M "C 2/C"
_symmetry_group_IT_number 15
_symmetry_cell_setting 'monoclinic'
loop_
_space_group_symop_operation_xyz
x,y,z
-x,y,1/2-z
-x,-y,-z
x,-y,1/2+z
1/2+x,1/2+y,z
1/2-x,1/2+y,1/2-z
1/2-x,1/2-y,-z
1/2+x,1/2-y,1/2+z
loop_
_atom_site_type_symbol
_atom_site_label
_atom_site_fract_x
_atom_site_fract_y
_atom_site_fract_z
Si Si1 0.664501 0.057850 0.034795
Si Si2 0.313965 0.161643 0.096399
Si Si3 0.772426 0.105203 0.812026
Si Si4 0.580751 0.277880 0.083565
Si Si5 0.500000 0.408790 0.750000
O O1 0.497658 0.115244 0.050523
O O2 0.857147 0.047955 0.151662
O O3 0.822405 0.072892 0.934946
O O4 0.500000 0.000000 0.000000
O O5 0.453336 0.223249 0.142226
O O6 0.197028 0.134317 0.201374
O O7 0.115465 0.176967 0.987125
O O8 0.500000 0.084280 0.750000
O O9 0.768420 0.178620 0.820967
O O10 0.000000 0.083514 0.750000
O O11 0.750000 0.250000 0.000000
#
# Coordination Sequence:
#
# PCOD8153481 Si02
#       5
#     8   8   8   8   4
#     4  12  29  56  80 117 162 211 286 343 417 494
#     4  11  24  48  79 119 157 210 275 337 416 486
#     4  12  28  52  82 124 171 220 272 342 421 499
#     4  11  23  47  79 113 167 213 266 338 411 504
#     4  12  26  52  86 114 156 218 278 352 414 502
#
# _framework density 25.411646000000001
#
# number of rings (size 3 to 8) (size 9 to 14) (size 15 to 20)
#    0.000    0.444    4.444    2.000    3.111    6.222 
#   10.000    0.000    0.000    0.000    0.000    0.000 
#    0.000    0.000    0.000    0.000    0.000    0.000 
#
# Total GULP energy -223259.291868 kJ/mol
# GULP energy per Si atom -12403.293993 kJ/mol
# Density = 2.535381 g / cm^3
# Si number density = 25.411646 Si / 1000 Ang^3
#
#
#
# Elastic Constant Matrix: (Units=GPa)
#
#
# Indices 1 2 3 4 5 6 
#
# 1 150.8372 35.0632 83.4791 0.0000 -10.7827 0.0000
# 2 35.0632 112.7600 64.8165 0.0000 7.9439 0.0000
# 3 83.4791 64.8165 168.8737 0.0000 -2.6438 0.0000
# 4 0.0000 0.0000 0.0000 5.6864 0.0000 10.2292
# 5 -10.7827 7.9439 -2.6438 0.0000 58.9026 0.0000
# 6 0.0000 0.0000 0.0000 10.2292 0.0000 45.1938
#
#
#
# Elastic Compliance Matrix: (Units=1/GPa)
#
#
# Indices 1 2 3 4 5 6 
#
# 1 0.009275 -0.000479 -0.004377 0.000000 0.001566 0.000000
# 2 -0.000479 0.011583 -0.004238 0.000000 -0.001840 0.000000
# 3 -0.004377 -0.004238 0.009715 0.000000 0.000206 0.000000
# 4 0.000000 0.000000 0.000000 0.296634 0.000000 -0.067140
# 5 0.001566 -0.001840 0.000206 0.000000 0.017521 0.000000
# 6 0.000000 0.000000 0.000000 -0.067140 0.000000 0.037324
#
#
# Mechanical properties :
#
#
# Convention : Reuss Voigt Hill
#
# Bulk Modulus (GPa) = 80.73372 88.79870 84.76621
# Shear Modulus (GPa) = 12.36501 38.56404 25.46452
#
# Velocity S-wave (km/s) = 2.20827 3.89983 3.16900
# Velocity P-wave (km/s) = 6.19203 7.43628 6.84249
#
# Compressibility (1/GPa) = 0.01238640
#
# Stress axis : x y z
#
# Youngs Moduli (GPa) = 107.81525 86.33440 102.93436
#
# Poissons Ratio (x) = 0.04132 0.45052
# Poissons Ratio (y) = 0.05160 0.43622
# Poissons Ratio (z) = 0.47188 0.36588
#
# Static dielectric constant tensor:
#      x y z
#    x 4.710760 0.000000 -0.026530 
#    y 0.000000 4.542230 0.000000 
#    z -0.026530 0.000000 4.694300 
# 
# 
# High freq. dielectric constant tensor:
#      x y z
#    x 2.025000 0.000000 -0.003490 
#    y 0.000000 2.016410 0.000000 
#    z -0.003490 0.000000 2.023410 
# 
# From -- ./inp_files/72705.got.cif
#   From: 2010.06.25/outbox.cif.g09.slc.cpg/sg15_37_cif.got.tgz:72705.got - 2010.06.28 07:06:18.
