data_PCOD8153452
_publ_section_title
;
Structure prediction by ZEFSAII (Michael W. Deem and Ramdas Pophale) SiO2 
 PCOD8153452
Probable space group: C 2/C
;
_chemical_formula_sum "Si O2"
_cell_formula_units_Z 56
_cell_length_a 30.202759
_cell_length_b 11.497047
_cell_length_c 8.374352
_cell_angle_alpha 90.000000
_cell_angle_beta 121.840008
_cell_angle_gamma 90.000000
_cell_volume 2470.358928
_symmetry_space_group_name_H-M "C 2/C"
_symmetry_group_IT_number 15
_symmetry_cell_setting 'monoclinic'
loop_
_space_group_symop_operation_xyz
x,y,z
-x,y,1/2-z
-x,-y,-z
x,-y,1/2+z
1/2+x,1/2+y,z
1/2-x,1/2+y,1/2-z
1/2-x,1/2-y,-z
1/2+x,1/2-y,1/2+z
loop_
_atom_site_type_symbol
_atom_site_label
_atom_site_fract_x
_atom_site_fract_y
_atom_site_fract_z
Si Si1 0.446127 0.687175 0.123665
Si Si2 0.129569 0.757034 0.733059
Si Si3 0.689473 0.576574 0.135934
Si Si4 0.113722 0.435473 0.947831
Si Si5 0.046480 0.420755 0.525566
Si Si6 0.843253 0.855376 0.278389
Si Si7 0.308227 0.135606 0.389722
O O1 0.500000 0.612476 0.250000
O O2 0.418581 0.721190 0.239085
O O3 0.470187 0.793920 0.065015
O O4 0.404133 0.620380 0.934493
O O5 0.152384 0.876470 0.706774
O O6 0.112119 0.680143 0.550025
O O7 0.175951 0.690226 0.911306
O O8 0.690300 0.437419 0.165009
O O9 0.746669 0.628404 0.259458
O O10 0.666930 0.614073 0.923261
O O11 0.066581 0.518774 0.904715
O O12 0.168148 0.505075 0.071703
O O13 0.097664 0.405704 0.736473
O O14 0.000000 0.500000 0.500000
O O15 0.828860 0.720672 0.287170
#
# Coordination Sequence:
#
# PCOD8153452 Si02
#       7
#     8   8   8   8   8   8   8
#     4  11  23  47  70 100 139 186 226 288 348 410
#     4  11  24  42  67 101 140 178 232 282 337 413
#     4  12  27  45  71  97 136 185 234 287 344 404
#     4  12  22  38  61 101 138 174 221 276 337 416
#     4  12  22  37  63  97 136 176 220 273 349 404
#     4  11  25  47  68 102 135 178 237 287 339 414
#     4  11  25  42  69  97 140 181 227 283 350 405
#
# _framework density 22.668772000000001
#
# number of rings (size 3 to 8) (size 9 to 14) (size 15 to 20)
#    0.000    0.571    4.286    5.571    4.000    0.000 
#    0.000    5.000    0.000    0.000    0.000    0.000 
#    0.000    0.000    0.000    0.000    0.000    0.000 
#
# Total GULP energy -347043.916488 kJ/mol
# GULP energy per Si atom -12394.425589 kJ/mol
# Density = 2.261718 g / cm^3
# Si number density = 22.668772 Si / 1000 Ang^3
#
#
#
# Elastic Constant Matrix: (Units=GPa)
#
#
# Indices 1 2 3 4 5 6 
#
# 1 115.5903 26.1694 66.5278 0.0000 16.9354 0.0000
# 2 26.1694 38.7898 29.5406 0.0000 1.2291 0.0000
# 3 66.5278 29.5406 134.9010 0.0000 12.8129 0.0000
# 4 0.0000 0.0000 0.0000 28.4083 0.0000 0.5075
# 5 16.9354 1.2291 12.8129 0.0000 41.1991 0.0000
# 6 0.0000 0.0000 0.0000 0.5075 0.0000 34.3338
#
#
#
# Elastic Compliance Matrix: (Units=1/GPa)
#
#
# Indices 1 2 3 4 5 6 
#
# 1 0.013248 -0.004936 -0.005100 0.000000 -0.003712 0.000000
# 2 -0.004936 0.032838 -0.005004 0.000000 0.002606 0.000000
# 3 -0.005100 -0.005004 0.011139 0.000000 -0.001219 0.000000
# 4 0.000000 0.000000 0.000000 0.035210 0.000000 -0.000520
# 5 -0.003712 0.002606 -0.001219 0.000000 0.026100 0.000000
# 6 0.000000 0.000000 0.000000 -0.000520 0.000000 0.029134
#
#
# Mechanical properties :
#
#
# Convention : Reuss Voigt Hill
#
# Bulk Modulus (GPa) = 36.83845 59.30631 48.07238
# Shear Modulus (GPa) = 26.76687 31.92444 29.34565
#
# Velocity S-wave (km/s) = 3.43998 3.75680 3.60188
# Velocity P-wave (km/s) = 5.66250 6.71096 6.20890
#
# Compressibility (1/GPa) = 0.02714555
#
# Stress axis : x y z
#
# Youngs Moduli (GPa) = 75.48375 30.45208 89.77131
#
# Poissons Ratio (x) = 0.15032 0.45782
# Poissons Ratio (y) = 0.37260 0.44923
# Poissons Ratio (z) = 0.38495 0.15239
#
# Static dielectric constant tensor:
#      x y z
#    x 4.085940 0.000000 0.041030 
#    y 0.000000 3.686100 0.000000 
#    z 0.041030 0.000000 4.286230 
# 
# 
# High freq. dielectric constant tensor:
#      x y z
#    x 1.889490 0.000000 -0.000480 
#    y 0.000000 1.880630 0.000000 
#    z -0.000480 0.000000 1.915360 
# 
# From -- ./inp_files/69443.got.cif
#   From: 2010.06.25/outbox.cif.g09.slc.cpg/sg15_35_cif.got.tgz:69443.got - 2010.06.28 07:06:18.
