data_PCOD8153652
_publ_section_title
;
Structure prediction by ZEFSAII (Michael W. Deem and Ramdas Pophale) SiO2 
 PCOD8153652
Probable space group: C 2/C
;
_chemical_formula_sum "Si O2"
_cell_formula_units_Z 40
_cell_length_a 8.609733
_cell_length_b 16.402332
_cell_length_c 23.947466
_cell_angle_alpha 90.000000
_cell_angle_beta 30.667523
_cell_angle_gamma 90.000000
_cell_volume 1724.933019
_symmetry_space_group_name_H-M "C 2/C"
_symmetry_group_IT_number 15
_symmetry_cell_setting 'monoclinic'
loop_
_space_group_symop_operation_xyz
x,y,z
-x,y,1/2-z
-x,-y,-z
x,-y,1/2+z
1/2+x,1/2+y,z
1/2-x,1/2+y,1/2-z
1/2-x,1/2-y,-z
1/2+x,1/2-y,1/2+z
loop_
_atom_site_type_symbol
_atom_site_label
_atom_site_fract_x
_atom_site_fract_y
_atom_site_fract_z
Si Si1 0.879134 0.590583 0.039238
Si Si2 0.128965 0.566054 0.649050
Si Si3 0.835491 0.404143 0.933038
Si Si4 0.727656 0.145992 0.222343
Si Si5 0.838009 0.324736 0.153580
O O1 0.509985 0.589246 0.153650
O O2 0.021695 0.622221 0.052217
O O3 0.000000 0.500000 0.000000
O O4 0.967034 0.646031 0.959527
O O5 0.075143 0.491893 0.621867
O O6 0.474305 0.597154 0.547310
O O7 0.000000 0.546127 0.750000
O O8 0.956313 0.642286 0.675877
O O9 0.000603 0.335088 0.844302
O O10 0.500000 0.097968 0.250000
O O11 0.850160 0.227085 0.154416
O O12 0.500000 0.358209 0.250000
#
# Coordination Sequence:
#
# PCOD8153652 Si02
#       5
#     8   8   8   8   8
#     4  12  25  44  74 108 144 193 255 310 364 439
#     4  11  24  43  72 106 149 190 248 307 366 439
#     4  11  25  43  72 108 143 192 246 307 372 434
#     4  11  26  47  71 102 151 197 241 306 377 439
#     4  11  25  46  70 106 149 197 242 307 368 444
#
# _framework density 23.189305999999998
#
# number of rings (size 3 to 8) (size 9 to 14) (size 15 to 20)
#    0.000    0.800    2.000    4.200    8.400    3.200 
#    0.000    6.000    0.000    0.000    0.000    0.000 
#    0.000    0.000    0.000    0.000    0.000    0.000 
#
# Total GULP energy -247829.883589 kJ/mol
# GULP energy per Si atom -12391.494179 kJ/mol
# Density = 2.313653 g / cm^3
# Si number density = 23.189306 Si / 1000 Ang^3
#
#
#
# Elastic Constant Matrix: (Units=GPa)
#
#
# Indices 1 2 3 4 5 6 
#
# 1 173.6739 43.8205 56.2082 -0.0645 -16.2431 0.0489
# 2 43.8205 80.2145 44.5483 0.0131 -2.9452 -0.0246
# 3 56.2082 44.5483 147.8912 0.1175 -12.3367 -0.0839
# 4 -0.0645 0.0131 0.1175 34.2995 -0.0439 2.2793
# 5 -16.2431 -2.9452 -12.3367 -0.0439 55.3826 0.0273
# 6 0.0489 -0.0246 -0.0839 2.2793 0.0273 26.2525
#
#
#
# Elastic Compliance Matrix: (Units=1/GPa)
#
#
# Indices 1 2 3 4 5 6 
#
# 1 0.007200 -0.002916 -0.001727 0.000024 0.001572 -0.000025
# 2 -0.002916 0.016155 -0.003829 0.000000 -0.000849 0.000009
# 3 -0.001727 -0.003829 0.008673 -0.000032 0.001222 0.000029
# 4 0.000024 0.000000 -0.000032 0.029324 0.000025 -0.002546
# 5 0.001572 -0.000849 0.001222 0.000025 0.018744 -0.000021
# 6 -0.000025 0.000009 0.000029 -0.002546 -0.000021 0.038313
#
#
# Mechanical properties :
#
#
# Convention : Reuss Voigt Hill
#
# Bulk Modulus (GPa) = 66.29458 76.77040 71.53249
# Shear Modulus (GPa) = 35.61737 40.33376 37.97557
#
# Velocity S-wave (km/s) = 3.92336 4.17505 4.05116
# Velocity P-wave (km/s) = 7.01243 7.51127 7.26613
#
# Compressibility (1/GPa) = 0.01508419
#
# Stress axis : x y z
#
# Youngs Moduli (GPa) = 138.89562 61.90072 115.29709
#
# Poissons Ratio (x) = 0.18053 0.19909
# Poissons Ratio (y) = 0.40508 0.44143
# Poissons Ratio (z) = 0.23984 0.23699
#
# Static dielectric constant tensor:
#      x y z
#    x 3.559240 0.001340 -0.219520 
#    y 0.001340 4.008270 0.001450 
#    z -0.219520 0.001450 4.432890 
# 
# 
# High freq. dielectric constant tensor:
#      x y z
#    x 1.939440 0.000010 -0.003930 
#    y 0.000010 1.896850 0.000000 
#    z -0.003930 0.000000 1.934710 
# 
# From -- ./inp_files/76932.got.cif
#   From: 2010.06.25/outbox.cif.g09.slc.cpg/sg15_39_cif.got.tgz:76932.got - 2010.06.28 07:06:18.
