data_PCOD8153291
_publ_section_title
;
Structure prediction by ZEFSAII (Michael W. Deem and Ramdas Pophale) SiO2 
 PCOD8153291
Probable space group: C 2/C
;
_chemical_formula_sum "Si O2"
_cell_formula_units_Z 40
_cell_length_a 11.101584
_cell_length_b 15.574077
_cell_length_c 9.973738
_cell_angle_alpha 90.000000
_cell_angle_beta 99.783098
_cell_angle_gamma 90.000000
_cell_volume 1699.352095
_symmetry_space_group_name_H-M "C 2/C"
_symmetry_group_IT_number 15
_symmetry_cell_setting 'monoclinic'
loop_
_space_group_symop_operation_xyz
x,y,z
-x,y,1/2-z
-x,-y,-z
x,-y,1/2+z
1/2+x,1/2+y,z
1/2-x,1/2+y,1/2-z
1/2-x,1/2-y,-z
1/2+x,1/2-y,1/2+z
loop_
_atom_site_type_symbol
_atom_site_label
_atom_site_fract_x
_atom_site_fract_y
_atom_site_fract_z
Si Si1 0.803646 0.816478 0.816173
Si Si2 0.995777 0.321809 0.400866
Si Si3 0.251805 0.628434 0.019106
Si Si4 0.139425 0.841854 0.238052
Si Si5 0.207182 0.566913 0.525535
O O1 0.927302 0.769970 0.889046
O O2 0.822416 0.853221 0.670288
O O3 0.692898 0.748743 0.798030
O O4 0.773969 0.894190 0.908600
O O5 0.926257 0.390605 0.481140
O O6 0.000000 0.358217 0.250000
O O7 0.134510 0.307668 0.479976
O O8 0.346893 0.642855 0.917535
O O9 0.193400 0.533976 0.002555
O O10 0.211370 0.917326 0.327402
O O11 0.000000 0.844774 0.250000
#
# Coordination Sequence:
#
# PCOD8153291 Si02
#       5
#     8   8   8   8   8
#     4  11  26  41  74 104 143 187 238 287 356 426
#     4  11  23  44  73 103 142 183 242 293 342 421
#     4  12  25  46  74 104 142 187 238 297 358 409
#     4  11  25  45  70 100 145 189 240 284 353 434
#     4  11  25  46  69 108 145 182 239 298 353 414
#
# _framework density 23.538381999999999
#
# number of rings (size 3 to 8) (size 9 to 14) (size 15 to 20)
#    0.000    0.800    4.000    4.800    5.600    0.800 
#    0.000    2.000    0.000    0.000    0.000    0.000 
#    0.000    0.000    0.000    0.000    0.000    0.000 
#
# Total GULP energy -248124.686672 kJ/mol
# GULP energy per Si atom -12406.234334 kJ/mol
# Density = 2.348481 g / cm^3
# Si number density = 23.538382 Si / 1000 Ang^3
#
#
#
# Elastic Constant Matrix: (Units=GPa)
#
#
# Indices 1 2 3 4 5 6 
#
# 1 125.0168 4.0741 33.2109 0.0000 -26.3441 0.0000
# 2 4.0741 69.1845 27.2322 0.0000 -9.5428 0.0000
# 3 33.2109 27.2322 124.2423 0.0000 -19.8233 0.0000
# 4 0.0000 0.0000 0.0000 32.7154 0.0000 -2.1138
# 5 -26.3441 -9.5428 -19.8233 0.0000 31.4970 0.0000
# 6 0.0000 0.0000 0.0000 -2.1138 0.0000 13.9519
#
#
#
# Elastic Compliance Matrix: (Units=1/GPa)
#
#
# Indices 1 2 3 4 5 6 
#
# 1 0.010029 0.001138 -0.001709 0.000000 0.007658 0.000000
# 2 0.001138 0.016190 -0.003244 0.000000 0.003815 0.000000
# 3 -0.001709 -0.003244 0.009818 0.000000 0.003767 0.000000
# 4 0.000000 0.000000 0.000000 0.030869 0.000000 0.004677
# 5 0.007658 0.003815 0.003767 0.000000 0.041681 0.000000
# 6 0.000000 0.000000 0.000000 0.004677 0.000000 0.072384
#
#
# Mechanical properties :
#
#
# Convention : Reuss Voigt Hill
#
# Bulk Modulus (GPa) = 35.20086 49.71977 42.46032
# Shear Modulus (GPa) = 25.24366 32.56127 28.90246
#
# Velocity S-wave (km/s) = 3.27838 3.72334 3.50792
# Velocity P-wave (km/s) = 5.41456 6.29707 5.87242
#
# Compressibility (1/GPa) = 0.02840840
#
# Stress axis : x y z
#
# Youngs Moduli (GPa) = 99.70607 61.76525 101.85772
#
# Poissons Ratio (x) = -0.07030 0.17403
# Poissons Ratio (y) = -0.11349 0.33045
# Poissons Ratio (z) = 0.17035 0.20038
#
# Static dielectric constant tensor:
#      x y z
#    x 4.167250 0.000000 -0.086860 
#    y 0.000000 4.151360 0.000000 
#    z -0.086860 0.000000 4.453610 
# 
# 
# High freq. dielectric constant tensor:
#      x y z
#    x 1.930750 0.000000 -0.010520 
#    y 0.000000 1.925330 0.000000 
#    z -0.010520 0.000000 1.945560 
# 
# From -- ./inp_files/29227.got.cif
#   From: 2010.06.25/outbox.cif.g09.slc.cpg/sg15_15_cif.got.tgz:29227.got - 2010.06.28 07:06:18.
