data_PCOD8153003
_publ_section_title
;
Structure prediction by ZEFSAII (Michael W. Deem and Ramdas Pophale) SiO2 
 PCOD8153003
Probable space group: C 2/C
;
_chemical_formula_sum "Si O2"
_cell_formula_units_Z 40
_cell_length_a 4.962580
_cell_length_b 16.992667
_cell_length_c 21.466923
_cell_angle_alpha 90.000000
_cell_angle_beta 84.410174
_cell_angle_gamma 90.000000
_cell_volume 1801.643026
_symmetry_space_group_name_H-M "C 2/C"
_symmetry_group_IT_number 15
_symmetry_cell_setting 'monoclinic'
loop_
_space_group_symop_operation_xyz
x,y,z
-x,y,1/2-z
-x,-y,-z
x,-y,1/2+z
1/2+x,1/2+y,z
1/2-x,1/2+y,1/2-z
1/2-x,1/2-y,-z
1/2+x,1/2-y,1/2+z
loop_
_atom_site_type_symbol
_atom_site_label
_atom_site_fract_x
_atom_site_fract_y
_atom_site_fract_z
Si Si1 0.708468 0.390286 0.414859
Si Si2 0.348654 0.067706 0.389502
Si Si3 0.257228 0.702626 0.707979
Si Si4 0.369285 0.378492 0.817824
Si Si5 0.672753 0.161082 0.988531
O O1 0.818458 0.478236 0.410494
O O2 0.653342 0.358153 0.346874
O O3 0.427633 0.388245 0.458009
O O4 0.932869 0.337095 0.443569
O O5 0.587016 0.075680 0.333209
O O6 0.435625 0.119615 0.446771
O O7 0.068419 0.100237 0.369332
O O8 0.500000 0.716509 0.750000
O O9 0.178694 0.785409 0.679089
O O10 0.000000 0.666822 0.750000
O O11 0.500000 0.406538 0.750000
O O12 0.750000 0.250000 0.000000
#
# Coordination Sequence:
#
# PCOD8153003 Si02
#       5
#     8   8   8   8   8
#     4  12  25  42  64  96 130 165 210 265 321 374
#     4  12  24  41  65  95 130 165 208 265 321 377
#     4  11  23  42  64  90 124 166 212 260 310 376
#     4  11  23  42  65  92 124 167 212 256 310 379
#     4  12  24  43  67  93 127 171 216 260 314 382
#
# _framework density 22.201955999999999
#
# number of rings (size 3 to 8) (size 9 to 14) (size 15 to 20)
#    0.000    0.400    0.000   10.800    0.000    2.400 
#    0.000    0.000    0.000    0.000    0.000    0.000 
#    0.000    0.000    0.000    0.000    0.000    0.000 
#
# Total GULP energy -248211.912089 kJ/mol
# GULP energy per Si atom -12410.595604 kJ/mol
# Density = 2.215142 g / cm^3
# Si number density = 22.201956 Si / 1000 Ang^3
#
#
#
# Elastic Constant Matrix: (Units=GPa)
#
#
# Indices 1 2 3 4 5 6 
#
# 1 106.7425 3.0179 18.1857 0.0000 -3.5529 0.0000
# 2 3.0179 75.4478 40.8005 0.0000 0.9438 0.0000
# 3 18.1857 40.8005 91.2152 0.0000 -7.1791 0.0000
# 4 0.0000 0.0000 0.0000 15.3864 0.0000 -9.5368
# 5 -3.5529 0.9438 -7.1791 0.0000 57.1146 0.0000
# 6 0.0000 0.0000 0.0000 -9.5368 0.0000 0.9419
#
#
#
# Elastic Compliance Matrix: (Units=1/GPa)
#
#
# Indices 1 2 3 4 5 6 
#
# 1 0.009746 0.000850 -0.002299 0.000000 0.000303 0.000000
# 2 0.000850 0.017651 -0.008164 0.000000 -0.001265 0.000000
# 3 -0.002299 -0.008164 0.015223 0.000000 0.001905 0.000000
# 4 0.000000 0.000000 0.000000 -0.012319 0.000000 -0.124732
# 5 0.000303 -0.001265 0.001905 0.000000 0.017788 0.000000
# 6 0.000000 0.000000 0.000000 -0.124732 0.000000 -0.201238
#
#
# Mechanical properties :
#
#
# Convention : Reuss Voigt Hill
#
# Bulk Modulus (GPa) = 42.74807 44.15709 43.45258
# Shear Modulus (GPa) = -39.64369 28.78200 -5.43084
#
# Velocity S-wave (km/s) = -4.23021 3.60442 -1.56570
# Velocity P-wave (km/s) = 2.13626 6.10365 4.04295
#
# Compressibility (1/GPa) = 0.02339287
#
# Stress axis : x y z
#
# Youngs Moduli (GPa) = 102.60472 56.65362 65.68847
#
# Poissons Ratio (x) = -0.04814 0.15104
# Poissons Ratio (y) = -0.08719 0.53630
# Poissons Ratio (z) = 0.23592 0.46254
#
# Static dielectric constant tensor:
#      x y z
#    x 4.277650 0.000000 -0.150290 
#    y 0.000000 3.850370 0.000000 
#    z -0.150290 0.000000 4.234350 
# 
# 
# High freq. dielectric constant tensor:
#      x y z
#    x 1.892540 0.000000 -0.002830 
#    y 0.000000 1.871520 0.000000 
#    z -0.002830 0.000000 1.887900 
# 
# From -- ./inp_files/184245.got.cif
#   From: 2010.06.25/outbox.cif.g09.slc.cpg/sg15_93_cif.got.tgz:184245.got - 2010.06.28 07:06:18.
