data_PCOD8153485
_publ_section_title
;
Structure prediction by ZEFSAII (Michael W. Deem and Ramdas Pophale) SiO2 
 PCOD8153485
Probable space group: C 2/C
;
_chemical_formula_sum "Si O2"
_cell_formula_units_Z 48
_cell_length_a 17.273831
_cell_length_b 8.932964
_cell_length_c 27.148224
_cell_angle_alpha 90.000000
_cell_angle_beta 149.683653
_cell_angle_gamma 90.000000
_cell_volume 2114.572586
_symmetry_space_group_name_H-M "C 2/C"
_symmetry_group_IT_number 15
_symmetry_cell_setting 'monoclinic'
loop_
_space_group_symop_operation_xyz
x,y,z
-x,y,1/2-z
-x,-y,-z
x,-y,1/2+z
1/2+x,1/2+y,z
1/2-x,1/2+y,1/2-z
1/2-x,1/2-y,-z
1/2+x,1/2-y,1/2+z
loop_
_atom_site_type_symbol
_atom_site_label
_atom_site_fract_x
_atom_site_fract_y
_atom_site_fract_z
Si Si1 0.500000 0.112746 0.750000
Si Si2 0.500000 0.359154 0.250000
Si Si3 0.937560 0.664114 0.400953
Si Si4 0.695729 0.987366 0.585325
Si Si5 0.947877 0.008529 0.416449
Si Si6 0.708729 0.716965 0.532439
Si Si7 0.381260 0.120060 0.261031
O O1 0.359968 0.204022 0.649821
O O2 0.570558 0.021019 0.744044
O O3 0.636522 0.467696 0.341015
O O4 0.440335 0.265875 0.264282
O O5 0.803850 0.574333 0.357655
O O6 0.904887 0.840646 0.376232
O O7 0.958652 0.604667 0.357047
O O8 0.088856 0.633191 0.517340
O O9 0.624599 0.858895 0.510771
O O10 0.802260 0.119037 0.331310
O O11 0.000000 0.000000 0.500000
O O12 0.094521 0.074710 0.467880
O O13 0.750000 0.750000 0.500000
#
# Coordination Sequence:
#
# PCOD8153485 Si02
#       7
#     4   4   8   8   8   8   8
#     4  11  23  48  68 108 150 188 250 306 370 438
#     4  11  27  44  70 102 148 188 230 316 352 430
#     4  11  26  44  73 105 139 192 246 301 358 442
#     4  11  25  45  68 104 145 180 242 303 361 421
#     4  12  24  49  72 102 145 196 237 300 370 436
#     4  12  27  45  77 106 148 195 243 309 370 441
#     4  11  26  43  73 103 142 193 242 295 372 437
#
# _framework density 22.699624
#
# number of rings (size 3 to 8) (size 9 to 14) (size 15 to 20)
#    0.000    0.667    3.333    2.500    9.333    3.333 
#    0.000    0.000    0.000    0.000    0.000    0.000 
#    0.000    0.000    0.000    0.000    0.000    0.000 
#
# Total GULP energy -297510.556959 kJ/mol
# GULP energy per Si atom -12396.273207 kJ/mol
# Density = 2.264796 g / cm^3
# Si number density = 22.699624 Si / 1000 Ang^3
#
#
#
# Elastic Constant Matrix: (Units=GPa)
#
#
# Indices 1 2 3 4 5 6 
#
# 1 171.7841 56.2934 55.9446 0.0000 -16.5387 0.0000
# 2 56.2934 105.1459 42.6399 0.0001 5.1912 0.0001
# 3 55.9446 42.6399 104.4731 0.0004 17.6003 0.0000
# 4 0.0000 0.0001 0.0004 31.2021 0.0001 11.2861
# 5 -16.5387 5.1912 17.6003 0.0001 48.6438 0.0000
# 6 0.0000 0.0001 0.0000 11.2861 0.0000 32.2332
#
#
#
# Elastic Compliance Matrix: (Units=1/GPa)
#
#
# Indices 1 2 3 4 5 6 
#
# 1 0.008685 -0.003203 -0.004151 0.000000 0.004797 0.000000
# 2 -0.003203 0.012589 -0.003209 0.000000 -0.001271 0.000000
# 3 -0.004151 -0.003209 0.014147 0.000000 -0.006188 0.000000
# 4 0.000000 0.000000 0.000000 0.036697 0.000000 -0.012849
# 5 0.004797 -0.001271 -0.006188 0.000000 0.024563 0.000000
# 6 0.000000 0.000000 0.000000 -0.012849 0.000000 0.035523
#
#
# Mechanical properties :
#
#
# Convention : Reuss Voigt Hill
#
# Bulk Modulus (GPa) = 69.95648 76.79542 73.37595
# Shear Modulus (GPa) = 31.62657 37.51750 34.57203
#
# Velocity S-wave (km/s) = 3.73669 4.06985 3.90683
# Velocity P-wave (km/s) = 7.03580 7.48261 7.26264
#
# Compressibility (1/GPa) = 0.01429460
#
# Stress axis : x y z
#
# Youngs Moduli (GPa) = 115.14615 79.43139 70.68634
#
# Poissons Ratio (x) = 0.25441 0.29345
# Poissons Ratio (y) = 0.36880 0.22683
# Poissons Ratio (z) = 0.47802 0.25489
#
# Static dielectric constant tensor:
#      x y z
#    x 4.433800 0.000000 0.114370 
#    y 0.000000 2.717510 0.000000 
#    z 0.114370 0.000000 3.850170 
# 
# 
# High freq. dielectric constant tensor:
#      x y z
#    x 1.909720 0.000000 0.005470 
#    y 0.000000 1.902830 0.000000 
#    z 0.005470 0.000000 1.886440 
# 
# From -- ./inp_files/315796.got.cif
#   From: 2010.06.25/outbox.cif.g09.slc.cpg/sg15_158_cif.got.tgz:315796.got - 2010.06.28 07:06:18.
