data_PCOD8153017
_publ_section_title
;
Structure prediction by ZEFSAII (Michael W. Deem and Ramdas Pophale) SiO2 
 PCOD8153017
Probable space group: C 2/C
;
_chemical_formula_sum "Si O2"
_cell_formula_units_Z 60
_cell_length_a 9.229422
_cell_length_b 17.429358
_cell_length_c 19.589403
_cell_angle_alpha 90.000000
_cell_angle_beta 118.949117
_cell_angle_gamma 90.000000
_cell_volume 2757.464433
_symmetry_space_group_name_H-M "C 2/C"
_symmetry_group_IT_number 15
_symmetry_cell_setting 'monoclinic'
loop_
_space_group_symop_operation_xyz
x,y,z
-x,y,1/2-z
-x,-y,-z
x,-y,1/2+z
1/2+x,1/2+y,z
1/2-x,1/2+y,1/2-z
1/2-x,1/2-y,-z
1/2+x,1/2-y,1/2+z
loop_
_atom_site_type_symbol
_atom_site_label
_atom_site_fract_x
_atom_site_fract_y
_atom_site_fract_z
Si Si1 0.569033 0.860702 0.020922
Si Si2 0.109382 0.215193 0.122835
Si Si3 0.500000 0.980747 0.750000
Si Si4 0.789210 0.857006 0.594039
Si Si5 0.719649 0.250292 0.203891
Si Si6 0.825734 0.971913 0.138648
Si Si7 0.424341 0.148861 0.137568
Si Si8 0.818984 0.925446 0.292494
O O1 0.629663 0.788333 0.078496
O O2 0.670198 0.937354 0.062214
O O3 0.372845 0.869796 0.990004
O O4 0.598003 0.846556 0.948054
O O5 0.135984 0.238432 0.207586
O O6 0.247313 0.154327 0.132746
O O7 0.935089 0.170519 0.076807
O O8 0.493192 0.930451 0.817886
O O9 0.332619 0.029747 0.707856
O O10 0.766103 0.790870 0.644323
O O11 0.821339 0.936090 0.641468
O O12 0.544181 0.217329 0.190458
O O13 0.700753 0.339508 0.185984
O O14 0.815008 0.934038 0.210295
O O15 0.999695 0.952595 0.140802
#
# Coordination Sequence:
#
# PCOD8153017 Si02
#       8
#     8   8   4   8   8   8   8   8
#     4  11  24  45  65 100 138 180 220 275 336 402
#     4  12  22  41  68 100 135 177 224 280 334 393
#     4  12  24  44  64 104 134 172 222 288 332 386
#     4  11  26  41  69 100 138 177 224 277 339 394
#     4  11  23  42  66 101 131 177 225 278 328 396
#     4  11  24  45  69  97 134 178 228 267 335 403
#     4  11  24  43  72  96 136 177 229 270 334 401
#     4  11  25  40  68  99 133 174 225 277 330 397
#
# _framework density 21.759119999999999
#
# number of rings (size 3 to 8) (size 9 to 14) (size 15 to 20)
#    0.000    0.800    2.667    4.800    7.467    1.067 
#    0.000    6.667    0.000    0.000    0.000    0.000 
#    0.000    0.000    0.000    0.000    0.000    0.000 
#
# Total GULP energy -372052.367124 kJ/mol
# GULP energy per Si atom -12401.745571 kJ/mol
# Density = 2.170960 g / cm^3
# Si number density = 21.759120 Si / 1000 Ang^3
#
#
#
# Elastic Constant Matrix: (Units=GPa)
#
#
# Indices 1 2 3 4 5 6 
#
# 1 124.6972 48.4627 28.5376 0.0000 25.6503 0.0000
# 2 48.4627 160.9688 32.0307 0.0000 3.8166 0.0000
# 3 28.5376 32.0307 90.8155 0.0000 10.2092 0.0000
# 4 0.0000 0.0000 0.0000 23.1517 0.0000 -40.7152
# 5 25.6503 3.8166 10.2092 0.0000 33.7435 0.0000
# 6 0.0000 0.0000 0.0000 -40.7152 0.0000 -298.6626
#
#
#
# Elastic Compliance Matrix: (Units=1/GPa)
#
#
# Indices 1 2 3 4 5 6 
#
# 1 0.011049 -0.002824 -0.001623 0.000000 -0.007589 0.000000
# 2 -0.002824 0.007403 -0.001937 0.000000 0.001895 0.000000
# 3 -0.001623 -0.001937 0.012465 0.000000 -0.002318 0.000000
# 4 0.000000 0.000000 0.000000 0.034841 0.000000 -0.004750
# 5 -0.007589 0.001895 -0.002318 0.000000 0.035891 0.000000
# 6 0.000000 0.000000 0.000000 -0.004750 0.000000 -0.002701
#
#
# Mechanical properties :
#
#
# Convention : Reuss Voigt Hill
#
# Bulk Modulus (GPa) = 55.09553 66.06040 60.57797
# Shear Modulus (GPa) = 42.45728 -30.52344 5.96692
#
# Velocity S-wave (km/s) = 4.42208 -3.74945 1.65777
# Velocity P-wave (km/s) = 7.17277 3.41780 5.61827
#
# Compressibility (1/GPa) = 0.01815029
#
# Stress axis : x y z
#
# Youngs Moduli (GPa) = 90.50347 135.08098 80.22399
#
# Poissons Ratio (x) = 0.38143 0.13021
# Poissons Ratio (y) = 0.25555 0.15537
# Poissons Ratio (z) = 0.14689 0.26162
#
# Static dielectric constant tensor:
#      x y z
#    x 4.156070 0.000000 0.394730 
#    y 0.000000 3.868700 0.000000 
#    z 0.394730 0.000000 3.938910 
# 
# 
# High freq. dielectric constant tensor:
#      x y z
#    x 1.865530 0.000000 0.019630 
#    y 0.000000 1.859940 0.000000 
#    z 0.019630 0.000000 1.849010 
# 
# From -- ./inp_files/233092.got.cif
#   From: 2010.06.25/outbox.cif.g09.slc.cpg/sg15_117_cif.got.tgz:233092.got - 2010.06.28 07:06:18.
