data_PCOD8153853
_publ_section_title
;
Structure prediction by ZEFSAII (Michael W. Deem and Ramdas Pophale) SiO2 
 PCOD8153853
Probable space group: C 2/C
;
_chemical_formula_sum "Si O2"
_cell_formula_units_Z 36
_cell_length_a 24.057214
_cell_length_b 6.546560
_cell_length_c 20.379101
_cell_angle_alpha 90.000000
_cell_angle_beta 32.466874
_cell_angle_gamma 90.000000
_cell_volume 1722.922112
_symmetry_space_group_name_H-M "C 2/C"
_symmetry_group_IT_number 15
_symmetry_cell_setting 'monoclinic'
loop_
_space_group_symop_operation_xyz
x,y,z
-x,y,1/2-z
-x,-y,-z
x,-y,1/2+z
1/2+x,1/2+y,z
1/2-x,1/2+y,1/2-z
1/2-x,1/2-y,-z
1/2+x,1/2-y,1/2+z
loop_
_atom_site_type_symbol
_atom_site_label
_atom_site_fract_x
_atom_site_fract_y
_atom_site_fract_z
Si Si1 0.000000 0.906428 0.750000
Si Si2 0.698321 0.395352 0.998178
Si Si3 0.845735 0.736259 0.806365
Si Si4 0.385958 0.974453 0.640739
Si Si5 0.764888 0.873173 0.320137
O O1 0.947673 0.757416 0.749163
O O2 0.918620 0.055519 0.866126
O O3 0.750000 0.250000 0.000000
O O4 0.761271 0.607241 0.930681
O O5 0.696080 0.289598 0.928926
O O6 0.876689 0.636151 0.707573
O O7 0.803671 0.962332 0.834088
O O8 0.362826 0.745229 0.689923
O O9 0.500000 0.000000 0.500000
O O10 0.302864 0.020290 0.667553
#
# Coordination Sequence:
#
# PCOD8153853 Si02
#       5
#     4   8   8   8   8
#     4  12  26  44  72  98 138 184 226 280 346 410
#     4  11  26  45  68 101 137 179 229 283 340 407
#     4  11  26  46  66 102 137 180 227 285 339 403
#     4  11  26  42  71  98 134 184 224 282 343 410
#     4  11  24  46  65 100 141 171 232 287 335 402
#
# _framework density 20.894734
#
# number of rings (size 3 to 8) (size 9 to 14) (size 15 to 20)
#    0.000    0.889    4.444    0.667    6.222    1.778 
#    0.000    0.000    0.000    0.000    0.000    0.000 
#    0.000    0.000    0.000    0.000    0.000    0.000 
#
# Total GULP energy -223285.471889 kJ/mol
# GULP energy per Si atom -12404.748438 kJ/mol
# Density = 2.084718 g / cm^3
# Si number density = 20.894734 Si / 1000 Ang^3
#
#
#
# Elastic Constant Matrix: (Units=GPa)
#
#
# Indices 1 2 3 4 5 6 
#
# 1 127.0939 46.0560 32.4716 0.0345 -4.3373 -0.0098
# 2 46.0560 129.1492 60.7142 0.1115 -5.9138 -0.0653
# 3 32.4716 60.7142 159.5016 0.0833 -13.9210 -0.0579
# 4 0.0345 0.1115 0.0833 33.1683 -0.0394 12.1619
# 5 -4.3373 -5.9138 -13.9210 -0.0394 30.6222 0.0181
# 6 -0.0098 -0.0653 -0.0579 12.1619 0.0181 49.5793
#
#
#
# Elastic Compliance Matrix: (Units=1/GPa)
#
#
# Indices 1 2 3 4 5 6 
#
# 1 0.009114 -0.002894 -0.000719 0.000004 0.000405 -0.000004
# 2 -0.002894 0.010351 -0.003345 -0.000029 0.000068 0.000016
# 3 -0.000719 -0.003345 0.007939 -0.000006 0.002861 0.000005
# 4 0.000004 -0.000029 -0.000006 0.033129 0.000039 -0.008127
# 5 0.000405 0.000068 0.002861 0.000039 0.034028 -0.000019
# 6 -0.000004 0.000016 0.000005 -0.008127 -0.000019 0.022163
#
#
# Mechanical properties :
#
#
# Convention : Reuss Voigt Hill
#
# Bulk Modulus (GPa) = 74.13399 77.13649 75.63524
# Shear Modulus (GPa) = 37.00018 41.10749 39.05383
#
# Velocity S-wave (km/s) = 4.21264 4.44031 4.32797
# Velocity P-wave (km/s) = 7.69536 7.95520 7.82636
#
# Compressibility (1/GPa) = 0.01348909
#
# Stress axis : x y z
#
# Youngs Moduli (GPa) = 109.71763 96.61306 125.96455
#
# Poissons Ratio (x) = 0.27959 0.09051
# Poissons Ratio (y) = 0.31751 0.42133
# Poissons Ratio (z) = 0.07884 0.32315
#
# Static dielectric constant tensor:
#      x y z
#    x 3.847380 0.000000 0.165250 
#    y 0.000000 3.999370 0.000070 
#    z 0.165250 0.000070 3.867080 
# 
# 
# High freq. dielectric constant tensor:
#      x y z
#    x 1.830260 0.000000 0.019380 
#    y 0.000000 1.831030 0.000000 
#    z 0.019380 0.000000 1.824770 
# 
# From -- ./inp_files/120653.got.cif
#   From: 2010.06.25/outbox.cif.g09.slc.cpg/sg15_61_cif.got.tgz:120653.got - 2010.06.28 07:06:18.
