data_PCOD8153732
_publ_section_title
;
Structure prediction by ZEFSAII (Michael W. Deem and Ramdas Pophale) SiO2 
 PCOD8153732
Probable space group: C 2/C
;
_chemical_formula_sum "Si O2"
_cell_formula_units_Z 64
_cell_length_a 20.598618
_cell_length_b 23.672033
_cell_length_c 11.886652
_cell_angle_alpha 90.000000
_cell_angle_beta 31.983658
_cell_angle_gamma 90.000000
_cell_volume 3070.044005
_symmetry_space_group_name_H-M "C 2/C"
_symmetry_group_IT_number 15
_symmetry_cell_setting 'monoclinic'
loop_
_space_group_symop_operation_xyz
x,y,z
-x,y,1/2-z
-x,-y,-z
x,-y,1/2+z
1/2+x,1/2+y,z
1/2-x,1/2+y,1/2-z
1/2-x,1/2-y,-z
1/2+x,1/2-y,1/2+z
loop_
_atom_site_type_symbol
_atom_site_label
_atom_site_fract_x
_atom_site_fract_y
_atom_site_fract_z
Si Si1 0.475085 0.305489 0.663877
Si Si2 0.768451 0.335575 0.784755
Si Si3 0.866107 0.067462 0.895758
Si Si4 0.533253 0.187301 0.901532
Si Si5 0.176109 0.120614 0.771729
Si Si6 0.368917 0.216083 0.505272
Si Si7 0.146379 0.055930 0.039692
Si Si8 0.242112 0.360744 0.956606
O O1 0.500000 0.331626 0.750000
O O2 0.512492 0.240346 0.605797
O O3 0.554171 0.341055 0.458955
O O4 0.330332 0.307599 0.852410
O O5 0.770895 0.362628 0.657382
O O6 0.906873 0.339913 0.627969
O O7 0.697604 0.377152 0.967614
O O8 0.708578 0.273807 0.890461
O O9 0.854700 0.073738 0.777212
O O10 0.000000 0.068738 0.750000
O O11 0.804475 0.008549 0.025206
O O12 0.610554 0.145755 0.708704
O O13 0.613105 0.206945 0.889136
O O14 0.290306 0.162540 0.574727
O O15 0.204656 0.087149 0.845763
O O16 0.500000 0.220751 0.250000
O O17 0.189955 0.084526 0.092263
O O18 0.000000 0.056308 0.250000
#
# Coordination Sequence:
#
# PCOD8153732 Si02
#       8
#     8   8   8   8   8   8   8   8
#     4  12  20  36  65 100 132 172 215 270 331 393
#     4  12  26  42  65 101 139 172 221 274 333 395
#     4  11  28  43  68 100 133 175 222 275 330 387
#     4  12  25  40  64 101 135 177 221 269 334 395
#     4  12  23  45  69  98 134 175 219 266 334 403
#     4  12  26  42  68  95 139 181 214 266 333 410
#     4  11  24  44  72 100 127 172 228 280 326 383
#     4  12  22  41  66  98 134 172 220 274 330 382
#
# _framework density 20.846606999999999
#
# number of rings (size 3 to 8) (size 9 to 14) (size 15 to 20)
#    0.000    0.250    6.250    3.375    3.500    2.000 
#    0.000    0.625    0.000    0.000    0.000    0.000 
#    0.000    0.000    0.000    0.000    0.000    0.000 
#
# Total GULP energy -396728.853714 kJ/mol
# GULP energy per Si atom -12397.776679 kJ/mol
# Density = 2.079916 g / cm^3
# Si number density = 20.846607 Si / 1000 Ang^3
#
#
#
# Elastic Constant Matrix: (Units=GPa)
#
#
# Indices 1 2 3 4 5 6 
#
# 1 65.4306 33.4826 19.2631 -0.0009 2.0680 0.0010
# 2 33.4826 115.2821 27.1655 -0.0004 -3.4307 0.0000
# 3 19.2631 27.1655 92.9832 -0.0034 -8.2234 0.0002
# 4 -0.0009 -0.0004 -0.0034 26.5813 0.0011 8.0493
# 5 2.0680 -3.4307 -8.2234 0.0011 33.0030 -0.0007
# 6 0.0010 0.0000 0.0002 8.0493 -0.0007 12.5585
#
#
#
# Elastic Compliance Matrix: (Units=1/GPa)
#
#
# Indices 1 2 3 4 5 6 
#
# 1 0.018620 -0.004854 -0.002645 0.000001 -0.002330 -0.000002
# 2 -0.004854 0.010584 -0.002007 -0.000001 0.000904 0.000001
# 3 -0.002645 -0.002007 0.012153 0.000002 0.002985 -0.000001
# 4 0.000001 -0.000001 0.000002 0.046681 -0.000002 -0.029919
# 5 -0.002330 0.000904 0.002985 -0.000002 0.031284 0.000003
# 6 -0.000002 0.000001 -0.000001 -0.029919 0.000003 0.098804
#
#
# Mechanical properties :
#
#
# Convention : Reuss Voigt Hill
#
# Bulk Modulus (GPa) = 44.75324 48.16870 46.46097
# Shear Modulus (GPa) = 20.44279 27.34755 23.89517
#
# Velocity S-wave (km/s) = 3.13490 3.62587 3.38929
# Velocity P-wave (km/s) = 5.88370 6.37853 6.13611
#
# Compressibility (1/GPa) = 0.02234475
#
# Stress axis : x y z
#
# Youngs Moduli (GPa) = 53.70647 94.48314 82.28464
#
# Poissons Ratio (x) = 0.45861 0.21768
# Poissons Ratio (y) = 0.26069 0.16511
# Poissons Ratio (z) = 0.14208 0.18959
#
# Static dielectric constant tensor:
#      x y z
#    x 4.236050 0.000010 0.053590 
#    y 0.000010 4.023420 0.000010 
#    z 0.053590 0.000010 3.787320 
# 
# 
# High freq. dielectric constant tensor:
#      x y z
#    x 1.824150 0.000000 0.003440 
#    y 0.000000 1.807390 0.000000 
#    z 0.003440 0.000000 1.815700 
# 
# From -- ./inp_files/114991.got.cif
#   From: 2010.06.25/outbox.cif.g09.slc.cpg/sg15_58_cif.got.tgz:114991.got - 2010.06.28 07:06:18.
