data_PCOD8153379
_publ_section_title
;
Structure prediction by ZEFSAII (Michael W. Deem and Ramdas Pophale) SiO2 
 PCOD8153379
Probable space group: C 2/C
;
_chemical_formula_sum "Si O2"
_cell_formula_units_Z 56
_cell_length_a 19.509964
_cell_length_b 17.482931
_cell_length_c 18.976292
_cell_angle_alpha 90.000000
_cell_angle_beta 157.740419
_cell_angle_gamma 90.000000
_cell_volume 2451.861378
_symmetry_space_group_name_H-M "C 2/C"
_symmetry_group_IT_number 15
_symmetry_cell_setting 'monoclinic'
loop_
_space_group_symop_operation_xyz
x,y,z
-x,y,1/2-z
-x,-y,-z
x,-y,1/2+z
1/2+x,1/2+y,z
1/2-x,1/2+y,1/2-z
1/2-x,1/2-y,-z
1/2+x,1/2-y,1/2+z
loop_
_atom_site_type_symbol
_atom_site_label
_atom_site_fract_x
_atom_site_fract_y
_atom_site_fract_z
Si Si1 0.623539 0.071428 0.499109
Si Si2 0.836885 0.203519 0.641432
Si Si3 0.477320 0.916814 0.307365
Si Si4 0.863761 0.849654 0.467373
Si Si5 0.445893 0.423572 0.407855
Si Si6 0.794085 0.668551 0.221405
Si Si7 0.760728 0.684316 0.353737
O O1 0.701497 0.134643 0.522465
O O2 0.787408 0.047811 0.706133
O O3 0.452791 0.106243 0.377378
O O4 0.556288 0.001473 0.387979
O O5 0.750000 0.250000 0.500000
O O6 0.851227 0.258701 0.725650
O O7 0.000000 0.170065 0.750000
O O8 0.500000 0.885448 0.250000
O O9 0.261523 0.915067 0.117044
O O10 0.577198 0.865489 0.460863
O O11 0.865104 0.862219 0.384914
O O12 0.773792 0.768291 0.399672
O O13 0.068715 0.853737 0.692475
O O14 0.500000 0.500000 0.500000
O O15 0.609518 0.378018 0.522367
O O16 0.771269 0.696186 0.279684
#
# Coordination Sequence:
#
# PCOD8153379 Si02
#       7
#     8   8   8   8   8   8   8
#     4  12  26  46  74 103 151 200 240 299 367 441
#     4  12  25  45  70 109 150 195 243 295 359 444
#     4  12  29  49  71 105 144 198 247 304 377 437
#     4  11  23  45  75 106 146 181 243 310 371 435
#     4  11  24  44  71 113 148 189 246 310 366 432
#     4  11  25  43  77 107 147 193 244 297 367 442
#     4  11  24  46  76 111 141 185 249 312 365 433
#
# _framework density 22.839790000000001
#
# number of rings (size 3 to 8) (size 9 to 14) (size 15 to 20)
#    0.000    0.571    2.857    5.143    6.000    2.857 
#    5.143    0.000    0.000    0.000    0.000    0.000 
#    0.000    0.000    0.000    0.000    0.000    0.000 
#
# Total GULP energy -346874.005402 kJ/mol
# GULP energy per Si atom -12388.357336 kJ/mol
# Density = 2.278781 g / cm^3
# Si number density = 22.839790 Si / 1000 Ang^3
#
#
#
# Elastic Constant Matrix: (Units=GPa)
#
#
# Indices 1 2 3 4 5 6 
#
# 1 101.7800 32.8844 45.9960 -0.0045 16.7536 -0.0097
# 2 32.8844 115.2750 31.0913 0.0066 8.0406 0.0114
# 3 45.9960 31.0913 113.0678 0.0260 27.6140 0.0226
# 4 -0.0045 0.0066 0.0260 40.1838 0.0157 7.6598
# 5 16.7536 8.0406 27.6140 0.0157 39.0397 0.0133
# 6 -0.0097 0.0114 0.0226 7.6598 0.0133 21.4106
#
#
#
# Elastic Compliance Matrix: (Units=1/GPa)
#
#
# Indices 1 2 3 4 5 6 
#
# 1 0.012769 -0.002412 -0.004006 0.000003 -0.002149 0.000012
# 2 -0.002412 0.009826 -0.001788 0.000000 0.000276 -0.000005
# 3 -0.004006 -0.001788 0.012639 -0.000004 -0.006853 -0.000008
# 4 0.000003 0.000000 -0.000004 0.026707 -0.000006 -0.009555
# 5 -0.002149 0.000276 -0.006853 -0.000006 0.031327 -0.000011
# 6 0.000012 -0.000005 -0.000008 -0.009555 -0.000011 0.050124
#
#
# Mechanical properties :
#
#
# Convention : Reuss Voigt Hill
#
# Bulk Modulus (GPa) = 53.13181 61.11847 57.12514
# Shear Modulus (GPa) = 30.10616 34.80355 32.45486
#
# Velocity S-wave (km/s) = 3.63457 3.90784 3.77368
# Velocity P-wave (km/s) = 6.39740 6.86872 6.63725
#
# Compressibility (1/GPa) = 0.01882112
#
# Stress axis : x y z
#
# Youngs Moduli (GPa) = 78.31685 101.77055 79.11857
#
# Poissons Ratio (x) = 0.24548 0.31696
# Poissons Ratio (y) = 0.18891 0.14148
# Poissons Ratio (z) = 0.31375 0.18198
#
# Static dielectric constant tensor:
#      x y z
#    x 3.963990 -0.000060 0.208810 
#    y -0.000060 4.128480 -0.000070 
#    z 0.208810 -0.000070 4.475730 
# 
# 
# High freq. dielectric constant tensor:
#      x y z
#    x 1.889640 0.000000 0.014600 
#    y 0.000000 1.906590 0.000000 
#    z 0.014600 0.000000 1.920060 
# 
# From -- ./inp_files/253386.got.cif
#   From: 2010.06.25/outbox.cif.g09.slc.cpg/sg15_127_cif.got.tgz:253386.got - 2010.06.28 07:06:18.
