data_PCOD8153066
_publ_section_title
;
Structure prediction by ZEFSAII (Michael W. Deem and Ramdas Pophale) SiO2 
 PCOD8153066
Probable space group: C 2/C
;
_chemical_formula_sum "Si O2"
_cell_formula_units_Z 56
_cell_length_a 28.169682
_cell_length_b 12.151542
_cell_length_c 15.225329
_cell_angle_alpha 90.000000
_cell_angle_beta 29.262686
_cell_angle_gamma 90.000000
_cell_volume 2547.557668
_symmetry_space_group_name_H-M "C 2/C"
_symmetry_group_IT_number 15
_symmetry_cell_setting 'monoclinic'
loop_
_space_group_symop_operation_xyz
x,y,z
-x,y,1/2-z
-x,-y,-z
x,-y,1/2+z
1/2+x,1/2+y,z
1/2-x,1/2+y,1/2-z
1/2-x,1/2-y,-z
1/2+x,1/2-y,1/2+z
loop_
_atom_site_type_symbol
_atom_site_label
_atom_site_fract_x
_atom_site_fract_y
_atom_site_fract_z
Si Si1 0.086185 0.690405 0.675388
Si Si2 0.594842 0.441705 0.883712
Si Si3 0.430803 0.791420 0.102850
Si Si4 0.290318 0.992501 0.011989
Si Si5 0.601801 0.567281 0.569261
Si Si6 0.071562 0.708491 0.211942
Si Si7 0.235487 0.109724 0.921127
O O1 0.042377 0.661850 0.843422
O O2 0.136635 0.578137 0.558176
O O3 0.166536 0.786026 0.547634
O O4 0.000000 0.724881 0.750000
O O5 0.604021 0.330952 0.812990
O O6 0.688193 0.521552 0.728198
O O7 0.500000 0.500000 0.000000
O O8 0.589424 0.390316 0.990259
O O9 0.337459 0.854214 0.212473
O O10 0.520211 0.794604 0.890563
O O11 0.259478 0.046366 0.970748
O O12 0.337033 0.872520 0.928327
O O13 0.500000 0.503785 0.750000
O O14 0.612128 0.670188 0.620222
O O15 0.687782 0.480204 0.434662
O O16 0.000000 0.668055 0.250000
#
# Coordination Sequence:
#
# PCOD8153066 Si02
#       7
#     8   8   8   8   8   8   8
#     4  11  23  42  72 100 137 182 244 291 348 419
#     4  12  24  43  71 101 135 187 229 284 355 413
#     4  11  23  46  67  99 144 183 223 292 356 404
#     4  11  24  46  69  98 140 183 233 292 353 418
#     4  11  24  42  67 102 140 178 233 283 347 423
#     4  11  25  45  70 100 148 184 228 287 353 426
#     4  11  23  42  69  98 138 179 235 295 344 412
#
# _framework density 21.981836999999999
#
# number of rings (size 3 to 8) (size 9 to 14) (size 15 to 20)
#    0.000    0.857    5.714    2.571    4.000    2.857 
#    2.571    0.000    0.000    0.000    0.000    0.000 
#    0.000    0.000    0.000    0.000    0.000    0.000 
#
# Total GULP energy -346942.780029 kJ/mol
# GULP energy per Si atom -12390.813572 kJ/mol
# Density = 2.193180 g / cm^3
# Si number density = 21.981837 Si / 1000 Ang^3
#
#
#
# Elastic Constant Matrix: (Units=GPa)
#
#
# Indices 1 2 3 4 5 6 
#
# 1 93.4538 39.6453 46.7692 0.0000 -10.4327 0.0000
# 2 39.6453 118.2045 53.5192 0.0000 -19.7208 0.0000
# 3 46.7692 53.5192 137.5948 0.0000 -4.5766 0.0000
# 4 0.0000 0.0000 0.0000 34.5969 0.0000 -10.9622
# 5 -10.4327 -19.7208 -4.5766 0.0000 31.9484 0.0000
# 6 0.0000 0.0000 0.0000 -10.9622 0.0000 30.2873
#
#
#
# Elastic Compliance Matrix: (Units=1/GPa)
#
#
# Indices 1 2 3 4 5 6 
#
# 1 0.013893 -0.002618 -0.003624 0.000000 0.002401 0.000000
# 2 -0.002618 0.011953 -0.003559 0.000000 0.006013 0.000000
# 3 -0.003624 -0.003559 0.009818 0.000000 -0.001974 0.000000
# 4 0.000000 0.000000 0.000000 0.032649 0.000000 0.011817
# 5 0.002401 0.006013 -0.001974 0.000000 0.035514 0.000000
# 6 0.000000 0.000000 0.000000 0.011817 0.000000 0.037294
#
#
# Mechanical properties :
#
#
# Convention : Reuss Voigt Hill
#
# Bulk Modulus (GPa) = 62.26208 69.90230 66.08219
# Shear Modulus (GPa) = 30.10652 33.32114 31.71383
#
# Velocity S-wave (km/s) = 3.70484 3.89761 3.80245
# Velocity P-wave (km/s) = 6.83278 7.21971 7.02891
#
# Compressibility (1/GPa) = 0.01606114
#
# Stress axis : x y z
#
# Youngs Moduli (GPa) = 71.97929 83.66252 101.85056
#
# Poissons Ratio (x) = 0.21904 0.36911
# Poissons Ratio (y) = 0.18845 0.36251
# Poissons Ratio (z) = 0.26086 0.29778
#
# Static dielectric constant tensor:
#      x y z
#    x 3.941050 0.000000 -0.141230 
#    y 0.000000 4.086930 0.000000 
#    z -0.141230 0.000000 4.161150 
# 
# 
# High freq. dielectric constant tensor:
#      x y z
#    x 1.861210 0.000000 -0.002070 
#    y 0.000000 1.864020 0.000000 
#    z -0.002070 0.000000 1.866240 
# 
# From -- ./inp_files/181931.got.cif
#   From: 2010.06.25/outbox.cif.g09.slc.cpg/sg15_91_cif.got.tgz:181931.got - 2010.06.28 07:06:18.
