data_PCOD8153951
_publ_section_title
;
Structure prediction by ZEFSAII (Michael W. Deem and Ramdas Pophale) SiO2 
 PCOD8153951
Probable space group: C 2/C
;
_chemical_formula_sum "Si O2"
_cell_formula_units_Z 52
_cell_length_a 18.041838
_cell_length_b 14.359841
_cell_length_c 22.288324
_cell_angle_alpha 90.000000
_cell_angle_beta 154.291608
_cell_angle_gamma 90.000000
_cell_volume 2504.888615
_symmetry_space_group_name_H-M "C 2/C"
_symmetry_group_IT_number 15
_symmetry_cell_setting 'monoclinic'
loop_
_space_group_symop_operation_xyz
x,y,z
-x,y,1/2-z
-x,-y,-z
x,-y,1/2+z
1/2+x,1/2+y,z
1/2-x,1/2+y,1/2-z
1/2-x,1/2-y,-z
1/2+x,1/2-y,1/2+z
loop_
_atom_site_type_symbol
_atom_site_label
_atom_site_fract_x
_atom_site_fract_y
_atom_site_fract_z
Si Si1 0.670694 0.708846 0.582936
Si Si2 0.221384 0.660167 0.019042
Si Si3 0.500000 0.480841 0.750000
Si Si4 0.755625 0.437963 0.344546
Si Si5 0.117047 0.438483 0.666349
Si Si6 0.907452 0.444721 0.240817
Si Si7 0.715730 0.247067 0.706467
O O1 0.722654 0.806180 0.589529
O O2 0.746419 0.619325 0.601817
O O3 0.466489 0.704096 0.437939
O O4 0.766258 0.698667 0.716049
O O5 0.366798 0.583301 0.116757
O O6 0.250000 0.750000 0.000000
O O7 0.036681 0.620476 0.871245
O O8 0.408861 0.544496 0.733699
O O9 0.759201 0.509632 0.291032
O O10 0.748053 0.331019 0.317189
O O11 0.921361 0.457050 0.506027
O O12 0.156052 0.474262 0.761816
O O13 0.144290 0.328330 0.690455
O O14 0.000000 0.488234 0.250000
#
# Coordination Sequence:
#
# PCOD8153951 Si02
#       7
#     8   8   4   8   8   8   8
#     4  12  23  41  69 104 138 178 232 286 354 427
#     4  12  23  38  65 104 141 175 222 288 362 416
#     4  12  26  42  70 100 138 192 226 286 354 424
#     4  11  24  47  71 102 140 187 240 285 355 431
#     4  11  24  47  71  97 145 186 230 297 350 418
#     4  12  24  42  64 104 147 177 227 293 357 421
#     4  12  25  45  74  99 137 193 241 280 347 419
#
# _framework density 20.759405999999998
#
# number of rings (size 3 to 8) (size 9 to 14) (size 15 to 20)
#    0.000    0.308    7.692    1.846    2.154    0.615 
#    4.154    0.769    0.000    0.000    0.000    0.000 
#    0.000    0.000    0.000    0.000    0.000    0.000 
#
# Total GULP energy -322442.408445 kJ/mol
# GULP energy per Si atom -12401.631094 kJ/mol
# Density = 2.071216 g / cm^3
# Si number density = 20.759406 Si / 1000 Ang^3
#
#
#
# Elastic Constant Matrix: (Units=GPa)
#
#
# Indices 1 2 3 4 5 6 
#
# 1 141.7193 44.3281 33.2755 0.0044 4.7181 -0.0001
# 2 44.3281 87.6331 13.8472 0.0052 4.7789 0.0116
# 3 33.2755 13.8472 74.0414 0.0186 2.2832 0.0208
# 4 0.0044 0.0052 0.0186 32.9329 0.0162 -9.3449
# 5 4.7181 4.7789 2.2832 0.0162 30.5480 0.0092
# 6 -0.0001 0.0116 0.0208 -9.3449 0.0092 37.3706
#
#
#
# Elastic Compliance Matrix: (Units=1/GPa)
#
#
# Indices 1 2 3 4 5 6 
#
# 1 0.009125 -0.004062 -0.003325 0.000003 -0.000525 0.000004
# 2 -0.004062 0.013653 -0.000683 -0.000002 -0.001458 -0.000004
# 3 -0.003325 -0.000683 0.015144 -0.000011 -0.000511 -0.000011
# 4 0.000003 -0.000002 -0.000011 0.032684 -0.000019 0.008173
# 5 -0.000525 -0.001458 -0.000511 -0.000019 0.033083 -0.000012
# 6 0.000004 -0.000004 -0.000011 0.008173 -0.000012 0.028803
#
#
# Mechanical properties :
#
#
# Convention : Reuss Voigt Hill
#
# Bulk Modulus (GPa) = 45.90890 54.03281 49.97085
# Shear Modulus (GPa) = 32.07357 34.29983 33.18670
#
# Velocity S-wave (km/s) = 3.93493 4.06920 4.00263
# Velocity P-wave (km/s) = 6.54276 6.93992 6.74426
#
# Compressibility (1/GPa) = 0.02178227
#
# Stress axis : x y z
#
# Youngs Moduli (GPa) = 109.59091 73.24309 66.03348
#
# Poissons Ratio (x) = 0.29749 0.21957
# Poissons Ratio (y) = 0.44512 0.04511
# Poissons Ratio (z) = 0.36440 0.05003
#
# Static dielectric constant tensor:
#      x y z
#    x 3.104860 0.002150 0.522930 
#    y 0.002150 3.888370 -0.002030 
#    z 0.522930 -0.002030 3.224330 
# 
# 
# High freq. dielectric constant tensor:
#      x y z
#    x 1.811880 0.000000 -0.003960 
#    y 0.000000 1.800990 -0.000010 
#    z -0.003960 -0.000010 1.814530 
# 
# From -- ./inp_files/205777.got.cif
#   From: 2010.06.25/outbox.cif.g09.slc.cpg/sg15_103_cif.got.tgz:205777.got - 2010.06.28 07:06:18.
