data_PCOD8153748
_publ_section_title
;
Structure prediction by ZEFSAII (Michael W. Deem and Ramdas Pophale) SiO2 
 PCOD8153748
Probable space group: C 2/C
;
_chemical_formula_sum "Si O2"
_cell_formula_units_Z 40
_cell_length_a 32.070470
_cell_length_b 9.518119
_cell_length_c 12.685309
_cell_angle_alpha 90.000000
_cell_angle_beta 26.304824
_cell_angle_gamma 90.000000
_cell_volume 1715.951443
_symmetry_space_group_name_H-M "C 2/C"
_symmetry_group_IT_number 15
_symmetry_cell_setting 'monoclinic'
loop_
_space_group_symop_operation_xyz
x,y,z
-x,y,1/2-z
-x,-y,-z
x,-y,1/2+z
1/2+x,1/2+y,z
1/2-x,1/2+y,1/2-z
1/2-x,1/2-y,-z
1/2+x,1/2-y,1/2+z
loop_
_atom_site_type_symbol
_atom_site_label
_atom_site_fract_x
_atom_site_fract_y
_atom_site_fract_z
Si Si1 0.258933 0.580319 0.330242
Si Si2 0.585088 0.082533 0.865441
Si Si3 0.161093 0.367762 0.410723
Si Si4 0.052015 0.067667 0.034738
Si Si5 0.042543 0.188498 0.844642
O O1 0.186053 0.547802 0.588690
O O2 0.221678 0.500719 0.311100
O O3 0.359643 0.520334 0.129425
O O4 0.267822 0.747542 0.292415
O O5 0.593256 0.066066 0.974146
O O6 0.561345 0.246721 0.902444
O O7 0.500000 0.000000 0.000000
O O8 0.102575 0.297483 0.639077
O O9 0.085321 0.172034 0.865992
O O10 0.000000 0.148363 0.250000
O O11 0.969273 0.961877 0.183095
#
# Coordination Sequence:
#
# PCOD8153748 Si02
#       5
#     8   8   8   8   8
#     4  12  28  43  76 104 149 193 243 300 367 441
#     4  12  26  47  71 103 140 194 242 302 365 434
#     4  12  27  49  71 108 148 192 244 305 369 439
#     4  11  24  44  73 107 144 193 241 304 363 437
#     4  11  24  46  75  99 148 191 243 298 374 428
#
# _framework density 23.310683000000001
#
# number of rings (size 3 to 8) (size 9 to 14) (size 15 to 20)
#    0.000    0.400    6.000    1.200    5.600    2.400 
#    0.000    0.000    0.000    0.000    0.000    0.000 
#    0.000    0.000    0.000    0.000    0.000    0.000 
#
# Total GULP energy -247820.505000 kJ/mol
# GULP energy per Si atom -12391.025250 kJ/mol
# Density = 2.325763 g / cm^3
# Si number density = 23.310683 Si / 1000 Ang^3
#
#
#
# Elastic Constant Matrix: (Units=GPa)
#
#
# Indices 1 2 3 4 5 6 
#
# 1 166.6527 58.8648 42.0507 0.0000 21.3532 0.0000
# 2 58.8648 50.5131 16.1396 0.0000 6.3247 0.0000
# 3 42.0507 16.1396 121.4256 0.0000 23.6230 0.0000
# 4 0.0000 0.0000 0.0000 39.0384 0.0000 4.4178
# 5 21.3532 6.3247 23.6230 0.0000 31.4596 0.0000
# 6 0.0000 0.0000 0.0000 4.4178 0.0000 42.3676
#
#
#
# Elastic Compliance Matrix: (Units=1/GPa)
#
#
# Indices 1 2 3 4 5 6 
#
# 1 0.011123 -0.011986 -0.001474 0.000000 -0.004033 0.000000
# 2 -0.011986 0.033753 -0.000700 0.000000 0.001876 0.000000
# 3 -0.001474 -0.000700 0.010091 0.000000 -0.006436 0.000000
# 4 0.000000 0.000000 0.000000 0.025922 0.000000 -0.002703
# 5 -0.004033 0.001876 -0.006436 0.000000 0.038980 0.000000
# 6 0.000000 0.000000 0.000000 -0.002703 0.000000 0.023885
#
#
# Mechanical properties :
#
#
# Convention : Reuss Voigt Hill
#
# Bulk Modulus (GPa) = 37.52854 63.63349 50.58101
# Shear Modulus (GPa) = 27.63084 37.34223 32.48654
#
# Velocity S-wave (km/s) = 3.44660 4.00676 3.73719
# Velocity P-wave (km/s) = 5.65446 6.98303 6.35357
#
# Compressibility (1/GPa) = 0.02664639
#
# Stress axis : x y z
#
# Youngs Moduli (GPa) = 89.90485 29.62661 99.09581
#
# Poissons Ratio (x) = 0.35510 0.14609
# Poissons Ratio (y) = 1.07759 0.06942
# Poissons Ratio (z) = 0.13254 0.02075
#
# Static dielectric constant tensor:
#      x y z
#    x 4.515450 0.000000 0.219210 
#    y 0.000000 4.312660 0.000000 
#    z 0.219210 0.000000 4.248550 
# 
# 
# High freq. dielectric constant tensor:
#      x y z
#    x 1.935540 0.000000 0.009820 
#    y 0.000000 1.907410 0.000000 
#    z 0.009820 0.000000 1.924950 
# 
# From -- ./inp_files/126345.got.cif
#   From: 2010.06.25/outbox.cif.g09.slc.cpg/sg15_64_cif.got.tgz:126345.got - 2010.06.28 07:06:18.
