data_PCOD8153545
_publ_section_title
;
Structure prediction by ZEFSAII (Michael W. Deem and Ramdas Pophale) SiO2 
 PCOD8153545
Probable space group: C 2/C
;
_chemical_formula_sum "Si O2"
_cell_formula_units_Z 40
_cell_length_a 25.870443
_cell_length_b 6.498756
_cell_length_c 10.344641
_cell_angle_alpha 90.000000
_cell_angle_beta 88.394225
_cell_angle_gamma 90.000000
_cell_volume 1738.516984
_symmetry_space_group_name_H-M "C 2/C"
_symmetry_group_IT_number 15
_symmetry_cell_setting 'monoclinic'
loop_
_space_group_symop_operation_xyz
x,y,z
-x,y,1/2-z
-x,-y,-z
x,-y,1/2+z
1/2+x,1/2+y,z
1/2-x,1/2+y,1/2-z
1/2-x,1/2-y,-z
1/2+x,1/2-y,1/2+z
loop_
_atom_site_type_symbol
_atom_site_label
_atom_site_fract_x
_atom_site_fract_y
_atom_site_fract_z
Si Si1 0.825575 0.304384 0.419941
Si Si2 0.627332 0.402626 0.800700
Si Si3 0.729737 0.449362 0.926968
Si Si4 0.057204 0.708134 0.253436
Si Si5 0.908533 0.435117 0.023717
O O1 0.873500 0.251729 0.321066
O O2 0.779322 0.437943 0.360851
O O3 0.853459 0.444344 0.527069
O O4 0.801724 0.093821 0.472924
O O5 0.689607 0.413753 0.814389
O O6 0.600464 0.617977 0.771416
O O7 0.600087 0.298334 0.925687
O O8 0.750000 0.250000 0.000000
O O9 0.055353 0.554441 0.376514
O O10 0.067683 0.582984 0.120818
O O11 0.000000 0.808744 0.250000
#
# Coordination Sequence:
#
# PCOD8153545 Si02
#       5
#     8   8   8   8   8
#     4  11  25  42  67 108 145 191 239 294 366 433
#     4  12  26  44  74 105 151 191 250 300 372 442
#     4  11  24  41  68 105 149 197 240 293 357 442
#     4  12  29  50  77 108 145 196 254 317 381 444
#     4  12  25  50  77 107 150 191 250 313 376 449
#
# _framework density 23.008116999999999
#
# number of rings (size 3 to 8) (size 9 to 14) (size 15 to 20)
#    0.000    0.400    6.000    1.800    2.800    1.600 
#    0.000    0.000    0.000    0.000    0.000    0.000 
#    0.000    0.000    0.000    0.000    0.000    0.000 
#
# Total GULP energy -247908.368995 kJ/mol
# GULP energy per Si atom -12395.418450 kJ/mol
# Density = 2.295575 g / cm^3
# Si number density = 23.008117 Si / 1000 Ang^3
#
#
#
# Elastic Constant Matrix: (Units=GPa)
#
#
# Indices 1 2 3 4 5 6 
#
# 1 115.3853 44.0124 37.6724 0.0000 4.1960 0.0000
# 2 44.0124 113.7746 55.3094 0.0000 -1.9889 0.0000
# 3 37.6724 55.3094 111.0661 0.0000 5.9370 0.0000
# 4 0.0000 0.0000 0.0000 36.8551 0.0000 2.2813
# 5 4.1960 -1.9889 5.9370 0.0000 23.7012 0.0000
# 6 0.0000 0.0000 0.0000 2.2813 0.0000 34.4518
#
#
#
# Elastic Compliance Matrix: (Units=1/GPa)
#
#
# Indices 1 2 3 4 5 6 
#
# 1 0.010566 -0.003189 -0.001907 0.000000 -0.001661 0.000000
# 2 -0.003189 0.012702 -0.005403 0.000000 0.002984 0.000000
# 3 -0.001907 -0.005403 0.012515 0.000000 -0.003251 0.000000
# 4 0.000000 0.000000 0.000000 0.027245 0.000000 -0.001804
# 5 -0.001661 0.002984 -0.003251 0.000000 0.043551 0.000000
# 6 0.000000 0.000000 0.000000 -0.001804 0.000000 0.029146
#
#
# Mechanical properties :
#
#
# Convention : Reuss Voigt Hill
#
# Bulk Modulus (GPa) = 67.63991 68.24606 67.94299
# Shear Modulus (GPa) = 30.93090 32.55041 31.74066
#
# Velocity S-wave (km/s) = 3.67051 3.76538 3.71825
# Velocity P-wave (km/s) = 6.88663 6.97354 6.93022
#
# Compressibility (1/GPa) = 0.01478417
#
# Stress axis : x y z
#
# Youngs Moduli (GPa) = 94.64178 78.72865 79.90520
#
# Poissons Ratio (x) = 0.25110 0.15237
# Poissons Ratio (y) = 0.30185 0.43173
# Poissons Ratio (z) = 0.18047 0.42537
#
# Static dielectric constant tensor:
#      x y z
#    x 4.206990 0.000000 0.280320 
#    y 0.000000 4.170270 0.000000 
#    z 0.280320 0.000000 4.084790 
# 
# 
# High freq. dielectric constant tensor:
#      x y z
#    x 1.908530 0.000000 0.010750 
#    y 0.000000 1.918630 0.000000 
#    z 0.010750 0.000000 1.906510 
# 
# From -- ./inp_files/120731.got.cif
#   From: 2010.06.25/outbox.cif.g09.slc.cpg/sg15_61_cif.got.tgz:120731.got - 2010.06.28 07:06:18.
