data_PCOD8153087
_publ_section_title
;
Structure prediction by ZEFSAII (Michael W. Deem and Ramdas Pophale) SiO2 
 PCOD8153087
Probable space group: C 2/C
;
_chemical_formula_sum "Si O2"
_cell_formula_units_Z 64
_cell_length_a 14.318590
_cell_length_b 7.862775
_cell_length_c 29.608184
_cell_angle_alpha 90.000000
_cell_angle_beta 54.121635
_cell_angle_gamma 90.000000
_cell_volume 2700.933425
_symmetry_space_group_name_H-M "C 2/C"
_symmetry_group_IT_number 15
_symmetry_cell_setting 'monoclinic'
loop_
_space_group_symop_operation_xyz
x,y,z
-x,y,1/2-z
-x,-y,-z
x,-y,1/2+z
1/2+x,1/2+y,z
1/2-x,1/2+y,1/2-z
1/2-x,1/2-y,-z
1/2+x,1/2-y,1/2+z
loop_
_atom_site_type_symbol
_atom_site_label
_atom_site_fract_x
_atom_site_fract_y
_atom_site_fract_z
Si Si1 0.224177 0.876877 0.596486
Si Si2 0.334587 0.573097 0.673342
Si Si3 0.769531 0.358375 0.869202
Si Si4 0.057225 0.420319 0.136633
Si Si5 0.322795 0.176281 0.520110
Si Si6 0.859619 0.778595 0.730176
Si Si7 0.377337 0.556473 0.799425
Si Si8 0.051769 0.358067 0.905009
O O1 0.168087 0.701683 0.594114
O O2 0.324082 0.869798 0.606523
O O3 0.275502 0.984396 0.540391
O O4 0.120125 0.982004 0.650125
O O5 0.276251 0.530103 0.641432
O O6 0.250700 0.654461 0.735256
O O7 0.374082 0.391308 0.681122
O O8 0.440132 0.700754 0.632913
O O9 0.891428 0.405428 0.857784
O O10 0.684965 0.287983 0.932083
O O11 0.788933 0.215243 0.824768
O O12 0.974002 0.337785 0.198042
O O13 0.984288 0.470688 0.112374
O O14 0.250000 0.250000 0.500000
O O15 0.457206 0.176546 0.470009
O O16 0.843504 0.900047 0.777431
O O17 0.500000 0.630093 0.750000
#
# Coordination Sequence:
#
# PCOD8153087 Si02
#       8
#     8   8   8   8   8   8   8   8
#     4  11  25  50  70 109 145 187 251 298 366 446
#     4  12  27  46  72 109 150 189 248 300 365 449
#     4  11  26  47  71 106 145 188 249 303 362 447
#     4  12  26  45  74 109 146 194 245 298 369 447
#     4  11  26  49  76 106 142 191 250 309 371 432
#     4  12  26  44  71 109 147 194 236 297 368 441
#     4  11  23  42  71 102 145 192 236 299 364 436
#     4  12  26  48  74 104 149 190 245 310 366 437
#
# _framework density 23.695512000000001
#
# number of rings (size 3 to 8) (size 9 to 14) (size 15 to 20)
#    0.000    0.500    5.000    1.875    8.750    1.000 
#    0.000    0.000    0.000    0.000    0.000    0.000 
#    0.000    0.000    0.000    0.000    0.000    0.000 
#
# Total GULP energy -396686.637022 kJ/mol
# GULP energy per Si atom -12396.457407 kJ/mol
# Density = 2.364158 g / cm^3
# Si number density = 23.695512 Si / 1000 Ang^3
#
#
#
# Elastic Constant Matrix: (Units=GPa)
#
#
# Indices 1 2 3 4 5 6 
#
# 1 77.4362 43.2152 36.1916 -0.0005 -1.0605 -0.0005
# 2 43.2152 125.7376 59.4086 -0.0009 -5.7799 -0.0007
# 3 36.1916 59.4086 158.6207 -0.0001 -18.6297 0.0000
# 4 -0.0005 -0.0009 -0.0001 42.8146 -0.0003 3.7807
# 5 -1.0605 -5.7799 -18.6297 -0.0003 31.0540 -0.0003
# 6 -0.0005 -0.0007 0.0000 3.7807 -0.0003 43.9545
#
#
#
# Elastic Compliance Matrix: (Units=1/GPa)
#
#
# Indices 1 2 3 4 5 6 
#
# 1 0.016557 -0.004727 -0.002199 0.000000 -0.001634 0.000000
# 2 -0.004727 0.011017 -0.003040 0.000000 0.000065 0.000000
# 3 -0.002199 -0.003040 0.008466 0.000000 0.004438 0.000000
# 4 0.000000 0.000000 0.000000 0.023535 0.000000 -0.002024
# 5 -0.001634 0.000065 0.004438 0.000000 0.034821 0.000000
# 6 0.000000 0.000000 0.000000 -0.002024 0.000000 0.022925
#
#
# Mechanical properties :
#
#
# Convention : Reuss Voigt Hill
#
# Bulk Modulus (GPa) = 62.08065 71.04725 66.56395
# Shear Modulus (GPa) = 35.05761 38.42991 36.74376
#
# Velocity S-wave (km/s) = 3.85061 4.03155 3.94212
# Velocity P-wave (km/s) = 6.78423 7.19164 6.99091
#
# Compressibility (1/GPa) = 0.01610808
#
# Stress axis : x y z
#
# Youngs Moduli (GPa) = 60.39675 90.76933 118.11923
#
# Poissons Ratio (x) = 0.42902 0.25979
# Poissons Ratio (y) = 0.28547 0.35910
# Poissons Ratio (z) = 0.13284 0.27595
#
# Static dielectric constant tensor:
#      x y z
#    x 4.152870 0.000000 -0.194380 
#    y 0.000000 4.399790 0.000000 
#    z -0.194380 0.000000 4.514950 
# 
# 
# High freq. dielectric constant tensor:
#      x y z
#    x 1.924710 0.000000 -0.003470 
#    y 0.000000 1.953310 0.000000 
#    z -0.003470 0.000000 1.939950 
# 
# From -- ./inp_files/313120.got.cif
#   From: 2010.06.25/outbox.cif.g09.slc.cpg/sg15_157_cif.got.tgz:313120.got - 2010.06.28 07:06:18.
