data_PCOD8153267
_publ_section_title
;
Structure prediction by ZEFSAII (Michael W. Deem and Ramdas Pophale) SiO2 
 PCOD8153267
Probable space group: C 2/C
;
_chemical_formula_sum "Si O2"
_cell_formula_units_Z 52
_cell_length_a 8.643672
_cell_length_b 26.987967
_cell_length_c 11.357434
_cell_angle_alpha 90.000000
_cell_angle_beta 120.369377
_cell_angle_gamma 90.000000
_cell_volume 2285.865941
_symmetry_space_group_name_H-M "C 2/C"
_symmetry_group_IT_number 15
_symmetry_cell_setting 'monoclinic'
loop_
_space_group_symop_operation_xyz
x,y,z
-x,y,1/2-z
-x,-y,-z
x,-y,1/2+z
1/2+x,1/2+y,z
1/2-x,1/2+y,1/2-z
1/2-x,1/2-y,-z
1/2+x,1/2-y,1/2+z
loop_
_atom_site_type_symbol
_atom_site_label
_atom_site_fract_x
_atom_site_fract_y
_atom_site_fract_z
Si Si1 0.202138 0.889884 0.112302
Si Si2 0.550786 0.789504 0.014705
Si Si3 0.443476 0.689854 0.594697
Si Si4 0.505335 0.886001 0.613001
Si Si5 0.293118 0.565481 0.649306
Si Si6 0.000000 0.316173 0.250000
Si Si7 0.809359 0.950448 0.623124
O O1 0.290048 0.919343 0.256829
O O2 0.342953 0.848052 0.130894
O O3 0.012885 0.861489 0.063347
O O4 0.181175 0.931149 0.005679
O O5 0.729915 0.804240 0.010269
O O6 0.575750 0.785507 0.166740
O O7 0.472102 0.736895 0.942808
O O8 0.425874 0.835242 0.923974
O O9 0.500000 0.692266 0.750000
O O10 0.500000 0.878978 0.750000
O O11 0.308227 0.902076 0.488259
O O12 0.650096 0.927698 0.637859
O O13 0.500000 0.580668 0.750000
O O14 0.272719 0.508739 0.606502
O O15 0.000000 0.936918 0.750000
#
# Coordination Sequence:
#
# PCOD8153267 Si02
#       7
#     8   8   8   8   8   4   8
#     4  12  23  46  75  95 144 184 240 287 359 429
#     4  11  24  44  67 103 137 182 237 290 354 429
#     4  11  23  44  71 100 133 186 236 290 360 425
#     4  12  25  44  70 102 146 183 234 302 362 418
#     4  11  25  45  75 100 136 193 242 292 360 432
#     4  12  22  44  68 102 136 188 234 288 344 438
#     4  11  28  45  66 109 142 184 242 299 359 420
#
# _framework density 22.748491000000001
#
# number of rings (size 3 to 8) (size 9 to 14) (size 15 to 20)
#    0.000    0.615    4.615    2.308    6.462    1.846 
#    1.385    0.000    0.000    0.000    0.000    0.000 
#    0.000    0.000    0.000    0.000    0.000    0.000 
#
# Total GULP energy -322273.583153 kJ/mol
# GULP energy per Si atom -12395.137814 kJ/mol
# Density = 2.269671 g / cm^3
# Si number density = 22.748491 Si / 1000 Ang^3
#
#
#
# Elastic Constant Matrix: (Units=GPa)
#
#
# Indices 1 2 3 4 5 6 
#
# 1 74.2822 28.3348 22.6048 0.0000 -15.1278 0.0000
# 2 28.3348 146.8346 49.7772 0.0000 -26.9829 0.0000
# 3 22.6048 49.7772 120.7761 0.0000 -31.5986 0.0000
# 4 0.0000 0.0000 0.0000 38.8021 0.0000 -0.9005
# 5 -15.1278 -26.9829 -31.5986 0.0000 43.0081 0.0000
# 6 0.0000 0.0000 0.0000 -0.9005 0.0000 -11.5859
#
#
#
# Elastic Compliance Matrix: (Units=1/GPa)
#
#
# Indices 1 2 3 4 5 6 
#
# 1 0.015229 -0.001932 -0.001200 0.000000 0.003262 0.000000
# 2 -0.001932 0.008530 -0.002391 0.000000 0.002915 0.000000
# 3 -0.001200 -0.002391 0.011126 0.000000 0.006252 0.000000
# 4 0.000000 0.000000 0.000000 0.025725 0.000000 -0.001999
# 5 0.003262 0.002915 0.006252 0.000000 0.030821 0.000000
# 6 0.000000 0.000000 0.000000 -0.001999 0.000000 -0.086156
#
#
# Mechanical properties :
#
#
# Convention : Reuss Voigt Hill
#
# Bulk Modulus (GPa) = 41.95253 60.36961 51.16107
# Shear Modulus (GPa) = 206.03933 30.12327 118.08130
#
# Velocity S-wave (km/s) = 9.52730 3.64289 7.21249
# Velocity P-wave (km/s) = 11.81134 6.65505 9.58638
#
# Compressibility (1/GPa) = 0.02383647
#
# Stress axis : x y z
#
# Youngs Moduli (GPa) = 65.66451 117.24016 89.88311
#
# Poissons Ratio (x) = 0.22654 0.10789
# Poissons Ratio (y) = 0.12688 0.21492
# Poissons Ratio (z) = 0.07882 0.28033
#
# Static dielectric constant tensor:
#      x y z
#    x 4.590460 0.000000 0.026480 
#    y 0.000000 4.277500 0.000000 
#    z 0.026480 0.000000 4.013900 
# 
# 
# High freq. dielectric constant tensor:
#      x y z
#    x 1.899170 0.000000 -0.005560 
#    y 0.000000 1.909580 0.000000 
#    z -0.005560 0.000000 1.895080 
# 
# From -- ./inp_files/81491.got.cif
#   From: 2010.06.25/outbox.cif.g09.slc.cpg/sg15_41_cif.got.tgz:81491.got - 2010.06.28 07:06:18.
