data_PCOD8153779
_publ_section_title
;
Structure prediction by ZEFSAII (Michael W. Deem and Ramdas Pophale) SiO2 
 PCOD8153779
Probable space group: C 2/C
;
_chemical_formula_sum "Si O2"
_cell_formula_units_Z 32
_cell_length_a 9.508512
_cell_length_b 9.011424
_cell_length_c 19.889170
_cell_angle_alpha 90.000000
_cell_angle_beta 48.900229
_cell_angle_gamma 90.000000
_cell_volume 1284.233368
_symmetry_space_group_name_H-M "C 2/C"
_symmetry_group_IT_number 15
_symmetry_cell_setting 'monoclinic'
loop_
_space_group_symop_operation_xyz
x,y,z
-x,y,1/2-z
-x,-y,-z
x,-y,1/2+z
1/2+x,1/2+y,z
1/2-x,1/2+y,1/2-z
1/2-x,1/2-y,-z
1/2+x,1/2-y,1/2+z
loop_
_atom_site_type_symbol
_atom_site_label
_atom_site_fract_x
_atom_site_fract_y
_atom_site_fract_z
Si Si1 0.195943 0.212945 0.800187
Si Si2 0.717042 0.489741 0.415103
Si Si3 0.289803 0.699756 0.911349
Si Si4 0.076872 0.541655 0.874448
O O1 0.264511 0.137299 0.847388
O O2 0.170434 0.388091 0.820657
O O3 0.344463 0.175625 0.696242
O O4 0.998954 0.137037 0.840496
O O5 0.500000 0.500000 0.500000
O O6 0.775113 0.652177 0.369359
O O7 0.850889 0.459500 0.438671
O O8 0.139028 0.579561 0.931777
O O9 0.250000 0.750000 0.000000
#
# Coordination Sequence:
#
# PCOD8153779 Si02
#       4
#     8   8   8   8
#     4  11  24  46  70 105 140 185 243 292 363 431
#     4  11  24  45  68 103 143 180 240 297 353 429
#     4  11  24  46  67 102 144 181 235 300 354 424
#     4  11  26  43  75 101 144 191 237 296 365 426
#
# _framework density 24.917590000000001
#
# number of rings (size 3 to 8) (size 9 to 14) (size 15 to 20)
#    0.000    1.000    2.500    3.000    0.000   15.000 
#    0.000    0.000    0.000    0.000    0.000    0.000 
#    0.000    0.000    0.000    0.000    0.000    0.000 
#
# Total GULP energy -198292.388685 kJ/mol
# GULP energy per Si atom -12393.274293 kJ/mol
# Density = 2.486088 g / cm^3
# Si number density = 24.917590 Si / 1000 Ang^3
#
#
#
# Elastic Constant Matrix: (Units=GPa)
#
#
# Indices 1 2 3 4 5 6 
#
# 1 201.0538 61.8231 45.3508 0.0000 -12.1376 0.0000
# 2 61.8231 111.0490 12.1786 0.0000 9.3211 0.0000
# 3 45.3508 12.1786 66.5302 0.0000 -7.9532 0.0000
# 4 0.0000 0.0000 0.0000 34.7127 0.0000 2.4656
# 5 -12.1376 9.3211 -7.9532 0.0000 45.3673 0.0000
# 6 0.0000 0.0000 0.0000 2.4656 0.0000 55.2274
#
#
#
# Elastic Compliance Matrix: (Units=1/GPa)
#
#
# Indices 1 2 3 4 5 6 
#
# 1 0.007118 -0.003696 -0.003940 0.000000 0.001973 0.000000
# 2 -0.003696 0.011335 0.000049 0.000000 -0.003309 0.000000
# 3 -0.003940 0.000049 0.017956 0.000000 0.002084 0.000000
# 4 0.000000 0.000000 0.000000 0.028899 0.000000 -0.001290
# 5 0.001973 -0.003309 0.002084 0.000000 0.023615 0.000000
# 6 0.000000 0.000000 0.000000 -0.001290 0.000000 0.018165
#
#
# Mechanical properties :
#
#
# Convention : Reuss Voigt Hill
#
# Bulk Modulus (GPa) = 47.08991 68.59311 57.84151
# Shear Modulus (GPa) = 38.65726 44.34685 41.50206
#
# Velocity S-wave (km/s) = 3.94306 4.22327 4.08557
# Velocity P-wave (km/s) = 6.29838 7.16723 6.74680
#
# Compressibility (1/GPa) = 0.02123597
#
# Stress axis : x y z
#
# Youngs Moduli (GPa) = 140.48514 88.22021 55.69059
#
# Poissons Ratio (x) = 0.32610 0.21940
# Poissons Ratio (y) = 0.51929 -0.00274
# Poissons Ratio (z) = 0.55346 -0.00433
#
# Static dielectric constant tensor:
#      x y z
#    x 5.318370 0.000000 0.014980 
#    y 0.000000 4.992450 0.000000 
#    z 0.014980 0.000000 4.183860 
# 
# 
# High freq. dielectric constant tensor:
#      x y z
#    x 2.015510 0.000000 -0.003270 
#    y 0.000000 1.995910 0.000000 
#    z -0.003270 0.000000 1.972040 
# 
# From -- ./inp_files/262294.got.cif
#   From: 2010.06.25/outbox.cif.g09.slc.cpg/sg15_132_cif.got.tgz:262294.got - 2010.06.28 07:06:18.
