data_PCOD8153985
_publ_section_title
;
Structure prediction by ZEFSAII (Michael W. Deem and Ramdas Pophale) SiO2 
 PCOD8153985
Probable space group: C 2/C
;
_chemical_formula_sum "Si O2"
_cell_formula_units_Z 48
_cell_length_a 8.434458
_cell_length_b 19.959988
_cell_length_c 12.649838
_cell_angle_alpha 90.000000
_cell_angle_beta 79.439925
_cell_angle_gamma 90.000000
_cell_volume 2093.552708
_symmetry_space_group_name_H-M "C 2/C"
_symmetry_group_IT_number 15
_symmetry_cell_setting 'monoclinic'
loop_
_space_group_symop_operation_xyz
x,y,z
-x,y,1/2-z
-x,-y,-z
x,-y,1/2+z
1/2+x,1/2+y,z
1/2-x,1/2+y,1/2-z
1/2-x,1/2-y,-z
1/2+x,1/2-y,1/2+z
loop_
_atom_site_type_symbol
_atom_site_label
_atom_site_fract_x
_atom_site_fract_y
_atom_site_fract_z
Si Si1 0.675781 0.010227 0.249087
Si Si2 0.091000 0.065565 0.452304
Si Si3 0.381514 0.207869 0.545505
Si Si4 0.339794 0.615480 0.827924
Si Si5 0.920460 0.356197 0.647740
Si Si6 0.582770 0.313970 0.631919
O O1 0.500000 0.977504 0.250000
O O2 0.752085 0.044788 0.135524
O O3 0.646666 0.068044 0.339252
O O4 0.794676 0.953823 0.277033
O O5 0.138484 0.106682 0.549856
O O6 0.971949 0.112010 0.398632
O O7 0.000000 0.000000 0.500000
O O8 0.250000 0.250000 0.500000
O O9 0.300529 0.172034 0.658991
O O10 0.446157 0.149839 0.459582
O O11 0.529426 0.256103 0.557656
O O12 0.500000 0.642748 0.750000
O O13 0.772998 0.309088 0.630443
O O14 0.000000 0.334448 0.750000
O O15 0.500000 0.295997 0.750000
#
# Coordination Sequence:
#
# PCOD8153985 Si02
#       6
#     8   8   8   8   8   8
#     4  11  25  45  76 111 146 189 245 303 372 434
#     4  12  24  45  76 108 146 191 241 304 368 432
#     4  12  27  48  68 108 152 195 248 294 361 439
#     4  12  26  48  73 106 151 193 241 309 363 431
#     4  11  24  47  78 105 145 193 243 305 364 437
#     4  12  25  47  75 104 146 197 245 293 369 443
#
# _framework density 22.927533
#
# number of rings (size 3 to 8) (size 9 to 14) (size 15 to 20)
#    0.000    0.333    5.000    4.500    0.000    6.667 
#    3.000    0.000    0.000    0.000    0.000    0.000 
#    0.000    0.000    0.000    0.000    0.000    0.000 
#
# Total GULP energy -297584.973358 kJ/mol
# GULP energy per Si atom -12399.373890 kJ/mol
# Density = 2.287535 g / cm^3
# Si number density = 22.927533 Si / 1000 Ang^3
#
#
#
# Elastic Constant Matrix: (Units=GPa)
#
#
# Indices 1 2 3 4 5 6 
#
# 1 136.3803 34.1057 43.4138 0.0000 -6.4084 0.0000
# 2 34.1057 101.2632 36.3797 0.0000 -12.4210 0.0000
# 3 43.4138 36.3797 109.1955 0.0000 -25.2744 0.0000
# 4 0.0000 0.0000 0.0000 39.4608 0.0000 -7.8618
# 5 -6.4084 -12.4210 -25.2744 0.0000 50.5926 0.0000
# 6 0.0000 0.0000 0.0000 -7.8618 0.0000 37.5072
#
#
#
# Elastic Compliance Matrix: (Units=1/GPa)
#
#
# Indices 1 2 3 4 5 6 
#
# 1 0.008746 -0.001967 -0.003027 0.000000 -0.000887 0.000000
# 2 -0.001967 0.011706 -0.002838 0.000000 0.001207 0.000000
# 3 -0.003027 -0.002838 0.012503 0.000000 0.005166 0.000000
# 4 0.000000 0.000000 0.000000 0.026446 0.000000 0.005543
# 5 -0.000887 0.001207 0.005166 0.000000 0.022530 0.000000
# 6 0.000000 0.000000 0.000000 0.005543 0.000000 0.027823
#
#
# Mechanical properties :
#
#
# Convention : Reuss Voigt Hill
#
# Bulk Modulus (GPa) = 57.84079 63.84860 60.84470
# Shear Modulus (GPa) = 38.11463 41.04143 39.57803
#
# Velocity S-wave (km/s) = 4.08167 4.23549 4.15929
# Velocity P-wave (km/s) = 6.89172 7.19914 7.04711
#
# Compressibility (1/GPa) = 0.01728884
#
# Stress axis : x y z
#
# Youngs Moduli (GPa) = 114.33316 85.42990 79.98172
#
# Poissons Ratio (x) = 0.16804 0.24214
# Poissons Ratio (y) = 0.22490 0.22703
# Poissons Ratio (z) = 0.34614 0.24249
#
# Static dielectric constant tensor:
#      x y z
#    x 3.001750 0.000000 -0.086670 
#    y 0.000000 4.258970 0.000000 
#    z -0.086670 0.000000 4.209860 
# 
# 
# High freq. dielectric constant tensor:
#      x y z
#    x 1.919190 0.000000 -0.012170 
#    y 0.000000 1.904830 0.000000 
#    z -0.012170 0.000000 1.906320 
# 
# From -- ./inp_files/79787.got.cif
#   From: 2010.06.25/outbox.cif.g09.slc.cpg/sg15_40_cif.got.tgz:79787.got - 2010.06.28 07:06:18.
