data_PCOD8153249
_publ_section_title
;
Structure prediction by ZEFSAII (Michael W. Deem and Ramdas Pophale) SiO2 
 PCOD8153249
Probable space group: C 2/C
;
_chemical_formula_sum "Si O2"
_cell_formula_units_Z 48
_cell_length_a 13.163039
_cell_length_b 12.612092
_cell_length_c 15.731623
_cell_angle_alpha 90.000000
_cell_angle_beta 120.275184
_cell_angle_gamma 90.000000
_cell_volume 2255.467107
_symmetry_space_group_name_H-M "C 2/C"
_symmetry_group_IT_number 15
_symmetry_cell_setting 'monoclinic'
loop_
_space_group_symop_operation_xyz
x,y,z
-x,y,1/2-z
-x,-y,-z
x,-y,1/2+z
1/2+x,1/2+y,z
1/2-x,1/2+y,1/2-z
1/2-x,1/2-y,-z
1/2+x,1/2-y,1/2+z
loop_
_atom_site_type_symbol
_atom_site_label
_atom_site_fract_x
_atom_site_fract_y
_atom_site_fract_z
Si Si1 0.811629 0.146674 0.487322
Si Si2 0.773688 0.303756 0.846528
Si Si3 0.088029 0.635413 0.712713
Si Si4 0.977053 0.214439 0.040371
Si Si5 0.102124 0.959893 0.859195
Si Si6 0.870345 0.587822 0.230856
O O1 0.750000 0.250000 0.500000
O O2 0.722424 0.090409 0.384946
O O3 0.931248 0.176976 0.490898
O O4 0.847421 0.065433 0.576194
O O5 0.670775 0.225741 0.780476
O O6 0.714598 0.408475 0.860483
O O7 0.845495 0.322934 0.790398
O O8 0.853391 0.243766 0.947695
O O9 0.149568 0.521898 0.724786
O O10 0.000000 0.607123 0.750000
O O11 0.023535 0.676492 0.601428
O O12 0.956943 0.121305 0.099441
O O13 0.000000 0.992406 0.750000
O O14 0.000000 0.608982 0.250000
#
# Coordination Sequence:
#
# PCOD8153249 Si02
#       6
#     8   8   8   8   8   8
#     4  12  28  47  67 103 145 186 229 284 355 422
#     4  12  24  43  74 101 135 184 233 291 346 413
#     4  11  23  44  69 102 139 174 237 291 343 416
#     4  12  24  45  71 103 139 181 235 290 351 411
#     4  12  25  46  74 105 138 184 239 287 345 413
#     4  11  26  45  67 100 140 185 229 288 356 414
#
# _framework density 21.281623
#
# number of rings (size 3 to 8) (size 9 to 14) (size 15 to 20)
#    0.000    0.333    5.000    3.000    7.000    4.000 
#    0.000    0.000    0.000    0.000    0.000    0.000 
#    0.000    0.000    0.000    0.000    0.000    0.000 
#
# Total GULP energy -297661.702227 kJ/mol
# GULP energy per Si atom -12402.570926 kJ/mol
# Density = 2.123318 g / cm^3
# Si number density = 21.281623 Si / 1000 Ang^3
#
#
#
# Elastic Constant Matrix: (Units=GPa)
#
#
# Indices 1 2 3 4 5 6 
#
# 1 106.1124 22.1855 26.5153 0.0000 -5.7812 0.0000
# 2 22.1855 87.7619 41.6426 0.0000 3.8496 0.0000
# 3 26.5153 41.6426 181.6904 0.0000 53.2552 0.0000
# 4 0.0000 0.0000 0.0000 36.5687 0.0000 5.7743
# 5 -5.7812 3.8496 53.2552 0.0000 61.8571 0.0000
# 6 0.0000 0.0000 0.0000 5.7743 0.0000 22.4637
#
#
#
# Elastic Compliance Matrix: (Units=1/GPa)
#
#
# Indices 1 2 3 4 5 6 
#
# 1 0.010434 -0.001858 -0.001895 0.000000 0.002722 0.000000
# 2 -0.001858 0.013367 -0.003341 0.000000 0.001871 0.000000
# 3 -0.001895 -0.003341 0.008743 0.000000 -0.007497 0.000000
# 4 0.000000 0.000000 0.000000 0.028503 0.000000 -0.007327
# 5 0.002722 0.001871 -0.007497 0.000000 0.022759 0.000000
# 6 0.000000 0.000000 0.000000 -0.007327 0.000000 0.046400
#
#
# Mechanical properties :
#
#
# Convention : Reuss Voigt Hill
#
# Bulk Modulus (GPa) = 54.47328 61.80573 58.13951
# Shear Modulus (GPa) = 33.21983 43.19265 38.20624
#
# Velocity S-wave (km/s) = 3.95519 4.50997 4.24166
# Velocity P-wave (km/s) = 6.81982 7.49831 7.16710
#
# Compressibility (1/GPa) = 0.01835762
#
# Stress axis : x y z
#
# Youngs Moduli (GPa) = 95.83870 74.80904 114.37083
#
# Poissons Ratio (x) = 0.13900 0.21670
# Poissons Ratio (y) = 0.17807 0.38211
# Poissons Ratio (z) = 0.18159 0.24993
#
# Static dielectric constant tensor:
#      x y z
#    x 3.867460 0.000000 0.006220 
#    y 0.000000 5.049780 0.000000 
#    z 0.006220 0.000000 3.944010 
# 
# 
# High freq. dielectric constant tensor:
#      x y z
#    x 1.849090 0.000000 0.003980 
#    y 0.000000 1.842680 0.000000 
#    z 0.003980 0.000000 1.848480 
# 
# From -- ./inp_files/152435.got.cif
#   From: 2010.06.25/outbox.cif.g09.slc.cpg/sg15_77_cif.got.tgz:152435.got - 2010.06.28 07:06:18.
