data_PCOD8153191
_publ_section_title
;
Structure prediction by ZEFSAII (Michael W. Deem and Ramdas Pophale) SiO2 
 PCOD8153191
Probable space group: C 2/C
;
_chemical_formula_sum "Si O2"
_cell_formula_units_Z 64
_cell_length_a 30.941151
_cell_length_b 21.958392
_cell_length_c 9.550718
_cell_angle_alpha 90.000000
_cell_angle_beta 153.867779
_cell_angle_gamma 90.000000
_cell_volume 2858.010598
_symmetry_space_group_name_H-M "C 2/C"
_symmetry_group_IT_number 15
_symmetry_cell_setting 'monoclinic'
loop_
_space_group_symop_operation_xyz
x,y,z
-x,y,1/2-z
-x,-y,-z
x,-y,1/2+z
1/2+x,1/2+y,z
1/2-x,1/2+y,1/2-z
1/2-x,1/2-y,-z
1/2+x,1/2-y,1/2+z
loop_
_atom_site_type_symbol
_atom_site_label
_atom_site_fract_x
_atom_site_fract_y
_atom_site_fract_z
Si Si1 0.741782 0.951353 0.547892
Si Si2 0.625313 0.838501 0.310879
Si Si3 0.595325 0.825341 0.760757
Si Si4 0.853325 0.732170 0.364129
Si Si5 0.079163 0.118291 0.874524
Si Si6 0.249360 0.930327 0.256288
Si Si7 0.115322 0.243935 0.060000
Si Si8 0.444058 0.358194 0.724285
O O1 0.659026 0.903473 0.352303
O O2 0.751401 0.952870 0.407122
O O3 0.717723 0.016924 0.540803
O O4 0.842929 0.934722 0.923076
O O5 0.665938 0.822296 0.582090
O O6 0.665648 0.782867 0.330077
O O7 0.507807 0.844275 0.971715
O O8 0.578106 0.795863 0.558185
O O9 0.667328 0.881875 0.969408
O O10 0.646189 0.774061 0.003817
O O11 0.905129 0.789640 0.588698
O O12 0.750000 0.750000 0.000000
O O13 0.000000 0.091020 0.750000
O O14 0.027380 0.144020 0.585566
O O15 0.143419 0.172477 0.136263
O O16 0.142625 0.903921 0.985675
O O17 0.000000 0.244875 0.750000
O O18 0.500000 0.382983 0.750000
#
# Coordination Sequence:
#
# PCOD8153191 Si02
#       8
#     8   8   8   8   8   8   8   8
#     4  12  30  48  72 104 138 192 254 299 357 415
#     4  11  25  44  73 106 142 186 234 290 365 428
#     4  11  23  47  72 104 147 185 231 293 358 431
#     4  12  25  42  72 112 152 188 226 290 365 435
#     4  11  23  43  72 104 144 181 231 294 364 434
#     4  12  29  50  72 101 140 190 255 303 348 426
#     4   9  19  38  70 102 136 171 220 285 350 433
#     4  12  26  46  72 108 147 189 230 291 366 436
#
# _framework density 22.393198999999999
#
# number of rings (size 3 to 8) (size 9 to 14) (size 15 to 20)
#    0.000    0.750    3.750    4.125    7.000    2.000 
#    0.000    0.000    0.000    0.000    0.000    0.000 
#    0.000    0.000    0.000    0.000    0.000    0.000 
#
# Total GULP energy -396793.824019 kJ/mol
# GULP energy per Si atom -12399.807001 kJ/mol
# Density = 2.234223 g / cm^3
# Si number density = 22.393199 Si / 1000 Ang^3
#
#
#
# Elastic Constant Matrix: (Units=GPa)
#
#
# Indices 1 2 3 4 5 6 
#
# 1 131.6856 33.5423 15.0947 0.0000 -21.3442 0.0000
# 2 33.5423 78.4790 -3.4714 0.0000 0.7968 0.0000
# 3 15.0947 -3.4714 65.8491 0.0000 -7.3870 0.0000
# 4 0.0000 0.0000 0.0000 27.6334 0.0000 -1.8244
# 5 -21.3442 0.7968 -7.3870 0.0000 31.2466 0.0000
# 6 0.0000 0.0000 0.0000 -1.8244 0.0000 33.0112
#
#
#
# Elastic Compliance Matrix: (Units=1/GPa)
#
#
# Indices 1 2 3 4 5 6 
#
# 1 0.009976 -0.004409 -0.001790 0.000000 0.006504 0.000000
# 2 -0.004409 0.014722 0.001445 0.000000 -0.003046 0.000000
# 3 -0.001790 0.001445 0.015955 0.000000 0.002512 0.000000
# 4 0.000000 0.000000 0.000000 0.036321 0.000000 0.002007
# 5 0.006504 -0.003046 0.002512 0.000000 0.037118 0.000000
# 6 0.000000 0.000000 0.000000 0.002007 0.000000 0.030404
#
#
# Mechanical properties :
#
#
# Convention : Reuss Voigt Hill
#
# Bulk Modulus (GPa) = 32.10782 40.70499 36.40640
# Shear Modulus (GPa) = 30.41667 33.76812 32.09239
#
# Velocity S-wave (km/s) = 3.68951 3.88746 3.78978
# Velocity P-wave (km/s) = 5.70257 6.19408 5.95340
#
# Compressibility (1/GPa) = 0.03114506
#
# Stress axis : x y z
#
# Youngs Moduli (GPa) = 100.23806 67.92752 62.67815
#
# Poissons Ratio (x) = 0.29950 0.11217
# Poissons Ratio (y) = 0.44196 -0.09058
# Poissons Ratio (z) = 0.17939 -0.09816
#
# Static dielectric constant tensor:
#      x y z
#    x 4.535680 0.000000 -0.172380 
#    y 0.000000 4.067450 0.000000 
#    z -0.172380 0.000000 4.058860 
# 
# 
# High freq. dielectric constant tensor:
#      x y z
#    x 1.905120 0.000000 0.001020 
#    y 0.000000 1.867530 0.000000 
#    z 0.001020 0.000000 1.888770 
# 
# From -- ./inp_files/70982.got.cif
#   From: 2010.06.25/outbox.cif.g09.slc.cpg/sg15_36_cif.got.tgz:70982.got - 2010.06.28 07:06:18.
