data_PCOD8153194
_publ_section_title
;
Structure prediction by ZEFSAII (Michael W. Deem and Ramdas Pophale) SiO2 
 PCOD8153194
Probable space group: C 2/C
;
_chemical_formula_sum "Si O2"
_cell_formula_units_Z 40
_cell_length_a 20.495705
_cell_length_b 8.422078
_cell_length_c 13.906472
_cell_angle_alpha 90.000000
_cell_angle_beta 50.653929
_cell_angle_gamma 90.000000
_cell_volume 1856.369044
_symmetry_space_group_name_H-M "C 2/C"
_symmetry_group_IT_number 15
_symmetry_cell_setting 'monoclinic'
loop_
_space_group_symop_operation_xyz
x,y,z
-x,y,1/2-z
-x,-y,-z
x,-y,1/2+z
1/2+x,1/2+y,z
1/2-x,1/2+y,1/2-z
1/2-x,1/2-y,-z
1/2+x,1/2-y,1/2+z
loop_
_atom_site_type_symbol
_atom_site_label
_atom_site_fract_x
_atom_site_fract_y
_atom_site_fract_z
Si Si1 0.418323 0.920884 0.451244
Si Si2 0.015721 0.044495 0.875434
Si Si3 0.212189 0.421683 0.548154
Si Si4 0.416384 0.108828 0.173411
Si Si5 0.880847 0.096770 0.378841
O O1 0.392603 0.885484 0.584138
O O2 0.403555 0.770231 0.396718
O O3 0.358068 0.059590 0.468911
O O4 0.515525 0.975831 0.359744
O O5 0.049545 0.220278 0.828303
O O6 0.082758 0.921781 0.764038
O O7 0.926746 0.033152 0.903384
O O8 0.000000 0.000000 0.000000
O O9 0.250000 0.250000 0.500000
O O10 0.169692 0.434916 0.692296
O O11 0.281407 0.561409 0.474207
#
# Coordination Sequence:
#
# PCOD8153194 Si02
#       5
#     8   8   8   8   8
#     4  11  26  45  69 102 136 182 231 278 337 407
#     4  11  23  43  72  97 136 177 231 275 339 410
#     4  12  25  44  69 101 142 176 225 284 344 403
#     4  11  25  45  71 102 135 184 229 276 341 410
#     4  11  25  43  70 102 136 179 224 286 340 402
#
# _framework density 21.547440000000002
#
# number of rings (size 3 to 8) (size 9 to 14) (size 15 to 20)
#    0.000    0.800    4.000    2.400    8.400    3.200 
#    0.000    0.000    0.000    0.000    0.000    0.000 
#    0.000    0.000    0.000    0.000    0.000    0.000 
#
# Total GULP energy -248054.195883 kJ/mol
# GULP energy per Si atom -12402.709794 kJ/mol
# Density = 2.149840 g / cm^3
# Si number density = 21.547440 Si / 1000 Ang^3
#
#
#
# Elastic Constant Matrix: (Units=GPa)
#
#
# Indices 1 2 3 4 5 6 
#
# 1 71.9463 32.2305 67.6661 0.0000 12.7048 0.0000
# 2 32.2305 112.1953 47.4534 -0.0003 12.0948 0.0004
# 3 67.6661 47.4534 183.4793 -0.0001 4.9436 0.0001
# 4 0.0000 -0.0003 -0.0001 29.6417 0.0000 -0.2547
# 5 12.7048 12.0948 4.9436 0.0000 33.3514 0.0000
# 6 0.0000 0.0004 0.0001 -0.2547 0.0000 41.7135
#
#
#
# Elastic Compliance Matrix: (Units=1/GPa)
#
#
# Indices 1 2 3 4 5 6 
#
# 1 0.023737 -0.002755 -0.007856 0.000000 -0.006879 0.000000
# 2 -0.002755 0.010693 -0.001680 0.000000 -0.002579 0.000000
# 3 -0.007856 -0.001680 0.008720 0.000000 0.002310 0.000000
# 4 0.000000 0.000000 0.000000 0.033738 0.000000 0.000206
# 5 -0.006879 -0.002579 0.002310 0.000000 0.033197 0.000000
# 6 0.000000 0.000000 0.000000 0.000206 0.000000 0.023974
#
#
# Mechanical properties :
#
#
# Convention : Reuss Voigt Hill
#
# Bulk Modulus (GPa) = 53.85681 73.59122 63.72401
# Shear Modulus (GPa) = 30.33422 35.62606 32.98014
#
# Velocity S-wave (km/s) = 3.75612 4.07059 3.91651
# Velocity P-wave (km/s) = 6.62269 7.50468 7.07744
#
# Compressibility (1/GPa) = 0.01856775
#
# Stress axis : x y z
#
# Youngs Moduli (GPa) = 42.12873 93.51875 114.68072
#
# Poissons Ratio (x) = 0.25760 0.90096
# Poissons Ratio (y) = 0.11604 0.19269
# Poissons Ratio (z) = 0.33097 0.15713
#
# Static dielectric constant tensor:
#      x y z
#    x 4.082560 0.000000 -0.098020 
#    y 0.000000 3.960230 0.000000 
#    z -0.098020 0.000000 4.205830 
# 
# 
# High freq. dielectric constant tensor:
#      x y z
#    x 1.843610 0.000000 0.002980 
#    y 0.000000 1.855880 0.000000 
#    z 0.002980 0.000000 1.859440 
# 
# From -- ./inp_files/166010.got.cif
#   From: 2010.06.25/outbox.cif.g09.slc.cpg/sg15_84_cif.got.tgz:166010.got - 2010.06.28 07:06:18.
