data_PCOD8153866
_publ_section_title
;
Structure prediction by ZEFSAII (Michael W. Deem and Ramdas Pophale) SiO2 
 PCOD8153866
Probable space group: C 2/C
;
_chemical_formula_sum "Si O2"
_cell_formula_units_Z 44
_cell_length_a 15.604712
_cell_length_b 11.810309
_cell_length_c 10.671170
_cell_angle_alpha 90.000000
_cell_angle_beta 101.183649
_cell_angle_gamma 90.000000
_cell_volume 1929.313187
_symmetry_space_group_name_H-M "C 2/C"
_symmetry_group_IT_number 15
_symmetry_cell_setting 'monoclinic'
loop_
_space_group_symop_operation_xyz
x,y,z
-x,y,1/2-z
-x,-y,-z
x,-y,1/2+z
1/2+x,1/2+y,z
1/2-x,1/2+y,1/2-z
1/2-x,1/2-y,-z
1/2+x,1/2-y,1/2+z
loop_
_atom_site_type_symbol
_atom_site_label
_atom_site_fract_x
_atom_site_fract_y
_atom_site_fract_z
Si Si1 0.236741 0.230947 0.192965
Si Si2 0.467365 0.067179 0.109414
Si Si3 0.853166 0.874345 0.603163
Si Si4 0.412781 0.724145 0.869345
Si Si5 0.271630 0.074210 0.988696
Si Si6 0.500000 0.527868 0.750000
O O1 0.169168 0.203485 0.284128
O O2 0.337557 0.218673 0.263715
O O3 0.214295 0.146321 0.071685
O O4 0.220823 0.359572 0.141558
O O5 0.500000 0.012918 0.250000
O O6 0.502141 0.196229 0.108760
O O7 0.364145 0.059582 0.079794
O O8 0.500000 0.000000 0.000000
O O9 0.873365 0.788891 0.496454
O O10 0.770332 0.952285 0.546420
O O11 0.937855 0.950388 0.648909
O O12 0.439960 0.602087 0.824563
#
# Coordination Sequence:
#
# PCOD8153866 Si02
#       6
#     8   8   8   8   8   4
#     4  11  24  46  69 101 138 185 230 290 356 428
#     4  12  27  47  75 105 147 191 239 293 358 430
#     4  12  27  42  76 105 138 184 242 294 353 432
#     4  12  24  48  72 104 142 184 233 301 358 422
#     4  11  25  45  71  99 141 188 230 285 364 423
#     4  12  24  46  70 108 144 176 240 292 364 418
#
# _framework density 22.806044
#
# number of rings (size 3 to 8) (size 9 to 14) (size 15 to 20)
#    0.000    0.364    4.545    3.273    5.091    1.455 
#    0.000    0.000    0.000    0.000    0.000    0.000 
#    0.000    0.000    0.000    0.000    0.000    0.000 
#
# Total GULP energy -272955.630832 kJ/mol
# GULP energy per Si atom -12407.074129 kJ/mol
# Density = 2.275414 g / cm^3
# Si number density = 22.806044 Si / 1000 Ang^3
#
#
#
# Elastic Constant Matrix: (Units=GPa)
#
#
# Indices 1 2 3 4 5 6 
#
# 1 74.1615 17.4836 38.8483 0.0000 3.9479 0.0000
# 2 17.4836 51.8224 40.0429 0.0000 3.8776 0.0000
# 3 38.8483 40.0429 148.3370 0.0000 -14.6740 0.0000
# 4 0.0000 0.0000 0.0000 28.7353 0.0000 -3.9480
# 5 3.9479 3.8776 -14.6740 0.0000 50.4910 0.0000
# 6 0.0000 0.0000 0.0000 -3.9480 0.0000 15.4065
#
#
#
# Elastic Compliance Matrix: (Units=1/GPa)
#
#
# Indices 1 2 3 4 5 6 
#
# 1 0.016150 -0.002336 -0.003816 0.000000 -0.002192 0.000000
# 2 -0.002336 0.025489 -0.006635 0.000000 -0.003703 0.000000
# 3 -0.003816 -0.006635 0.009896 0.000000 0.003684 0.000000
# 4 0.000000 0.000000 0.000000 0.036070 0.000000 0.009243
# 5 -0.002192 -0.003703 0.003684 0.000000 0.021332 0.000000
# 6 0.000000 0.000000 0.000000 0.009243 0.000000 0.067276
#
#
# Mechanical properties :
#
#
# Convention : Reuss Voigt Hill
#
# Bulk Modulus (GPa) = 38.51902 51.89673 45.20787
# Shear Modulus (GPa) = 23.75949 30.78964 27.27456
#
# Velocity S-wave (km/s) = 3.23120 3.67831 3.46198
# Velocity P-wave (km/s) = 5.55404 6.39101 5.98717
#
# Compressibility (1/GPa) = 0.02596120
#
# Stress axis : x y z
#
# Youngs Moduli (GPa) = 61.91780 39.23288 101.04774
#
# Poissons Ratio (x) = 0.09166 0.38559
# Poissons Ratio (y) = 0.14465 0.67046
# Poissons Ratio (z) = 0.23627 0.26031
#
# Static dielectric constant tensor:
#      x y z
#    x 3.537400 0.000000 0.046720 
#    y 0.000000 3.719980 0.000000 
#    z 0.046720 0.000000 4.430720 
# 
# 
# High freq. dielectric constant tensor:
#      x y z
#    x 1.902880 0.000000 -0.001810 
#    y 0.000000 1.891900 0.000000 
#    z -0.001810 0.000000 1.918650 
# 
# From -- ./inp_files/95072.got.cif
#   From: 2010.06.25/outbox.cif.g09.slc.cpg/sg15_48_cif.got.tgz:95072.got - 2010.06.28 07:06:18.
