data_PCOD8153645
_publ_section_title
;
Structure prediction by ZEFSAII (Michael W. Deem and Ramdas Pophale) SiO2 
 PCOD8153645
Probable space group: C 2/C
;
_chemical_formula_sum "Si O2"
_cell_formula_units_Z 40
_cell_length_a 17.209408
_cell_length_b 11.979333
_cell_length_c 13.841290
_cell_angle_alpha 90.000000
_cell_angle_beta 38.184639
_cell_angle_gamma 90.000000
_cell_volume 1764.015963
_symmetry_space_group_name_H-M "C 2/C"
_symmetry_group_IT_number 15
_symmetry_cell_setting 'monoclinic'
loop_
_space_group_symop_operation_xyz
x,y,z
-x,y,1/2-z
-x,-y,-z
x,-y,1/2+z
1/2+x,1/2+y,z
1/2-x,1/2+y,1/2-z
1/2-x,1/2-y,-z
1/2+x,1/2-y,1/2+z
loop_
_atom_site_type_symbol
_atom_site_label
_atom_site_fract_x
_atom_site_fract_y
_atom_site_fract_z
Si Si1 0.689174 0.959406 0.789727
Si Si2 0.949224 0.323449 0.037558
Si Si3 0.647550 0.466498 0.537728
Si Si4 0.380795 0.287086 0.414691
Si Si5 0.398617 0.633915 0.219868
O O1 0.812833 0.929606 0.727320
O O2 0.619810 0.059641 0.911788
O O3 0.726688 0.007491 0.647052
O O4 0.597803 0.850245 0.875662
O O5 0.918950 0.264770 0.170628
O O6 0.891178 0.235607 0.018366
O O7 0.605057 0.583255 0.624257
O O8 0.663665 0.379358 0.612051
O O9 0.537136 0.419591 0.577768
O O10 0.500000 0.223609 0.250000
O O11 0.250000 0.250000 0.500000
#
# Coordination Sequence:
#
# PCOD8153645 Si02
#       5
#     8   8   8   8   8
#     4  11  25  47  68 104 143 185 237 300 358 442
#     4  11  27  43  70 105 144 186 231 299 371 422
#     4  11  24  43  71 105 132 189 238 289 350 437
#     4  12  24  42  72 105 136 180 241 298 354 419
#     4  11  24  44  72 101 141 185 244 292 358 432
#
# _framework density 22.675532
#
# number of rings (size 3 to 8) (size 9 to 14) (size 15 to 20)
#    0.000    0.800    4.000    3.000    2.800    0.800 
#    3.600    2.000    0.000    0.000    0.000    0.000 
#    0.000    0.000    0.000    0.000    0.000    0.000 
#
# Total GULP energy -247850.921000 kJ/mol
# GULP energy per Si atom -12392.546050 kJ/mol
# Density = 2.262392 g / cm^3
# Si number density = 22.675532 Si / 1000 Ang^3
#
#
#
# Elastic Constant Matrix: (Units=GPa)
#
#
# Indices 1 2 3 4 5 6 
#
# 1 123.0212 56.7891 54.9764 0.0000 -0.5019 0.0000
# 2 56.7891 97.7094 26.4663 0.0000 -5.8094 0.0000
# 3 54.9764 26.4663 132.2783 0.0000 6.5116 0.0000
# 4 0.0000 0.0000 0.0000 47.2413 0.0000 2.6134
# 5 -0.5019 -5.8094 6.5116 0.0000 32.0392 0.0000
# 6 0.0000 0.0000 0.0000 2.6134 0.0000 23.7538
#
#
#
# Elastic Compliance Matrix: (Units=1/GPa)
#
#
# Indices 1 2 3 4 5 6 
#
# 1 0.012906 -0.006405 -0.004076 0.000000 -0.000131 0.000000
# 2 -0.006405 0.014189 -0.000302 0.000000 0.002534 0.000000
# 3 -0.004076 -0.000302 0.009414 0.000000 -0.002032 0.000000
# 4 0.000000 0.000000 0.000000 0.021298 0.000000 -0.002343
# 5 -0.000131 0.002534 -0.002032 0.000000 0.032082 0.000000
# 6 0.000000 0.000000 0.000000 -0.002343 0.000000 0.042356
#
#
# Mechanical properties :
#
#
# Convention : Reuss Voigt Hill
#
# Bulk Modulus (GPa) = 66.91458 69.94139 68.42799
# Shear Modulus (GPa) = 31.48753 34.92533 33.20643
#
# Velocity S-wave (km/s) = 3.73045 3.92882 3.83092
# Velocity P-wave (km/s) = 6.93748 7.17581 7.05765
#
# Compressibility (1/GPa) = 0.01494443
#
# Stress axis : x y z
#
# Youngs Moduli (GPa) = 77.48143 70.47528 106.22140
#
# Poissons Ratio (x) = 0.45139 0.43297
# Poissons Ratio (y) = 0.49626 0.03206
# Poissons Ratio (z) = 0.31582 0.02127
#
# Static dielectric constant tensor:
#      x y z
#    x 4.009580 0.000000 -0.024270 
#    y 0.000000 4.169470 0.000000 
#    z -0.024270 0.000000 4.260520 
# 
# 
# High freq. dielectric constant tensor:
#      x y z
#    x 1.886880 0.000000 -0.006850 
#    y 0.000000 1.890460 0.000000 
#    z -0.006850 0.000000 1.906360 
# 
# From -- ./inp_files/160662.got.cif
#   From: 2010.06.25/outbox.cif.g09.slc.cpg/sg15_81_cif.got.tgz:160662.got - 2010.06.28 07:06:18.
