data_PCOD8153997
_publ_section_title
;
Structure prediction by ZEFSAII (Michael W. Deem and Ramdas Pophale) SiO2 
 PCOD8153997
Probable space group: C 2/C
;
_chemical_formula_sum "Si O2"
_cell_formula_units_Z 44
_cell_length_a 10.847875
_cell_length_b 8.680595
_cell_length_c 21.919931
_cell_angle_alpha 90.000000
_cell_angle_beta 69.787551
_cell_angle_gamma 90.000000
_cell_volume 1937.000208
_symmetry_space_group_name_H-M "C 2/C"
_symmetry_group_IT_number 15
_symmetry_cell_setting 'monoclinic'
loop_
_space_group_symop_operation_xyz
x,y,z
-x,y,1/2-z
-x,-y,-z
x,-y,1/2+z
1/2+x,1/2+y,z
1/2-x,1/2+y,1/2-z
1/2-x,1/2-y,-z
1/2+x,1/2-y,1/2+z
loop_
_atom_site_type_symbol
_atom_site_label
_atom_site_fract_x
_atom_site_fract_y
_atom_site_fract_z
Si Si1 0.000000 0.261721 0.250000
Si Si2 0.343800 0.186399 0.536745
Si Si3 0.205020 0.293109 0.678309
Si Si4 0.499507 0.004362 0.351613
Si Si5 0.629407 0.137152 0.507838
Si Si6 0.277573 0.461013 0.783374
O O1 0.041530 0.363583 0.300366
O O2 0.118505 0.156329 0.205767
O O3 0.250000 0.250000 0.500000
O O4 0.310717 0.260954 0.607202
O O5 0.501009 0.220344 0.499388
O O6 0.322221 0.001486 0.543994
O O7 0.261408 0.422875 0.714049
O O8 0.073192 0.359651 0.671267
O O9 0.169810 0.135673 0.719597
O O10 0.643202 0.068872 0.344700
O O11 0.414304 0.945612 0.422138
O O12 0.750000 0.250000 0.500000
#
# Coordination Sequence:
#
# PCOD8153997 Si02
#       6
#     4   8   8   8   8   8
#     4  12  26  40  70 102 138 188 240 308 372 442
#     4  11  24  48  71 105 149 193 246 301 366 442
#     4  12  24  47  72 103 145 195 241 306 371 441
#     4  12  24  47  68 103 151 185 246 306 365 444
#     4  11  26  46  73 108 149 201 245 308 365 437
#     4  12  25  45  69 105 143 189 242 306 373 435
#
# _framework density 22.715537000000001
#
# number of rings (size 3 to 8) (size 9 to 14) (size 15 to 20)
#    0.000    0.364    7.273    0.000    5.091    0.727 
#    0.000    0.000    0.000    0.000    0.000    0.000 
#    0.000    0.000    0.000    0.000    0.000    0.000 
#
# Total GULP energy -272749.000430 kJ/mol
# GULP energy per Si atom -12397.681838 kJ/mol
# Density = 2.266384 g / cm^3
# Si number density = 22.715537 Si / 1000 Ang^3
#
#
#
# Elastic Constant Matrix: (Units=GPa)
#
#
# Indices 1 2 3 4 5 6 
#
# 1 171.8670 77.1191 27.4691 0.0000 -18.2480 0.0000
# 2 77.1191 123.5283 45.7420 0.0000 -15.3125 0.0000
# 3 27.4691 45.7420 100.9311 0.0000 -1.6469 0.0000
# 4 0.0000 0.0000 0.0000 46.9899 0.0000 -2.4341
# 5 -18.2480 -15.3125 -1.6469 0.0000 33.8123 0.0000
# 6 0.0000 0.0000 0.0000 -2.4341 0.0000 41.8953
#
#
#
# Elastic Compliance Matrix: (Units=1/GPa)
#
#
# Indices 1 2 3 4 5 6 
#
# 1 0.008240 -0.004866 -0.000001 0.000000 0.002243 0.000000
# 2 -0.004866 0.013234 -0.004622 0.000000 0.003142 0.000000
# 3 -0.000001 -0.004622 0.011978 0.000000 -0.001510 0.000000
# 4 0.000000 0.000000 0.000000 0.021345 0.000000 0.001240
# 5 0.002243 0.003142 -0.001510 0.000000 0.032135 0.000000
# 6 0.000000 0.000000 0.000000 0.001240 0.000000 0.023941
#
#
# Mechanical properties :
#
#
# Convention : Reuss Voigt Hill
#
# Bulk Modulus (GPa) = 69.08623 77.44297 73.26460
# Shear Modulus (GPa) = 37.12585 40.93923 39.03254
#
# Velocity S-wave (km/s) = 4.04713 4.24990 4.14976
# Velocity P-wave (km/s) = 7.23317 7.63209 7.43530
#
# Compressibility (1/GPa) = 0.01447467
#
# Stress axis : x y z
#
# Youngs Moduli (GPa) = 121.35602 75.56151 83.48585
#
# Poissons Ratio (x) = 0.36768 0.00006
# Poissons Ratio (y) = 0.59052 0.38589
# Poissons Ratio (z) = 0.00009 0.34926
#
# Static dielectric constant tensor:
#      x y z
#    x 4.372150 0.000000 0.065690 
#    y 0.000000 4.241480 0.000000 
#    z 0.065690 0.000000 4.103100 
# 
# 
# High freq. dielectric constant tensor:
#      x y z
#    x 1.915820 0.000000 0.006640 
#    y 0.000000 1.890280 0.000000 
#    z 0.006640 0.000000 1.894060 
# 
# From -- ./inp_files/267577.got.cif
#   From: 2010.06.25/outbox.cif.g09.slc.cpg/sg15_134_cif.got.tgz:267577.got - 2010.06.28 07:06:18.
