data_PCOD8153887
_publ_section_title
;
Structure prediction by ZEFSAII (Michael W. Deem and Ramdas Pophale) SiO2 
 PCOD8153887
Probable space group: C 2/C
;
_chemical_formula_sum "Si O2"
_cell_formula_units_Z 48
_cell_length_a 11.657420
_cell_length_b 15.154133
_cell_length_c 20.694459
_cell_angle_alpha 90.000000
_cell_angle_beta 39.658974
_cell_angle_gamma 90.000000
_cell_volume 2333.220604
_symmetry_space_group_name_H-M "C 2/C"
_symmetry_group_IT_number 15
_symmetry_cell_setting 'monoclinic'
loop_
_space_group_symop_operation_xyz
x,y,z
-x,y,1/2-z
-x,-y,-z
x,-y,1/2+z
1/2+x,1/2+y,z
1/2-x,1/2+y,1/2-z
1/2-x,1/2-y,-z
1/2+x,1/2-y,1/2+z
loop_
_atom_site_type_symbol
_atom_site_label
_atom_site_fract_x
_atom_site_fract_y
_atom_site_fract_z
Si Si1 0.000000 0.950991 0.750000
Si Si2 0.595134 0.624317 0.421562
Si Si3 0.500000 0.159672 0.750000
Si Si4 0.411836 0.773502 0.975602
Si Si5 0.761391 0.477581 0.428652
Si Si6 0.329038 0.960100 0.039788
Si Si7 0.296734 0.306090 0.759029
O O1 0.876918 0.892601 0.757213
O O2 0.864322 0.010489 0.849941
O O3 0.531973 0.691416 0.504467
O O4 0.745637 0.557511 0.384027
O O5 0.429777 0.564700 0.469861
O O6 0.669211 0.684814 0.331877
O O7 0.620549 0.099639 0.652248
O O8 0.385673 0.218841 0.750238
O O9 0.584090 0.802282 0.859765
O O10 0.250000 0.750000 0.000000
O O11 0.342905 0.856002 0.047225
O O12 0.847799 0.515888 0.456138
O O13 0.500000 0.000000 0.000000
#
# Coordination Sequence:
#
# PCOD8153887 Si02
#       7
#     4   8   4   8   8   8   8
#     4  11  24  46  71 104 138 186 237 284 354 419
#     4  11  25  47  72  99 145 181 227 290 353 415
#     4  11  26  42  75 106 128 184 245 274 346 425
#     4  12  26  47  66 106 144 177 233 292 364 411
#     4  11  25  46  71 104 139 184 230 287 345 425
#     4  12  26  45  72 104 143 185 232 294 348 427
#     4  11  25  45  73 101 139 184 232 292 348 418
#
# _framework density 20.572423000000001
#
# number of rings (size 3 to 8) (size 9 to 14) (size 15 to 20)
#    0.000    0.667    6.667    0.000    4.667    2.667 
#    0.000    0.000    0.000    0.000    0.000    0.000 
#    0.000    0.000    0.000    0.000    0.000    0.000 
#
# Total GULP energy -297661.452774 kJ/mol
# GULP energy per Si atom -12402.560532 kJ/mol
# Density = 2.052560 g / cm^3
# Si number density = 20.572423 Si / 1000 Ang^3
#
#
#
# Elastic Constant Matrix: (Units=GPa)
#
#
# Indices 1 2 3 4 5 6 
#
# 1 122.5012 35.2527 40.5691 -0.0001 -8.9377 0.0001
# 2 35.2527 120.8698 33.7024 0.0007 -6.2683 -0.0001
# 3 40.5691 33.7024 115.1304 0.0029 -8.0327 0.0000
# 4 -0.0001 0.0007 0.0029 41.4911 -0.0005 2.9213
# 5 -8.9377 -6.2683 -8.0327 -0.0005 34.2710 -0.0001
# 6 0.0001 -0.0001 0.0000 2.9213 -0.0001 29.6028
#
#
#
# Elastic Compliance Matrix: (Units=1/GPa)
#
#
# Indices 1 2 3 4 5 6 
#
# 1 0.009761 -0.002001 -0.002746 0.000000 0.001536 0.000000
# 2 -0.002001 0.009456 -0.002012 0.000000 0.000736 0.000000
# 3 -0.002746 -0.002012 0.010336 -0.000001 0.001338 0.000000
# 4 0.000000 0.000000 -0.000001 0.024270 0.000000 -0.002395
# 5 0.001536 0.000736 0.001338 0.000000 0.030028 0.000000
# 6 0.000000 0.000000 0.000000 -0.002395 0.000000 0.034017
#
#
# Mechanical properties :
#
#
# Convention : Reuss Voigt Hill
#
# Bulk Modulus (GPa) = 62.36736 64.17221 63.26978
# Shear Modulus (GPa) = 36.56814 37.67147 37.11980
#
# Velocity S-wave (km/s) = 4.22065 4.28385 4.25237
# Velocity P-wave (km/s) = 7.35756 7.46522 7.41159
#
# Compressibility (1/GPa) = 0.01603403
#
# Stress axis : x y z
#
# Youngs Moduli (GPa) = 102.45144 105.75147 96.75111
#
# Poissons Ratio (x) = 0.21165 0.26572
# Poissons Ratio (y) = 0.20504 0.19462
# Poissons Ratio (z) = 0.28138 0.21272
#
# Static dielectric constant tensor:
#      x y z
#    x 3.815220 0.000000 -0.058990 
#    y 0.000000 3.974860 0.000000 
#    z -0.058990 0.000000 3.664840 
# 
# 
# High freq. dielectric constant tensor:
#      x y z
#    x 1.815910 0.000000 -0.005610 
#    y 0.000000 1.823070 0.000000 
#    z -0.005610 0.000000 1.802250 
# 
# From -- ./inp_files/143494.got.cif
#   From: 2010.06.25/outbox.cif.g09.slc.cpg/sg15_72_cif.got.tgz:143494.got - 2010.06.28 07:06:18.
