data_PCOD8153251
_publ_section_title
;
Structure prediction by ZEFSAII (Michael W. Deem and Ramdas Pophale) SiO2 
 PCOD8153251
Probable space group: C 2/C
;
_chemical_formula_sum "Si O2"
_cell_formula_units_Z 40
_cell_length_a 13.001668
_cell_length_b 17.301159
_cell_length_c 17.618329
_cell_angle_alpha 90.000000
_cell_angle_beta 153.095874
_cell_angle_gamma 90.000000
_cell_volume 1793.314831
_symmetry_space_group_name_H-M "C 2/C"
_symmetry_group_IT_number 15
_symmetry_cell_setting 'monoclinic'
loop_
_space_group_symop_operation_xyz
x,y,z
-x,y,1/2-z
-x,-y,-z
x,-y,1/2+z
1/2+x,1/2+y,z
1/2-x,1/2+y,1/2-z
1/2-x,1/2-y,-z
1/2+x,1/2-y,1/2+z
loop_
_atom_site_type_symbol
_atom_site_label
_atom_site_fract_x
_atom_site_fract_y
_atom_site_fract_z
Si Si1 0.941819 0.460916 0.380833
Si Si2 0.557744 0.893143 0.873458
Si Si3 0.947289 0.724819 0.005623
Si Si4 0.542660 0.636929 0.662762
Si Si5 0.245597 0.311661 0.565460
O O1 0.949625 0.523889 0.320114
O O2 0.102288 0.390236 0.459419
O O3 0.000000 0.500000 0.500000
O O4 0.683850 0.431147 0.216249
O O5 0.500000 0.870437 0.750000
O O6 0.453586 0.829586 0.861931
O O7 0.830959 0.898492 0.069924
O O8 0.916479 0.810915 0.016356
O O9 0.136071 0.731599 0.064896
O O10 0.706965 0.690683 0.820869
O O11 0.500000 0.338196 0.750000
O O12 0.250000 0.250000 0.500000
#
# Coordination Sequence:
#
# PCOD8153251 Si02
#       5
#     8   8   8   8   8
#     4  11  25  45  69 102 146 197 239 294 375 441
#     4  12  26  43  71 108 141 191 242 300 369 439
#     4  11  23  44  69 104 142 182 240 301 362 432
#     4  11  24  44  74  99 146 182 240 298 369 431
#     4  11  24  42  74 102 142 189 240 292 366 434
#
# _framework density 22.305063000000001
#
# number of rings (size 3 to 8) (size 9 to 14) (size 15 to 20)
#    0.000    0.800    4.000    4.800    2.800    3.200 
#    0.000    0.000    0.000    0.000    0.000    0.000 
#    0.000    0.000    0.000    0.000    0.000    0.000 
#
# Total GULP energy -247942.769216 kJ/mol
# GULP energy per Si atom -12397.138461 kJ/mol
# Density = 2.225430 g / cm^3
# Si number density = 22.305063 Si / 1000 Ang^3
#
#
#
# Elastic Constant Matrix: (Units=GPa)
#
#
# Indices 1 2 3 4 5 6 
#
# 1 141.4669 62.5203 39.5348 0.0024 -2.0475 0.0010
# 2 62.5203 123.0686 19.7400 -0.0316 12.1281 -0.0096
# 3 39.5348 19.7400 79.9840 -0.0426 11.5506 -0.0106
# 4 0.0024 -0.0316 -0.0426 29.5099 0.0041 -1.3705
# 5 -2.0475 12.1281 11.5506 0.0041 35.5813 0.0042
# 6 0.0010 -0.0096 -0.0106 -1.3705 0.0042 52.8736
#
#
#
# Elastic Compliance Matrix: (Units=1/GPa)
#
#
# Indices 1 2 3 4 5 6 
#
# 1 0.010626 -0.005043 -0.004558 -0.000013 0.003810 -0.000003
# 2 -0.005043 0.011039 0.000371 0.000013 -0.004173 0.000003
# 3 -0.004558 0.000371 0.015444 0.000024 -0.005402 0.000004
# 4 -0.000013 0.000013 0.000024 0.033928 -0.000017 0.000879
# 5 0.003810 -0.004173 -0.005402 -0.000017 0.031500 -0.000005
# 6 -0.000003 0.000003 0.000004 0.000879 -0.000005 0.018936
#
#
# Mechanical properties :
#
#
# Convention : Reuss Voigt Hill
#
# Bulk Modulus (GPa) = 53.62071 65.34552 59.48312
# Shear Modulus (GPa) = 34.21147 38.44126 36.32637
#
# Velocity S-wave (km/s) = 3.92062 4.15593 4.03999
# Velocity P-wave (km/s) = 6.67735 7.23801 6.96332
#
# Compressibility (1/GPa) = 0.01864951
#
# Stress axis : x y z
#
# Youngs Moduli (GPa) = 94.10596 90.58730 64.74945
#
# Poissons Ratio (x) = 0.45680 0.29513
# Poissons Ratio (y) = 0.47454 -0.02400
# Poissons Ratio (z) = 0.42894 -0.03358
#
# Static dielectric constant tensor:
#      x y z
#    x 4.206050 -0.000010 0.133340 
#    y -0.000010 4.145190 -0.000030 
#    z 0.133340 -0.000030 4.059190 
# 
# 
# High freq. dielectric constant tensor:
#      x y z
#    x 1.889110 0.000000 0.011370 
#    y 0.000000 1.882170 0.000000 
#    z 0.011370 0.000000 1.876980 
# 
# From -- ./inp_files/199745.got.cif
#   From: 2010.06.25/outbox.cif.g09.slc.cpg/sg15_100_cif.got.tgz:199745.got - 2010.06.28 07:06:18.
