data_PCOD8153039
_publ_section_title
;
Structure prediction by ZEFSAII (Michael W. Deem and Ramdas Pophale) SiO2 
 PCOD8153039
Probable space group: C 2/C
;
_chemical_formula_sum "Si O2"
_cell_formula_units_Z 52
_cell_length_a 24.284634
_cell_length_b 12.091061
_cell_length_c 11.165767
_cell_angle_alpha 90.000000
_cell_angle_beta 47.478344
_cell_angle_gamma 90.000000
_cell_volume 2416.378415
_symmetry_space_group_name_H-M "C 2/C"
_symmetry_group_IT_number 15
_symmetry_cell_setting 'monoclinic'
loop_
_space_group_symop_operation_xyz
x,y,z
-x,y,1/2-z
-x,-y,-z
x,-y,1/2+z
1/2+x,1/2+y,z
1/2-x,1/2+y,1/2-z
1/2-x,1/2-y,-z
1/2+x,1/2-y,1/2+z
loop_
_atom_site_type_symbol
_atom_site_label
_atom_site_fract_x
_atom_site_fract_y
_atom_site_fract_z
Si Si1 0.957948 0.900311 0.194101
Si Si2 0.797306 0.478655 0.336628
Si Si3 0.929258 0.143286 0.160444
Si Si4 0.500000 0.198966 0.750000
Si Si5 0.854687 0.428139 0.508103
Si Si6 0.219723 0.236257 0.207851
Si Si7 0.694446 0.318058 0.002100
O O1 0.887121 0.821289 0.319398
O O2 0.000000 0.938860 0.250000
O O3 0.930486 0.012064 0.173508
O O4 0.016873 0.829633 0.030563
O O5 0.842764 0.493093 0.397006
O O6 0.845061 0.499194 0.144086
O O7 0.766848 0.353785 0.374769
O O8 0.725271 0.557658 0.439496
O O9 0.959607 0.219929 0.219056
O O10 0.842667 0.169177 0.271848
O O11 0.561964 0.118840 0.602186
O O12 0.797703 0.326514 0.594243
O O13 0.188773 0.248996 0.387372
O O14 0.750000 0.250000 0.000000
#
# Coordination Sequence:
#
# PCOD8153039 Si02
#       7
#     8   8   8   4   8   8   8
#     4  11  23  42  68 103 136 175 217 287 348 394
#     4  11  24  45  69  97 135 185 226 275 337 411
#     4  11  24  42  69 101 135 173 227 280 346 402
#     4  12  26  44  68  98 134 180 224 284 332 402
#     4  11  26  44  70  99 137 179 231 282 341 406
#     4  11  23  44  70  98 134 180 226 281 338 412
#     4  11  25  43  68 102 139 177 226 276 341 408
#
# _framework density 21.519808999999999
#
# number of rings (size 3 to 8) (size 9 to 14) (size 15 to 20)
#    0.000    0.923    3.846    2.308    6.462    1.846 
#    0.000    0.000    0.000    0.000    0.000    0.000 
#    0.000    0.000    0.000    0.000    0.000    0.000 
#
# Total GULP energy -322331.455213 kJ/mol
# GULP energy per Si atom -12397.363662 kJ/mol
# Density = 2.147083 g / cm^3
# Si number density = 21.519809 Si / 1000 Ang^3
#
#
#
# Elastic Constant Matrix: (Units=GPa)
#
#
# Indices 1 2 3 4 5 6 
#
# 1 87.1964 4.5645 25.6769 0.0000 -0.9288 0.0000
# 2 4.5645 51.7596 9.7157 0.0000 -7.9479 0.0000
# 3 25.6769 9.7157 113.6004 0.0000 -4.8874 0.0000
# 4 0.0000 0.0000 0.0000 21.8756 0.0000 8.6809
# 5 -0.9288 -7.9479 -4.8874 0.0000 52.8896 0.0000
# 6 0.0000 0.0000 0.0000 8.6809 0.0000 28.4640
#
#
#
# Elastic Compliance Matrix: (Units=1/GPa)
#
#
# Indices 1 2 3 4 5 6 
#
# 1 0.012304 -0.000591 -0.002736 0.000000 -0.000126 0.000000
# 2 -0.000591 0.020088 -0.001461 0.000000 0.002873 0.000000
# 3 -0.002736 -0.001461 0.009573 0.000000 0.000617 0.000000
# 4 0.000000 0.000000 0.000000 0.052007 0.000000 -0.015861
# 5 -0.000126 0.002873 0.000617 0.000000 0.019394 0.000000
# 6 0.000000 0.000000 0.000000 -0.015861 0.000000 0.039969
#
#
# Mechanical properties :
#
#
# Convention : Reuss Voigt Hill
#
# Bulk Modulus (GPa) = 30.87470 36.94116 33.90793
# Shear Modulus (GPa) = 28.78433 34.81911 31.80172
#
# Velocity S-wave (km/s) = 3.66125 4.02680 3.84837
# Velocity P-wave (km/s) = 5.67902 6.23086 5.96133
#
# Compressibility (1/GPa) = 0.03238898
#
# Stress axis : x y z
#
# Youngs Moduli (GPa) = 81.27717 49.78192 104.46433
#
# Poissons Ratio (x) = 0.02941 0.28580
# Poissons Ratio (y) = 0.04801 0.15261
# Poissons Ratio (z) = 0.22236 0.07272
#
# Static dielectric constant tensor:
#      x y z
#    x 4.097780 0.000000 0.107140 
#    y 0.000000 3.764010 0.000000 
#    z 0.107140 0.000000 4.571600 
# 
# 
# High freq. dielectric constant tensor:
#      x y z
#    x 1.850130 0.000000 0.009610 
#    y 0.000000 1.834990 0.000000 
#    z 0.009610 0.000000 1.864270 
# 
# From -- ./inp_files/117965.got.cif
#   From: 2010.06.25/outbox.cif.g09.slc.cpg/sg15_59_cif.got.tgz:117965.got - 2010.06.28 07:06:18.
