data_PCOD8153075
_publ_section_title
;
Structure prediction by ZEFSAII (Michael W. Deem and Ramdas Pophale) SiO2 
 PCOD8153075
Probable space group: C 2/C
;
_chemical_formula_sum "Si O2"
_cell_formula_units_Z 48
_cell_length_a 12.235819
_cell_length_b 14.921810
_cell_length_c 9.261101
_cell_angle_alpha 90.000000
_cell_angle_beta 116.506898
_cell_angle_gamma 90.000000
_cell_volume 1513.151041
_symmetry_space_group_name_H-M "C 2/C"
_symmetry_group_IT_number 15
_symmetry_cell_setting 'monoclinic'
loop_
_space_group_symop_operation_xyz
x,y,z
-x,y,1/2-z
-x,-y,-z
x,-y,1/2+z
1/2+x,1/2+y,z
1/2-x,1/2+y,1/2-z
1/2-x,1/2-y,-z
1/2+x,1/2-y,1/2+z
loop_
_atom_site_type_symbol
_atom_site_label
_atom_site_fract_x
_atom_site_fract_y
_atom_site_fract_z
Si Si1 0.512431 0.757396 0.005070
Si Si2 0.820485 0.159081 0.057278
Si Si3 0.100215 0.024571 0.191578
Si Si4 0.350082 0.613386 0.558892
Si Si5 0.123568 0.396025 0.736863
Si Si6 0.627297 0.092208 0.740773
O O1 0.460604 0.682660 0.087526
O O2 0.395585 0.818144 0.892628
O O3 0.572502 0.704949 0.904398
O O4 0.621019 0.820406 0.133807
O O5 0.749468 0.090709 0.910511
O O6 0.750000 0.250000 0.000000
O O7 0.809452 0.111310 0.212942
O O8 0.079365 0.036974 0.004534
O O9 0.000000 0.051422 0.250000
O O10 0.148840 0.925311 0.275328
O O11 0.216623 0.628627 0.419883
O O12 0.146094 0.494569 0.675439
O O13 0.000000 0.405265 0.750000
O O14 0.500000 0.096977 0.750000
#
# Coordination Sequence:
#
# PCOD8153075 Si02
#       6
#     8   8   8   8   8   8
#     4  12  25  44  75 110 154 204 261 326 388 475
#     4  12  23  42  73 111 148 198 267 323 374 466
#     4  12  26  49  76 117 156 201 260 323 399 465
#     4  12  28  50  81 115 155 207 266 328 396 473
#     4  11  27  50  71 109 159 208 258 325 406 473
#     4  11  23  42  70 107 149 202 258 317 388 461
#
# _framework density 31.721882000000001
#
# number of rings (size 3 to 8) (size 9 to 14) (size 15 to 20)
#    0.000    0.333    5.000    4.000    0.000    2.667 
#    0.000    0.000    0.000    0.000    0.000    0.000 
#    0.000    0.000    0.000    0.000    0.000    0.000 
#
# Total GULP energy -297427.448902 kJ/mol
# GULP energy per Si atom -12392.810371 kJ/mol
# Density = 3.164968 g / cm^3
# Si number density = 31.721882 Si / 1000 Ang^3
#
#
#
# Elastic Constant Matrix: (Units=GPa)
#
#
# Indices 1 2 3 4 5 6 
#
# 1 40.7697 24.5490 5.5399 0.0000 -5.9972 0.0000
# 2 24.5490 169.6381 42.5519 0.0000 -4.9831 0.0000
# 3 5.5399 42.5519 124.6023 0.0000 -22.9108 0.0000
# 4 0.0000 0.0000 0.0000 54.9576 0.0000 -0.9813
# 5 -5.9972 -4.9831 -22.9108 0.0000 44.7538 0.0000
# 6 0.0000 0.0000 0.0000 -0.9813 0.0000 54.8074
#
#
#
# Elastic Compliance Matrix: (Units=1/GPa)
#
#
# Indices 1 2 3 4 5 6 
#
# 1 0.027401 -0.004069 0.000843 0.000000 0.003650 0.000000
# 2 -0.004069 0.007060 -0.002413 0.000000 -0.000994 0.000000
# 3 0.000843 -0.002413 0.009696 0.000000 0.004808 0.000000
# 4 0.000000 0.000000 0.000000 0.018202 0.000000 0.000326
# 5 0.003650 -0.000994 0.004808 0.000000 0.025184 0.000000
# 6 0.000000 0.000000 0.000000 0.000326 0.000000 0.018252
#
#
# Mechanical properties :
#
#
# Convention : Reuss Voigt Hill
#
# Bulk Modulus (GPa) = 30.41604 53.36575 41.89089
# Shear Modulus (GPa) = 39.05253 48.39506 43.72379
#
# Velocity S-wave (km/s) = 3.51250 3.91014 3.71664
# Velocity P-wave (km/s) = 5.10484 6.10288 5.62603
#
# Compressibility (1/GPa) = 0.03287739
#
# Stress axis : x y z
#
# Youngs Moduli (GPa) = 36.49527 141.64641 103.13397
#
# Poissons Ratio (x) = 0.57642 -0.08690
# Poissons Ratio (y) = 0.14851 0.24885
# Poissons Ratio (z) = -0.03075 0.34177
#
# Static dielectric constant tensor:
#      x y z
#    x 6.478410 0.000000 -0.104010 
#    y 0.000000 12.442660 0.000000 
#    z -0.104010 0.000000 5.330130 
# 
# 
# High freq. dielectric constant tensor:
#      x y z
#    x 2.353030 0.000000 0.018020 
#    y 0.000000 2.337360 0.000000 
#    z 0.018020 0.000000 2.298630 
# 
# From -- ./inp_files/97199.got.cif
#   From: 2010.06.25/outbox.cif.g09.slc.cpg/sg15_49_cif.got.tgz:97199.got - 2010.06.28 07:06:18.
