data_PCOD8153593
_publ_section_title
;
Structure prediction by ZEFSAII (Michael W. Deem and Ramdas Pophale) SiO2 
 PCOD8153593
Probable space group: C 2/C
;
_chemical_formula_sum "Si O2"
_cell_formula_units_Z 48
_cell_length_a 21.357061
_cell_length_b 10.540299
_cell_length_c 9.275352
_cell_angle_alpha 90.000000
_cell_angle_beta 81.225401
_cell_angle_gamma 90.000000
_cell_volume 2063.535307
_symmetry_space_group_name_H-M "C 2/C"
_symmetry_group_IT_number 15
_symmetry_cell_setting 'monoclinic'
loop_
_space_group_symop_operation_xyz
x,y,z
-x,y,1/2-z
-x,-y,-z
x,-y,1/2+z
1/2+x,1/2+y,z
1/2-x,1/2+y,1/2-z
1/2-x,1/2-y,-z
1/2+x,1/2-y,1/2+z
loop_
_atom_site_type_symbol
_atom_site_label
_atom_site_fract_x
_atom_site_fract_y
_atom_site_fract_z
Si Si1 0.946695 0.641590 0.648840
Si Si2 0.122654 0.392741 0.838588
Si Si3 0.841251 0.738915 0.886435
Si Si4 0.746294 0.043689 0.706942
Si Si5 0.940270 0.215960 0.865086
Si Si6 0.328514 0.533537 0.933484
O O1 0.931904 0.496424 0.609578
O O2 0.883673 0.703788 0.734542
O O3 0.967471 0.719000 0.499784
O O4 0.000000 0.647993 0.750000
O O5 0.189059 0.459729 0.785085
O O6 0.103555 0.315266 0.703752
O O7 0.126571 0.302830 0.975388
O O8 0.775283 0.662756 0.884678
O O9 0.832741 0.887507 0.888346
O O10 0.792452 0.952739 0.597789
O O11 0.786483 0.102004 0.825160
O O12 0.000000 0.170128 0.750000
O O13 0.898225 0.093636 0.919708
#
# Coordination Sequence:
#
# PCOD8153593 Si02
#       6
#     8   8   8   8   8   8
#     4  11  24  45  74 105 138 189 244 299 354 411
#     4  11  24  45  73 107 145 181 238 304 355 419
#     4  11  24  45  68 105 147 187 237 292 359 428
#     4  11  24  42  71 107 142 187 240 294 360 418
#     4  12  28  47  72 106 145 193 241 292 354 430
#     4  12  26  45  70 104 147 193 233 295 355 438
#
# _framework density 23.261050999999998
#
# number of rings (size 3 to 8) (size 9 to 14) (size 15 to 20)
#    0.000    0.667    1.667    6.000    4.667    3.333 
#    0.000    5.000    0.000    1.000    0.000    0.000 
#    0.000    0.000    0.000    0.000    0.000    0.000 
#
# Total GULP energy -297771.990627 kJ/mol
# GULP energy per Si atom -12407.166276 kJ/mol
# Density = 2.320811 g / cm^3
# Si number density = 23.261051 Si / 1000 Ang^3
#
#
#
# Elastic Constant Matrix: (Units=GPa)
#
#
# Indices 1 2 3 4 5 6 
#
# 1 107.4957 36.9702 31.2209 0.0000 1.4987 0.0000
# 2 36.9702 96.2496 21.4714 0.0000 -1.5362 0.0000
# 3 31.2209 21.4714 116.8537 0.0000 5.2933 0.0000
# 4 0.0000 0.0000 0.0000 23.4154 0.0000 1.6476
# 5 1.4987 -1.5362 5.2933 0.0000 44.9818 0.0000
# 6 0.0000 0.0000 0.0000 1.6476 0.0000 29.0937
#
#
#
# Elastic Compliance Matrix: (Units=1/GPa)
#
#
# Indices 1 2 3 4 5 6 
#
# 1 0.011291 -0.003827 -0.002303 0.000000 -0.000236 0.000000
# 2 -0.003827 0.012147 -0.001241 0.000000 0.000688 0.000000
# 3 -0.002303 -0.001241 0.009450 0.000000 -0.001078 0.000000
# 4 0.000000 0.000000 0.000000 0.042878 0.000000 -0.002428
# 5 -0.000236 0.000688 -0.001078 0.000000 0.022389 0.000000
# 6 0.000000 0.000000 0.000000 -0.002428 0.000000 0.034509
#
#
# Mechanical properties :
#
#
# Convention : Reuss Voigt Hill
#
# Bulk Modulus (GPa) = 55.10538 55.54711 55.32625
# Shear Modulus (GPa) = 32.58289 34.89394 33.73842
#
# Velocity S-wave (km/s) = 3.74672 3.87732 3.81258
# Velocity P-wave (km/s) = 6.51603 6.63148 6.57401
#
# Compressibility (1/GPa) = 0.01814705
#
# Stress axis : x y z
#
# Youngs Moduli (GPa) = 88.56596 82.32207 105.82263
#
# Poissons Ratio (x) = 0.31505 0.24369
# Poissons Ratio (y) = 0.33894 0.13130
# Poissons Ratio (z) = 0.20395 0.10214
#
# Static dielectric constant tensor:
#      x y z
#    x 4.278800 0.000000 -0.043290 
#    y 0.000000 4.028490 0.000000 
#    z -0.043290 0.000000 4.363340 
# 
# 
# High freq. dielectric constant tensor:
#      x y z
#    x 1.929590 0.000000 -0.001700 
#    y 0.000000 1.909490 0.000000 
#    z -0.001700 0.000000 1.939060 
# 
# From -- ./inp_files/60509.got.cif
#   From: 2010.06.25/outbox.cif.g09.slc.cpg/sg15_31_cif.got.tgz:60509.got - 2010.06.28 07:06:18.
