data_PCOD8153414
_publ_section_title
;
Structure prediction by ZEFSAII (Michael W. Deem and Ramdas Pophale) SiO2 
 PCOD8153414
Probable space group: C 2/C
;
_chemical_formula_sum "Si O2"
_cell_formula_units_Z 56
_cell_length_a 26.299145
_cell_length_b 6.604637
_cell_length_c 16.486958
_cell_angle_alpha 90.000000
_cell_angle_beta 65.880742
_cell_angle_gamma 90.000000
_cell_volume 2613.711688
_symmetry_space_group_name_H-M "C 2/C"
_symmetry_group_IT_number 15
_symmetry_cell_setting 'monoclinic'
loop_
_space_group_symop_operation_xyz
x,y,z
-x,y,1/2-z
-x,-y,-z
x,-y,1/2+z
1/2+x,1/2+y,z
1/2-x,1/2+y,1/2-z
1/2-x,1/2-y,-z
1/2+x,1/2-y,1/2+z
loop_
_atom_site_type_symbol
_atom_site_label
_atom_site_fract_x
_atom_site_fract_y
_atom_site_fract_z
Si Si1 0.181938 0.064618 0.319939
Si Si2 0.742294 0.233846 0.645204
Si Si3 0.661517 0.941727 0.442542
Si Si4 0.446432 0.995101 0.091046
Si Si5 0.651558 0.986811 0.630615
Si Si6 0.442508 0.731386 0.244052
Si Si7 0.900582 0.826897 0.219344
O O1 0.191640 0.159586 0.225024
O O2 0.179117 0.228101 0.393218
O O3 0.232819 0.918938 0.305683
O O4 0.126763 0.932001 0.342291
O O5 0.788967 0.392011 0.585532
O O6 0.712164 0.099175 0.595511
O O7 0.609033 0.022860 0.426404
O O8 0.644453 0.894925 0.545787
O O9 0.448748 0.180765 0.153114
O O10 0.443935 0.792331 0.147374
O O11 0.500000 0.000000 0.000000
O O12 0.645017 0.803770 0.699749
O O13 0.603741 0.150572 0.675371
O O14 0.500000 0.780895 0.250000
O O15 0.429814 0.492131 0.257627
#
# Coordination Sequence:
#
# PCOD8153414 Si02
#       7
#     8   8   8   8   8   8   8
#     4  12  22  42  69  97 131 180 230 267 336 405
#     4  12  23  41  70  97 137 182 223 275 334 403
#     4  12  25  42  67 102 137 178 226 282 334 405
#     4  11  24  45  70  98 135 177 232 279 337 406
#     4  11  26  43  66 101 141 175 228 285 341 402
#     4  11  24  45  71  97 133 182 228 285 345 400
#     4  11  23  46  69  97 136 182 225 279 344 410
#
# _framework density 21.425471000000002
#
# number of rings (size 3 to 8) (size 9 to 14) (size 15 to 20)
#    0.000    0.571    5.714    3.000    0.000    5.714 
#    2.571    0.000    0.000    0.000    0.000    0.000 
#    0.000    0.000    0.000    0.000    0.000    0.000 
#
# Total GULP energy -347161.539886 kJ/mol
# GULP energy per Si atom -12398.626424 kJ/mol
# Density = 2.137671 g / cm^3
# Si number density = 21.425471 Si / 1000 Ang^3
#
#
#
# Elastic Constant Matrix: (Units=GPa)
#
#
# Indices 1 2 3 4 5 6 
#
# 1 103.5518 36.7194 31.5952 0.0000 3.2010 0.0001
# 2 36.7194 121.1037 45.9005 -0.0003 -2.1897 -0.0005
# 3 31.5952 45.9005 125.3079 0.0000 -1.0590 0.0000
# 4 0.0000 -0.0003 0.0000 18.6543 0.0000 5.3640
# 5 3.2010 -2.1897 -1.0590 0.0000 35.0060 0.0000
# 6 0.0001 -0.0005 0.0000 5.3640 0.0000 31.7559
#
#
#
# Elastic Compliance Matrix: (Units=1/GPa)
#
#
# Indices 1 2 3 4 5 6 
#
# 1 0.011225 -0.002728 -0.001842 0.000000 -0.001253 0.000000
# 2 -0.002728 0.010260 -0.003064 0.000000 0.000799 0.000000
# 3 -0.001842 -0.003064 0.009569 0.000000 0.000266 0.000000
# 4 0.000000 0.000000 0.000000 0.056344 0.000000 -0.009517
# 5 -0.001253 0.000799 0.000266 0.000000 0.028739 0.000000
# 6 0.000000 0.000000 0.000000 -0.009517 0.000000 0.033098
#
#
# Mechanical properties :
#
#
# Convention : Reuss Voigt Hill
#
# Bulk Modulus (GPa) = 63.34094 64.26594 63.80344
# Shear Modulus (GPa) = 29.45262 32.79980 31.12621
#
# Velocity S-wave (km/s) = 3.71166 3.91689 3.81565
# Velocity P-wave (km/s) = 6.92792 7.10748 7.01827
#
# Compressibility (1/GPa) = 0.01578758
#
# Stress axis : x y z
#
# Youngs Moduli (GPa) = 89.08675 97.46377 104.50239
#
# Poissons Ratio (x) = 0.26590 0.19244
# Poissons Ratio (y) = 0.24304 0.32016
# Poissons Ratio (z) = 0.16406 0.29860
#
# Static dielectric constant tensor:
#      x y z
#    x 3.833420 0.000000 0.045570 
#    y 0.000000 4.073630 0.000000 
#    z 0.045570 0.000000 3.646950 
# 
# 
# High freq. dielectric constant tensor:
#      x y z
#    x 1.844870 0.000000 0.004240 
#    y 0.000000 1.854400 0.000000 
#    z 0.004240 0.000000 1.827380 
# 
# From -- ./inp_files/221207.got.cif
#   From: 2010.06.25/outbox.cif.g09.slc.cpg/sg15_111_cif.got.tgz:221207.got - 2010.06.28 07:06:18.
