data_PCOD8153026
_publ_section_title
;
Structure prediction by ZEFSAII (Michael W. Deem and Ramdas Pophale) SiO2 
 PCOD8153026
Probable space group: C 2/C
;
_chemical_formula_sum "Si O2"
_cell_formula_units_Z 56
_cell_length_a 30.470098
_cell_length_b 11.796286
_cell_length_c 15.833154
_cell_angle_alpha 90.000000
_cell_angle_beta 26.308593
_cell_angle_gamma 90.000000
_cell_volume 2522.271637
_symmetry_space_group_name_H-M "C 2/C"
_symmetry_group_IT_number 15
_symmetry_cell_setting 'monoclinic'
loop_
_space_group_symop_operation_xyz
x,y,z
-x,y,1/2-z
-x,-y,-z
x,-y,1/2+z
1/2+x,1/2+y,z
1/2-x,1/2+y,1/2-z
1/2-x,1/2-y,-z
1/2+x,1/2-y,1/2+z
loop_
_atom_site_type_symbol
_atom_site_label
_atom_site_fract_x
_atom_site_fract_y
_atom_site_fract_z
Si Si1 0.158346 0.609960 0.609288
Si Si2 0.945448 0.890529 0.126026
Si Si3 0.271969 0.689929 0.629560
Si Si4 0.218551 0.759153 0.197652
Si Si5 0.082450 0.395890 0.675942
Si Si6 0.057052 0.677466 0.946574
Si Si7 0.289822 0.473104 0.512148
O O1 0.203166 0.721669 0.488157
O O2 0.116714 0.526818 0.607995
O O3 0.070225 0.643076 0.825806
O O4 0.241605 0.540656 0.516811
O O5 0.868712 0.830696 0.194345
O O6 0.890679 0.915941 0.307905
O O7 0.036665 0.809991 0.988291
O O8 0.000000 0.000000 0.000000
O O9 0.304023 0.738912 0.663782
O O10 0.156183 0.657847 0.829005
O O11 0.321384 0.566439 0.528047
O O12 0.217730 0.627120 0.170580
O O13 0.324404 0.812654 0.991988
O O14 0.000000 0.362937 0.750000
O O15 0.035170 0.387615 0.851526
#
# Coordination Sequence:
#
# PCOD8153026 Si02
#       7
#     8   8   8   8   8   8   8
#     4  11  24  43  70 101 141 179 235 291 357 426
#     4  12  24  43  72 101 138 182 239 289 349 425
#     4  11  26  45  70 105 148 183 231 297 372 409
#     4  12  26  45  70 107 141 188 242 293 361 421
#     4  12  24  43  68 101 137 182 235 299 352 419
#     4  11  23  42  67 102 132 183 236 280 346 432
#     4  11  23  45  73  97 140 191 234 290 350 434
#
# _framework density 22.202207999999999
#
# number of rings (size 3 to 8) (size 9 to 14) (size 15 to 20)
#    0.000    0.571    4.286    5.143    2.000    2.286 
#    0.000    3.571    0.000    0.000    0.000    0.000 
#    0.000    0.000    0.000    0.000    0.000    0.000 
#
# Total GULP energy -347139.653256 kJ/mol
# GULP energy per Si atom -12397.844759 kJ/mol
# Density = 2.215167 g / cm^3
# Si number density = 22.202208 Si / 1000 Ang^3
#
#
#
# Elastic Constant Matrix: (Units=GPa)
#
#
# Indices 1 2 3 4 5 6 
#
# 1 66.3285 33.5690 30.5217 0.0000 13.9723 0.0000
# 2 33.5690 158.2590 34.4858 0.0000 10.6090 0.0000
# 3 30.5217 34.4858 77.8529 0.0000 21.2056 0.0000
# 4 0.0000 0.0000 0.0000 49.9584 0.0000 4.9198
# 5 13.9723 10.6090 21.2056 0.0000 31.1090 0.0000
# 6 0.0000 0.0000 0.0000 4.9198 0.0000 31.5155
#
#
#
# Elastic Compliance Matrix: (Units=1/GPa)
#
#
# Indices 1 2 3 4 5 6 
#
# 1 0.019856 -0.002748 -0.005395 0.000000 -0.004304 0.000000
# 2 -0.002748 0.007377 -0.002261 0.000000 0.000260 0.000000
# 3 -0.005395 -0.002261 0.018532 0.000000 -0.009438 0.000000
# 4 0.000000 0.000000 0.000000 0.020329 0.000000 -0.003174
# 5 -0.004304 0.000260 -0.009438 0.000000 0.040423 0.000000
# 6 0.000000 0.000000 0.000000 -0.003174 0.000000 0.032226
#
#
# Mechanical properties :
#
#
# Convention : Reuss Voigt Hill
#
# Bulk Modulus (GPa) = 40.06836 55.51036 47.78936
# Shear Modulus (GPa) = 29.78480 36.10751 32.94615
#
# Velocity S-wave (km/s) = 3.66666 4.03712 3.85634
# Velocity P-wave (km/s) = 6.00100 6.84014 6.43427
#
# Compressibility (1/GPa) = 0.02495735
#
# Stress axis : x y z
#
# Youngs Moduli (GPa) = 50.36193 135.55827 53.95972
#
# Poissons Ratio (x) = 0.37247 0.29112
# Poissons Ratio (y) = 0.13838 0.12202
# Poissons Ratio (z) = 0.27171 0.30653
#
# Static dielectric constant tensor:
#      x y z
#    x 3.782080 0.000000 0.092080 
#    y 0.000000 4.318620 0.000000 
#    z 0.092080 0.000000 4.269220 
# 
# 
# High freq. dielectric constant tensor:
#      x y z
#    x 1.850390 0.000000 0.007330 
#    y 0.000000 1.896510 0.000000 
#    z 0.007330 0.000000 1.883910 
# 
# From -- ./inp_files/181921.got.cif
#   From: 2010.06.25/outbox.cif.g09.slc.cpg/sg15_91_cif.got.tgz:181921.got - 2010.06.28 07:06:18.
