data_PCOD8153390
_publ_section_title
;
Structure prediction by ZEFSAII (Michael W. Deem and Ramdas Pophale) SiO2 
 PCOD8153390
Probable space group: C 2/C
;
_chemical_formula_sum "Si O2"
_cell_formula_units_Z 52
_cell_length_a 10.165104
_cell_length_b 9.225583
_cell_length_c 28.361485
_cell_angle_alpha 90.000000
_cell_angle_beta 59.595601
_cell_angle_gamma 90.000000
_cell_volume 2293.934618
_symmetry_space_group_name_H-M "C 2/C"
_symmetry_group_IT_number 15
_symmetry_cell_setting 'monoclinic'
loop_
_space_group_symop_operation_xyz
x,y,z
-x,y,1/2-z
-x,-y,-z
x,-y,1/2+z
1/2+x,1/2+y,z
1/2-x,1/2+y,1/2-z
1/2-x,1/2-y,-z
1/2+x,1/2-y,1/2+z
loop_
_atom_site_type_symbol
_atom_site_label
_atom_site_fract_x
_atom_site_fract_y
_atom_site_fract_z
Si Si1 0.500000 0.512108 0.750000
Si Si2 0.971202 0.550432 0.557677
Si Si3 0.255711 0.241306 0.723618
Si Si4 0.066269 0.480841 0.787387
Si Si5 0.335409 0.379315 0.868717
Si Si6 0.814079 0.548149 0.898604
Si Si7 0.082876 0.856393 0.896394
O O1 0.629538 0.618205 0.744820
O O2 0.440891 0.413197 0.804258
O O3 0.824081 0.466800 0.605815
O O4 0.943843 0.721809 0.564034
O O5 0.000000 0.500000 0.500000
O O6 0.130146 0.531339 0.557679
O O7 0.210813 0.370902 0.768290
O O8 0.398146 0.152424 0.719004
O O9 0.297761 0.306677 0.665323
O O10 0.000000 0.428391 0.750000
O O11 0.941206 0.451002 0.849327
O O12 0.303809 0.208581 0.879060
O O13 0.430633 0.419896 0.899011
O O14 0.649480 0.479397 0.918699
#
# Coordination Sequence:
#
# PCOD8153390 Si02
#       7
#     4   8   8   8   8   8   8
#     4  12  22  40  70  98 140 184 220 268 348 414
#     4  11  26  50  73  97 136 181 234 291 340 401
#     4  12  23  42  62  98 143 184 217 272 332 414
#     4  12  24  39  62  95 139 181 217 268 333 410
#     4  11  25  44  69 103 136 182 227 277 343 415
#     4  11  25  44  67 103 139 177 230 283 342 408
#     4  11  23  46  65 101 138 171 229 283 339 402
#
# _framework density 22.668476999999999
#
# number of rings (size 3 to 8) (size 9 to 14) (size 15 to 20)
#    0.000    0.615    6.923    0.923    1.077    5.538 
#    0.000    1.538    0.000    0.000    0.000    0.000 
#    0.000    0.000    0.000    0.000    0.000    0.000 
#
# Total GULP energy -322224.283979 kJ/mol
# GULP energy per Si atom -12393.241692 kJ/mol
# Density = 2.261688 g / cm^3
# Si number density = 22.668477 Si / 1000 Ang^3
#
#
#
# Elastic Constant Matrix: (Units=GPa)
#
#
# Indices 1 2 3 4 5 6 
#
# 1 98.4101 50.7063 -6.5121 0.0000 9.0305 0.0000
# 2 50.7063 94.7158 5.3360 0.0000 13.2317 0.0000
# 3 -6.5121 5.3360 53.5835 0.0000 7.0767 0.0000
# 4 0.0000 0.0000 0.0000 19.8472 0.0000 9.1421
# 5 9.0305 13.2317 7.0767 0.0000 23.8843 0.0000
# 6 0.0000 0.0000 0.0000 9.1421 0.0000 42.2833
#
#
#
# Elastic Compliance Matrix: (Units=1/GPa)
#
#
# Indices 1 2 3 4 5 6 
#
# 1 0.014456 -0.007606 0.002789 0.000000 -0.002078 0.000000
# 2 -0.007606 0.015450 -0.001782 0.000000 -0.005156 0.000000
# 3 0.002789 -0.001782 0.019969 0.000000 -0.005984 0.000000
# 4 0.000000 0.000000 0.000000 0.055958 0.000000 -0.012099
# 5 -0.002078 -0.005156 -0.005984 0.000000 0.047284 0.000000
# 6 0.000000 0.000000 0.000000 -0.012099 0.000000 0.026266
#
#
# Mechanical properties :
#
#
# Convention : Reuss Voigt Hill
#
# Bulk Modulus (GPa) = 27.26491 38.41887 32.84189
# Shear Modulus (GPa) = 24.41337 30.34824 27.38081
#
# Velocity S-wave (km/s) = 3.28529 3.66291 3.47923
# Velocity P-wave (km/s) = 5.14243 5.90544 5.53709
#
# Compressibility (1/GPa) = 0.03667718
#
# Stress axis : x y z
#
# Youngs Moduli (GPa) = 69.17705 64.72403 50.07730
#
# Poissons Ratio (x) = 0.49227 -0.13965
# Poissons Ratio (y) = 0.52613 0.08924
# Poissons Ratio (z) = -0.19291 0.11534
#
# Static dielectric constant tensor:
#      x y z
#    x 4.554160 0.000000 -0.065020 
#    y 0.000000 4.222010 0.000000 
#    z -0.065020 0.000000 3.764030 
# 
# 
# High freq. dielectric constant tensor:
#      x y z
#    x 1.912420 0.000000 0.000860 
#    y 0.000000 1.903620 0.000000 
#    z 0.000860 0.000000 1.863530 
# 
# From -- ./inp_files/291459.got.cif
#   From: 2010.06.25/outbox.cif.g09.slc.cpg/sg15_146_cif.got.tgz:291459.got - 2010.06.28 07:06:18.
