data_PCOD8153196
_publ_section_title
;
Structure prediction by ZEFSAII (Michael W. Deem and Ramdas Pophale) SiO2 
 PCOD8153196
Probable space group: C 2/C
;
_chemical_formula_sum "Si O2"
_cell_formula_units_Z 48
_cell_length_a 10.976812
_cell_length_b 11.091074
_cell_length_c 22.573871
_cell_angle_alpha 90.000000
_cell_angle_beta 50.624195
_cell_angle_gamma 90.000000
_cell_volume 2124.399679
_symmetry_space_group_name_H-M "C 2/C"
_symmetry_group_IT_number 15
_symmetry_cell_setting 'monoclinic'
loop_
_space_group_symop_operation_xyz
x,y,z
-x,y,1/2-z
-x,-y,-z
x,-y,1/2+z
1/2+x,1/2+y,z
1/2-x,1/2+y,1/2-z
1/2-x,1/2-y,-z
1/2+x,1/2-y,1/2+z
loop_
_atom_site_type_symbol
_atom_site_label
_atom_site_fract_x
_atom_site_fract_y
_atom_site_fract_z
Si Si1 0.889338 0.951627 0.085920
Si Si2 0.847072 0.839577 0.693406
Si Si3 0.321859 0.914574 0.639871
Si Si4 0.591257 0.751507 0.584725
Si Si5 0.305692 0.241696 0.915632
Si Si6 0.167264 0.152764 0.683813
O O1 0.738358 0.886884 0.101427
O O2 0.979955 0.857234 0.099053
O O3 0.838586 0.059593 0.144774
O O4 0.000000 0.000000 0.000000
O O5 0.809605 0.892752 0.769065
O O6 0.713231 0.739761 0.723572
O O7 0.009905 0.767108 0.644726
O O8 0.497896 0.878683 0.606400
O O9 0.285623 0.845999 0.590662
O O10 0.306593 0.056151 0.629549
O O11 0.750000 0.750000 0.500000
O O12 0.647054 0.738871 0.634236
O O13 0.250000 0.250000 0.000000
O O14 0.000000 0.088878 0.750000
#
# Coordination Sequence:
#
# PCOD8153196 Si02
#       6
#     8   8   8   8   8   8
#     4  11  23  43  73 100 144 185 230 303 358 426
#     4  12  25  46  71 104 142 190 241 296 367 433
#     4  11  26  47  72 101 142 193 238 299 371 426
#     4  11  25  45  70 107 140 181 245 294 363 437
#     4  11  24  44  72 104 138 188 245 292 363 440
#     4  12  25  46  72 101 146 185 236 304 358 441
#
# _framework density 22.594618000000001
#
# number of rings (size 3 to 8) (size 9 to 14) (size 15 to 20)
#    0.000    0.667    3.333    4.500    4.667    3.333 
#    0.000    0.000    0.000    0.000    0.000    0.000 
#    0.000    0.000    0.000    0.000    0.000    0.000 
#
# Total GULP energy -297602.075570 kJ/mol
# GULP energy per Si atom -12400.086482 kJ/mol
# Density = 2.254319 g / cm^3
# Si number density = 22.594618 Si / 1000 Ang^3
#
#
#
# Elastic Constant Matrix: (Units=GPa)
#
#
# Indices 1 2 3 4 5 6 
#
# 1 127.5540 62.8808 40.3765 0.0000 -1.8553 0.0000
# 2 62.8808 105.6067 5.5493 0.0000 -6.7164 0.0000
# 3 40.3765 5.5493 104.3721 0.0000 0.6759 0.0000
# 4 0.0000 0.0000 0.0000 27.8320 0.0000 -3.1942
# 5 -1.8553 -6.7164 0.6759 0.0000 46.8437 0.0000
# 6 0.0000 0.0000 0.0000 -3.1942 0.0000 45.4411
#
#
#
# Elastic Compliance Matrix: (Units=1/GPa)
#
#
# Indices 1 2 3 4 5 6 
#
# 1 0.013014 -0.007537 -0.004631 0.000000 -0.000498 0.000000
# 2 -0.007537 0.013949 0.002163 0.000000 0.001670 0.000000
# 3 -0.004631 0.002163 0.011258 0.000000 -0.000036 0.000000
# 4 0.000000 0.000000 0.000000 0.036222 0.000000 0.002546
# 5 -0.000498 0.001670 -0.000036 0.000000 0.021568 0.000000
# 6 0.000000 0.000000 0.000000 0.002546 0.000000 0.022185
#
#
# Mechanical properties :
#
#
# Convention : Reuss Voigt Hill
#
# Bulk Modulus (GPa) = 54.90811 61.68290 58.29551
# Shear Modulus (GPa) = 34.65577 39.27179 36.96378
#
# Velocity S-wave (km/s) = 3.92063 4.17358 4.04908
# Velocity P-wave (km/s) = 6.69696 7.11225 6.90773
#
# Compressibility (1/GPa) = 0.01821225
#
# Stress axis : x y z
#
# Youngs Moduli (GPa) = 76.84042 71.68720 88.82856
#
# Poissons Ratio (x) = 0.54032 0.41132
# Poissons Ratio (y) = 0.57916 -0.19216
# Poissons Ratio (z) = 0.35581 -0.15508
#
# Static dielectric constant tensor:
#      x y z
#    x 4.492080 0.000000 -0.027340 
#    y 0.000000 3.933460 0.000000 
#    z -0.027340 0.000000 3.804110 
# 
# 
# High freq. dielectric constant tensor:
#      x y z
#    x 1.907410 0.000000 0.011220 
#    y 0.000000 1.892000 0.000000 
#    z 0.011220 0.000000 1.896210 
# 
# From -- ./inp_files/237413.got.cif
#   From: 2010.06.25/outbox.cif.g09.slc.cpg/sg15_119_cif.got.tgz:237413.got - 2010.06.28 07:06:18.
