data_PCOD8153637
_publ_section_title
;
Structure prediction by ZEFSAII (Michael W. Deem and Ramdas Pophale) SiO2 
 PCOD8153637
Probable space group: C 2/C
;
_chemical_formula_sum "Si O2"
_cell_formula_units_Z 48
_cell_length_a 15.543340
_cell_length_b 8.730135
_cell_length_c 15.384663
_cell_angle_alpha 90.000000
_cell_angle_beta 118.727936
_cell_angle_gamma 90.000000
_cell_volume 1830.666629
_symmetry_space_group_name_H-M "C 2/C"
_symmetry_group_IT_number 15
_symmetry_cell_setting 'monoclinic'
loop_
_space_group_symop_operation_xyz
x,y,z
-x,y,1/2-z
-x,-y,-z
x,-y,1/2+z
1/2+x,1/2+y,z
1/2-x,1/2+y,1/2-z
1/2-x,1/2-y,-z
1/2+x,1/2-y,1/2+z
loop_
_atom_site_type_symbol
_atom_site_label
_atom_site_fract_x
_atom_site_fract_y
_atom_site_fract_z
Si Si1 0.186858 0.947297 0.410476
Si Si2 0.719208 0.217917 0.117571
Si Si3 0.500000 0.029728 0.750000
Si Si4 0.532072 0.263651 0.914841
Si Si5 0.804960 0.470419 0.732935
Si Si6 0.000000 0.997373 0.250000
Si Si7 0.846087 0.218239 0.438306
O O1 0.138622 0.908770 0.479916
O O2 0.291095 0.864993 0.452006
O O3 0.102382 0.900807 0.297629
O O4 0.203537 0.133313 0.410740
O O5 0.775008 0.352435 0.198806
O O6 0.683600 0.072454 0.159860
O O7 0.629548 0.286308 0.019668
O O8 0.537579 0.122244 0.851963
O O9 0.406515 0.929236 0.733171
O O10 0.506887 0.410933 0.844153
O O11 0.552988 0.768390 0.056202
O O12 0.721610 0.353849 0.666965
#
# Coordination Sequence:
#
# PCOD8153637 Si02
#       7
#     8   8   4   8   8   4   8
#     4  11  25  45  70 101 143 183 232 291 351 416
#     4  12  26  47  72 102 142 188 237 293 352 419
#     4  11  24  43  70 104 140 182 228 284 352 420
#     4  11  25  45  72 104 140 184 236 288 349 419
#     4  12  26  45  71 100 140 186 235 289 353 418
#     4  11  24  45  72 104 142 190 238 286 348 424
#     4  11  26  46  70 105 140 183 233 289 351 418
#
# _framework density 26.219957000000001
#
# number of rings (size 3 to 8) (size 9 to 14) (size 15 to 20)
#    0.000    0.667    0.000    8.000    0.000   13.333 
#    0.000    0.000    0.000    0.000    0.000    0.000 
#    0.000    0.000    0.000    0.000    0.000    0.000 
#
# Total GULP energy -297418.606761 kJ/mol
# GULP energy per Si atom -12392.441948 kJ/mol
# Density = 2.616028 g / cm^3
# Si number density = 26.219957 Si / 1000 Ang^3
#
#
#
# Elastic Constant Matrix: (Units=GPa)
#
#
# Indices 1 2 3 4 5 6 
#
# 1 113.6763 5.1087 53.7166 0.0000 12.8900 0.0000
# 2 5.1087 55.9998 29.2476 0.0000 -2.5676 0.0000
# 3 53.7166 29.2476 146.1692 0.0000 1.4726 0.0000
# 4 0.0000 0.0000 0.0000 33.3345 0.0000 -9.8992
# 5 12.8900 -2.5676 1.4726 0.0000 43.2033 0.0000
# 6 0.0000 0.0000 0.0000 -9.8992 0.0000 8.6893
#
#
#
# Elastic Compliance Matrix: (Units=1/GPa)
#
#
# Indices 1 2 3 4 5 6 
#
# 1 0.011119 0.001073 -0.004269 0.000000 -0.003108 0.000000
# 2 0.001073 0.020120 -0.004431 0.000000 0.001027 0.000000
# 3 -0.004269 -0.004431 0.009290 0.000000 0.000694 0.000000
# 4 0.000000 0.000000 0.000000 0.045337 0.000000 0.051650
# 5 -0.003108 0.001027 0.000694 0.000000 0.024111 0.000000
# 6 0.000000 0.000000 0.000000 0.051650 0.000000 0.173926
#
#
# Mechanical properties :
#
#
# Convention : Reuss Voigt Hill
#
# Bulk Modulus (GPa) = 39.56503 54.66566 47.11535
# Shear Modulus (GPa) = 16.25580 32.23025 24.24303
#
# Velocity S-wave (km/s) = 2.49264 3.50984 3.04403
# Velocity P-wave (km/s) = 4.83805 6.10896 5.51027
#
# Compressibility (1/GPa) = 0.02527484
#
# Stress axis : x y z
#
# Youngs Moduli (GPa) = 89.93953 49.70075 107.64335
#
# Poissons Ratio (x) = -0.05333 0.45958
# Poissons Ratio (y) = -0.09651 0.47693
# Poissons Ratio (z) = 0.38399 0.22021
#
# Static dielectric constant tensor:
#      x y z
#    x 5.043430 0.000000 0.038320 
#    y 0.000000 4.492720 0.000000 
#    z 0.038320 0.000000 4.901800 
# 
# 
# High freq. dielectric constant tensor:
#      x y z
#    x 2.066360 0.000000 -0.002410 
#    y 0.000000 2.038310 0.000000 
#    z -0.002410 0.000000 2.063040 
# 
# From -- ./inp_files/214110.got.cif
#   From: 2010.06.25/outbox.cif.g09.slc.cpg/sg15_108_cif.got.tgz:214110.got - 2010.06.28 07:06:18.
