data_PCOD8153406
_publ_section_title
;
Structure prediction by ZEFSAII (Michael W. Deem and Ramdas Pophale) SiO2 
 PCOD8153406
Probable space group: C 2/C
;
_chemical_formula_sum "Si O2"
_cell_formula_units_Z 56
_cell_length_a 11.293016
_cell_length_b 21.513410
_cell_length_c 12.252270
_cell_angle_alpha 90.000000
_cell_angle_beta 120.781127
_cell_angle_gamma 90.000000
_cell_volume 2557.371907
_symmetry_space_group_name_H-M "C 2/C"
_symmetry_group_IT_number 15
_symmetry_cell_setting 'monoclinic'
loop_
_space_group_symop_operation_xyz
x,y,z
-x,y,1/2-z
-x,-y,-z
x,-y,1/2+z
1/2+x,1/2+y,z
1/2-x,1/2+y,1/2-z
1/2-x,1/2-y,-z
1/2+x,1/2-y,1/2+z
loop_
_atom_site_type_symbol
_atom_site_label
_atom_site_fract_x
_atom_site_fract_y
_atom_site_fract_z
Si Si1 0.667772 0.418236 0.405188
Si Si2 0.274785 0.584897 0.820119
Si Si3 0.500000 0.475678 0.750000
Si Si4 0.016006 0.165968 0.993799
Si Si5 0.129921 0.282948 0.507679
Si Si6 0.345021 0.037893 0.169405
Si Si7 0.000000 0.346743 0.250000
Si Si8 0.787722 0.876585 0.735290
O O1 0.699531 0.401747 0.295439
O O2 0.556717 0.474798 0.367662
O O3 0.608518 0.355375 0.434011
O O4 0.808604 0.440849 0.529232
O O5 0.393250 0.615998 0.949400
O O6 0.266678 0.511908 0.840644
O O7 0.131721 0.611555 0.793411
O O8 0.370772 0.433895 0.722365
O O9 0.949887 0.234748 0.948945
O O10 0.104094 0.165849 0.147045
O O11 0.250000 0.250000 0.500000
O O12 0.018552 0.306308 0.367919
O O13 0.202244 0.338150 0.607260
O O14 0.500000 0.012451 0.250000
O O15 0.328905 0.097447 0.239183
#
# Coordination Sequence:
#
# PCOD8153406 Si02
#       8
#     8   8   4   8   8   8   4   8
#     4  11  24  42  72 102 139 183 226 288 345 408
#     4  12  23  44  70 101 141 179 226 286 344 420
#     4  12  20  39  70 104 135 168 230 286 344 394
#     4  11  23  46  68  99 134 181 237 278 340 407
#     4  12  25  46  69  97 137 182 233 288 341 411
#     4  11  25  42  65 104 144 180 220 280 356 415
#     4  12  28  41  68 104 133 184 228 280 356 406
#     4  11  25  41  70 103 136 176 227 293 337 406
#
# _framework density 21.897480000000002
#
# number of rings (size 3 to 8) (size 9 to 14) (size 15 to 20)
#    0.000    0.571    5.000    2.571    4.000    2.857 
#    0.000    2.143    0.000    0.000    0.000    0.000 
#    0.000    0.000    0.000    0.000    0.000    0.000 
#
# Total GULP energy -347103.169463 kJ/mol
# GULP energy per Si atom -12396.541767 kJ/mol
# Density = 2.184764 g / cm^3
# Si number density = 21.897480 Si / 1000 Ang^3
#
#
#
# Elastic Constant Matrix: (Units=GPa)
#
#
# Indices 1 2 3 4 5 6 
#
# 1 74.4612 27.3381 29.9701 0.0000 3.1434 0.0000
# 2 27.3381 98.7920 39.6195 0.0000 -3.2954 0.0000
# 3 29.9701 39.6195 128.2098 0.0000 9.2735 0.0000
# 4 0.0000 0.0000 0.0000 29.7225 0.0000 -4.8983
# 5 3.1434 -3.2954 9.2735 0.0000 34.0975 0.0000
# 6 0.0000 0.0000 0.0000 -4.8983 0.0000 27.4714
#
#
#
# Elastic Compliance Matrix: (Units=1/GPa)
#
#
# Indices 1 2 3 4 5 6 
#
# 1 0.015742 -0.003365 -0.002562 0.000000 -0.001080 0.000000
# 2 -0.003365 0.012427 -0.003226 0.000000 0.002389 0.000000
# 3 -0.002562 -0.003226 0.009590 0.000000 -0.002684 0.000000
# 4 0.000000 0.000000 0.000000 0.034663 0.000000 0.006181
# 5 -0.001080 0.002389 -0.002684 0.000000 0.030388 0.000000
# 6 0.000000 0.000000 0.000000 0.006181 0.000000 0.037504
#
#
# Mechanical properties :
#
#
# Convention : Reuss Voigt Hill
#
# Bulk Modulus (GPa) = 51.40748 55.03536 53.22142
# Shear Modulus (GPa) = 30.28403 31.89398 31.08901
#
# Velocity S-wave (km/s) = 3.72289 3.82057 3.77205
# Velocity P-wave (km/s) = 6.48131 6.68207 6.58245
#
# Compressibility (1/GPa) = 0.01945242
#
# Stress axis : x y z
#
# Youngs Moduli (GPa) = 63.52472 80.47000 104.27806
#
# Poissons Ratio (x) = 0.27076 0.26715
# Poissons Ratio (y) = 0.21374 0.33645
# Poissons Ratio (z) = 0.16275 0.25963
#
# Static dielectric constant tensor:
#      x y z
#    x 3.837070 0.000000 0.210940 
#    y 0.000000 3.792340 0.000000 
#    z 0.210940 0.000000 4.035720 
# 
# 
# High freq. dielectric constant tensor:
#      x y z
#    x 1.857910 0.000000 0.011480 
#    y 0.000000 1.858390 0.000000 
#    z 0.011480 0.000000 1.869850 
# 
# From -- ./inp_files/90940.got.cif
#   From: 2010.06.25/outbox.cif.g09.slc.cpg/sg15_46_cif.got.tgz:90940.got - 2010.06.28 07:06:18.
