data_PCOD8153184
_publ_section_title
;
Structure prediction by ZEFSAII (Michael W. Deem and Ramdas Pophale) SiO2 
 PCOD8153184
Probable space group: C 2/C
;
_chemical_formula_sum "Si O2"
_cell_formula_units_Z 40
_cell_length_a 12.409315
_cell_length_b 17.100502
_cell_length_c 8.737936
_cell_angle_alpha 90.000000
_cell_angle_beta 85.894473
_cell_angle_gamma 90.000000
_cell_volume 1849.480022
_symmetry_space_group_name_H-M "C 2/C"
_symmetry_group_IT_number 15
_symmetry_cell_setting 'monoclinic'
loop_
_space_group_symop_operation_xyz
x,y,z
-x,y,1/2-z
-x,-y,-z
x,-y,1/2+z
1/2+x,1/2+y,z
1/2-x,1/2+y,1/2-z
1/2-x,1/2-y,-z
1/2+x,1/2-y,1/2+z
loop_
_atom_site_type_symbol
_atom_site_label
_atom_site_fract_x
_atom_site_fract_y
_atom_site_fract_z
Si Si1 0.253918 0.025756 0.750542
Si Si2 0.388808 0.167249 0.829234
Si Si3 0.386712 0.117602 0.173512
Si Si4 0.302312 0.700640 0.130935
Si Si5 0.109723 0.048675 0.501358
O O1 0.297506 0.111085 0.776844
O O2 0.141978 0.041298 0.673942
O O3 0.344292 0.971679 0.656299
O O4 0.214584 0.988965 0.911888
O O5 0.500000 0.136011 0.750000
O O6 0.362322 0.251888 0.759885
O O7 0.396294 0.164904 0.012858
O O8 0.500000 0.117740 0.250000
O O9 0.299157 0.158805 0.285984
O O10 0.393119 0.639037 0.057386
O O11 0.250000 0.750000 0.000000
O O12 0.000000 0.000000 0.500000
#
# Coordination Sequence:
#
# PCOD8153184 Si02
#       5
#     8   8   8   8   8
#     4  11  23  43  71  99 141 179 240 294 353 431
#     4  12  25  43  69 101 140 189 231 294 362 427
#     4  11  25  44  70 104 138 184 236 292 361 427
#     4  11  24  46  69 100 147 183 237 297 356 433
#     4  11  24  45  71 102 137 189 238 295 359 430
#
# _framework density 21.627703
#
# number of rings (size 3 to 8) (size 9 to 14) (size 15 to 20)
#    0.000    0.800    4.000    3.000    2.800    4.800 
#    7.200    0.000    0.000    0.000    0.000    0.000 
#    0.000    0.000    0.000    0.000    0.000    0.000 
#
# Total GULP energy -247864.978625 kJ/mol
# GULP energy per Si atom -12393.248931 kJ/mol
# Density = 2.157848 g / cm^3
# Si number density = 21.627703 Si / 1000 Ang^3
#
#
#
# Elastic Constant Matrix: (Units=GPa)
#
#
# Indices 1 2 3 4 5 6 
#
# 1 122.7659 48.2516 51.5363 0.0000 22.6050 0.0000
# 2 48.2516 131.4954 48.1626 0.0000 12.5783 0.0000
# 3 51.5363 48.1626 110.0623 0.0000 17.7536 0.0000
# 4 0.0000 0.0000 0.0000 35.9418 0.0000 0.3943
# 5 22.6050 12.5783 17.7536 0.0000 45.2072 0.0000
# 6 0.0000 0.0000 0.0000 0.3943 0.0000 25.6537
#
#
#
# Elastic Compliance Matrix: (Units=1/GPa)
#
#
# Indices 1 2 3 4 5 6 
#
# 1 0.011295 -0.002475 -0.003636 0.000000 -0.003531 0.000000
# 2 -0.002475 0.009644 -0.003019 0.000000 -0.000260 0.000000
# 3 -0.003636 -0.003019 0.012471 0.000000 -0.002239 0.000000
# 4 0.000000 0.000000 0.000000 0.027827 0.000000 -0.000428
# 5 -0.003531 -0.000260 -0.002239 0.000000 0.024838 0.000000
# 6 0.000000 0.000000 0.000000 -0.000428 0.000000 0.038987
#
#
# Mechanical properties :
#
#
# Convention : Reuss Voigt Hill
#
# Bulk Modulus (GPa) = 66.01223 73.35827 69.68525
# Shear Modulus (GPa) = 33.69897 35.78542 34.74220
#
# Velocity S-wave (km/s) = 3.95161 4.07210 4.01231
# Velocity P-wave (km/s) = 7.16998 7.49010 7.33179
#
# Compressibility (1/GPa) = 0.01514871
#
# Stress axis : x y z
#
# Youngs Moduli (GPa) = 88.53450 103.69431 80.18758
#
# Poissons Ratio (x) = 0.25665 0.29158
# Poissons Ratio (y) = 0.21913 0.24210
# Poissons Ratio (z) = 0.32193 0.31307
#
# Static dielectric constant tensor:
#      x y z
#    x 3.609570 0.000000 -0.083740 
#    y 0.000000 4.177740 0.000000 
#    z -0.083740 0.000000 4.061910 
# 
# 
# High freq. dielectric constant tensor:
#      x y z
#    x 1.853400 0.000000 0.006170 
#    y 0.000000 1.853570 0.000000 
#    z 0.006170 0.000000 1.864700 
# 
# From -- ./inp_files/29081.got.cif
#   From: 2010.06.25/outbox.cif.g09.slc.cpg/sg15_15_cif.got.tgz:29081.got - 2010.06.28 07:06:18.
