data_PCOD8153863
_publ_section_title
;
Structure prediction by ZEFSAII (Michael W. Deem and Ramdas Pophale) SiO2 
 PCOD8153863
Probable space group: C 2/C
;
_chemical_formula_sum "Si O2"
_cell_formula_units_Z 48
_cell_length_a 26.854370
_cell_length_b 13.999039
_cell_length_c 9.233463
_cell_angle_alpha 90.000000
_cell_angle_beta 140.821434
_cell_angle_gamma 90.000000
_cell_volume 2192.884403
_symmetry_space_group_name_H-M "C 2/C"
_symmetry_group_IT_number 15
_symmetry_cell_setting 'monoclinic'
loop_
_space_group_symop_operation_xyz
x,y,z
-x,y,1/2-z
-x,-y,-z
x,-y,1/2+z
1/2+x,1/2+y,z
1/2-x,1/2+y,1/2-z
1/2-x,1/2-y,-z
1/2+x,1/2-y,1/2+z
loop_
_atom_site_type_symbol
_atom_site_label
_atom_site_fract_x
_atom_site_fract_y
_atom_site_fract_z
Si Si1 0.599811 0.650087 0.349976
Si Si2 0.305495 0.006407 0.496022
Si Si3 0.570665 0.670604 0.610110
Si Si4 0.922008 0.343434 0.665929
Si Si5 0.196509 0.966154 0.493547
Si Si6 0.333475 0.798574 0.197500
O O1 0.611036 0.676551 0.543617
O O2 0.663741 0.573089 0.442135
O O3 0.609940 0.748908 0.289121
O O4 0.512220 0.616557 0.105410
O O5 0.335741 0.089108 0.669916
O O6 0.379405 0.939435 0.625180
O O7 0.236469 0.951204 0.426904
O O8 0.264332 0.054424 0.263828
O O9 0.559208 0.775303 0.654802
O O10 0.623957 0.607666 0.839494
O O11 0.863696 0.285180 0.429269
O O12 0.000000 0.371058 0.750000
O O13 0.250000 0.750000 0.000000
#
# Coordination Sequence:
#
# PCOD8153863 Si02
#       6
#     8   8   8   8   8   8
#     4  11  24  46  68 107 138 186 236 287 359 420
#     4  12  26  45  72 102 138 188 233 291 352 416
#     4  11  26  43  72 101 144 186 230 292 357 420
#     4  12  27  49  68 104 142 187 240 286 351 416
#     4  12  24  46  69 106 141 179 238 291 355 421
#     4  12  24  47  74  99 143 183 236 292 348 418
#
# _framework density 21.888978999999999
#
# number of rings (size 3 to 8) (size 9 to 14) (size 15 to 20)
#    0.000    0.333    6.667    1.500    2.333    1.333 
#    6.000    0.000    0.000    0.000    0.000    0.000 
#    0.000    0.000    0.000    0.000    0.000    0.000 
#
# Total GULP energy -297609.089104 kJ/mol
# GULP energy per Si atom -12400.378713 kJ/mol
# Density = 2.183916 g / cm^3
# Si number density = 21.888979 Si / 1000 Ang^3
#
#
#
# Elastic Constant Matrix: (Units=GPa)
#
#
# Indices 1 2 3 4 5 6 
#
# 1 133.0216 45.5182 34.8974 0.0000 2.3592 0.0000
# 2 45.5182 83.6798 30.9511 0.0000 4.6663 0.0000
# 3 34.8974 30.9511 107.4655 0.0000 -2.8527 0.0000
# 4 0.0000 0.0000 0.0000 34.7876 0.0000 -0.4377
# 5 2.3592 4.6663 -2.8527 0.0000 31.8101 0.0000
# 6 0.0000 0.0000 0.0000 -0.4377 0.0000 39.0764
#
#
#
# Elastic Compliance Matrix: (Units=1/GPa)
#
#
# Indices 1 2 3 4 5 6 
#
# 1 0.009537 -0.004509 -0.001804 0.000000 -0.000208 0.000000
# 2 -0.004509 0.015679 -0.003111 0.000000 -0.002245 0.000000
# 3 -0.001804 -0.003111 0.010829 0.000000 0.001561 0.000000
# 4 0.000000 0.000000 0.000000 0.028750 0.000000 0.000322
# 5 -0.000208 -0.002245 0.001561 0.000000 0.031921 0.000000
# 6 0.000000 0.000000 0.000000 0.000322 0.000000 0.025595
#
#
# Mechanical properties :
#
#
# Convention : Reuss Voigt Hill
#
# Bulk Modulus (GPa) = 58.15050 60.76669 59.45860
# Shear Modulus (GPa) = 34.03881 35.32150 34.68015
#
# Velocity S-wave (km/s) = 3.94771 4.02140 3.98473
# Velocity P-wave (km/s) = 6.88498 7.02736 6.95654
#
# Compressibility (1/GPa) = 0.01719676
#
# Stress axis : x y z
#
# Youngs Moduli (GPa) = 104.84934 63.77971 92.34839
#
# Poissons Ratio (x) = 0.28759 0.16659
# Poissons Ratio (y) = 0.47278 0.28730
# Poissons Ratio (z) = 0.18914 0.19842
#
# Static dielectric constant tensor:
#      x y z
#    x 4.374640 0.000000 0.069480 
#    y 0.000000 3.725630 0.000000 
#    z 0.069480 0.000000 4.019310 
# 
# 
# High freq. dielectric constant tensor:
#      x y z
#    x 1.871260 0.000000 -0.000020 
#    y 0.000000 1.843170 0.000000 
#    z -0.000020 0.000000 1.876400 
# 
# From -- ./inp_files/66393.got.cif
#   From: 2010.06.25/outbox.cif.g09.slc.cpg/sg15_34_cif.got.tgz:66393.got - 2010.06.28 07:06:18.
