data_PCOD8153975
_publ_section_title
;
Structure prediction by ZEFSAII (Michael W. Deem and Ramdas Pophale) SiO2 
 PCOD8153975
Probable space group: C 2/C
;
_chemical_formula_sum "Si O2"
_cell_formula_units_Z 40
_cell_length_a 9.734646
_cell_length_b 11.086238
_cell_length_c 15.399923
_cell_angle_alpha 90.000000
_cell_angle_beta 81.109058
_cell_angle_gamma 90.000000
_cell_volume 1641.999266
_symmetry_space_group_name_H-M "C 2/C"
_symmetry_group_IT_number 15
_symmetry_cell_setting 'monoclinic'
loop_
_space_group_symop_operation_xyz
x,y,z
-x,y,1/2-z
-x,-y,-z
x,-y,1/2+z
1/2+x,1/2+y,z
1/2-x,1/2+y,1/2-z
1/2-x,1/2-y,-z
1/2+x,1/2-y,1/2+z
loop_
_atom_site_type_symbol
_atom_site_label
_atom_site_fract_x
_atom_site_fract_y
_atom_site_fract_z
Si Si1 0.307981 0.356269 0.303587
Si Si2 0.978506 0.734017 0.621374
Si Si3 0.000000 0.648997 0.250000
Si Si4 0.590689 0.998415 0.577886
Si Si5 0.383990 0.401553 0.492201
Si Si6 0.500000 0.559408 0.250000
O O1 0.142262 0.343040 0.317729
O O2 0.365325 0.234855 0.253839
O O3 0.372360 0.373306 0.392701
O O4 0.362751 0.475685 0.246978
O O5 0.922690 0.773366 0.532261
O O6 0.106452 0.640658 0.602574
O O7 0.024626 0.855622 0.664845
O O8 0.009689 0.570523 0.162058
O O9 0.741284 0.945211 0.548475
O O10 0.500000 0.000000 0.500000
O O11 0.500000 0.500000 0.500000
#
# Coordination Sequence:
#
# PCOD8153975 Si02
#       6
#     8   8   4   8   8   4
#     4  11  24  47  75 102 153 197 250 317 378 454
#     4  12  25  45  75 105 151 191 252 316 376 452
#     4  11  25  46  76 112 149 205 252 320 390 447
#     4  12  26  47  79 113 151 202 262 315 384 468
#     4  12  25  51  74 107 151 201 256 317 389 456
#     4  11  27  44  64 118 143 193 252 308 376 457
#
# _framework density 24.360547
#
# number of rings (size 3 to 8) (size 9 to 14) (size 15 to 20)
#    0.000    0.400    6.000    2.400    2.800    2.400 
#    0.000    0.000    0.000    0.000    0.000    0.000 
#    0.000    0.000    0.000    0.000    0.000    0.000 
#
# Total GULP energy -248022.132152 kJ/mol
# GULP energy per Si atom -12401.106608 kJ/mol
# Density = 2.430510 g / cm^3
# Si number density = 24.360547 Si / 1000 Ang^3
#
#
#
# Elastic Constant Matrix: (Units=GPa)
#
#
# Indices 1 2 3 4 5 6 
#
# 1 52.9837 22.0674 10.5637 0.0000 -13.6914 0.0000
# 2 22.0674 164.0790 44.2203 0.0000 -8.9079 0.0000
# 3 10.5637 44.2203 118.3196 0.0000 -6.2097 0.0000
# 4 0.0000 0.0000 0.0000 42.4502 0.0000 3.3756
# 5 -13.6914 -8.9079 -6.2097 0.0000 28.0056 0.0000
# 6 0.0000 0.0000 0.0000 3.3756 0.0000 35.1580
#
#
#
# Elastic Compliance Matrix: (Units=1/GPa)
#
#
# Indices 1 2 3 4 5 6 
#
# 1 0.022591 -0.002320 -0.000616 0.000000 0.010170 0.000000
# 2 -0.002320 0.007088 -0.002411 0.000000 0.000586 0.000000
# 3 -0.000616 -0.002411 0.009462 0.000000 0.001030 0.000000
# 4 0.000000 0.000000 0.000000 0.023738 0.000000 -0.002279
# 5 0.010170 0.000586 0.001030 0.000000 0.041093 0.000000
# 6 0.000000 0.000000 0.000000 -0.002279 0.000000 0.028662
#
#
# Mechanical properties :
#
#
# Convention : Reuss Voigt Hill
#
# Bulk Modulus (GPa) = 35.15430 54.34278 44.74854
# Shear Modulus (GPa) = 32.72003 38.35815 35.53909
#
# Velocity S-wave (km/s) = 3.66889 3.97243 3.82367
# Velocity P-wave (km/s) = 5.69296 6.58759 6.15655
#
# Compressibility (1/GPa) = 0.02844602
#
# Stress axis : x y z
#
# Youngs Moduli (GPa) = 44.26586 141.07716 105.68681
#
# Poissons Ratio (x) = 0.32732 0.06511
# Poissons Ratio (y) = 0.10270 0.25484
# Poissons Ratio (z) = 0.02727 0.34018
#
# Static dielectric constant tensor:
#      x y z
#    x 3.965340 0.000000 0.011980 
#    y 0.000000 4.910980 0.000000 
#    z 0.011980 0.000000 4.619910 
# 
# 
# High freq. dielectric constant tensor:
#      x y z
#    x 1.945880 0.000000 -0.008110 
#    y 0.000000 1.997300 0.000000 
#    z -0.008110 0.000000 1.978420 
# 
# From -- ./inp_files/187854.got.cif
#   From: 2010.06.25/outbox.cif.g09.slc.cpg/sg15_94_cif.got.tgz:187854.got - 2010.06.28 07:06:18.
