data_PCOD8153805
_publ_section_title
;
Structure prediction by ZEFSAII (Michael W. Deem and Ramdas Pophale) SiO2 
 PCOD8153805
Probable space group: C 2/C
;
_chemical_formula_sum "Si O2"
_cell_formula_units_Z 44
_cell_length_a 7.226022
_cell_length_b 12.049106
_cell_length_c 25.726023
_cell_angle_alpha 90.000000
_cell_angle_beta 76.776327
_cell_angle_gamma 90.000000
_cell_volume 2180.498471
_symmetry_space_group_name_H-M "C 2/C"
_symmetry_group_IT_number 15
_symmetry_cell_setting 'monoclinic'
loop_
_space_group_symop_operation_xyz
x,y,z
-x,y,1/2-z
-x,-y,-z
x,-y,1/2+z
1/2+x,1/2+y,z
1/2-x,1/2+y,1/2-z
1/2-x,1/2-y,-z
1/2+x,1/2-y,1/2+z
loop_
_atom_site_type_symbol
_atom_site_label
_atom_site_fract_x
_atom_site_fract_y
_atom_site_fract_z
Si Si1 0.177583 0.192285 0.432066
Si Si2 0.386202 0.435677 0.884676
Si Si3 0.000000 0.459119 0.750000
Si Si4 0.179661 0.422261 0.480626
Si Si5 0.940964 0.688783 0.153902
Si Si6 0.381375 0.414644 0.207316
O O1 0.105381 0.303552 0.464993
O O2 0.211921 0.094366 0.471662
O O3 0.370679 0.218644 0.389553
O O4 0.014707 0.158078 0.402654
O O5 0.327105 0.526318 0.930699
O O6 0.200401 0.378147 0.873735
O O7 0.504859 0.492578 0.831530
O O8 0.998158 0.383994 0.699387
O O9 0.818876 0.538130 0.761952
O O10 0.000000 0.500000 0.500000
O O11 0.842727 0.804011 0.176589
O O12 0.500000 0.379689 0.250000
#
# Coordination Sequence:
#
# PCOD8153805 Si02
#       6
#     8   8   4   8   8   8
#     4  11  25  44  69 101 136 175 224 275 326 402
#     4  12  25  43  71  99 134 179 224 269 340 392
#     4  12  26  44  70  98 132 176 224 280 336 388
#     4  11  24  45  70 101 139 174 221 277 331 393
#     4  12  25  43  69  99 132 177 227 272 329 406
#     4  12  26  43  69  99 134 174 223 281 335 393
#
# _framework density 20.17887
#
# number of rings (size 3 to 8) (size 9 to 14) (size 15 to 20)
#    0.000    0.364    8.182    0.545    0.000    6.545 
#    0.000    0.000    0.000    0.000    0.000    0.000 
#    0.000    0.000    0.000    0.000    0.000    0.000 
#
# Total GULP energy -272970.066788 kJ/mol
# GULP energy per Si atom -12407.730309 kJ/mol
# Density = 2.013294 g / cm^3
# Si number density = 20.178870 Si / 1000 Ang^3
#
#
#
# Elastic Constant Matrix: (Units=GPa)
#
#
# Indices 1 2 3 4 5 6 
#
# 1 93.0863 35.1876 30.6878 0.0000 -0.7575 0.0000
# 2 35.1876 97.0391 27.7338 0.0000 5.1932 0.0000
# 3 30.6878 27.7338 96.4701 0.0000 2.0719 0.0000
# 4 0.0000 0.0000 0.0000 37.7300 0.0000 4.7073
# 5 -0.7575 5.1932 2.0719 0.0000 34.9074 0.0000
# 6 0.0000 0.0000 0.0000 4.7073 0.0000 -11.3846
#
#
#
# Elastic Compliance Matrix: (Units=1/GPa)
#
#
# Indices 1 2 3 4 5 6 
#
# 1 0.013281 -0.003986 -0.003102 0.000000 0.001065 0.000000
# 2 -0.003986 0.012501 -0.002287 0.000000 -0.001811 0.000000
# 3 -0.003102 -0.002287 0.012019 0.000000 -0.000440 0.000000
# 4 0.000000 0.000000 0.000000 0.025204 0.000000 0.010421
# 5 0.001065 -0.001811 -0.000440 0.000000 0.028966 0.000000
# 6 0.000000 0.000000 0.000000 0.010421 0.000000 -0.083529
#
#
# Mechanical properties :
#
#
# Convention : Reuss Voigt Hill
#
# Bulk Modulus (GPa) = 52.48887 52.64598 52.56743
# Shear Modulus (GPa) = 149.06564 25.11631 87.09098
#
# Velocity S-wave (km/s) = 8.60421 3.53184 6.57672
# Velocity P-wave (km/s) = 11.17042 6.54050 9.15304
#
# Compressibility (1/GPa) = 0.01905166
#
# Stress axis : x y z
#
# Youngs Moduli (GPa) = 75.29691 79.99281 83.19847
#
# Poissons Ratio (x) = 0.31888 0.25804
# Poissons Ratio (y) = 0.30016 0.19027
# Poissons Ratio (z) = 0.23354 0.18294
#
# Static dielectric constant tensor:
#      x y z
#    x 3.593470 0.000000 0.061090 
#    y 0.000000 3.686620 0.000000 
#    z 0.061090 0.000000 3.988480 
# 
# 
# High freq. dielectric constant tensor:
#      x y z
#    x 1.788400 0.000000 -0.000400 
#    y 0.000000 1.798720 0.000000 
#    z -0.000400 0.000000 1.810640 
# 
# From -- ./inp_files/260416.got.cif
#   From: 2010.06.25/outbox.cif.g09.slc.cpg/sg15_131_cif.got.tgz:260416.got - 2010.06.28 07:06:18.
