data_PCOD8153494
_publ_section_title
;
Structure prediction by ZEFSAII (Michael W. Deem and Ramdas Pophale) SiO2 
 PCOD8153494
Probable space group: C 2/C
;
_chemical_formula_sum "Si O2"
_cell_formula_units_Z 40
_cell_length_a 8.855004
_cell_length_b 14.630810
_cell_length_c 12.891637
_cell_angle_alpha 90.000000
_cell_angle_beta 107.825592
_cell_angle_gamma 90.000000
_cell_volume 1590.006294
_symmetry_space_group_name_H-M "C 2/C"
_symmetry_group_IT_number 15
_symmetry_cell_setting 'monoclinic'
loop_
_space_group_symop_operation_xyz
x,y,z
-x,y,1/2-z
-x,-y,-z
x,-y,1/2+z
1/2+x,1/2+y,z
1/2-x,1/2+y,1/2-z
1/2-x,1/2-y,-z
1/2+x,1/2-y,1/2+z
loop_
_atom_site_type_symbol
_atom_site_label
_atom_site_fract_x
_atom_site_fract_y
_atom_site_fract_z
Si Si1 0.135896 0.849121 0.199584
Si Si2 0.117268 0.598428 0.453156
Si Si3 0.431941 0.266280 0.515161
Si Si4 0.816198 0.499560 0.832777
Si Si5 0.305351 0.667992 0.299844
O O1 0.060819 0.847197 0.069020
O O2 0.194719 0.746787 0.232113
O O3 0.000000 0.880050 0.250000
O O4 0.280698 0.920638 0.241302
O O5 0.213411 0.536999 0.556845
O O6 0.239470 0.642668 0.399942
O O7 0.019523 0.674851 0.495358
O O8 0.997976 0.534322 0.361793
O O9 0.250000 0.250000 0.500000
O O10 0.514499 0.299504 0.639907
O O11 0.698010 0.415528 0.781848
#
# Coordination Sequence:
#
# PCOD8153494 Si02
#       5
#     8   8   8   8   8
#     4  12  24  46  77 108 144 200 251 302 382 456
#     4  11  23  48  77 108 146 203 257 296 374 470
#     4  12  27  44  73 109 149 192 250 316 376 436
#     4  11  25  41  76 111 141 187 253 311 361 441
#     4  12  24  50  78 104 150 206 250 305 376 462
#
# _framework density 25.157133000000002
#
# number of rings (size 3 to 8) (size 9 to 14) (size 15 to 20)
#    0.000    0.400    6.000    2.400    0.000    8.000 
#    0.000    0.000    0.000    0.000    0.000    0.000 
#    0.000    0.000    0.000    0.000    0.000    0.000 
#
# Total GULP energy -248052.371135 kJ/mol
# GULP energy per Si atom -12402.618557 kJ/mol
# Density = 2.509987 g / cm^3
# Si number density = 25.157133 Si / 1000 Ang^3
#
#
#
# Elastic Constant Matrix: (Units=GPa)
#
#
# Indices 1 2 3 4 5 6 
#
# 1 69.4696 14.0003 11.8255 0.0000 18.3495 0.0000
# 2 14.0003 141.7694 50.4906 0.0000 20.7982 0.0000
# 3 11.8255 50.4906 130.8656 0.0000 43.0123 0.0000
# 4 0.0000 0.0000 0.0000 65.4001 0.0000 14.2071
# 5 18.3495 20.7982 43.0123 0.0000 28.6363 0.0000
# 6 0.0000 0.0000 0.0000 14.2071 0.0000 29.0885
#
#
#
# Elastic Compliance Matrix: (Units=1/GPa)
#
#
# Indices 1 2 3 4 5 6 
#
# 1 0.018606 -0.000806 0.004653 0.000000 -0.018325 0.000000
# 2 -0.000806 0.008295 -0.002601 0.000000 -0.001601 0.000000
# 3 0.004653 -0.002601 0.016953 0.000000 -0.026555 0.000000
# 4 0.000000 0.000000 0.000000 0.017105 0.000000 -0.008354
# 5 -0.018325 -0.001601 -0.026555 0.000000 0.087712 0.000000
# 6 0.000000 0.000000 0.000000 -0.008354 0.000000 0.038458
#
#
# Mechanical properties :
#
#
# Convention : Reuss Voigt Hill
#
# Bulk Modulus (GPa) = 21.57791 54.97082 38.27437
# Shear Modulus (GPa) = 24.98924 42.34417 33.66671
#
# Velocity S-wave (km/s) = 3.15513 4.10712 3.66219
# Velocity P-wave (km/s) = 4.67643 6.66256 5.75581
#
# Compressibility (1/GPa) = 0.04634369
#
# Stress axis : x y z
#
# Youngs Moduli (GPa) = 53.74723 120.56090 58.98756
#
# Poissons Ratio (x) = 0.09718 -0.27446
# Poissons Ratio (y) = 0.04332 0.15345
# Poissons Ratio (z) = -0.25007 0.31362
#
# Static dielectric constant tensor:
#      x y z
#    x 4.162280 0.000000 0.214300 
#    y 0.000000 4.654800 0.000000 
#    z 0.214300 0.000000 5.386190 
# 
# 
# High freq. dielectric constant tensor:
#      x y z
#    x 1.982010 0.000000 0.017290 
#    y 0.000000 2.004990 0.000000 
#    z 0.017290 0.000000 2.029100 
# 
# From -- ./inp_files/133294.got.cif
#   From: 2010.06.25/outbox.cif.g09.slc.cpg/sg15_67_cif.got.tgz:133294.got - 2010.06.28 07:06:18.
