data_PCOD8153642
_publ_section_title
;
Structure prediction by ZEFSAII (Michael W. Deem and Ramdas Pophale) SiO2 
 PCOD8153642
Probable space group: C 2/C
;
_chemical_formula_sum "Si O2"
_cell_formula_units_Z 28
_cell_length_a 5.437614
_cell_length_b 16.949629
_cell_length_c 14.775850
_cell_angle_alpha 90.000000
_cell_angle_beta 64.877140
_cell_angle_gamma 90.000000
_cell_volume 1232.994915
_symmetry_space_group_name_H-M "C 2/C"
_symmetry_group_IT_number 15
_symmetry_cell_setting 'monoclinic'
loop_
_space_group_symop_operation_xyz
x,y,z
-x,y,1/2-z
-x,-y,-z
x,-y,1/2+z
1/2+x,1/2+y,z
1/2-x,1/2+y,1/2-z
1/2-x,1/2-y,-z
1/2+x,1/2-y,1/2+z
loop_
_atom_site_type_symbol
_atom_site_label
_atom_site_fract_x
_atom_site_fract_y
_atom_site_fract_z
Si Si1 0.356457 0.185893 0.093665
Si Si2 0.522261 0.836567 0.117765
Si Si3 0.500000 0.572021 0.250000
Si Si4 0.500000 0.249662 0.250000
Si Si5 0.500000 0.972697 0.250000
O O1 0.267737 0.275320 0.086893
O O2 0.104374 0.127524 0.151774
O O3 0.532744 0.192050 0.158096
O O4 0.533883 0.152766 0.981647
O O5 0.604370 0.919629 0.149422
O O6 0.262523 0.805448 0.214151
O O7 0.744140 0.521895 0.254206
#
# Coordination Sequence:
#
# PCOD8153642 Si02
#       5
#     8   8   4   4   4
#     4  11  24  43  71 101 132 183 241 292 344 411
#     4  11  24  43  71 101 132 183 241 292 344 411
#     4  12  26  46  69 101 152 190 222 286 354 424
#     4  12  18  44  72 102 132 174 232 310 338 404
#     4  12  26  46  69 101 152 190 222 286 354 424
#
# _framework density 22.708932000000001
#
# number of rings (size 3 to 8) (size 9 to 14) (size 15 to 20)
#    0.000    0.571    5.714    2.571    0.000    2.286 
#    0.000    0.000    0.000    0.000    0.000    0.000 
#    0.000    0.000    0.000    0.000    0.000    0.000 
#
# Total GULP energy -173576.428433 kJ/mol
# GULP energy per Si atom -12398.316317 kJ/mol
# Density = 2.265725 g / cm^3
# Si number density = 22.708932 Si / 1000 Ang^3
#
#
#
# Elastic Constant Matrix: (Units=GPa)
#
#
# Indices 1 2 3 4 5 6 
#
# 1 98.9369 40.3458 8.9929 0.0000 12.6677 0.0000
# 2 40.3458 114.6311 30.0326 0.0000 8.1856 0.0000
# 3 8.9929 30.0326 134.9194 0.0000 28.5823 0.0000
# 4 0.0000 0.0000 0.0000 13.2478 0.0000 -0.3740
# 5 12.6677 8.1856 28.5823 0.0000 40.1914 0.0000
# 6 0.0000 0.0000 0.0000 -0.3740 0.0000 32.5526
#
#
#
# Elastic Compliance Matrix: (Units=1/GPa)
#
#
# Indices 1 2 3 4 5 6 
#
# 1 0.012237 -0.004286 0.000907 0.000000 -0.003629 0.000000
# 2 -0.004286 0.010773 -0.002277 0.000000 0.000776 0.000000
# 3 0.000907 -0.002277 0.009208 0.000000 -0.006370 0.000000
# 4 0.000000 0.000000 0.000000 0.075509 0.000000 0.000868
# 5 -0.003629 0.000776 -0.006370 0.000000 0.030397 0.000000
# 6 0.000000 0.000000 0.000000 0.000868 0.000000 0.030730
#
#
# Mechanical properties :
#
#
# Convention : Reuss Voigt Hill
#
# Bulk Modulus (GPa) = 47.82914 56.35890 52.09402
# Shear Modulus (GPa) = 26.71892 35.13942 30.92917
#
# Velocity S-wave (km/s) = 3.43386 3.93795 3.69451
# Velocity P-wave (km/s) = 6.06872 6.74895 6.41786
#
# Compressibility (1/GPa) = 0.02090775
#
# Stress axis : x y z
#
# Youngs Moduli (GPa) = 81.71724 92.82380 108.60476
#
# Poissons Ratio (x) = 0.39780 -0.09852
# Poissons Ratio (y) = 0.35021 0.24727
# Poissons Ratio (z) = -0.07413 0.21134
#
# Static dielectric constant tensor:
#      x y z
#    x 3.925720 0.000000 0.363820 
#    y 0.000000 4.185200 0.000000 
#    z 0.363820 0.000000 4.575610 
# 
# 
# High freq. dielectric constant tensor:
#      x y z
#    x 1.887090 0.000000 0.021790 
#    y 0.000000 1.887890 0.000000 
#    z 0.021790 0.000000 1.907320 
# 
# From -- ./inp_files/71458.got.cif
#   From: 2010.06.25/outbox.cif.g09.slc.cpg/sg15_36_cif.got.tgz:71458.got - 2010.06.28 07:06:18.
