data_PCOD8153798
_publ_section_title
;
Structure prediction by ZEFSAII (Michael W. Deem and Ramdas Pophale) SiO2 
 PCOD8153798
Probable space group: C 2/C
;
_chemical_formula_sum "Si O2"
_cell_formula_units_Z 64
_cell_length_a 14.490098
_cell_length_b 11.730341
_cell_length_c 28.631070
_cell_angle_alpha 90.000000
_cell_angle_beta 139.044835
_cell_angle_gamma 90.000000
_cell_volume 3189.856905
_symmetry_space_group_name_H-M "C 2/C"
_symmetry_group_IT_number 15
_symmetry_cell_setting 'monoclinic'
loop_
_space_group_symop_operation_xyz
x,y,z
-x,y,1/2-z
-x,-y,-z
x,-y,1/2+z
1/2+x,1/2+y,z
1/2-x,1/2+y,1/2-z
1/2-x,1/2-y,-z
1/2+x,1/2-y,1/2+z
loop_
_atom_site_type_symbol
_atom_site_label
_atom_site_fract_x
_atom_site_fract_y
_atom_site_fract_z
Si Si1 0.351008 0.371147 0.670232
Si Si2 0.349455 0.746084 0.330716
Si Si3 0.348363 0.639177 0.670674
Si Si4 0.292343 0.495312 0.948571
Si Si5 0.141906 0.722296 0.418515
Si Si6 0.152870 0.277302 0.419445
Si Si7 0.080255 0.991186 0.602057
Si Si8 0.164702 0.766878 0.168643
O O1 0.500000 0.340336 0.750000
O O2 0.320093 0.504894 0.659854
O O3 0.351958 0.330459 0.617062
O O4 0.229862 0.306187 0.651883
O O5 0.274321 0.800749 0.346737
O O6 0.497771 0.809264 0.378902
O O7 0.380468 0.612554 0.349293
O O8 0.254065 0.759418 0.249338
O O9 0.500000 0.669747 0.750000
O O10 0.344280 0.682952 0.616309
O O11 0.172043 0.402994 0.910781
O O12 0.216761 0.616668 0.915723
O O13 0.365525 0.462155 0.928438
O O14 0.410621 0.493365 0.034801
O O15 0.250000 0.750000 0.500000
O O16 0.987885 0.715938 0.380990
O O17 0.250000 0.250000 0.500000
O O18 0.156093 0.101351 0.651473
#
# Coordination Sequence:
#
# PCOD8153798 Si02
#       8
#     8   8   8   8   8   8   8   8
#     4  11  26  48  69 101 143 180 226 287 346 409
#     4  12  26  44  72 104 136 182 232 282 344 410
#     4  11  26  48  69 101 143 180 226 287 346 409
#     4  11  24  45  69  98 141 182 226 289 337 402
#     4  12  26  44  71 104 140 182 230 278 347 411
#     4  12  26  44  71 104 140 182 230 278 347 411
#     4  11  24  45  71  96 140 183 228 283 346 399
#     4  12  26  44  72 104 136 182 232 282 344 410
#
# _framework density 20.063596
#
# number of rings (size 3 to 8) (size 9 to 14) (size 15 to 20)
#    0.000    0.500    7.500    0.000    7.000    1.000 
#    0.000    3.750    0.000    0.000    0.000    0.000 
#    0.000    0.000    0.000    0.000    0.000    0.000 
#
# Total GULP energy -397008.881192 kJ/mol
# GULP energy per Si atom -12406.527537 kJ/mol
# Density = 2.001793 g / cm^3
# Si number density = 20.063596 Si / 1000 Ang^3
#
#
#
# Elastic Constant Matrix: (Units=GPa)
#
#
# Indices 1 2 3 4 5 6 
#
# 1 127.2256 34.1625 49.4906 0.0000 13.8493 0.0000
# 2 34.1625 113.8293 43.3951 0.0000 2.1673 0.0000
# 3 49.4906 43.3951 148.1992 0.0000 1.5757 0.0000
# 4 0.0000 0.0000 0.0000 36.3526 0.0000 -1.0980
# 5 13.8493 2.1673 1.5757 0.0000 38.0599 0.0000
# 6 0.0000 0.0000 0.0000 -1.0980 0.0000 37.5970
#
#
#
# Elastic Compliance Matrix: (Units=1/GPa)
#
#
# Indices 1 2 3 4 5 6 
#
# 1 0.009763 -0.001843 -0.002685 0.000000 -0.003336 0.000000
# 2 -0.001843 0.010244 -0.002386 0.000000 0.000186 0.000000
# 3 -0.002685 -0.002386 0.008335 0.000000 0.000768 0.000000
# 4 0.000000 0.000000 0.000000 0.027533 0.000000 0.000804
# 5 -0.003336 0.000186 0.000768 0.000000 0.027446 0.000000
# 6 0.000000 0.000000 0.000000 0.000804 0.000000 0.026621
#
#
# Mechanical properties :
#
#
# Convention : Reuss Voigt Hill
#
# Bulk Modulus (GPa) = 68.90150 71.48339 70.19245
# Shear Modulus (GPa) = 38.87784 39.88230 39.38007
#
# Velocity S-wave (km/s) = 4.40674 4.46331 4.43511
# Velocity P-wave (km/s) = 7.76586 7.89096 7.82866
#
# Compressibility (1/GPa) = 0.01451347
#
# Stress axis : x y z
#
# Youngs Moduli (GPa) = 102.43222 97.61503 119.97694
#
# Poissons Ratio (x) = 0.17988 0.32215
# Poissons Ratio (y) = 0.18876 0.28630
# Poissons Ratio (z) = 0.27504 0.23294
#
# Static dielectric constant tensor:
#      x y z
#    x 3.862510 0.000000 0.090100 
#    y 0.000000 3.710100 0.000000 
#    z 0.090100 0.000000 3.692060 
# 
# 
# High freq. dielectric constant tensor:
#      x y z
#    x 1.800930 0.000000 -0.000390 
#    y 0.000000 1.789880 0.000000 
#    z -0.000390 0.000000 1.791600 
# 
# From -- ./inp_files/296147.got.cif
#   From: 2010.06.25/outbox.cif.g09.slc.cpg/sg15_149_cif.got.tgz:296147.got - 2010.06.28 07:06:18.
