data_PCOD8153226
_publ_section_title
;
Structure prediction by ZEFSAII (Michael W. Deem and Ramdas Pophale) SiO2 
 PCOD8153226
Probable space group: C 2/C
;
_chemical_formula_sum "Si O2"
_cell_formula_units_Z 48
_cell_length_a 13.193976
_cell_length_b 11.430004
_cell_length_c 13.048027
_cell_angle_alpha 90.000000
_cell_angle_beta 90.220164
_cell_angle_gamma 90.000000
_cell_volume 1967.721870
_symmetry_space_group_name_H-M "C 2/C"
_symmetry_group_IT_number 15
_symmetry_cell_setting 'monoclinic'
loop_
_space_group_symop_operation_xyz
x,y,z
-x,y,1/2-z
-x,-y,-z
x,-y,1/2+z
1/2+x,1/2+y,z
1/2-x,1/2+y,1/2-z
1/2-x,1/2-y,-z
1/2+x,1/2-y,1/2+z
loop_
_atom_site_type_symbol
_atom_site_label
_atom_site_fract_x
_atom_site_fract_y
_atom_site_fract_z
Si Si1 0.840307 0.298055 0.379298
Si Si2 0.887776 0.086448 0.254359
Si Si3 0.949142 0.395725 0.120863
Si Si4 0.772089 0.230501 0.116923
Si Si5 0.553966 0.843541 0.924166
Si Si6 0.861605 0.172851 0.725836
O O1 0.834920 0.160475 0.345567
O O2 0.849500 0.310994 0.502523
O O3 0.736134 0.357371 0.344209
O O4 0.940742 0.363512 0.328389
O O5 0.826820 0.108007 0.146269
O O6 0.000000 0.138897 0.250000
O O7 0.897604 0.948739 0.275405
O O8 0.851064 0.327436 0.163407
O O9 0.927256 0.533495 0.132988
O O10 0.955795 0.356924 0.998365
O O11 0.667792 0.242742 0.179502
O O12 0.750000 0.250000 0.000000
O O13 0.549456 0.738450 0.839691
#
# Coordination Sequence:
#
# PCOD8153226 Si02
#       6
#     8   8   8   8   8   8
#     4   9  20  42  67  98 131 179 225 277 346 402
#     4  11  23  44  64  97 136 183 222 269 350 414
#     4   9  20  41  73  96 134 172 226 278 351 400
#     4  11  26  43  65  98 141 180 227 277 345 407
#     4   9  20  41  70 103 127 171 231 291 337 397
#     4  11  25  38  69 100 135 175 232 284 331 412
#
# _framework density 24.393689999999999
#
# number of rings (size 3 to 8) (size 9 to 14) (size 15 to 20)
#    1.000    1.000    1.667    0.500    7.000    2.667 
#    0.000    4.167    7.333    0.000    0.000    0.000 
#    0.000    0.000    0.000    0.000    0.000    0.000 
#
# Total GULP energy -297366.416105 kJ/mol
# GULP energy per Si atom -12390.267338 kJ/mol
# Density = 2.433817 g / cm^3
# Si number density = 24.393690 Si / 1000 Ang^3
#
#
#
# Elastic Constant Matrix: (Units=GPa)
#
#
# Indices 1 2 3 4 5 6 
#
# 1 65.0380 14.5974 7.4879 0.0000 -12.3113 0.0000
# 2 14.5974 145.9480 11.6998 0.0000 -4.3251 0.0000
# 3 7.4879 11.6998 73.9638 0.0000 14.3236 0.0000
# 4 0.0000 0.0000 0.0000 32.5582 0.0000 2.3735
# 5 -12.3113 -4.3251 14.3236 0.0000 23.9775 0.0000
# 6 0.0000 0.0000 0.0000 2.3735 0.0000 20.5500
#
#
#
# Elastic Compliance Matrix: (Units=1/GPa)
#
#
# Indices 1 2 3 4 5 6 
#
# 1 0.018261 -0.001174 -0.003887 0.000000 0.011487 0.000000
# 2 -0.001174 0.007115 -0.001287 0.000000 0.001450 0.000000
# 3 -0.003887 -0.001287 0.016452 0.000000 -0.012056 0.000000
# 4 0.000000 0.000000 0.000000 0.030975 0.000000 -0.003578
# 5 0.011487 0.001450 -0.012056 0.000000 0.055067 0.000000
# 6 0.000000 0.000000 0.000000 -0.003578 0.000000 0.049075
#
#
# Mechanical properties :
#
#
# Convention : Reuss Voigt Hill
#
# Bulk Modulus (GPa) = 34.32854 39.16891 36.74872
# Shear Modulus (GPa) = 25.08100 32.16147 28.62123
#
# Velocity S-wave (km/s) = 3.21000 3.63496 3.42907
# Velocity P-wave (km/s) = 5.27655 5.80596 5.54757
#
# Compressibility (1/GPa) = 0.02913028
#
# Stress axis : x y z
#
# Youngs Moduli (GPa) = 54.76120 140.54077 60.78252
#
# Poissons Ratio (x) = 0.16505 0.23629
# Poissons Ratio (y) = 0.06431 0.07825
# Poissons Ratio (z) = 0.21288 0.18093
#
# Static dielectric constant tensor:
#      x y z
#    x 4.427590 0.000000 0.060260 
#    y 0.000000 4.011930 0.000000 
#    z 0.060260 0.000000 4.235420 
# 
# 
# High freq. dielectric constant tensor:
#      x y z
#    x 1.972170 0.000000 0.006480 
#    y 0.000000 1.949850 0.000000 
#    z 0.006480 0.000000 1.969140 
# 
# From -- ./inp_files/152094.got.cif
#   From: 2010.06.25/outbox.cif.g09.slc.cpg/sg15_77_cif.got.tgz:152094.got - 2010.06.28 07:06:18.
