data_PCOD8153910
_publ_section_title
;
Structure prediction by ZEFSAII (Michael W. Deem and Ramdas Pophale) SiO2 
 PCOD8153910
Probable space group: C 2/C
;
_chemical_formula_sum "Si O2"
_cell_formula_units_Z 48
_cell_length_a 18.713442
_cell_length_b 8.621935
_cell_length_c 24.615964
_cell_angle_alpha 90.000000
_cell_angle_beta 148.332180
_cell_angle_gamma 90.000000
_cell_volume 2085.111917
_symmetry_space_group_name_H-M "C 2/C"
_symmetry_group_IT_number 15
_symmetry_cell_setting 'monoclinic'
loop_
_space_group_symop_operation_xyz
x,y,z
-x,y,1/2-z
-x,-y,-z
x,-y,1/2+z
1/2+x,1/2+y,z
1/2-x,1/2+y,1/2-z
1/2-x,1/2-y,-z
1/2+x,1/2-y,1/2+z
loop_
_atom_site_type_symbol
_atom_site_label
_atom_site_fract_x
_atom_site_fract_y
_atom_site_fract_z
Si Si1 0.144068 0.819366 0.816283
Si Si2 0.620080 0.951807 0.465387
Si Si3 0.355502 0.493448 0.792139
Si Si4 0.149619 0.499596 0.862051
Si Si5 0.108483 0.719490 0.615566
Si Si6 0.593202 0.287546 0.483025
O O1 0.124696 0.869208 0.742248
O O2 0.194866 0.639691 0.851014
O O3 0.000000 0.830868 0.750000
O O4 0.242567 0.935635 0.911647
O O5 0.645226 0.916688 0.418314
O O6 0.577456 0.131391 0.438575
O O7 0.511215 0.835658 0.421867
O O8 0.226581 0.594665 0.694140
O O9 0.331372 0.387124 0.829332
O O10 0.488991 0.594195 0.888555
O O11 0.000000 0.433975 0.750000
O O12 0.255409 0.358772 0.924468
O O13 0.053435 0.740972 0.518831
#
# Coordination Sequence:
#
# PCOD8153910 Si02
#       6
#     8   8   8   8   8   8
#     4  11  24  46  73 104 138 192 242 296 359 434
#     4  12  25  47  73 105 149 185 247 301 369 436
#     4  12  27  45  75 103 150 189 249 292 371 434
#     4  11  26  45  75 103 146 189 245 297 366 437
#     4  12  27  46  74 108 147 197 240 306 363 444
#     4  12  27  47  71 113 147 190 239 310 369 434
#
# _framework density 23.020347000000001
#
# number of rings (size 3 to 8) (size 9 to 14) (size 15 to 20)
#    0.000    0.333    1.667    7.000    9.333    0.667 
#    0.000    0.000    0.000    0.000    0.000    0.000 
#    0.000    0.000    0.000    0.000    0.000    0.000 
#
# Total GULP energy -297690.107796 kJ/mol
# GULP energy per Si atom -12403.754491 kJ/mol
# Density = 2.296795 g / cm^3
# Si number density = 23.020347 Si / 1000 Ang^3
#
#
#
# Elastic Constant Matrix: (Units=GPa)
#
#
# Indices 1 2 3 4 5 6 
#
# 1 46.5123 38.7373 14.2990 -0.0003 1.3708 0.0002
# 2 38.7373 106.5194 34.0303 -0.0001 -11.6564 0.0000
# 3 14.2990 34.0303 90.3357 -0.0006 -15.2455 0.0003
# 4 -0.0003 -0.0001 -0.0006 48.1115 0.0001 -1.9776
# 5 1.3708 -11.6564 -15.2455 0.0001 22.6246 0.0000
# 6 0.0002 0.0000 0.0003 -1.9776 0.0000 32.1127
#
#
#
# Elastic Compliance Matrix: (Units=1/GPa)
#
#
# Indices 1 2 3 4 5 6 
#
# 1 0.032663 -0.012242 -0.002208 0.000000 -0.009774 0.000000
# 2 -0.012242 0.015463 -0.002728 0.000000 0.006870 0.000000
# 3 -0.002208 -0.002728 0.013802 0.000000 0.008029 0.000000
# 4 0.000000 0.000000 0.000000 0.020838 0.000000 0.001283
# 5 -0.009774 0.006870 0.008029 0.000000 0.053742 0.000000
# 6 0.000000 0.000000 0.000000 0.001283 0.000000 0.031219
#
#
# Mechanical properties :
#
#
# Convention : Reuss Voigt Hill
#
# Bulk Modulus (GPa) = 36.26920 46.38897 41.32908
# Shear Modulus (GPa) = 23.66601 30.98980 27.32790
#
# Velocity S-wave (km/s) = 3.20980 3.67303 3.44920
# Velocity P-wave (km/s) = 5.43383 6.17926 5.81849
#
# Compressibility (1/GPa) = 0.02757160
#
# Stress axis : x y z
#
# Youngs Moduli (GPa) = 30.61614 64.66868 72.45394
#
# Poissons Ratio (x) = 0.79170 0.15996
# Poissons Ratio (y) = 0.37482 0.19765
# Poissons Ratio (z) = 0.06759 0.17641
#
# Static dielectric constant tensor:
#      x y z
#    x 4.231500 0.000000 -0.174620 
#    y 0.000000 4.563690 0.000000 
#    z -0.174620 0.000000 4.370390 
# 
# 
# High freq. dielectric constant tensor:
#      x y z
#    x 1.908550 0.000000 -0.008990 
#    y 0.000000 1.923820 0.000000 
#    z -0.008990 0.000000 1.926540 
# 
# From -- ./inp_files/300565.got.cif
#   From: 2010.06.25/outbox.cif.g09.slc.cpg/sg15_151_cif.got.tgz:300565.got - 2010.06.28 07:06:18.
