data_PCOD8153173
_publ_section_title
;
Structure prediction by ZEFSAII (Michael W. Deem and Ramdas Pophale) SiO2 
 PCOD8153173
Probable space group: C 2/C
;
_chemical_formula_sum "Si O2"
_cell_formula_units_Z 60
_cell_length_a 21.416348
_cell_length_b 21.225818
_cell_length_c 8.906350
_cell_angle_alpha 90.000000
_cell_angle_beta 138.841675
_cell_angle_gamma 90.000000
_cell_volume 2664.582793
_symmetry_space_group_name_H-M "C 2/C"
_symmetry_group_IT_number 15
_symmetry_cell_setting 'monoclinic'
loop_
_space_group_symop_operation_xyz
x,y,z
-x,y,1/2-z
-x,-y,-z
x,-y,1/2+z
1/2+x,1/2+y,z
1/2-x,1/2+y,1/2-z
1/2-x,1/2-y,-z
1/2+x,1/2-y,1/2+z
loop_
_atom_site_type_symbol
_atom_site_label
_atom_site_fract_x
_atom_site_fract_y
_atom_site_fract_z
Si Si1 0.389762 0.011353 0.280534
Si Si2 0.614127 0.846818 0.692560
Si Si3 0.806496 0.144993 0.679194
Si Si4 0.862473 0.788287 0.828812
Si Si5 0.739250 0.021176 0.716760
Si Si6 0.850176 0.252396 0.982418
Si Si7 0.606870 0.411933 0.455365
Si Si8 0.500000 0.202834 0.250000
O O1 0.370001 0.080183 0.315193
O O2 0.500000 0.000000 0.500000
O O3 0.314400 0.964668 0.224586
O O4 0.355090 0.002912 0.048617
O O5 0.593907 0.809261 0.500756
O O6 0.530196 0.840221 0.663182
O O7 0.712022 0.821942 0.942944
O O8 0.786583 0.083835 0.742840
O O9 0.856400 0.194657 0.877925
O O10 0.873615 0.124987 0.664103
O O11 0.898593 0.768902 0.726822
O O12 0.752390 0.776892 0.656553
O O13 0.885897 0.861936 0.895466
O O14 0.913602 0.746548 0.046092
O O15 0.819897 0.968115 0.879677
O O16 0.500000 0.439544 0.250000
#
# Coordination Sequence:
#
# PCOD8153173 Si02
#       8
#     8   8   8   8   8   8   8   4
#     4  11  25  45  73 104 142 180 229 289 359 424
#     4  11  23  44  68  98 143 183 223 287 363 422
#     4  11  23  44  71  95 137 186 222 298 354 416
#     4  11  24  41  69 103 132 185 235 297 346 429
#     4  11  24  46  69 104 136 184 235 285 347 424
#     4  11  23  43  70  98 135 179 239 288 360 411
#     4  12  25  47  72  96 140 193 239 287 360 416
#     4  12  24  42  66 102 142 180 232 280 366 434
#
# _framework density 22.517596999999999
#
# number of rings (size 3 to 8) (size 9 to 14) (size 15 to 20)
#    0.000    0.800    6.000    1.600    5.600    1.067 
#    7.200    0.000    0.000    0.000    0.000    0.000 
#    0.000    0.000    0.000    0.000    0.000    0.000 
#
# Total GULP energy -371877.206693 kJ/mol
# GULP energy per Si atom -12395.906890 kJ/mol
# Density = 2.246635 g / cm^3
# Si number density = 22.517597 Si / 1000 Ang^3
#
#
#
# Elastic Constant Matrix: (Units=GPa)
#
#
# Indices 1 2 3 4 5 6 
#
# 1 107.8447 33.1792 11.7861 0.0000 -3.1797 0.0000
# 2 33.1792 65.7749 40.1664 0.0000 -11.5058 0.0000
# 3 11.7861 40.1664 69.7631 0.0000 9.9925 0.0000
# 4 0.0000 0.0000 0.0000 36.4876 0.0000 -11.1020
# 5 -3.1797 -11.5058 9.9925 0.0000 43.8975 0.0000
# 6 0.0000 0.0000 0.0000 -11.1020 0.0000 38.3608
#
#
#
# Elastic Compliance Matrix: (Units=1/GPa)
#
#
# Indices 1 2 3 4 5 6 
#
# 1 0.011291 -0.007736 0.002811 0.000000 -0.001850 0.000000
# 2 -0.007736 0.033363 -0.019717 0.000000 0.012672 0.000000
# 3 0.002811 -0.019717 0.026796 0.000000 -0.011064 0.000000
# 4 0.000000 0.000000 0.000000 0.030053 0.000000 0.008698
# 5 -0.001850 0.012672 -0.011064 0.000000 0.028486 0.000000
# 6 0.000000 0.000000 0.000000 0.008698 0.000000 0.028585
#
#
# Mechanical properties :
#
#
# Convention : Reuss Voigt Hill
#
# Bulk Modulus (GPa) = 45.11246 45.96068 45.53657
# Shear Modulus (GPa) = 23.22917 34.29923 28.76420
#
# Velocity S-wave (km/s) = 3.21534 3.90708 3.57796
# Velocity P-wave (km/s) = 5.81914 6.38819 6.11029
#
# Compressibility (1/GPa) = 0.02216682
#
# Stress axis : x y z
#
# Youngs Moduli (GPa) = 88.56764 29.97346 37.31883
#
# Poissons Ratio (x) = 0.23187 -0.10492
# Poissons Ratio (y) = 0.68515 0.73581
# Poissons Ratio (z) = -0.24900 0.59099
#
# Static dielectric constant tensor:
#      x y z
#    x 4.211410 0.000000 -0.169220 
#    y 0.000000 3.968640 0.000000 
#    z -0.169220 0.000000 4.193120 
# 
# 
# High freq. dielectric constant tensor:
#      x y z
#    x 1.902630 0.000000 -0.006350 
#    y 0.000000 1.881270 0.000000 
#    z -0.006350 0.000000 1.884510 
# 
# From -- ./inp_files/63528.got.cif
#   From: 2010.06.25/outbox.cif.g09.slc.cpg/sg15_32_cif.got.tgz:63528.got - 2010.06.28 07:06:18.
