data_PCOD8153912
_publ_section_title
;
Structure prediction by ZEFSAII (Michael W. Deem and Ramdas Pophale) SiO2 
 PCOD8153912
Probable space group: C 2/C
;
_chemical_formula_sum "Si O2"
_cell_formula_units_Z 60
_cell_length_a 11.746016
_cell_length_b 29.226300
_cell_length_c 16.678879
_cell_angle_alpha 90.000000
_cell_angle_beta 151.463282
_cell_angle_gamma 90.000000
_cell_volume 2735.308981
_symmetry_space_group_name_H-M "C 2/C"
_symmetry_group_IT_number 15
_symmetry_cell_setting 'monoclinic'
loop_
_space_group_symop_operation_xyz
x,y,z
-x,y,1/2-z
-x,-y,-z
x,-y,1/2+z
1/2+x,1/2+y,z
1/2-x,1/2+y,1/2-z
1/2-x,1/2-y,-z
1/2+x,1/2-y,1/2+z
loop_
_atom_site_type_symbol
_atom_site_label
_atom_site_fract_x
_atom_site_fract_y
_atom_site_fract_z
Si Si1 0.656117 0.663306 0.683008
Si Si2 0.653989 0.366770 0.009991
Si Si3 0.162811 0.300098 0.927975
Si Si4 0.656085 0.038537 0.925219
Si Si5 0.339549 0.844178 0.861380
Si Si6 0.500000 0.520391 0.750000
Si Si7 0.886844 0.705300 0.553039
Si Si8 0.389695 0.918949 0.405158
O O1 0.656720 0.631352 0.606350
O O2 0.393824 0.671033 0.550610
O O3 0.781475 0.631628 0.825736
O O4 0.820695 0.709629 0.773087
O O5 0.410416 0.342404 0.836639
O O6 0.688973 0.418122 0.003265
O O7 0.861387 0.335512 0.101343
O O8 0.000000 0.300166 0.750000
O O9 0.038459 0.322091 0.927584
O O10 0.250000 0.250000 0.000000
O O11 0.500000 0.020150 0.750000
O O12 0.465408 0.051513 0.875379
O O13 0.859635 0.005980 0.091091
O O14 0.290614 0.811797 0.908114
O O15 0.383460 0.899280 0.904563
O O16 0.292442 0.550664 0.658794
O O17 0.750000 0.750000 0.500000
#
# Coordination Sequence:
#
# PCOD8153912 Si02
#       8
#     8   8   8   8   8   4   8   8
#     4  11  24  46  73  94 146 190 231 302 356 431
#     4  12  22  44  68 105 139 184 230 299 362 426
#     4  12  29  46  63  98 139 191 252 297 352 424
#     4  12  24  47  74 110 146 183 234 306 382 435
#     4  11  25  44  73  97 143 191 239 298 360 429
#     4  12  28  46  76 104 148 190 248 300 364 462
#     4  11  26  40  70 107 141 182 240 293 363 431
#     4  11  24  49  70 105 140 188 236 293 373 441
#
# _framework density 21.935364
#
# number of rings (size 3 to 8) (size 9 to 14) (size 15 to 20)
#    0.000    0.533    5.333    2.800    7.467    1.600 
#    2.400    0.000    0.000    0.000    0.000    0.000 
#    0.000    0.000    0.000    0.000    0.000    0.000 
#
# Total GULP energy -371655.823062 kJ/mol
# GULP energy per Si atom -12388.527435 kJ/mol
# Density = 2.188544 g / cm^3
# Si number density = 21.935364 Si / 1000 Ang^3
#
#
#
# Elastic Constant Matrix: (Units=GPa)
#
#
# Indices 1 2 3 4 5 6 
#
# 1 116.4646 44.7087 21.8083 0.0000 7.5866 -0.0001
# 2 44.7087 93.8640 24.4542 -0.0001 -0.4409 0.0000
# 3 21.8083 24.4542 94.5420 -0.0007 6.0397 0.0007
# 4 0.0000 -0.0001 -0.0007 31.9296 -0.0001 9.1243
# 5 7.5866 -0.4409 6.0397 -0.0001 37.2207 -0.0001
# 6 -0.0001 0.0000 0.0007 9.1243 -0.0001 35.9194
#
#
#
# Elastic Compliance Matrix: (Units=1/GPa)
#
#
# Indices 1 2 3 4 5 6 
#
# 1 0.010795 -0.004865 -0.001099 0.000000 -0.002080 0.000000
# 2 -0.004865 0.013631 -0.002503 0.000000 0.001559 0.000000
# 3 -0.001099 -0.002503 0.011586 0.000000 -0.001686 0.000000
# 4 0.000000 0.000000 0.000000 0.033770 0.000000 -0.008578
# 5 -0.002080 0.001559 -0.001686 0.000000 0.027583 0.000000
# 6 0.000000 0.000000 0.000000 -0.008578 0.000000 0.030019
#
#
# Mechanical properties :
#
#
# Convention : Reuss Voigt Hill
#
# Bulk Modulus (GPa) = 52.41833 54.09033 53.25433
# Shear Modulus (GPa) = 33.18345 35.27389 34.22867
#
# Velocity S-wave (km/s) = 3.89367 4.01444 3.95452
# Velocity P-wave (km/s) = 6.64551 6.79707 6.72172
#
# Compressibility (1/GPa) = 0.01907730
#
# Stress axis : x y z
#
# Youngs Moduli (GPa) = 92.63297 73.36433 86.31187
#
# Poissons Ratio (x) = 0.35695 0.09484
# Poissons Ratio (y) = 0.45070 0.21604
# Poissons Ratio (z) = 0.10179 0.18363
#
# Static dielectric constant tensor:
#      x y z
#    x 4.358960 0.000000 0.927240 
#    y 0.000000 3.820780 0.000000 
#    z 0.927240 0.000000 7.943490 
# 
# 
# High freq. dielectric constant tensor:
#      x y z
#    x 1.879980 0.000000 0.001750 
#    y 0.000000 1.844830 0.000000 
#    z 0.001750 0.000000 1.887160 
# 
# From -- ./inp_files/201288.got.cif
#   From: 2010.06.25/outbox.cif.g09.slc.cpg/sg15_101_cif.got.tgz:201288.got - 2010.06.28 07:06:18.
