data_PCOD8153146
_publ_section_title
;
Structure prediction by ZEFSAII (Michael W. Deem and Ramdas Pophale) SiO2 
 PCOD8153146
Probable space group: C 2/C
;
_chemical_formula_sum "Si O2"
_cell_formula_units_Z 48
_cell_length_a 17.870262
_cell_length_b 13.569443
_cell_length_c 17.928944
_cell_angle_alpha 90.000000
_cell_angle_beta 148.409176
_cell_angle_gamma 90.000000
_cell_volume 2277.477947
_symmetry_space_group_name_H-M "C 2/C"
_symmetry_group_IT_number 15
_symmetry_cell_setting 'monoclinic'
loop_
_space_group_symop_operation_xyz
x,y,z
-x,y,1/2-z
-x,-y,-z
x,-y,1/2+z
1/2+x,1/2+y,z
1/2-x,1/2+y,1/2-z
1/2-x,1/2-y,-z
1/2+x,1/2-y,1/2+z
loop_
_atom_site_type_symbol
_atom_site_label
_atom_site_fract_x
_atom_site_fract_y
_atom_site_fract_z
Si Si1 0.213157 0.962893 0.559434
Si Si2 0.074955 0.337308 0.670791
Si Si3 0.922196 0.662255 0.501987
Si Si4 0.312429 0.965993 0.478782
Si Si5 0.408519 0.611190 0.824905
Si Si6 0.762820 0.657057 0.677373
O O1 0.286528 0.875070 0.667841
O O2 0.228059 0.954835 0.483791
O O3 0.047445 0.957340 0.440332
O O4 0.285205 0.067908 0.639294
O O5 0.089292 0.364445 0.595394
O O6 0.057443 0.221966 0.672138
O O7 0.939049 0.388287 0.591094
O O8 0.876690 0.573396 0.516785
O O9 0.814289 0.751536 0.428928
O O10 0.085999 0.691875 0.659599
O O11 0.206874 0.940496 0.323648
O O12 0.344733 0.614151 0.852854
#
# Coordination Sequence:
#
# PCOD8153146 Si02
#       6
#     8   8   8   8   8   8
#     4  12  26  41  67  99 135 171 215 266 329 389
#     4  11  23  43  68  95 128 175 218 268 321 384
#     4  11  25  44  71  95 127 172 223 273 321 378
#     4  12  24  44  66  96 136 174 210 269 331 388
#     4  11  25  42  67  97 132 171 219 266 320 387
#     4  11  25  45  69  97 126 172 224 273 318 380
#
# _framework density 21.075945999999998
#
# number of rings (size 3 to 8) (size 9 to 14) (size 15 to 20)
#    0.000    0.667    3.333    4.000    9.333    4.667 
#    0.000    0.000    0.000    0.000    0.000    0.000 
#    0.000    0.000    0.000    0.000    0.000    0.000 
#
# Total GULP energy -297715.091255 kJ/mol
# GULP energy per Si atom -12404.795469 kJ/mol
# Density = 2.102798 g / cm^3
# Si number density = 21.075946 Si / 1000 Ang^3
#
#
#
# Elastic Constant Matrix: (Units=GPa)
#
#
# Indices 1 2 3 4 5 6 
#
# 1 39.4901 16.6115 24.1090 -0.0006 5.9956 0.0000
# 2 16.6115 96.2306 4.7375 -0.0005 7.3626 -0.0002
# 3 24.1090 4.7375 62.4129 -0.0008 53.3823 -0.0005
# 4 -0.0006 -0.0005 -0.0008 37.9157 -0.0005 10.3433
# 5 5.9956 7.3626 53.3823 -0.0005 9.1650 0.0001
# 6 0.0000 -0.0002 -0.0005 10.3433 0.0001 30.3742
#
#
#
# Elastic Compliance Matrix: (Units=1/GPa)
#
#
# Indices 1 2 3 4 5 6 
#
# 1 0.029277 -0.004096 -0.000645 0.000000 -0.012105 0.000000
# 2 -0.004096 0.010971 -0.001506 0.000000 0.002637 0.000000
# 3 -0.000645 -0.001506 -0.003765 0.000000 0.023559 0.000000
# 4 0.000000 0.000000 0.000000 0.029075 0.000000 -0.009901
# 5 -0.012105 0.002637 0.023559 0.000000 -0.022312 0.000001
# 6 0.000000 0.000000 0.000000 -0.009901 0.000001 0.036294
#
#
# Mechanical properties :
#
#
# Convention : Reuss Voigt Hill
#
# Bulk Modulus (GPa) = 41.68412 32.11662 36.90037
# Shear Modulus (GPa) = 49.98394 25.66934 37.82664
#
# Velocity S-wave (km/s) = 4.87520 3.49369 4.24108
# Velocity P-wave (km/s) = 7.17712 5.61659 6.44427
#
# Compressibility (1/GPa) = 0.02398995
#
# Stress axis : x y z
#
# Youngs Moduli (GPa) = 34.15598 91.14806 -265.62842
#
# Poissons Ratio (x) = 0.37334 -0.17137
# Poissons Ratio (y) = 0.13990 -0.39999
# Poissons Ratio (z) = 0.02204 0.13725
#
# Static dielectric constant tensor:
#      x y z
#    x 3.678660 0.000000 0.079630 
#    y 0.000000 4.085700 0.000000 
#    z 0.079630 0.000000 3.830080 
# 
# 
# High freq. dielectric constant tensor:
#      x y z
#    x 1.819080 0.000000 0.006370 
#    y 0.000000 1.832360 0.000000 
#    z 0.006370 0.000000 1.843500 
# 
# From -- ./inp_files/47460.got.cif
#   From: 2010.06.25/outbox.cif.g09.slc.cpg/sg15_24_cif.got.tgz:47460.got - 2010.06.28 07:06:18.
