data_PCOD8153996
_publ_section_title
;
Structure prediction by ZEFSAII (Michael W. Deem and Ramdas Pophale) SiO2 
 PCOD8153996
Probable space group: C 2/C
;
_chemical_formula_sum "Si O2"
_cell_formula_units_Z 40
_cell_length_a 13.033038
_cell_length_b 5.552709
_cell_length_c 23.190273
_cell_angle_alpha 90.000000
_cell_angle_beta 67.750339
_cell_angle_gamma 90.000000
_cell_volume 1553.291327
_symmetry_space_group_name_H-M "C 2/C"
_symmetry_group_IT_number 15
_symmetry_cell_setting 'monoclinic'
loop_
_space_group_symop_operation_xyz
x,y,z
-x,y,1/2-z
-x,-y,-z
x,-y,1/2+z
1/2+x,1/2+y,z
1/2-x,1/2+y,1/2-z
1/2-x,1/2-y,-z
1/2+x,1/2-y,1/2+z
loop_
_atom_site_type_symbol
_atom_site_label
_atom_site_fract_x
_atom_site_fract_y
_atom_site_fract_z
Si Si1 0.950612 0.241962 0.133824
Si Si2 0.619769 0.393035 0.967235
Si Si3 0.854640 0.476665 0.939556
Si Si4 0.564601 0.640563 0.682158
Si Si5 0.238728 0.510727 0.286526
O O1 0.864554 0.146141 0.104264
O O2 0.891342 0.490019 0.167092
O O3 0.069156 0.287177 0.077474
O O4 0.970791 0.047173 0.179353
O O5 0.725738 0.557138 0.962141
O O6 0.500000 0.500000 0.000000
O O7 0.626481 0.150963 0.003398
O O8 0.894129 0.318675 0.876293
O O9 0.500000 0.769016 0.750000
O O10 0.672531 0.490154 0.680342
O O11 0.246193 0.757736 0.250840
#
# Coordination Sequence:
#
# PCOD8153996 Si02
#       5
#     8   8   8   8   8
#     4  12  26  45  75 107 148 201 247 323 373 460
#     4  11  24  48  71 105 146 197 252 318 382 449
#     4  11  26  45  73 105 148 191 257 309 378 460
#     4  12  25  46  73 110 146 197 250 309 383 458
#     4  12  28  50  77 111 158 206 253 315 388 458
#
# _framework density 25.751771999999999
#
# number of rings (size 3 to 8) (size 9 to 14) (size 15 to 20)
#    0.000    0.400    6.000    1.800    2.800    3.200 
#    0.000    0.000    0.000    0.000    0.000    0.000 
#    0.000    0.000    0.000    0.000    0.000    0.000 
#
# Total GULP energy -247838.202407 kJ/mol
# GULP energy per Si atom -12391.910120 kJ/mol
# Density = 2.569316 g / cm^3
# Si number density = 25.751772 Si / 1000 Ang^3
#
#
#
# Elastic Constant Matrix: (Units=GPa)
#
#
# Indices 1 2 3 4 5 6 
#
# 1 169.7782 29.8043 38.0126 0.0000 3.4116 -0.0001
# 2 29.8043 46.9429 -5.0474 -0.0006 8.4597 0.0002
# 3 38.0126 -5.0474 76.2644 0.0004 16.3983 0.0003
# 4 0.0000 -0.0006 0.0004 32.7658 0.0002 -13.3310
# 5 3.4116 8.4597 16.3983 0.0002 54.3662 0.0002
# 6 -0.0001 0.0002 0.0003 -13.3310 0.0002 40.3845
#
#
#
# Elastic Compliance Matrix: (Units=1/GPa)
#
#
# Indices 1 2 3 4 5 6 
#
# 1 0.007951 -0.005893 -0.004751 0.000000 0.001851 0.000000
# 2 -0.005893 0.026680 0.005899 0.000000 -0.005561 0.000000
# 3 -0.004751 0.005899 0.017114 0.000000 -0.005782 0.000000
# 4 0.000000 0.000000 0.000000 0.035254 0.000000 0.011638
# 5 0.001851 -0.005561 -0.005782 0.000000 0.020887 0.000000
# 6 0.000000 0.000000 0.000000 0.011638 0.000000 0.028604
#
#
# Mechanical properties :
#
#
# Convention : Reuss Voigt Hill
#
# Bulk Modulus (GPa) = 23.66593 46.50273 35.08433
# Shear Modulus (GPa) = 31.23732 40.85103 36.04417
#
# Velocity S-wave (km/s) = 3.48662 3.98721 3.74529
# Velocity P-wave (km/s) = 5.04169 6.26852 5.68828
#
# Compressibility (1/GPa) = 0.04225485
#
# Stress axis : x y z
#
# Youngs Moduli (GPa) = 125.77030 37.48114 58.43210
#
# Poissons Ratio (x) = 0.22086 0.27761
# Poissons Ratio (y) = 0.74111 -0.34466
# Poissons Ratio (z) = 0.59754 -0.22108
#
# Static dielectric constant tensor:
#      x y z
#    x 5.358430 0.000000 -0.555470 
#    y 0.000000 4.079910 0.000010 
#    z -0.555470 0.000010 3.588080 
# 
# 
# High freq. dielectric constant tensor:
#      x y z
#    x 2.072780 0.000000 -0.004340 
#    y 0.000000 1.990730 0.000000 
#    z -0.004340 0.000000 2.045800 
# 
# From -- ./inp_files/290517.got.cif
#   From: 2010.06.25/outbox.cif.g09.slc.cpg/sg15_146_cif.got.tgz:290517.got - 2010.06.28 07:06:18.
