data_PCOD8153149
_publ_section_title
;
Structure prediction by ZEFSAII (Michael W. Deem and Ramdas Pophale) SiO2 
 PCOD8153149
Probable space group: C 2/C
;
_chemical_formula_sum "Si O2"
_cell_formula_units_Z 64
_cell_length_a 27.205229
_cell_length_b 16.781298
_cell_length_c 21.580016
_cell_angle_alpha 90.000000
_cell_angle_beta 18.263457
_cell_angle_gamma 90.000000
_cell_volume 3087.524914
_symmetry_space_group_name_H-M "C 2/C"
_symmetry_group_IT_number 15
_symmetry_cell_setting 'monoclinic'
loop_
_space_group_symop_operation_xyz
x,y,z
-x,y,1/2-z
-x,-y,-z
x,-y,1/2+z
1/2+x,1/2+y,z
1/2-x,1/2+y,1/2-z
1/2-x,1/2-y,-z
1/2+x,1/2-y,1/2+z
loop_
_atom_site_type_symbol
_atom_site_label
_atom_site_fract_x
_atom_site_fract_y
_atom_site_fract_z
Si Si1 0.190291 0.936503 0.378063
Si Si2 0.331241 0.852259 0.065282
Si Si3 0.826591 0.041867 0.984766
Si Si4 0.989169 0.504697 0.692532
Si Si5 0.547835 0.824825 0.445364
Si Si6 0.177246 0.781843 0.024219
Si Si7 0.320378 0.069036 0.144718
Si Si8 0.997948 0.857195 0.517338
O O1 0.296117 0.861855 0.273707
O O2 0.024595 0.901171 0.551772
O O3 0.157560 0.003170 0.467166
O O4 0.297654 0.978430 0.195617
O O5 0.430254 0.822635 0.006426
O O6 0.155592 0.880788 0.291412
O O7 0.427506 0.918411 0.912144
O O8 0.298543 0.776953 0.061202
O O9 0.695859 0.995469 0.101533
O O10 0.757856 0.131370 0.072680
O O11 0.000000 0.034762 0.750000
O O12 0.076702 0.566219 0.541334
O O13 0.000000 0.535578 0.750000
O O14 0.401051 0.878762 0.601512
O O15 0.521124 0.736936 0.450543
O O16 0.000000 0.797437 0.250000
O O17 0.250000 0.750000 0.000000
O O18 0.150909 0.107021 0.337983
#
# Coordination Sequence:
#
# PCOD8153149 Si02
#       8
#     8   8   8   8   8   8   8   8
#     4  11  23  43  68  98 135 174 227 289 337 400
#     4  11  24  41  64 100 139 181 222 269 338 412
#     4  11  26  43  69  97 135 185 224 275 338 409
#     4  12  25  43  66  93 136 180 222 278 340 410
#     4  11  23  44  66  97 133 180 222 283 345 400
#     4  11  25  42  61  96 144 188 220 261 326 422
#     4  12  23  42  68  99 134 170 230 281 346 395
#     4  11  26  39  68 101 133 173 223 290 337 402
#
# _framework density 20.728577999999999
#
# number of rings (size 3 to 8) (size 9 to 14) (size 15 to 20)
#    0.000    0.750    3.750    4.875    8.750    1.000 
#    0.000    0.000    0.000    4.500    0.000    0.000 
#    0.000    0.000    0.000    0.000    0.000    0.000 
#
# Total GULP energy -396757.302772 kJ/mol
# GULP energy per Si atom -12398.665712 kJ/mol
# Density = 2.068140 g / cm^3
# Si number density = 20.728578 Si / 1000 Ang^3
#
#
#
# Elastic Constant Matrix: (Units=GPa)
#
#
# Indices 1 2 3 4 5 6 
#
# 1 163.1941 61.0679 51.7129 -0.0091 -11.5386 0.0029
# 2 61.0679 99.4302 26.7348 0.0039 -2.0948 0.0000
# 3 51.7129 26.7348 100.5376 0.0048 -15.4902 0.0006
# 4 -0.0091 0.0039 0.0048 41.2433 0.0105 -4.8575
# 5 -11.5386 -2.0948 -15.4902 0.0105 45.2836 -0.0015
# 6 0.0029 0.0000 0.0006 -4.8575 -0.0015 44.9685
#
#
#
# Elastic Compliance Matrix: (Units=1/GPa)
#
#
# Indices 1 2 3 4 5 6 
#
# 1 0.008941 -0.004603 -0.003226 0.000002 0.000962 0.000000
# 2 -0.004603 0.013213 -0.001301 -0.000002 -0.001007 0.000000
# 3 -0.003226 -0.001301 0.012474 -0.000003 0.003385 0.000000
# 4 0.000002 -0.000002 -0.000003 0.024559 -0.000006 0.002653
# 5 0.000962 -0.001007 0.003385 -0.000006 0.023439 0.000000
# 6 0.000000 0.000000 0.000000 0.002653 0.000000 0.022524
#
#
# Mechanical properties :
#
#
# Convention : Reuss Voigt Hill
#
# Bulk Modulus (GPa) = 61.10311 71.35479 66.22895
# Shear Modulus (GPa) = 38.79981 41.20884 40.00433
#
# Velocity S-wave (km/s) = 4.33113 4.46356 4.39784
# Velocity P-wave (km/s) = 7.38602 7.81426 7.60315
#
# Compressibility (1/GPa) = 0.01636578
#
# Stress axis : x y z
#
# Youngs Moduli (GPa) = 111.84852 75.68197 80.16984
#
# Poissons Ratio (x) = 0.34839 0.25867
# Poissons Ratio (y) = 0.51488 0.10430
# Poissons Ratio (z) = 0.36088 0.09846
#
# Static dielectric constant tensor:
#      x y z
#    x 3.894880 -0.000020 -0.201290 
#    y -0.000020 4.345940 -0.000010 
#    z -0.201290 -0.000010 3.766500 
# 
# 
# High freq. dielectric constant tensor:
#      x y z
#    x 1.816710 0.000000 -0.024320 
#    y 0.000000 1.808760 0.000000 
#    z -0.024320 0.000000 1.811180 
# 
# From -- ./inp_files/258048.got.cif
#   From: 2010.06.25/outbox.cif.g09.slc.cpg/sg15_130_cif.got.tgz:258048.got - 2010.06.28 07:06:18.
