data_PCOD8153175
_publ_section_title
;
Structure prediction by ZEFSAII (Michael W. Deem and Ramdas Pophale) SiO2 
 PCOD8153175
Probable space group: C 2/C
;
_chemical_formula_sum "Si O2"
_cell_formula_units_Z 16
_cell_length_a 12.145193
_cell_length_b 7.317797
_cell_length_c 8.478555
_cell_angle_alpha 90.000000
_cell_angle_beta 48.890874
_cell_angle_gamma 90.000000
_cell_volume 567.761656
_symmetry_space_group_name_H-M "C 2/C"
_symmetry_group_IT_number 15
_symmetry_cell_setting 'monoclinic'
loop_
_space_group_symop_operation_xyz
x,y,z
-x,y,1/2-z
-x,-y,-z
x,-y,1/2+z
1/2+x,1/2+y,z
1/2-x,1/2+y,1/2-z
1/2-x,1/2-y,-z
1/2+x,1/2-y,1/2+z
loop_
_atom_site_type_symbol
_atom_site_label
_atom_site_fract_x
_atom_site_fract_y
_atom_site_fract_z
Si Si1 0.307355 0.622574 0.084074
Si Si2 0.426427 0.761218 0.472900
O O1 0.339071 0.418169 0.992046
O O2 0.187055 0.601574 0.336943
O O3 0.250000 0.750000 0.000000
O O4 0.456780 0.707853 0.005786
O O5 0.500000 0.856609 0.250000
#
# Coordination Sequence:
#
# PCOD8153175 Si02
#       2
#     8   8
#     4  11  23  43  71 102 137 178 227 280 335 402
#     4  11  24  44  69 100 138 178 225 280 336 400
#
# _framework density 28.180841000000001
#
# number of rings (size 3 to 8) (size 9 to 14) (size 15 to 20)
#    0.000    1.000    0.000    9.000    0.000    2.000 
#    0.000    7.500    0.000    0.000    0.000    0.000 
#    0.000    0.000    0.000    0.000    0.000    0.000 
#
# Total GULP energy -99268.223251 kJ/mol
# GULP energy per Si atom -12408.527906 kJ/mol
# Density = 2.811670 g / cm^3
# Si number density = 28.180841 Si / 1000 Ang^3
#
#
#
# Elastic Constant Matrix: (Units=GPa)
#
#
# Indices 1 2 3 4 5 6 
#
# 1 66.5578 27.5225 39.8405 0.0000 12.8952 0.0000
# 2 27.5225 60.7932 33.3481 0.0000 12.5289 0.0000
# 3 39.8405 33.3481 190.9336 0.0000 -16.0146 0.0000
# 4 0.0000 0.0000 0.0000 36.3882 0.0000 9.3546
# 5 12.8952 12.5289 -16.0146 0.0000 44.9635 0.0000
# 6 0.0000 0.0000 0.0000 9.3546 0.0000 35.0442
#
#
#
# Elastic Compliance Matrix: (Units=1/GPa)
#
#
# Indices 1 2 3 4 5 6 
#
# 1 0.020943 -0.006276 -0.003743 0.000000 -0.005591 0.000000
# 2 -0.006276 0.022049 -0.002995 0.000000 -0.005411 0.000000
# 3 -0.003743 -0.002995 0.006908 0.000000 0.004368 0.000000
# 4 0.000000 0.000000 0.000000 0.029506 0.000000 -0.007876
# 5 -0.005591 -0.005411 0.004368 0.000000 0.026907 0.000000
# 6 0.000000 0.000000 0.000000 -0.007876 0.000000 0.030638
#
#
# Mechanical properties :
#
#
# Convention : Reuss Voigt Hill
#
# Bulk Modulus (GPa) = 41.89090 57.74518 49.81804
# Shear Modulus (GPa) = 29.25056 37.78410 33.51733
#
# Velocity S-wave (km/s) = 3.22523 3.66563 3.45246
# Velocity P-wave (km/s) = 5.36347 6.20090 5.79733
#
# Compressibility (1/GPa) = 0.02387153
#
# Stress axis : x y z
#
# Youngs Moduli (GPa) = 47.74776 45.35418 144.76111
#
# Poissons Ratio (x) = 0.28465 0.54181
# Poissons Ratio (y) = 0.29968 0.43359
# Poissons Ratio (z) = 0.17871 0.13584
#
# Static dielectric constant tensor:
#      x y z
#    x 5.339500 0.000000 -0.382720 
#    y 0.000000 4.952660 0.000000 
#    z -0.382720 0.000000 5.615610 
# 
# 
# High freq. dielectric constant tensor:
#      x y z
#    x 2.168740 0.000000 -0.010430 
#    y 0.000000 2.115690 0.000000 
#    z -0.010430 0.000000 2.156640 
# 
# From -- ./inp_files/26407.got.cif
#   From: 2010.06.25/outbox.cif.g09.slc.cpg/sg15_14_cif.got.tgz:26407.got - 2010.06.28 07:06:18.
