data_PCOD8153937
_publ_section_title
;
Structure prediction by ZEFSAII (Michael W. Deem and Ramdas Pophale) SiO2 
 PCOD8153937
Probable space group: C 2/C
;
_chemical_formula_sum "Si O2"
_cell_formula_units_Z 52
_cell_length_a 16.374275
_cell_length_b 15.540843
_cell_length_c 13.573004
_cell_angle_alpha 90.000000
_cell_angle_beta 133.078459
_cell_angle_gamma 90.000000
_cell_volume 2522.811238
_symmetry_space_group_name_H-M "C 2/C"
_symmetry_group_IT_number 15
_symmetry_cell_setting 'monoclinic'
loop_
_space_group_symop_operation_xyz
x,y,z
-x,y,1/2-z
-x,-y,-z
x,-y,1/2+z
1/2+x,1/2+y,z
1/2-x,1/2+y,1/2-z
1/2-x,1/2-y,-z
1/2+x,1/2-y,1/2+z
loop_
_atom_site_type_symbol
_atom_site_label
_atom_site_fract_x
_atom_site_fract_y
_atom_site_fract_z
Si Si1 0.000000 0.670049 0.250000
Si Si2 0.691132 0.968211 0.901949
Si Si3 0.536135 0.689375 0.618052
Si Si4 0.333636 0.597492 0.349219
Si Si5 0.111455 0.973231 0.281970
Si Si6 0.211003 0.734518 0.124283
Si Si7 0.375624 0.154968 0.642752
O O1 0.111238 0.613146 0.353398
O O2 0.004436 0.727476 0.155647
O O3 0.754973 0.961574 0.851169
O O4 0.616188 0.053231 0.834311
O O5 0.778176 0.980984 0.062032
O O6 0.428032 0.636193 0.497269
O O7 0.610511 0.625312 0.745097
O O8 0.601942 0.717146 0.574525
O O9 0.385429 0.540223 0.305411
O O10 0.260974 0.676272 0.250714
O O11 0.000000 0.997269 0.250000
O O12 0.303141 0.804307 0.170208
O O13 0.179380 0.674747 0.007107
O O14 0.500000 0.194273 0.750000
#
# Coordination Sequence:
#
# PCOD8153937 Si02
#       7
#     4   8   8   8   8   8   8
#     4  12  26  46  74  98 142 188 226 288 354 422
#     4  12  25  47  68 102 143 180 234 287 350 419
#     4  12  25  44  69 105 134 182 231 290 349 414
#     4  12  25  44  69 103 139 178 236 287 349 417
#     4  12  26  44  72 100 138 184 231 290 348 409
#     4  11  25  43  70 100 136 180 236 283 353 411
#     4  11  24  47  68  99 137 185 230 293 343 415
#
# _framework density 20.611926
#
# number of rings (size 3 to 8) (size 9 to 14) (size 15 to 20)
#    0.000    0.308    6.154    2.308    4.308    1.846 
#    2.769    2.308    0.000    0.000    0.000    0.000 
#    0.000    0.000    0.000    0.000    0.000    0.000 
#
# Total GULP energy -322589.906917 kJ/mol
# GULP energy per Si atom -12407.304112 kJ/mol
# Density = 2.056501 g / cm^3
# Si number density = 20.611926 Si / 1000 Ang^3
#
#
#
# Elastic Constant Matrix: (Units=GPa)
#
#
# Indices 1 2 3 4 5 6 
#
# 1 133.5748 48.7343 31.4826 0.0000 6.3099 0.0000
# 2 48.7343 112.1546 30.4610 0.0000 0.7003 0.0000
# 3 31.4826 30.4610 89.5080 0.0000 2.4662 0.0000
# 4 0.0000 0.0000 0.0000 33.3019 0.0000 1.3346
# 5 6.3099 0.7003 2.4662 0.0000 30.0544 0.0000
# 6 0.0000 0.0000 0.0000 1.3346 0.0000 35.9071
#
#
#
# Elastic Compliance Matrix: (Units=1/GPa)
#
#
# Indices 1 2 3 4 5 6 
#
# 1 0.009320 -0.003484 -0.002046 0.000000 -0.001708 0.000000
# 2 -0.003484 0.011126 -0.002580 0.000000 0.000684 0.000000
# 3 -0.002046 -0.002580 0.012785 0.000000 -0.000560 0.000000
# 4 0.000000 0.000000 0.000000 0.030073 0.000000 -0.001118
# 5 -0.001708 0.000684 -0.000560 0.000000 0.033662 0.000000
# 6 0.000000 0.000000 0.000000 -0.001118 0.000000 0.027891
#
#
# Mechanical properties :
#
#
# Convention : Reuss Voigt Hill
#
# Bulk Modulus (GPa) = 58.77784 61.84371 60.31078
# Shear Modulus (GPa) = 34.07214 34.82330 34.44772
#
# Velocity S-wave (km/s) = 4.07016 4.11478 4.09253
# Velocity P-wave (km/s) = 7.11805 7.25563 7.18717
#
# Compressibility (1/GPa) = 0.01701321
#
# Stress axis : x y z
#
# Youngs Moduli (GPa) = 107.29330 89.87564 78.21582
#
# Poissons Ratio (x) = 0.31310 0.16000
# Poissons Ratio (y) = 0.37377 0.20180
# Poissons Ratio (z) = 0.21948 0.23188
#
# Static dielectric constant tensor:
#      x y z
#    x 3.843300 0.000000 0.006050 
#    y 0.000000 3.800340 0.000000 
#    z 0.006050 0.000000 3.661690 
# 
# 
# High freq. dielectric constant tensor:
#      x y z
#    x 1.821810 0.000000 -0.000090 
#    y 0.000000 1.818980 0.000000 
#    z -0.000090 0.000000 1.811090 
# 
# From -- ./inp_files/162498.got.cif
#   From: 2010.06.25/outbox.cif.g09.slc.cpg/sg15_82_cif.got.tgz:162498.got - 2010.06.28 07:06:18.
