data_PCOD8153193
_publ_section_title
;
Structure prediction by ZEFSAII (Michael W. Deem and Ramdas Pophale) SiO2 
 PCOD8153193
Probable space group: C 2/C
;
_chemical_formula_sum "Si O2"
_cell_formula_units_Z 40
_cell_length_a 15.634908
_cell_length_b 8.087615
_cell_length_c 13.506548
_cell_angle_alpha 90.000000
_cell_angle_beta 102.837832
_cell_angle_gamma 90.000000
_cell_volume 1665.198660
_symmetry_space_group_name_H-M "C 2/C"
_symmetry_group_IT_number 15
_symmetry_cell_setting 'monoclinic'
loop_
_space_group_symop_operation_xyz
x,y,z
-x,y,1/2-z
-x,-y,-z
x,-y,1/2+z
1/2+x,1/2+y,z
1/2-x,1/2+y,1/2-z
1/2-x,1/2-y,-z
1/2+x,1/2-y,1/2+z
loop_
_atom_site_type_symbol
_atom_site_label
_atom_site_fract_x
_atom_site_fract_y
_atom_site_fract_z
Si Si1 0.870053 0.122635 0.072177
Si Si2 0.725348 0.697218 0.651157
Si Si3 0.527317 0.128778 0.590583
Si Si4 0.354306 0.256355 0.039206
Si Si5 0.361572 0.063134 0.231330
O O1 0.796905 0.170267 0.133214
O O2 0.953015 0.243019 0.106765
O O3 0.891205 0.929052 0.092844
O O4 0.834664 0.137951 0.953057
O O5 0.659215 0.770923 0.714391
O O6 0.772801 0.541768 0.711340
O O7 0.606895 0.229361 0.560281
O O8 0.500000 0.000000 0.500000
O O9 0.559329 0.036133 0.697640
O O10 0.386040 0.111421 0.123918
O O11 0.250000 0.250000 0.000000
#
# Coordination Sequence:
#
# PCOD8153193 Si02
#       5
#     8   8   8   8   8
#     4  11  24  46  71 105 151 191 240 318 372 431
#     4  11  23  43  72 106 145 191 250 298 370 445
#     4  12  26  47  72 107 153 191 246 313 370 442
#     4  12  25  48  76 107 150 196 251 312 374 448
#     4  12  25  44  77 109 146 203 252 299 380 451
#
# _framework density 24.021158
#
# number of rings (size 3 to 8) (size 9 to 14) (size 15 to 20)
#    0.000    0.400    4.000    5.400    0.000    3.200 
#    0.000    2.000    0.000    0.000    0.000    0.000 
#    0.000    0.000    0.000    0.000    0.000    0.000 
#
# Total GULP energy -248076.081161 kJ/mol
# GULP energy per Si atom -12403.804058 kJ/mol
# Density = 2.396648 g / cm^3
# Si number density = 24.021158 Si / 1000 Ang^3
#
#
#
# Elastic Constant Matrix: (Units=GPa)
#
#
# Indices 1 2 3 4 5 6 
#
# 1 45.6941 17.0930 40.9859 0.0000 29.7849 0.0000
# 2 17.0930 126.1090 35.1290 0.0000 23.7768 0.0000
# 3 40.9859 35.1290 119.8412 0.0000 12.4924 0.0000
# 4 0.0000 0.0000 0.0000 26.7354 0.0000 1.8596
# 5 29.7849 23.7768 12.4924 0.0000 31.4636 0.0000
# 6 0.0000 0.0000 0.0000 1.8596 0.0000 44.1402
#
#
#
# Elastic Compliance Matrix: (Units=1/GPa)
#
#
# Indices 1 2 3 4 5 6 
#
# 1 0.114870 0.013390 -0.032151 0.000000 -0.106094 0.000000
# 2 0.013390 0.011327 -0.005931 0.000000 -0.018880 0.000000
# 3 -0.032151 -0.005931 0.018192 0.000000 0.027695 0.000000
# 4 0.000000 0.000000 0.000000 0.037514 0.000000 -0.001580
# 5 -0.106094 -0.018880 0.027695 0.000000 0.135487 0.000000
# 6 0.000000 0.000000 0.000000 -0.001580 0.000000 0.022722
#
#
# Mechanical properties :
#
#
# Convention : Reuss Voigt Hill
#
# Bulk Modulus (GPa) = 10.52606 53.11779 31.82193
# Shear Modulus (GPa) = 11.87187 33.69694 22.78440
#
# Velocity S-wave (km/s) = 2.22553 3.74946 3.08314
# Velocity P-wave (km/s) = 3.31594 6.39575 5.09417
#
# Compressibility (1/GPa) = 0.09500230
#
# Stress axis : x y z
#
# Youngs Moduli (GPa) = 8.70551 88.28726 54.96977
#
# Poissons Ratio (x) = -1.18213 1.76734
# Poissons Ratio (y) = -0.11656 0.32605
# Poissons Ratio (z) = 0.27989 0.52367
#
# Static dielectric constant tensor:
#      x y z
#    x 4.130380 0.000000 -0.137890 
#    y 0.000000 4.540170 0.000000 
#    z -0.137890 0.000000 4.405970 
# 
# 
# High freq. dielectric constant tensor:
#      x y z
#    x 1.956990 0.000000 -0.009520 
#    y 0.000000 1.962840 0.000000 
#    z -0.009520 0.000000 1.957520 
# 
# From -- ./inp_files/150617.got.cif
#   From: 2010.06.25/outbox.cif.g09.slc.cpg/sg15_76_cif.got.tgz:150617.got - 2010.06.28 07:06:18.
