data_PCOD8153050
_publ_section_title
;
Structure prediction by ZEFSAII (Michael W. Deem and Ramdas Pophale) SiO2 
 PCOD8153050
Probable space group: C 2/C
;
_chemical_formula_sum "Si O2"
_cell_formula_units_Z 56
_cell_length_a 17.726679
_cell_length_b 6.790558
_cell_length_c 23.631446
_cell_angle_alpha 90.000000
_cell_angle_beta 110.178545
_cell_angle_gamma 90.000000
_cell_volume 2670.016767
_symmetry_space_group_name_H-M "C 2/C"
_symmetry_group_IT_number 15
_symmetry_cell_setting 'monoclinic'
loop_
_space_group_symop_operation_xyz
x,y,z
-x,y,1/2-z
-x,-y,-z
x,-y,1/2+z
1/2+x,1/2+y,z
1/2-x,1/2+y,1/2-z
1/2-x,1/2-y,-z
1/2+x,1/2-y,1/2+z
loop_
_atom_site_type_symbol
_atom_site_label
_atom_site_fract_x
_atom_site_fract_y
_atom_site_fract_z
Si Si1 0.343229 0.270970 0.511645
Si Si2 0.176505 0.954784 0.698729
Si Si3 0.047786 0.449558 0.909341
Si Si4 0.744573 0.908083 0.168055
Si Si5 0.389162 0.560921 0.620335
Si Si6 0.116384 0.285231 0.601382
Si Si7 0.982978 0.230909 0.307617
O O1 0.250000 0.250000 0.500000
O O2 0.375838 0.449253 0.557751
O O3 0.357949 0.322521 0.449942
O O4 0.390026 0.065884 0.534824
O O5 0.235596 0.027202 0.762975
O O6 0.226811 0.826066 0.666050
O O7 0.110586 0.813676 0.709930
O O8 0.133670 0.136245 0.656930
O O9 0.098655 0.290514 0.887724
O O10 0.006654 0.598663 0.856108
O O11 0.978126 0.338982 0.926727
O O12 0.665972 0.016432 0.124444
O O13 0.815009 0.962161 0.143329
O O14 0.466928 0.469301 0.670412
O O15 0.000000 0.314926 0.250000
#
# Coordination Sequence:
#
# PCOD8153050 Si02
#       7
#     8   8   8   8   8   8   8
#     4  11  26  46  69  99 133 175 230 282 327 394
#     4  12  25  41  69 103 134 178 220 272 343 398
#     4  11  26  44  69  98 132 181 228 270 341 395
#     4  12  25  41  70 102 138 171 225 277 332 403
#     4  11  25  44  68 100 131 177 227 277 331 398
#     4  12  25  46  67  97 141 176 218 280 335 400
#     4  11  23  42  68  99 138 172 225 278 333 404
#
# _framework density 20.973651
#
# number of rings (size 3 to 8) (size 9 to 14) (size 15 to 20)
#    0.000    0.571    7.143    0.429    2.000    5.143 
#    0.000    0.000    0.000    0.000    0.000    0.000 
#    0.000    0.000    0.000    0.000    0.000    0.000 
#
# Total GULP energy -347352.044964 kJ/mol
# GULP energy per Si atom -12405.430177 kJ/mol
# Density = 2.092591 g / cm^3
# Si number density = 20.973651 Si / 1000 Ang^3
#
#
#
# Elastic Constant Matrix: (Units=GPa)
#
#
# Indices 1 2 3 4 5 6 
#
# 1 98.7318 20.9157 32.5739 0.0000 -0.2571 0.0000
# 2 20.9157 84.1262 6.2417 0.0000 0.9044 0.0000
# 3 32.5739 6.2417 80.9003 0.0000 -7.1428 0.0000
# 4 0.0000 0.0000 0.0000 23.4407 0.0000 -1.6367
# 5 -0.2571 0.9044 -7.1428 0.0000 37.6903 0.0000
# 6 0.0000 0.0000 0.0000 -1.6367 0.0000 39.2835
#
#
#
# Elastic Compliance Matrix: (Units=1/GPa)
#
#
# Indices 1 2 3 4 5 6 
#
# 1 0.012281 -0.002689 -0.004805 0.000000 -0.000762 0.000000
# 2 -0.002689 0.012552 0.000087 0.000000 -0.000303 0.000000
# 3 -0.004805 0.000087 0.014529 0.000000 0.002719 0.000000
# 4 0.000000 0.000000 0.000000 0.042785 0.000000 0.001783
# 5 -0.000762 -0.000303 0.002719 0.000000 0.027049 0.000000
# 6 0.000000 0.000000 0.000000 0.001783 0.000000 0.025530
#
#
# Mechanical properties :
#
#
# Convention : Reuss Voigt Hill
#
# Bulk Modulus (GPa) = 40.73326 42.58009 41.65667
# Shear Modulus (GPa) = 31.70121 33.68469 32.69295
#
# Velocity S-wave (km/s) = 3.89199 4.01190 3.95240
# Velocity P-wave (km/s) = 6.29763 6.46577 6.38225
#
# Compressibility (1/GPa) = 0.02454996
#
# Stress axis : x y z
#
# Youngs Moduli (GPa) = 81.42484 79.66764 68.82878
#
# Poissons Ratio (x) = 0.21420 0.33071
# Poissons Ratio (y) = 0.21893 -0.00602
# Poissons Ratio (z) = 0.39123 -0.00696
#
# Static dielectric constant tensor:
#      x y z
#    x 3.956450 0.000000 0.019700 
#    y 0.000000 3.804130 0.000000 
#    z 0.019700 0.000000 3.908550 
# 
# 
# High freq. dielectric constant tensor:
#      x y z
#    x 1.835780 0.000000 0.003620 
#    y 0.000000 1.822940 0.000000 
#    z 0.003620 0.000000 1.825200 
# 
# From -- ./inp_files/297771.got.cif
#   From: 2010.06.25/outbox.cif.g09.slc.cpg/sg15_149_cif.got.tgz:297771.got - 2010.06.28 07:06:18.
