data_PCOD8153950
_publ_section_title
;
Structure prediction by ZEFSAII (Michael W. Deem and Ramdas Pophale) SiO2 
 PCOD8153950
Probable space group: C 2/C
;
_chemical_formula_sum "Si O2"
_cell_formula_units_Z 56
_cell_length_a 24.389607
_cell_length_b 11.362005
_cell_length_c 9.610029
_cell_angle_alpha 90.000000
_cell_angle_beta 108.103499
_cell_angle_gamma 90.000000
_cell_volume 2531.250441
_symmetry_space_group_name_H-M "C 2/C"
_symmetry_group_IT_number 15
_symmetry_cell_setting 'monoclinic'
loop_
_space_group_symop_operation_xyz
x,y,z
-x,y,1/2-z
-x,-y,-z
x,-y,1/2+z
1/2+x,1/2+y,z
1/2-x,1/2+y,1/2-z
1/2-x,1/2-y,-z
1/2+x,1/2-y,1/2+z
loop_
_atom_site_type_symbol
_atom_site_label
_atom_site_fract_x
_atom_site_fract_y
_atom_site_fract_z
Si Si1 0.999393 0.835692 0.908781
Si Si2 0.408195 0.503426 0.475651
Si Si3 0.125674 0.485040 0.907874
Si Si4 0.450115 0.077633 0.899070
Si Si5 0.333604 0.464323 0.176102
Si Si6 0.767443 0.365391 0.929132
Si Si7 0.294167 0.212111 0.152920
O O1 0.981822 0.700800 0.902616
O O2 0.000000 0.880523 0.750000
O O3 0.956242 0.901995 0.976572
O O4 0.064010 0.870962 0.013120
O O5 0.354102 0.526829 0.332866
O O6 0.386363 0.528357 0.612335
O O7 0.074308 0.533584 0.769067
O O8 0.160045 0.383883 0.857463
O O9 0.101629 0.425067 0.029681
O O10 0.168150 0.593812 0.978575
O O11 0.500000 0.000000 0.000000
O O12 0.276306 0.527487 0.071240
O O13 0.326098 0.330909 0.218455
O O14 0.761424 0.337505 0.761605
O O15 0.750000 0.250000 0.000000
O O16 0.250000 0.250000 0.000000
#
# Coordination Sequence:
#
# PCOD8153950 Si02
#       7
#     8   8   8   8   8   8   8
#     4  11  24  47  71 101 140 185 241 294 365 418
#     4  11  25  44  72 103 140 182 235 304 354 427
#     4  12  27  51  72 110 151 193 244 306 368 438
#     4  12  28  48  75 103 144 196 248 297 363 435
#     4  12  25  45  72 108 142 187 241 294 372 428
#     4  12  29  46  77 108 149 196 243 300 373 451
#     4  12  26  46  74 106 147 192 242 297 361 446
#
# _framework density 22.123453000000001
#
# number of rings (size 3 to 8) (size 9 to 14) (size 15 to 20)
#    0.000    0.286    4.286    3.857    8.000    2.286 
#    2.571    0.000    0.000    0.000    0.000    0.000 
#    0.000    0.000    0.000    0.000    0.000    0.000 
#
# Total GULP energy -347155.346481 kJ/mol
# GULP energy per Si atom -12398.405231 kJ/mol
# Density = 2.207310 g / cm^3
# Si number density = 22.123453 Si / 1000 Ang^3
#
#
#
# Elastic Constant Matrix: (Units=GPa)
#
#
# Indices 1 2 3 4 5 6 
#
# 1 94.1389 32.8503 27.5246 0.0000 -5.4971 0.0000
# 2 32.8503 89.7082 14.5637 0.0000 -9.2151 0.0000
# 3 27.5246 14.5637 101.7126 0.0000 3.0862 0.0000
# 4 0.0000 0.0000 0.0000 34.1938 0.0000 -0.0098
# 5 -5.4971 -9.2151 3.0862 0.0000 50.1849 0.0000
# 6 0.0000 0.0000 0.0000 -0.0098 0.0000 38.2731
#
#
#
# Elastic Compliance Matrix: (Units=1/GPa)
#
#
# Indices 1 2 3 4 5 6 
#
# 1 0.012995 -0.004196 -0.002941 0.000000 0.000834 0.000000
# 2 -0.004196 0.013015 -0.000788 0.000000 0.001979 0.000000
# 3 -0.002941 -0.000788 0.010775 0.000000 -0.001130 0.000000
# 4 0.000000 0.000000 0.000000 0.029245 0.000000 0.000007
# 5 0.000834 0.001979 -0.001130 0.000000 0.020450 0.000000
# 6 0.000000 0.000000 0.000000 0.000007 0.000000 0.026128
#
#
# Mechanical properties :
#
#
# Convention : Reuss Voigt Hill
#
# Bulk Modulus (GPa) = 47.76735 48.38188 48.07462
# Shear Modulus (GPa) = 36.91757 38.57175 37.74466
#
# Velocity S-wave (km/s) = 4.08941 4.18003 4.13497
# Velocity P-wave (km/s) = 6.62841 6.72409 6.67642
#
# Compressibility (1/GPa) = 0.02093480
#
# Stress axis : x y z
#
# Youngs Moduli (GPa) = 76.95059 76.83517 92.81013
#
# Poissons Ratio (x) = 0.32237 0.27298
# Poissons Ratio (y) = 0.32286 0.07315
# Poissons Ratio (z) = 0.22633 0.06056
#
# Static dielectric constant tensor:
#      x y z
#    x 4.426860 0.000000 -0.283890 
#    y 0.000000 3.324420 0.000000 
#    z -0.283890 0.000000 4.507050 
# 
# 
# High freq. dielectric constant tensor:
#      x y z
#    x 1.887800 0.000000 -0.006240 
#    y 0.000000 1.874050 0.000000 
#    z -0.006240 0.000000 1.883610 
# 
# From -- ./inp_files/65529.got.cif
#   From: 2010.06.25/outbox.cif.g09.slc.cpg/sg15_33_cif.got.tgz:65529.got - 2010.06.28 07:06:18.
