data_PCOD8153335
_publ_section_title
;
Structure prediction by ZEFSAII (Michael W. Deem and Ramdas Pophale) SiO2 
 PCOD8153335
Probable space group: C 2/C
;
_chemical_formula_sum "Si O2"
_cell_formula_units_Z 52
_cell_length_a 17.748686
_cell_length_b 19.480867
_cell_length_c 8.803163
_cell_angle_alpha 90.000000
_cell_angle_beta 52.319121
_cell_angle_gamma 90.000000
_cell_volume 2408.931254
_symmetry_space_group_name_H-M "C 2/C"
_symmetry_group_IT_number 15
_symmetry_cell_setting 'monoclinic'
loop_
_space_group_symop_operation_xyz
x,y,z
-x,y,1/2-z
-x,-y,-z
x,-y,1/2+z
1/2+x,1/2+y,z
1/2-x,1/2+y,1/2-z
1/2-x,1/2-y,-z
1/2+x,1/2-y,1/2+z
loop_
_atom_site_type_symbol
_atom_site_label
_atom_site_fract_x
_atom_site_fract_y
_atom_site_fract_z
Si Si1 0.342158 0.414054 0.129608
Si Si2 0.090585 0.405628 0.728002
Si Si3 0.210674 0.297967 0.415449
Si Si4 0.090501 0.610446 0.565703
Si Si5 0.000000 0.144107 0.250000
Si Si6 0.355733 0.244251 0.814811
Si Si7 0.745062 0.013065 0.473893
O O1 0.297865 0.341873 0.238464
O O2 0.326612 0.471962 0.279025
O O3 0.452588 0.401850 0.944513
O O4 0.290945 0.438994 0.041813
O O5 0.128516 0.344867 0.579991
O O6 0.171443 0.462853 0.647240
O O7 0.000000 0.436443 0.750000
O O8 0.064249 0.373557 0.923758
O O9 0.250000 0.250000 0.500000
O O10 0.153471 0.257351 0.356113
O O11 0.099438 0.678368 0.657824
O O12 0.185037 0.564296 0.441707
O O13 0.000000 0.570146 0.750000
O O14 0.083235 0.188861 0.221715
O O15 0.250000 0.250000 0.000000
#
# Coordination Sequence:
#
# PCOD8153335 Si02
#       7
#     8   8   8   8   4   8   8
#     4  11  25  46  71 103 136 189 244 297 353 434
#     4  11  25  38  63 104 147 183 236 303 358 438
#     4  11  24  43  70 104 147 188 235 299 366 433
#     4  12  23  38  68 101 139 186 235 290 366 435
#     4  12  26  46  76 104 142 192 250 292 368 432
#     4  12  23  43  72 104 143 189 239 291 361 439
#     4  11  23  45  69  95 140 190 239 295 360 412
#
# _framework density 21.586334999999998
#
# number of rings (size 3 to 8) (size 9 to 14) (size 15 to 20)
#    0.000    0.615    5.385    2.308    2.154    1.846 
#    0.000    0.000    0.000    0.000    0.000    0.000 
#    0.000    0.000    0.000    0.000    0.000    0.000 
#
# Total GULP energy -322281.274011 kJ/mol
# GULP energy per Si atom -12395.433616 kJ/mol
# Density = 2.153720 g / cm^3
# Si number density = 21.586335 Si / 1000 Ang^3
#
#
#
# Elastic Constant Matrix: (Units=GPa)
#
#
# Indices 1 2 3 4 5 6 
#
# 1 115.7456 41.6854 59.0478 0.0000 13.4400 0.0000
# 2 41.6854 87.4578 44.9954 0.0000 -4.0158 0.0000
# 3 59.0478 44.9954 154.6618 0.0000 -5.3000 0.0000
# 4 0.0000 0.0000 0.0000 20.4190 0.0000 0.7991
# 5 13.4400 -4.0158 -5.3000 0.0000 43.8378 0.0000
# 6 0.0000 0.0000 0.0000 0.7991 0.0000 25.6016
#
#
#
# Elastic Compliance Matrix: (Units=1/GPa)
#
#
# Indices 1 2 3 4 5 6 
#
# 1 0.012651 -0.004326 -0.003733 0.000000 -0.004726 0.000000
# 2 -0.004326 0.014952 -0.002617 0.000000 0.002380 0.000000
# 3 -0.003733 -0.002617 0.008719 0.000000 0.001959 0.000000
# 4 0.000000 0.000000 0.000000 0.049034 0.000000 -0.001531
# 5 -0.004726 0.002380 0.001959 0.000000 0.024715 0.000000
# 6 0.000000 0.000000 0.000000 -0.001531 0.000000 0.039108
#
#
# Mechanical properties :
#
#
# Convention : Reuss Voigt Hill
#
# Bulk Modulus (GPa) = 66.80131 72.14692 69.47411
# Shear Modulus (GPa) = 28.48658 32.11413 30.30035
#
# Velocity S-wave (km/s) = 3.63665 3.86126 3.75064
# Velocity P-wave (km/s) = 6.97474 7.30576 7.14217
#
# Compressibility (1/GPa) = 0.01496977
#
# Stress axis : x y z
#
# Youngs Moduli (GPa) = 79.04448 66.88262 114.68622
#
# Poissons Ratio (x) = 0.28935 0.42817
# Poissons Ratio (y) = 0.34196 0.30009
# Poissons Ratio (z) = 0.29510 0.17500
#
# Static dielectric constant tensor:
#      x y z
#    x 3.672740 0.000000 -0.082470 
#    y 0.000000 4.128170 0.000000 
#    z -0.082470 0.000000 4.345020 
# 
# 
# High freq. dielectric constant tensor:
#      x y z
#    x 1.842800 0.000000 0.004630 
#    y 0.000000 1.845830 0.000000 
#    z 0.004630 0.000000 1.863570 
# 
# From -- ./inp_files/50583.got.cif
#   From: 2010.06.25/outbox.cif.g09.slc.cpg/sg15_26_cif.got.tgz:50583.got - 2010.06.28 07:06:18.
