data_PCOD8153979
_publ_section_title
;
Structure prediction by ZEFSAII (Michael W. Deem and Ramdas Pophale) SiO2 
 PCOD8153979
Probable space group: C 2/C
;
_chemical_formula_sum "Si O2"
_cell_formula_units_Z 40
_cell_length_a 5.275405
_cell_length_b 15.321829
_cell_length_c 19.943512
_cell_angle_alpha 90.000000
_cell_angle_beta 81.886422
_cell_angle_gamma 90.000000
_cell_volume 1595.875359
_symmetry_space_group_name_H-M "C 2/C"
_symmetry_group_IT_number 15
_symmetry_cell_setting 'monoclinic'
loop_
_space_group_symop_operation_xyz
x,y,z
-x,y,1/2-z
-x,-y,-z
x,-y,1/2+z
1/2+x,1/2+y,z
1/2-x,1/2+y,1/2-z
1/2-x,1/2-y,-z
1/2+x,1/2-y,1/2+z
loop_
_atom_site_type_symbol
_atom_site_label
_atom_site_fract_x
_atom_site_fract_y
_atom_site_fract_z
Si Si1 0.164572 0.848661 0.490528
Si Si2 0.341115 0.163611 0.195466
Si Si3 0.500000 0.183198 0.750000
Si Si4 0.602716 0.896044 0.565630
Si Si5 0.805375 0.566580 0.855673
Si Si6 0.500000 0.519848 0.250000
O O1 0.250000 0.750000 0.500000
O O2 0.394995 0.906900 0.513700
O O3 0.143469 0.873233 0.413192
O O4 0.887158 0.869468 0.532268
O O5 0.500000 0.121175 0.250000
O O6 0.500324 0.178718 0.120770
O O7 0.243230 0.256338 0.225697
O O8 0.134380 0.086725 0.191855
O O9 0.540203 0.124311 0.816186
O O10 0.592917 0.983814 0.608713
O O11 0.654174 0.543275 0.793554
#
# Coordination Sequence:
#
# PCOD8153979 Si02
#       6
#     8   8   4   8   8   4
#     4  12  29  51  79 113 157 208 260 326 388 472
#     4  11  24  47  75 105 151 201 257 322 385 458
#     4  11  28  44  72 115 150 200 254 319 388 454
#     4  12  26  51  80 110 154 208 262 318 393 463
#     4  12  26  48  77 114 157 202 261 321 393 467
#     4  11  24  48  74 113 154 204 262 329 390 464
#
# _framework density 25.064610999999999
#
# number of rings (size 3 to 8) (size 9 to 14) (size 15 to 20)
#    0.000    0.400    2.000    5.400    7.000    3.200 
#    0.000    0.000    0.000    0.000    0.000    0.000 
#    0.000    0.000    0.000    0.000    0.000    0.000 
#
# Total GULP energy -247806.482202 kJ/mol
# GULP energy per Si atom -12390.324110 kJ/mol
# Density = 2.500756 g / cm^3
# Si number density = 25.064611 Si / 1000 Ang^3
#
#
#
# Elastic Constant Matrix: (Units=GPa)
#
#
# Indices 1 2 3 4 5 6 
#
# 1 136.9512 43.5829 70.6708 0.0000 -22.7884 0.0000
# 2 43.5829 146.4696 78.3256 0.0000 -17.1349 0.0000
# 3 70.6708 78.3256 184.2798 0.0000 -29.8300 0.0000
# 4 0.0000 0.0000 0.0000 46.3965 0.0000 -6.5564
# 5 -22.7884 -17.1349 -29.8300 0.0000 56.9353 0.0000
# 6 0.0000 0.0000 0.0000 -6.5564 0.0000 11.9563
#
#
#
# Elastic Compliance Matrix: (Units=1/GPa)
#
#
# Indices 1 2 3 4 5 6 
#
# 1 0.009436 -0.001052 -0.002853 0.000000 0.001965 0.000000
# 2 -0.001052 0.008983 -0.003327 0.000000 0.000539 0.000000
# 3 -0.002853 -0.003327 0.008291 0.000000 0.002201 0.000000
# 4 0.000000 0.000000 0.000000 0.023364 0.000000 0.012812
# 5 0.001965 0.000539 0.002201 0.000000 0.019666 0.000000
# 6 0.000000 0.000000 0.000000 0.012812 0.000000 0.090663
#
#
# Mechanical properties :
#
#
# Convention : Reuss Voigt Hill
#
# Bulk Modulus (GPa) = 81.66844 94.76215 88.21529
# Shear Modulus (GPa) = 27.94078 41.39904 34.66991
#
# Velocity S-wave (km/s) = 3.34241 4.06851 3.72320
# Velocity P-wave (km/s) = 6.89561 7.74336 7.33175
#
# Compressibility (1/GPa) = 0.01224463
#
# Stress axis : x y z
#
# Youngs Moduli (GPa) = 105.97562 111.32471 120.60869
#
# Poissons Ratio (x) = 0.11711 0.34416
# Poissons Ratio (y) = 0.11148 0.40130
# Poissons Ratio (z) = 0.30240 0.37041
#
# Static dielectric constant tensor:
#      x y z
#    x 4.470730 0.000000 -0.189200 
#    y 0.000000 4.667880 0.000000 
#    z -0.189200 0.000000 5.078750 
# 
# 
# High freq. dielectric constant tensor:
#      x y z
#    x 1.981050 0.000000 -0.014740 
#    y 0.000000 2.017750 0.000000 
#    z -0.014740 0.000000 2.022200 
# 
# From -- ./inp_files/260147.got.cif
#   From: 2010.06.25/outbox.cif.g09.slc.cpg/sg15_131_cif.got.tgz:260147.got - 2010.06.28 07:06:18.
