data_PCOD8153323
_publ_section_title
;
Structure prediction by ZEFSAII (Michael W. Deem and Ramdas Pophale) SiO2 
 PCOD8153323
Probable space group: C 2/C
;
_chemical_formula_sum "Si O2"
_cell_formula_units_Z 40
_cell_length_a 26.717076
_cell_length_b 5.823355
_cell_length_c 22.612448
_cell_angle_alpha 90.000000
_cell_angle_beta 29.706330
_cell_angle_gamma 90.000000
_cell_volume 1743.417144
_symmetry_space_group_name_H-M "C 2/C"
_symmetry_group_IT_number 15
_symmetry_cell_setting 'monoclinic'
loop_
_space_group_symop_operation_xyz
x,y,z
-x,y,1/2-z
-x,-y,-z
x,-y,1/2+z
1/2+x,1/2+y,z
1/2-x,1/2+y,1/2-z
1/2-x,1/2-y,-z
1/2+x,1/2-y,1/2+z
loop_
_atom_site_type_symbol
_atom_site_label
_atom_site_fract_x
_atom_site_fract_y
_atom_site_fract_z
Si Si1 0.072317 0.748418 0.822786
Si Si2 0.111735 0.553178 0.007466
Si Si3 0.239855 0.205920 0.940866
Si Si4 0.194327 0.226353 0.312554
Si Si5 0.538373 0.563315 0.646767
O O1 0.156127 0.616257 0.695959
O O2 0.112480 0.813380 0.845814
O O3 0.968528 0.613509 0.940829
O O4 0.043227 0.976843 0.816744
O O5 0.050325 0.664785 0.125403
O O6 0.210840 0.432889 0.932636
O O7 0.142871 0.751613 0.929266
O O8 0.250000 0.250000 0.000000
O O9 0.150865 0.028956 0.021402
O O10 0.243617 0.483941 0.250256
O O11 0.500000 0.494361 0.750000
#
# Coordination Sequence:
#
# PCOD8153323 Si02
#       5
#     8   8   8   8   8
#     4  11  25  46  72 101 145 193 242 308 370 442
#     4  11  27  43  72 107 141 196 247 308 370 447
#     4  11  23  45  67 100 146 188 240 304 366 443
#     4  12  27  50  79 110 152 195 251 308 376 446
#     4  11  25  42  69 107 143 189 249 303 373 445
#
# _framework density 22.943449000000001
#
# number of rings (size 3 to 8) (size 9 to 14) (size 15 to 20)
#    0.000    0.800    4.000    1.800    8.400    3.200 
#    0.000    0.000    0.000    0.000    0.000    0.000 
#    0.000    0.000    0.000    0.000    0.000    0.000 
#
# Total GULP energy -247789.584573 kJ/mol
# GULP energy per Si atom -12389.479229 kJ/mol
# Density = 2.289123 g / cm^3
# Si number density = 22.943449 Si / 1000 Ang^3
#
#
#
# Elastic Constant Matrix: (Units=GPa)
#
#
# Indices 1 2 3 4 5 6 
#
# 1 164.3607 28.6960 22.0310 0.2464 -6.9929 -0.1328
# 2 28.6960 94.8898 14.8754 -0.1591 -3.4313 0.3963
# 3 22.0310 14.8754 89.8968 0.5332 -2.7153 1.4156
# 4 0.2464 -0.1591 0.5332 29.2733 -0.3286 14.0683
# 5 -6.9929 -3.4313 -2.7153 -0.3286 36.8422 -0.3255
# 6 -0.1328 0.3963 1.4156 14.0683 -0.3255 13.4438
#
#
#
# Elastic Compliance Matrix: (Units=1/GPa)
#
#
# Indices 1 2 3 4 5 6 
#
# 1 0.006610 -0.001761 -0.001306 -0.000330 0.000997 0.000625
# 2 -0.001761 0.011318 -0.001416 0.000400 0.000614 -0.000606
# 3 -0.001306 -0.001416 0.011719 0.000742 0.000473 -0.001970
# 4 -0.000330 0.000400 0.000742 0.068794 0.000006 -0.072083
# 5 0.000997 0.000614 0.000473 0.000006 0.027429 0.000600
# 6 0.000625 -0.000606 -0.001970 -0.072083 0.000600 0.150061
#
#
# Mechanical properties :
#
#
# Convention : Reuss Voigt Hill
#
# Bulk Modulus (GPa) = 48.35235 53.37246 50.86241
# Shear Modulus (GPa) = 17.13545 34.81485 25.97515
#
# Velocity S-wave (km/s) = 2.73583 3.89963 3.36838
# Velocity P-wave (km/s) = 5.57674 6.60222 6.11103
#
# Compressibility (1/GPa) = 0.02068152
#
# Stress axis : x y z
#
# Youngs Moduli (GPa) = 151.28117 88.35095 85.33048
#
# Poissons Ratio (x) = 0.15562 0.11146
# Poissons Ratio (y) = 0.26646 0.12079
# Poissons Ratio (z) = 0.19761 0.12506
#
# Static dielectric constant tensor:
#      x y z
#    x 4.281350 -0.000340 -0.055400 
#    y -0.000340 4.112450 0.000460 
#    z -0.055400 0.000460 4.262810 
# 
# 
# High freq. dielectric constant tensor:
#      x y z
#    x 1.925570 -0.000030 0.000860 
#    y -0.000030 1.894220 0.000050 
#    z 0.000860 0.000050 1.916690 
# 
# From -- ./inp_files/175303.got.cif
#   From: 2010.06.25/outbox.cif.g09.slc.cpg/sg15_88_cif.got.tgz:175303.got - 2010.06.28 07:06:18.
