data_PCOD8153425
_publ_section_title
;
Structure prediction by ZEFSAII (Michael W. Deem and Ramdas Pophale) SiO2 
 PCOD8153425
Probable space group: C 2/C
;
_chemical_formula_sum "Si O2"
_cell_formula_units_Z 56
_cell_length_a 20.867871
_cell_length_b 10.742433
_cell_length_c 22.454926
_cell_angle_alpha 90.000000
_cell_angle_beta 149.820770
_cell_angle_gamma 90.000000
_cell_volume 2530.503957
_symmetry_space_group_name_H-M "C 2/C"
_symmetry_group_IT_number 15
_symmetry_cell_setting 'monoclinic'
loop_
_space_group_symop_operation_xyz
x,y,z
-x,y,1/2-z
-x,-y,-z
x,-y,1/2+z
1/2+x,1/2+y,z
1/2-x,1/2+y,1/2-z
1/2-x,1/2-y,-z
1/2+x,1/2-y,1/2+z
loop_
_atom_site_type_symbol
_atom_site_label
_atom_site_fract_x
_atom_site_fract_y
_atom_site_fract_z
Si Si1 0.943715 0.183149 0.271058
Si Si2 0.591673 0.502179 0.961374
Si Si3 0.992416 0.423466 0.933187
Si Si4 0.611267 0.351188 0.148672
Si Si5 0.774578 0.043174 0.642056
Si Si6 0.809090 0.580984 0.709669
Si Si7 0.618196 0.315911 0.377601
O O1 0.909366 0.322001 0.263496
O O2 0.000000 0.185211 0.250000
O O3 0.816512 0.100864 0.181784
O O4 0.054175 0.130208 0.402703
O O5 0.496471 0.539756 0.939005
O O6 0.568749 0.615770 0.896977
O O7 0.737505 0.490752 0.098595
O O8 0.961632 0.279281 0.916118
O O9 0.881069 0.476017 0.803427
O O10 0.000000 0.500000 0.000000
O O11 0.126376 0.441390 0.007473
O O12 0.695760 0.371418 0.276291
O O13 0.702239 0.355547 0.164762
O O14 0.854153 0.080252 0.648639
O O15 0.500000 0.237805 0.250000
O O16 0.750000 0.250000 0.500000
#
# Coordination Sequence:
#
# PCOD8153425 Si02
#       7
#     8   8   8   8   8   8   8
#     4  11  24  49  72  99 145 190 235 283 363 422
#     4  11  25  47  73 104 142 187 241 292 360 431
#     4  12  27  45  67 105 143 184 238 295 359 427
#     4  11  25  46  73  99 143 186 233 297 361 420
#     4  11  23  46  72 100 140 186 237 297 356 427
#     4  12  29  41  74 107 138 189 241 293 356 435
#     4  12  24  44  74 109 141 192 240 301 370 425
#
# _framework density 22.129978999999999
#
# number of rings (size 3 to 8) (size 9 to 14) (size 15 to 20)
#    0.000    0.571    5.714    2.143   10.000    1.714 
#    0.000    0.000    0.000    0.000    0.000    0.000 
#    0.000    0.000    0.000    0.000    0.000    0.000 
#
# Total GULP energy -347045.185780 kJ/mol
# GULP energy per Si atom -12394.470921 kJ/mol
# Density = 2.207961 g / cm^3
# Si number density = 22.129979 Si / 1000 Ang^3
#
#
#
# Elastic Constant Matrix: (Units=GPa)
#
#
# Indices 1 2 3 4 5 6 
#
# 1 100.7240 22.9003 18.2837 0.0000 0.7646 0.0000
# 2 22.9003 63.2701 25.8994 0.0001 -9.2928 0.0000
# 3 18.2837 25.8994 161.9607 0.0001 -5.3855 0.0000
# 4 0.0000 0.0001 0.0001 40.0140 0.0000 8.2094
# 5 0.7646 -9.2928 -5.3855 0.0000 35.0871 0.0000
# 6 0.0000 0.0000 0.0000 8.2094 0.0000 27.2280
#
#
#
# Elastic Compliance Matrix: (Units=1/GPa)
#
#
# Indices 1 2 3 4 5 6 
#
# 1 0.010943 -0.003893 -0.000658 0.000000 -0.001370 0.000000
# 2 -0.003893 0.018900 -0.002426 0.000000 0.004718 0.000000
# 3 -0.000658 -0.002426 0.006650 0.000000 0.000392 0.000000
# 4 0.000000 0.000000 0.000000 0.026639 0.000000 -0.008032
# 5 -0.001370 0.004718 0.000392 0.000000 0.029840 0.000000
# 6 0.000000 0.000000 0.000000 -0.008032 0.000000 0.039148
#
#
# Mechanical properties :
#
#
# Convention : Reuss Voigt Hill
#
# Bulk Modulus (GPa) = 44.36783 51.12462 47.74623
# Shear Modulus (GPa) = 32.55468 37.72392 35.13930
#
# Velocity S-wave (km/s) = 3.83961 4.13322 3.98912
# Velocity P-wave (km/s) = 6.30469 6.77718 6.54520
#
# Compressibility (1/GPa) = 0.02253885
#
# Stress axis : x y z
#
# Youngs Moduli (GPa) = 91.38224 52.90943 150.38324
#
# Poissons Ratio (x) = 0.20595 0.09902
# Poissons Ratio (y) = 0.35571 0.36484
# Poissons Ratio (z) = 0.06017 0.12836
#
# Static dielectric constant tensor:
#      x y z
#    x 3.690820 0.000000 -0.987000 
#    y 0.000000 3.739840 -0.000010 
#    z -0.987000 -0.000010 2.005360 
# 
# 
# High freq. dielectric constant tensor:
#      x y z
#    x 1.882470 0.000000 0.004180 
#    y 0.000000 1.853840 0.000000 
#    z 0.004180 0.000000 1.888250 
# 
# From -- ./inp_files/280014.got.cif
#   From: 2010.06.25/outbox.cif.g09.slc.cpg/sg15_141_cif.got.tgz:280014.got - 2010.06.28 07:06:18.
