data_PCOD8153299
_publ_section_title
;
Structure prediction by ZEFSAII (Michael W. Deem and Ramdas Pophale) SiO2 
 PCOD8153299
Probable space group: C 2/C
;
_chemical_formula_sum "Si O2"
_cell_formula_units_Z 40
_cell_length_a 8.948273
_cell_length_b 21.316905
_cell_length_c 18.470060
_cell_angle_alpha 90.000000
_cell_angle_beta 31.178828
_cell_angle_gamma 90.000000
_cell_volume 1823.975453
_symmetry_space_group_name_H-M "C 2/C"
_symmetry_group_IT_number 15
_symmetry_cell_setting 'monoclinic'
loop_
_space_group_symop_operation_xyz
x,y,z
-x,y,1/2-z
-x,-y,-z
x,-y,1/2+z
1/2+x,1/2+y,z
1/2-x,1/2+y,1/2-z
1/2-x,1/2-y,-z
1/2+x,1/2-y,1/2+z
loop_
_atom_site_type_symbol
_atom_site_label
_atom_site_fract_x
_atom_site_fract_y
_atom_site_fract_z
Si Si1 0.181435 0.494512 0.853110
Si Si2 0.917111 0.383208 0.868653
Si Si3 0.331725 0.805519 0.612537
Si Si4 0.191327 0.834991 0.356187
Si Si5 0.201787 0.369181 0.337330
O O1 0.500000 0.477005 0.750000
O O2 0.131974 0.561620 0.833961
O O3 0.058491 0.443642 0.847675
O O4 0.000000 0.500000 0.000000
O O5 0.000000 0.378365 0.750000
O O6 0.025248 0.322764 0.869427
O O7 0.566761 0.383528 0.018963
O O8 0.372830 0.731726 0.579371
O O9 0.467117 0.843872 0.490279
O O10 0.000000 0.824981 0.750000
O O11 0.500000 0.864612 0.250000
O O12 0.236229 0.820374 0.252494
O O13 0.500000 0.382447 0.250000
#
# Coordination Sequence:
#
# PCOD8153299 Si02
#       5
#     8   8   8   8   8
#     4  11  23  45  71  98 134 184 233 271 334 416
#     4  12  26  43  68 105 138 175 226 291 340 392
#     4  11  25  43  71 101 134 183 229 278 341 412
#     4  11  27  44  66 103 141 180 224 284 348 400
#     4  11  23  44  73  95 135 186 229 273 338 414
#
# _framework density 21.930118
#
# number of rings (size 3 to 8) (size 9 to 14) (size 15 to 20)
#    0.000    0.800    4.000    2.400    5.600    2.400 
#    0.000    3.000    0.000    0.000    0.000    0.000 
#    0.000    0.000    0.000    0.000    0.000    0.000 
#
# Total GULP energy -247836.449829 kJ/mol
# GULP energy per Si atom -12391.822491 kJ/mol
# Density = 2.188020 g / cm^3
# Si number density = 21.930118 Si / 1000 Ang^3
#
#
#
# Elastic Constant Matrix: (Units=GPa)
#
#
# Indices 1 2 3 4 5 6 
#
# 1 106.0026 40.2741 74.5149 -0.0133 1.9610 0.0257
# 2 40.2741 94.2141 48.8248 -0.0102 -15.5460 0.0194
# 3 74.5149 48.8248 185.9421 0.0221 -6.6996 0.0808
# 4 -0.0133 -0.0102 0.0221 32.0587 0.0088 7.2967
# 5 1.9610 -15.5460 -6.6996 0.0088 48.5427 -0.0068
# 6 0.0257 0.0194 0.0808 7.2967 -0.0068 17.3614
#
#
#
# Elastic Compliance Matrix: (Units=1/GPa)
#
#
# Indices 1 2 3 4 5 6 
#
# 1 0.014404 -0.004097 -0.004788 0.000008 -0.002555 0.000001
# 2 -0.004097 0.014076 -0.001895 0.000003 0.004412 0.000000
# 3 -0.004788 -0.001895 0.007819 -0.000002 0.000666 -0.000026
# 4 0.000008 0.000003 -0.000002 0.034492 -0.000008 -0.014496
# 5 -0.002555 0.004412 0.000666 -0.000008 0.022208 0.000008
# 6 0.000001 0.000000 -0.000026 -0.014496 0.000008 0.063692
#
#
# Mechanical properties :
#
#
# Convention : Reuss Voigt Hill
#
# Bulk Modulus (GPa) = 67.85911 79.26516 73.56214
# Shear Modulus (GPa) = 27.29796 34.42890 30.86343
#
# Velocity S-wave (km/s) = 3.53196 3.96654 3.75554
# Velocity P-wave (km/s) = 6.90243 7.56312 7.24031
#
# Compressibility (1/GPa) = 0.01473641
#
# Stress axis : x y z
#
# Youngs Moduli (GPa) = 69.42657 71.04453 127.90140
#
# Poissons Ratio (x) = 0.29109 0.61244
# Poissons Ratio (y) = 0.28446 0.24238
# Poissons Ratio (z) = 0.33244 0.13463
#
# Static dielectric constant tensor:
#      x y z
#    x 4.036210 -0.000070 -0.160910 
#    y -0.000070 7.692840 0.000830 
#    z -0.160910 0.000830 4.063810 
# 
# 
# High freq. dielectric constant tensor:
#      x y z
#    x 1.861060 0.000000 -0.009730 
#    y 0.000000 1.863030 0.000000 
#    z -0.009730 0.000000 1.880020 
# 
# From -- ./inp_files/193405.got.cif
#   From: 2010.06.25/outbox.cif.g09.slc.cpg/sg15_97_cif.got.tgz:193405.got - 2010.06.28 07:06:18.
