data_PCOD8153983
_publ_section_title
;
Structure prediction by ZEFSAII (Michael W. Deem and Ramdas Pophale) SiO2 
 PCOD8153983
Probable space group: C 2/C
;
_chemical_formula_sum "Si O2"
_cell_formula_units_Z 44
_cell_length_a 14.817710
_cell_length_b 8.798931
_cell_length_c 19.400920
_cell_angle_alpha 90.000000
_cell_angle_beta 131.191166
_cell_angle_gamma 90.000000
_cell_volume 1903.484438
_symmetry_space_group_name_H-M "C 2/C"
_symmetry_group_IT_number 15
_symmetry_cell_setting 'monoclinic'
loop_
_space_group_symop_operation_xyz
x,y,z
-x,y,1/2-z
-x,-y,-z
x,-y,1/2+z
1/2+x,1/2+y,z
1/2-x,1/2+y,1/2-z
1/2-x,1/2-y,-z
1/2+x,1/2-y,1/2+z
loop_
_atom_site_type_symbol
_atom_site_label
_atom_site_fract_x
_atom_site_fract_y
_atom_site_fract_z
Si Si1 0.972733 0.606134 0.051363
Si Si2 0.676582 0.169275 0.259660
Si Si3 0.121715 0.998084 0.712948
Si Si4 0.651678 0.015846 0.880447
Si Si5 0.000000 0.221357 0.250000
Si Si6 0.417224 0.565160 0.515425
O O1 0.098704 0.640873 0.151906
O O2 0.882889 0.539483 0.061807
O O3 0.901612 0.756384 0.990424
O O4 0.000000 0.500000 0.000000
O O5 0.803670 0.085050 0.310633
O O6 0.691535 0.351682 0.275920
O O7 0.617081 0.095717 0.298496
O O8 0.100298 0.877191 0.761984
O O9 0.988097 0.047131 0.622880
O O10 0.584030 0.175509 0.840373
O O11 0.794993 0.029981 0.955159
O O12 0.500000 0.500000 0.500000
#
# Coordination Sequence:
#
# PCOD8153983 Si02
#       6
#     8   8   8   8   4   8
#     4  11  27  45  72 108 145 192 239 297 370 428
#     4  11  24  47  76 101 146 194 245 297 361 435
#     4  11  27  45  73 106 145 193 243 299 367 430
#     4  12  25  48  76 104 148 192 243 300 361 433
#     4  12  28  44  76 110 142 194 244 302 356 438
#     4  11  26  46  70 106 147 187 240 301 364 429
#
# _framework density 23.115504999999999
#
# number of rings (size 3 to 8) (size 9 to 14) (size 15 to 20)
#    0.000    0.727    3.636    1.636   12.727    2.182 
#    0.000    0.000    0.000    0.000    0.000    0.000 
#    0.000    0.000    0.000    0.000    0.000    0.000 
#
# Total GULP energy -272755.613795 kJ/mol
# GULP energy per Si atom -12397.982445 kJ/mol
# Density = 2.306289 g / cm^3
# Si number density = 23.115505 Si / 1000 Ang^3
#
#
#
# Elastic Constant Matrix: (Units=GPa)
#
#
# Indices 1 2 3 4 5 6 
#
# 1 160.5511 69.4264 34.0173 0.0000 -15.8629 0.0000
# 2 69.4264 152.5914 32.5171 0.0000 -10.8018 0.0000
# 3 34.0173 32.5171 71.1255 0.0000 -3.7703 0.0000
# 4 0.0000 0.0000 0.0000 31.9907 0.0000 -5.6580
# 5 -15.8629 -10.8018 -3.7703 0.0000 53.9681 0.0000
# 6 0.0000 0.0000 0.0000 -5.6580 0.0000 43.7952
#
#
#
# Elastic Compliance Matrix: (Units=1/GPa)
#
#
# Indices 1 2 3 4 5 6 
#
# 1 0.008256 -0.003122 -0.002435 0.000000 0.001632 0.000000
# 2 -0.003122 0.008523 -0.002370 0.000000 0.000623 0.000000
# 3 -0.002435 -0.002370 0.016305 0.000000 -0.000051 0.000000
# 4 0.000000 0.000000 0.000000 0.031990 0.000000 0.004133
# 5 0.001632 0.000623 -0.000051 0.000000 0.019130 0.000000
# 6 0.000000 0.000000 0.000000 0.004133 0.000000 0.023367
#
#
# Mechanical properties :
#
#
# Convention : Reuss Voigt Hill
#
# Bulk Modulus (GPa) = 58.03898 72.90994 65.47446
# Shear Modulus (GPa) = 38.70909 42.50460 40.60685
#
# Velocity S-wave (km/s) = 4.09662 4.29277 4.19584
# Velocity P-wave (km/s) = 6.89486 7.49536 7.20138
#
# Compressibility (1/GPa) = 0.01722980
#
# Stress axis : x y z
#
# Youngs Moduli (GPa) = 121.13044 117.32899 61.33041
#
# Poissons Ratio (x) = 0.36628 0.14932
# Poissons Ratio (y) = 0.37815 0.14538
# Poissons Ratio (z) = 0.29491 0.27813
#
# Static dielectric constant tensor:
#      x y z
#    x 4.354050 0.000000 0.585410 
#    y 0.000000 -2.262300 0.000000 
#    z 0.585410 0.000000 5.121630 
# 
# 
# High freq. dielectric constant tensor:
#      x y z
#    x 1.922610 0.000000 0.001850 
#    y 0.000000 1.918450 0.000000 
#    z 0.001850 0.000000 1.915080 
# 
# From -- ./inp_files/203069.got.cif
#   From: 2010.06.25/outbox.cif.g09.slc.cpg/sg15_102_cif.got.tgz:203069.got - 2010.06.28 07:06:18.
