data_PCOD8153742
_publ_section_title
;
Structure prediction by ZEFSAII (Michael W. Deem and Ramdas Pophale) SiO2 
 PCOD8153742
Probable space group: C 2/C
;
_chemical_formula_sum "Si O2"
_cell_formula_units_Z 44
_cell_length_a 13.830945
_cell_length_b 31.826533
_cell_length_c 5.054456
_cell_angle_alpha 90.000000
_cell_angle_beta 115.658825
_cell_angle_gamma 90.000000
_cell_volume 2005.522723
_symmetry_space_group_name_H-M "C 2/C"
_symmetry_group_IT_number 15
_symmetry_cell_setting 'monoclinic'
loop_
_space_group_symop_operation_xyz
x,y,z
-x,y,1/2-z
-x,-y,-z
x,-y,1/2+z
1/2+x,1/2+y,z
1/2-x,1/2+y,1/2-z
1/2-x,1/2-y,-z
1/2+x,1/2-y,1/2+z
loop_
_atom_site_type_symbol
_atom_site_label
_atom_site_fract_x
_atom_site_fract_y
_atom_site_fract_z
Si Si1 0.621242 0.406406 0.418287
Si Si2 0.500000 0.083204 0.250000
Si Si3 0.500000 0.716932 0.250000
Si Si4 0.406750 0.158574 0.835959
Si Si5 0.831716 0.853390 0.532729
Si Si6 0.500000 0.773466 0.750000
Si Si7 0.304894 0.972185 0.673728
O O1 0.500000 0.423167 0.250000
O O2 0.646472 0.369119 0.239920
O O3 0.701760 0.444780 0.475526
O O4 0.632940 0.389765 0.728439
O O5 0.564873 0.112072 0.531107
O O6 0.586162 0.054442 0.205501
O O7 0.603401 0.688406 0.318855
O O8 0.530160 0.744596 0.538983
O O9 0.500000 0.174177 0.750000
O O10 0.292444 0.156706 0.560214
O O11 0.402159 0.194327 0.060582
O O12 0.303129 0.011007 0.469994
#
# Coordination Sequence:
#
# PCOD8153742 Si02
#       7
#     8   4   4   8   8   4   8
#     4  12  24  47  72 103 137 179 239 286 337 422
#     4  11  24  44  72  97 144 188 234 277 332 432
#     4  12  24  46  70 103 140 182 230 295 340 402
#     4  11  25  46  72 102 140 192 231 280 345 412
#     4  12  25  44  76 102 133 187 237 283 339 412
#     4  11  26  46  64 108 148 174 230 286 356 402
#     4  12  27  44  69 107 140 179 226 290 354 400
#
# _framework density 21.939419999999998
#
# number of rings (size 3 to 8) (size 9 to 14) (size 15 to 20)
#    0.000    0.364    4.545    3.818    5.091    2.182 
#    0.000    0.000    0.000    0.000    0.000    0.000 
#    0.000    0.000    0.000    0.000    0.000    0.000 
#
# Total GULP energy -272884.276428 kJ/mol
# GULP energy per Si atom -12403.830747 kJ/mol
# Density = 2.188948 g / cm^3
# Si number density = 21.939420 Si / 1000 Ang^3
#
#
#
# Elastic Constant Matrix: (Units=GPa)
#
#
# Indices 1 2 3 4 5 6 
#
# 1 119.6761 39.5962 37.3773 0.0000 31.4573 0.0000
# 2 39.5962 114.6710 34.7114 0.0000 12.1810 0.0000
# 3 37.3773 34.7114 98.9900 0.0000 12.1980 0.0000
# 4 0.0000 0.0000 0.0000 37.3946 0.0000 10.6390
# 5 31.4573 12.1810 12.1980 0.0000 52.9428 0.0000
# 6 0.0000 0.0000 0.0000 10.6390 0.0000 39.3535
#
#
#
# Elastic Compliance Matrix: (Units=1/GPa)
#
#
# Indices 1 2 3 4 5 6 
#
# 1 0.011546 -0.002549 -0.002771 0.000000 -0.005635 0.000000
# 2 -0.002549 0.010436 -0.002663 0.000000 -0.000273 0.000000
# 3 -0.002771 -0.002663 0.012149 0.000000 -0.000540 0.000000
# 4 0.000000 0.000000 0.000000 0.028970 0.000000 -0.007832
# 5 -0.005635 -0.000273 -0.000540 0.000000 0.022424 0.000000
# 6 0.000000 0.000000 0.000000 -0.007832 0.000000 0.027528
#
#
# Mechanical properties :
#
#
# Convention : Reuss Voigt Hill
#
# Bulk Modulus (GPa) = 55.05646 61.85631 58.45638
# Shear Modulus (GPa) = 37.01639 40.71499 38.86569
#
# Velocity S-wave (km/s) = 4.11202 4.31256 4.21349
# Velocity P-wave (km/s) = 6.90610 7.28375 7.09743
#
# Compressibility (1/GPa) = 0.01816317
#
# Stress axis : x y z
#
# Youngs Moduli (GPa) = 86.60843 95.82156 82.31257
#
# Poissons Ratio (x) = 0.24429 0.22811
# Poissons Ratio (y) = 0.22080 0.21922
# Poissons Ratio (z) = 0.24002 0.25519
#
# Static dielectric constant tensor:
#      x y z
#    x 4.239870 0.000000 -0.126490 
#    y 0.000000 4.025290 0.000000 
#    z -0.126490 0.000000 4.203550 
# 
# 
# High freq. dielectric constant tensor:
#      x y z
#    x 1.858520 0.000000 0.001500 
#    y 0.000000 1.871940 0.000000 
#    z 0.001500 0.000000 1.879670 
# 
# From -- ./inp_files/8333.got.cif
#   From: 2010.06.25/outbox.cif.g09.slc.cpg/sg15_5_cif.got.tgz:8333.got - 2010.06.28 07:06:18.
