data_PCOD8153708
_publ_section_title
;
Structure prediction by ZEFSAII (Michael W. Deem and Ramdas Pophale) SiO2 
 PCOD8153708
Probable space group: C 2/C
;
_chemical_formula_sum "Si O2"
_cell_formula_units_Z 36
_cell_length_a 12.167279
_cell_length_b 14.895741
_cell_length_c 12.626369
_cell_angle_alpha 90.000000
_cell_angle_beta 47.205290
_cell_angle_gamma 90.000000
_cell_volume 1679.219156
_symmetry_space_group_name_H-M "C 2/C"
_symmetry_group_IT_number 15
_symmetry_cell_setting 'monoclinic'
loop_
_space_group_symop_operation_xyz
x,y,z
-x,y,1/2-z
-x,-y,-z
x,-y,1/2+z
1/2+x,1/2+y,z
1/2-x,1/2+y,1/2-z
1/2-x,1/2-y,-z
1/2+x,1/2-y,1/2+z
loop_
_atom_site_type_symbol
_atom_site_label
_atom_site_fract_x
_atom_site_fract_y
_atom_site_fract_z
Si Si1 0.988748 0.852207 0.528520
Si Si2 0.104997 0.990521 0.085550
Si Si3 0.500000 0.817479 0.750000
Si Si4 0.767609 0.781114 0.281027
Si Si5 0.108983 0.562521 0.994365
O O1 0.118258 0.791304 0.391491
O O2 0.906890 0.915725 0.497275
O O3 0.865290 0.787387 0.661967
O O4 0.059137 0.911362 0.575487
O O5 0.000000 0.959272 0.250000
O O6 0.276365 0.997257 0.012036
O O7 0.645389 0.754920 0.671496
O O8 0.487084 0.875958 0.864322
O O9 0.701032 0.878353 0.350469
O O10 0.000000 0.500000 0.000000
#
# Coordination Sequence:
#
# PCOD8153708 Si02
#       5
#     8   8   4   8   8
#     4  11  25  43  73 101 138 174 236 281 340 401
#     4  11  24  44  70 100 138 183 221 283 348 405
#     4  12  24  42  72  96 136 180 230 286 334 396
#     4  12  23  44  68 106 128 179 229 286 330 400
#     4  12  27  41  68 103 139 176 230 280 340 408
#
# _framework density 21.438535000000002
#
# number of rings (size 3 to 8) (size 9 to 14) (size 15 to 20)
#    0.000    0.444    6.667    2.000    6.222    0.000 
#    0.000    4.444    0.000    0.000    0.000    0.000 
#    0.000    0.000    0.000    0.000    0.000    0.000 
#
# Total GULP energy -223322.685979 kJ/mol
# GULP energy per Si atom -12406.815888 kJ/mol
# Density = 2.138974 g / cm^3
# Si number density = 21.438535 Si / 1000 Ang^3
#
#
#
# Elastic Constant Matrix: (Units=GPa)
#
#
# Indices 1 2 3 4 5 6 
#
# 1 125.9803 66.3333 27.6942 0.0000 -32.9668 0.0000
# 2 66.3333 116.7615 34.2164 0.0000 -28.1913 0.0000
# 3 27.6942 34.2164 85.3572 0.0000 -25.4976 0.0000
# 4 0.0000 0.0000 0.0000 35.0716 0.0000 -9.9068
# 5 -32.9668 -28.1913 -25.4976 0.0000 31.9524 0.0000
# 6 0.0000 0.0000 0.0000 -9.9068 0.0000 43.9653
#
#
#
# Elastic Compliance Matrix: (Units=1/GPa)
#
#
# Indices 1 2 3 4 5 6 
#
# 1 0.013039 -0.005374 0.000691 0.000000 0.009263 0.000000
# 2 -0.005374 0.013353 -0.002293 0.000000 0.004408 0.000000
# 3 0.000691 -0.002293 0.015781 0.000000 0.011282 0.000000
# 4 0.000000 0.000000 0.000000 0.030451 0.000000 0.006862
# 5 0.009263 0.004408 0.011282 0.000000 0.053746 0.000000
# 6 0.000000 0.000000 0.000000 0.006862 0.000000 0.024291
#
#
# Mechanical properties :
#
#
# Convention : Reuss Voigt Hill
#
# Bulk Modulus (GPa) = 35.43344 64.95409 50.19377
# Shear Modulus (GPa) = 28.73217 35.52155 32.12686
#
# Velocity S-wave (km/s) = 3.66486 4.07492 3.87532
# Velocity P-wave (km/s) = 5.87129 7.24594 6.59453
#
# Compressibility (1/GPa) = 0.02822193
#
# Stress axis : x y z
#
# Youngs Moduli (GPa) = 76.69083 74.88761 63.36848
#
# Poissons Ratio (x) = 0.40241 -0.04376
# Poissons Ratio (y) = 0.41210 0.14528
# Poissons Ratio (z) = -0.05296 0.17169
#
# Static dielectric constant tensor:
#      x y z
#    x 3.782560 0.000000 -0.178900 
#    y 0.000000 3.872640 0.000000 
#    z -0.178900 0.000000 3.919970 
# 
# 
# High freq. dielectric constant tensor:
#      x y z
#    x 1.828170 0.000000 -0.015730 
#    y 0.000000 1.844600 0.000000 
#    z -0.015730 0.000000 1.848730 
# 
# From -- ./inp_files/85384.got.cif
#   From: 2010.06.25/outbox.cif.g09.slc.cpg/sg15_43_cif.got.tgz:85384.got - 2010.06.28 07:06:18.
