data_PCOD8153731
_publ_section_title
;
Structure prediction by ZEFSAII (Michael W. Deem and Ramdas Pophale) SiO2 
 PCOD8153731
Probable space group: C 2/C
;
_chemical_formula_sum "Si O2"
_cell_formula_units_Z 56
_cell_length_a 12.957531
_cell_length_b 11.450789
_cell_length_c 19.653601
_cell_angle_alpha 90.000000
_cell_angle_beta 65.082366
_cell_angle_gamma 90.000000
_cell_volume 2644.637159
_symmetry_space_group_name_H-M "C 2/C"
_symmetry_group_IT_number 15
_symmetry_cell_setting 'monoclinic'
loop_
_space_group_symop_operation_xyz
x,y,z
-x,y,1/2-z
-x,-y,-z
x,-y,1/2+z
1/2+x,1/2+y,z
1/2-x,1/2+y,1/2-z
1/2-x,1/2-y,-z
1/2+x,1/2-y,1/2+z
loop_
_atom_site_type_symbol
_atom_site_label
_atom_site_fract_x
_atom_site_fract_y
_atom_site_fract_z
Si Si1 0.626465 0.029178 0.443072
Si Si2 0.305221 0.806205 0.160590
Si Si3 0.587608 0.394439 0.287686
Si Si4 0.476442 0.353492 0.680023
Si Si5 0.331031 0.572867 0.479299
Si Si6 0.168461 0.816629 0.972334
Si Si7 0.925562 0.226341 0.569273
O O1 0.701968 0.058030 0.489149
O O2 0.627458 0.147750 0.398056
O O3 0.500000 0.000000 0.500000
O O4 0.680290 0.926698 0.384145
O O5 0.205071 0.828222 0.241332
O O6 0.417784 0.762838 0.167525
O O7 0.272680 0.700535 0.117753
O O8 0.500000 0.372126 0.250000
O O9 0.605512 0.532714 0.294519
O O10 0.543539 0.342090 0.370578
O O11 0.500000 0.316222 0.750000
O O12 0.588474 0.388191 0.605609
O O13 0.365029 0.447641 0.500052
O O14 0.339959 0.661266 0.540474
O O15 0.250000 0.750000 0.000000
O O16 0.047039 0.751028 0.999153
#
# Coordination Sequence:
#
# PCOD8153731 Si02
#       7
#     8   8   8   8   8   8   8
#     4  12  24  43  65  98 140 174 218 288 355 407
#     4  12  25  43  68  98 139 175 226 285 350 412
#     4  11  25  44  67  97 133 179 227 286 349 406
#     4  11  24  44  71  97 131 180 234 282 344 418
#     4  12  23  44  72 101 131 180 240 287 334 421
#     4  12  21  41  70  99 129 173 231 287 336 404
#     4  12  24  42  68 100 132 178 235 278 344 423
#
# _framework density 21.174927
#
# number of rings (size 3 to 8) (size 9 to 14) (size 15 to 20)
#    0.000    0.286    5.714    4.286    4.000    0.000 
#    0.000    0.714    0.000    0.000    0.000    0.000 
#    0.000    0.000    0.000    0.000    0.000    0.000 
#
# Total GULP energy -347071.370907 kJ/mol
# GULP energy per Si atom -12395.406104 kJ/mol
# Density = 2.112673 g / cm^3
# Si number density = 21.174927 Si / 1000 Ang^3
#
#
#
# Elastic Constant Matrix: (Units=GPa)
#
#
# Indices 1 2 3 4 5 6 
#
# 1 122.1171 47.5965 34.0201 0.0000 8.9491 0.0000
# 2 47.5965 111.9961 30.5564 0.0000 15.1269 0.0000
# 3 34.0201 30.5564 90.2338 0.0000 14.1786 0.0000
# 4 0.0000 0.0000 0.0000 20.2770 0.0000 4.1870
# 5 8.9491 15.1269 14.1786 0.0000 43.4224 0.0000
# 6 0.0000 0.0000 0.0000 4.1870 0.0000 42.2396
#
#
#
# Elastic Compliance Matrix: (Units=1/GPa)
#
#
# Indices 1 2 3 4 5 6 
#
# 1 0.010364 -0.003680 -0.002664 0.000000 0.000016 0.000000
# 2 -0.003680 0.011401 -0.002075 0.000000 -0.002536 0.000000
# 3 -0.002664 -0.002075 0.013270 0.000000 -0.003061 0.000000
# 4 0.000000 0.000000 0.000000 0.050347 0.000000 -0.004991
# 5 0.000016 -0.002536 -0.003061 0.000000 0.024909 0.000000
# 6 0.000000 0.000000 0.000000 -0.004991 0.000000 0.024169
#
#
# Mechanical properties :
#
#
# Convention : Reuss Voigt Hill
#
# Bulk Modulus (GPa) = 54.95018 60.96589 57.95803
# Shear Modulus (GPa) = 31.77315 35.33273 33.55294
#
# Velocity S-wave (km/s) = 3.87784 4.08930 3.98497
# Velocity P-wave (km/s) = 6.78654 7.15196 6.97164
#
# Compressibility (1/GPa) = 0.01819830
#
# Stress axis : x y z
#
# Youngs Moduli (GPa) = 96.48691 87.70814 75.35592
#
# Poissons Ratio (x) = 0.32276 0.20073
# Poissons Ratio (y) = 0.35506 0.15637
# Poissons Ratio (z) = 0.25702 0.18200
#
# Static dielectric constant tensor:
#      x y z
#    x 3.846240 0.000000 0.149190 
#    y 0.000000 4.112180 0.000000 
#    z 0.149190 0.000000 3.953870 
# 
# 
# High freq. dielectric constant tensor:
#      x y z
#    x 1.831280 0.000000 0.009800 
#    y 0.000000 1.841790 0.000000 
#    z 0.009800 0.000000 1.827980 
# 
# From -- ./inp_files/237529.got.cif
#   From: 2010.06.25/outbox.cif.g09.slc.cpg/sg15_119_cif.got.tgz:237529.got - 2010.06.28 07:06:18.
