data_PCOD8153442
_publ_section_title
;
Structure prediction by ZEFSAII (Michael W. Deem and Ramdas Pophale) SiO2 
 PCOD8153442
Probable space group: C 2/C
;
_chemical_formula_sum "Si O2"
_cell_formula_units_Z 60
_cell_length_a 11.683962
_cell_length_b 26.760974
_cell_length_c 18.147360
_cell_angle_alpha 90.000000
_cell_angle_beta 27.756829
_cell_angle_gamma 90.000000
_cell_volume 2642.593686
_symmetry_space_group_name_H-M "C 2/C"
_symmetry_group_IT_number 15
_symmetry_cell_setting 'monoclinic'
loop_
_space_group_symop_operation_xyz
x,y,z
-x,y,1/2-z
-x,-y,-z
x,-y,1/2+z
1/2+x,1/2+y,z
1/2-x,1/2+y,1/2-z
1/2-x,1/2-y,-z
1/2+x,1/2-y,1/2+z
loop_
_atom_site_type_symbol
_atom_site_label
_atom_site_fract_x
_atom_site_fract_y
_atom_site_fract_z
Si Si1 0.254993 0.034111 0.132469
Si Si2 0.264475 0.554111 0.193304
Si Si3 0.968442 0.622669 0.924747
Si Si4 0.223078 0.295799 0.070864
Si Si5 0.803547 0.804973 0.308364
Si Si6 0.581361 0.707003 0.498291
Si Si7 0.000000 0.630223 0.250000
Si Si8 0.780376 0.442701 0.322795
O O1 0.194701 0.059641 0.243921
O O2 0.000000 0.006282 0.250000
O O3 0.293977 0.079466 0.054257
O O4 0.500000 0.000000 0.000000
O O5 0.066056 0.594644 0.280986
O O6 0.163418 0.498841 0.234713
O O7 0.517677 0.563857 0.007847
O O8 0.071385 0.658525 0.930181
O O9 0.207978 0.596141 0.751723
O O10 0.811841 0.653601 0.954824
O O11 0.000000 0.281368 0.250000
O O12 0.250000 0.250000 0.000000
O O13 0.451282 0.305422 0.994846
O O14 0.721174 0.758781 0.406208
O O15 0.000000 0.832362 0.250000
O O16 0.899228 0.788661 0.172374
O O17 0.774572 0.663625 0.405940
O O18 0.000000 0.425450 0.250000
#
# Coordination Sequence:
#
# PCOD8153442 Si02
#       8
#     8   8   8   8   8   8   4   8
#     4  12  29  51  75 112 156 204 257 320 386 462
#     4  11  26  47  75 105 148 194 253 308 385 450
#     4  12  26  47  76 109 150 199 252 312 382 453
#     4  12  25  49  77 109 148 194 255 309 377 446
#     4  12  27  48  72 108 150 206 247 308 383 454
#     4  12  26  49  74 106 153 194 253 313 372 460
#     4  12  28  44  74 112 144 194 246 312 374 446
#     4  11  23  46  76 105 142 191 253 311 374 452
#
# _framework density 22.704965000000001
#
# number of rings (size 3 to 8) (size 9 to 14) (size 15 to 20)
#    0.000    0.267    5.333    2.400    5.600    1.067 
#    0.000    0.000    0.000    0.000    0.000    0.000 
#    0.000    0.000    0.000    0.000    0.000    0.000 
#
# Total GULP energy -372025.221984 kJ/mol
# GULP energy per Si atom -12400.840733 kJ/mol
# Density = 2.265329 g / cm^3
# Si number density = 22.704965 Si / 1000 Ang^3
#
#
#
# Elastic Constant Matrix: (Units=GPa)
#
#
# Indices 1 2 3 4 5 6 
#
# 1 135.4093 34.5106 32.7648 -0.0245 -14.2184 0.0116
# 2 34.5106 118.0942 44.9946 0.0082 -3.8619 -0.0036
# 3 32.7648 44.9946 81.2800 0.0729 1.2575 -0.0503
# 4 -0.0245 0.0082 0.0729 25.9095 -0.1355 -3.7888
# 5 -14.2184 -3.8619 1.2575 -0.1355 45.6812 0.0430
# 6 0.0116 -0.0036 -0.0503 -3.7888 0.0430 42.7497
#
#
#
# Elastic Compliance Matrix: (Units=1/GPa)
#
#
# Indices 1 2 3 4 5 6 
#
# 1 0.008691 -0.001397 -0.002772 0.000030 0.002663 -0.000006
# 2 -0.001397 0.011008 -0.005541 0.000013 0.000648 -0.000005
# 3 -0.002772 -0.005541 0.016515 -0.000054 -0.001786 0.000017
# 4 0.000030 0.000013 -0.000054 0.039103 0.000125 0.003465
# 5 0.002663 0.000648 -0.001786 0.000125 0.022824 -0.000015
# 6 -0.000006 -0.000005 0.000017 0.003465 -0.000015 0.023699
#
#
# Mechanical properties :
#
#
# Convention : Reuss Voigt Hill
#
# Bulk Modulus (GPa) = 59.53623 62.14706 60.84165
# Shear Modulus (GPa) = 34.04620 37.70232 35.87426
#
# Velocity S-wave (km/s) = 3.87654 4.07938 3.97926
# Velocity P-wave (km/s) = 6.80554 7.04411 6.92585
#
# Compressibility (1/GPa) = 0.01679649
#
# Stress axis : x y z
#
# Youngs Moduli (GPa) = 115.05738 90.84031 60.54945
#
# Poissons Ratio (x) = 0.12688 0.16782
# Poissons Ratio (y) = 0.16071 0.33550
# Poissons Ratio (z) = 0.31889 0.50334
#
# Static dielectric constant tensor:
#      x y z
#    x 3.095760 -0.008900 -0.235990 
#    y -0.008900 4.308460 0.000890 
#    z -0.235990 0.000890 4.136990 
# 
# 
# High freq. dielectric constant tensor:
#      x y z
#    x 1.912250 -0.000010 -0.001740 
#    y -0.000010 1.899920 0.000040 
#    z -0.001740 0.000040 1.896480 
# 
# From -- ./inp_files/201256.got.cif
#   From: 2010.06.25/outbox.cif.g09.slc.cpg/sg15_101_cif.got.tgz:201256.got - 2010.06.28 07:06:18.
