data_PCOD8153336
_publ_section_title
;
Structure prediction by ZEFSAII (Michael W. Deem and Ramdas Pophale) SiO2 
 PCOD8153336
Probable space group: C 2/C
;
_chemical_formula_sum "Si O2"
_cell_formula_units_Z 44
_cell_length_a 10.630328
_cell_length_b 15.489266
_cell_length_c 23.255676
_cell_angle_alpha 90.000000
_cell_angle_beta 31.299982
_cell_angle_gamma 90.000000
_cell_volume 1989.334322
_symmetry_space_group_name_H-M "C 2/C"
_symmetry_group_IT_number 15
_symmetry_cell_setting 'monoclinic'
loop_
_space_group_symop_operation_xyz
x,y,z
-x,y,1/2-z
-x,-y,-z
x,-y,1/2+z
1/2+x,1/2+y,z
1/2-x,1/2+y,1/2-z
1/2-x,1/2-y,-z
1/2+x,1/2-y,1/2+z
loop_
_atom_site_type_symbol
_atom_site_label
_atom_site_fract_x
_atom_site_fract_y
_atom_site_fract_z
Si Si1 0.000000 0.046500 0.750000
Si Si2 0.663806 0.726953 0.133564
Si Si3 0.145930 0.916399 0.795267
Si Si4 0.188764 0.567605 0.074936
Si Si5 0.102537 0.895292 0.492528
Si Si6 0.905985 0.592578 0.517268
O O1 0.799997 0.111933 0.854351
O O2 0.893139 0.985092 0.741060
O O3 0.500000 0.763140 0.250000
O O4 0.478507 0.674410 0.167981
O O5 0.759375 0.804582 0.056032
O O6 0.884814 0.664528 0.067093
O O7 0.427400 0.897392 0.695308
O O8 0.027673 0.940551 0.901966
O O9 0.406405 0.621264 0.018961
O O10 0.199312 0.469668 0.096141
O O11 0.220743 0.581002 0.994434
O O12 0.000000 0.500000 0.500000
#
# Coordination Sequence:
#
# PCOD8153336 Si02
#       6
#     4   8   8   8   8   8
#     4  12  22  40  78 100 130 182 248 290 336 418
#     4  12  24  46  71 103 141 178 235 305 353 407
#     4  12  21  44  70  97 136 183 229 295 346 415
#     4  11  23  45  69  96 143 188 234 285 357 430
#     4  11  27  42  67 103 142 187 231 284 365 432
#     4  12  21  43  73 103 134 186 242 290 344 418
#
# _framework density 22.117951999999999
#
# number of rings (size 3 to 8) (size 9 to 14) (size 15 to 20)
#    0.000    0.364    8.182    1.091    0.000    3.636 
#    3.273    0.000    0.000    0.000    0.000    0.000 
#    0.000    0.000    0.000    0.000    0.000    0.000 
#
# Total GULP energy -272605.366644 kJ/mol
# GULP energy per Si atom -12391.153029 kJ/mol
# Density = 2.206761 g / cm^3
# Si number density = 22.117952 Si / 1000 Ang^3
#
#
#
# Elastic Constant Matrix: (Units=GPa)
#
#
# Indices 1 2 3 4 5 6 
#
# 1 118.6396 32.2293 54.9263 -0.0078 -10.3746 0.0066
# 2 32.2293 89.1468 46.6340 -0.0147 -11.6005 0.0050
# 3 54.9263 46.6340 159.2053 -0.0282 -4.4537 0.0318
# 4 -0.0078 -0.0147 -0.0282 25.9983 0.0088 6.6418
# 5 -10.3746 -11.6005 -4.4537 0.0088 40.7936 -0.0057
# 6 0.0066 0.0050 0.0318 6.6418 -0.0057 18.3793
#
#
#
# Elastic Compliance Matrix: (Units=1/GPa)
#
#
# Indices 1 2 3 4 5 6 
#
# 1 0.010513 -0.002006 -0.002990 -0.000003 0.001777 0.000003
# 2 -0.002006 0.014104 -0.003352 0.000002 0.003135 0.000003
# 3 -0.002990 -0.003352 0.008272 0.000011 -0.000810 -0.000016
# 4 -0.000003 0.000002 0.000011 0.042376 -0.000010 -0.015314
# 5 0.001777 0.003135 -0.000810 -0.000010 0.025768 0.000012
# 6 0.000003 0.000003 -0.000016 -0.015314 0.000012 0.059943
#
#
# Mechanical properties :
#
#
# Convention : Reuss Voigt Hill
#
# Bulk Modulus (GPa) = 61.74893 70.50789 66.12841
# Shear Modulus (GPa) = 27.31207 32.58105 29.94656
#
# Velocity S-wave (km/s) = 3.51784 3.84221 3.68360
# Velocity P-wave (km/s) = 6.66925 7.18545 6.93216
#
# Compressibility (1/GPa) = 0.01619461
#
# Stress axis : x y z
#
# Youngs Moduli (GPa) = 95.11703 70.90331 120.89230
#
# Poissons Ratio (x) = 0.14220 0.36146
# Poissons Ratio (y) = 0.19076 0.40518
# Poissons Ratio (z) = 0.28440 0.23764
#
# Static dielectric constant tensor:
#      x y z
#    x 4.283300 -0.000040 0.227110 
#    y -0.000040 3.809230 -0.000120 
#    z 0.227110 -0.000120 5.511350 
# 
# 
# High freq. dielectric constant tensor:
#      x y z
#    x 1.878510 0.000000 0.000320 
#    y 0.000000 1.838840 0.000000 
#    z 0.000320 0.000000 1.890670 
# 
# From -- ./inp_files/292795.got.cif
#   From: 2010.06.25/outbox.cif.g09.slc.cpg/sg15_147_cif.got.tgz:292795.got - 2010.06.28 07:06:18.
