data_PCOD8153508
_publ_section_title
;
Structure prediction by ZEFSAII (Michael W. Deem and Ramdas Pophale) SiO2 
 PCOD8153508
Probable space group: C 2/C
;
_chemical_formula_sum "Si O2"
_cell_formula_units_Z 44
_cell_length_a 17.140539
_cell_length_b 22.410271
_cell_length_c 5.080994
_cell_angle_alpha 90.000000
_cell_angle_beta 92.730739
_cell_angle_gamma 90.000000
_cell_volume 1949.516097
_symmetry_space_group_name_H-M "C 2/C"
_symmetry_group_IT_number 15
_symmetry_cell_setting 'monoclinic'
loop_
_space_group_symop_operation_xyz
x,y,z
-x,y,1/2-z
-x,-y,-z
x,-y,1/2+z
1/2+x,1/2+y,z
1/2-x,1/2+y,1/2-z
1/2-x,1/2-y,-z
1/2+x,1/2-y,1/2+z
loop_
_atom_site_type_symbol
_atom_site_label
_atom_site_fract_x
_atom_site_fract_y
_atom_site_fract_z
Si Si1 0.133830 0.226298 0.452332
Si Si2 0.125258 0.668160 0.594775
Si Si3 0.799854 0.166082 0.547168
Si Si4 0.804297 0.034347 0.676517
Si Si5 0.381674 0.034600 0.846678
Si Si6 0.000000 0.258057 0.750000
O O1 0.139218 0.295956 0.369659
O O2 0.191590 0.212337 0.706798
O O3 0.045065 0.216213 0.545712
O O4 0.151168 0.186042 0.199711
O O5 0.208452 0.662840 0.457167
O O6 0.090654 0.603213 0.655961
O O7 0.064241 0.701536 0.401558
O O8 0.833260 0.102043 0.641833
O O9 0.711355 0.032725 0.666164
O O10 0.837670 0.991643 0.453297
O O11 0.416295 0.000304 0.601753
#
# Coordination Sequence:
#
# PCOD8153508 Si02
#       6
#     8   8   8   8   8   4
#     4  12  25  44  62  96 128 172 215 267 322 378
#     4  11  25  42  68  93 134 168 216 266 325 370
#     4  11  24  39  70  99 127 167 216 264 313 385
#     4   9  17  34  58  94 131 157 195 257 321 370
#     4   9  20  36  60  89 123 166 211 257 307 369
#     4  12  28  44  62  88 136 176 212 264 330 376
#
# _framework density 22.569701999999999
#
# number of rings (size 3 to 8) (size 9 to 14) (size 15 to 20)
#    0.000    1.455    1.818    2.727    5.091    2.909 
#    0.000    0.909    0.000    0.000    0.000   12.727 
#    0.000    0.000    0.000    0.000    0.000    0.000 
#
# Total GULP energy -272749.196818 kJ/mol
# GULP energy per Si atom -12397.690764 kJ/mol
# Density = 2.251833 g / cm^3
# Si number density = 22.569702 Si / 1000 Ang^3
#
#
#
# Elastic Constant Matrix: (Units=GPa)
#
#
# Indices 1 2 3 4 5 6 
#
# 1 68.5199 46.8177 39.5089 0.0000 -7.5372 0.0000
# 2 46.8177 74.5167 28.0353 0.0000 8.5023 0.0000
# 3 39.5089 28.0353 140.7554 0.0000 -5.3539 0.0000
# 4 0.0000 0.0000 0.0000 33.9961 0.0000 6.0133
# 5 -7.5372 8.5023 -5.3539 0.0000 30.8534 0.0000
# 6 0.0000 0.0000 0.0000 6.0133 0.0000 -3.5634
#
#
#
# Elastic Compliance Matrix: (Units=1/GPa)
#
#
# Indices 1 2 3 4 5 6 
#
# 1 0.032301 -0.020000 -0.004604 0.000000 0.012603 0.000000
# 2 -0.020000 0.027548 -0.000350 0.000000 -0.012538 0.000000
# 3 -0.004604 -0.000350 0.008483 0.000000 0.000444 0.000000
# 4 0.000000 0.000000 0.000000 0.022653 0.000000 0.038228
# 5 0.012603 -0.012538 0.000444 0.000000 0.039022 0.000000
# 6 0.000000 0.000000 0.000000 0.038228 0.000000 -0.216121
#
#
# Mechanical properties :
#
#
# Convention : Reuss Voigt Hill
#
# Bulk Modulus (GPa) = 54.27538 56.94621 55.61080
# Shear Modulus (GPa) = -166.30541 23.55256 -71.37642
#
# Velocity S-wave (km/s) = -8.59332 3.23390 -5.62970
# Velocity P-wave (km/s) = 8.62323 6.26340 4.19106
#
# Compressibility (1/GPa) = 0.01842456
#
# Stress axis : x y z
#
# Youngs Moduli (GPa) = 30.95913 36.30051 117.87869
#
# Poissons Ratio (x) = 0.72601 0.54266
# Poissons Ratio (y) = 0.61919 0.04125
# Poissons Ratio (z) = 0.14252 0.01270
#
# Static dielectric constant tensor:
#      x y z
#    x 3.887380 0.000000 -0.154890 
#    y 0.000000 4.280900 0.000000 
#    z -0.154890 0.000000 4.353220 
# 
# 
# High freq. dielectric constant tensor:
#      x y z
#    x 1.855080 0.000000 -0.005570 
#    y 0.000000 1.887850 0.000000 
#    z -0.005570 0.000000 1.905680 
# 
# From -- ./inp_files/10329.got.cif
#   From: 2010.06.25/outbox.cif.g09.slc.cpg/sg15_6_cif.got.tgz:10329.got - 2010.06.28 07:06:18.
