data_PCOD8153772
_publ_section_title
;
Structure prediction by ZEFSAII (Michael W. Deem and Ramdas Pophale) SiO2 
 PCOD8153772
Probable space group: C 2/C
;
_chemical_formula_sum "Si O2"
_cell_formula_units_Z 48
_cell_length_a 9.089699
_cell_length_b 10.677921
_cell_length_c 22.888205
_cell_angle_alpha 90.000000
_cell_angle_beta 102.363582
_cell_angle_gamma 90.000000
_cell_volume 2169.988345
_symmetry_space_group_name_H-M "C 2/C"
_symmetry_group_IT_number 15
_symmetry_cell_setting 'monoclinic'
loop_
_space_group_symop_operation_xyz
x,y,z
-x,y,1/2-z
-x,-y,-z
x,-y,1/2+z
1/2+x,1/2+y,z
1/2-x,1/2+y,1/2-z
1/2-x,1/2-y,-z
1/2+x,1/2-y,1/2+z
loop_
_atom_site_type_symbol
_atom_site_label
_atom_site_fract_x
_atom_site_fract_y
_atom_site_fract_z
Si Si1 0.240425 0.987429 0.493058
Si Si2 0.544402 0.148467 0.409701
Si Si3 0.311372 0.173927 0.895849
Si Si4 0.973682 0.192660 0.006802
Si Si5 0.164188 0.624107 0.737563
Si Si6 0.133045 0.351687 0.718927
O O1 0.360549 0.967446 0.555580
O O2 0.307652 0.953292 0.434830
O O3 0.095108 0.901367 0.489857
O O4 0.186894 0.130805 0.491508
O O5 0.657852 0.250250 0.392376
O O6 0.446419 0.202354 0.455196
O O7 0.432057 0.105068 0.349341
O O8 0.457259 0.251753 0.928178
O O9 0.332733 0.149332 0.830355
O O10 0.216707 0.477788 0.751476
O O11 0.263861 0.728387 0.779200
O O12 0.000000 0.638882 0.750000
O O13 0.000000 0.309726 0.750000
#
# Coordination Sequence:
#
# PCOD8153772 Si02
#       6
#     8   8   8   8   8   8
#     4   8  15  29  55  93 123 161 200 254 314 382
#     4   9  17  34  62  88 122 163 211 255 313 385
#     4   9  17  35  58  88 126 162 207 260 312 383
#     4   8  15  28  54  95 128 154 200 253 321 377
#     4  11  26  44  63  93 128 167 224 274 317 380
#     4  11  24  45  66  90 125 175 220 269 323 376
#
# _framework density 22.119935000000002
#
# number of rings (size 3 to 8) (size 9 to 14) (size 15 to 20)
#    0.000    2.667    1.667    2.000    0.000    4.667 
#    6.000    3.333    0.000    6.000    0.000    0.000 
#    0.000    0.000    0.000    0.000    0.000    0.000 
#
# Total GULP energy -297457.579827 kJ/mol
# GULP energy per Si atom -12394.065826 kJ/mol
# Density = 2.206959 g / cm^3
# Si number density = 22.119935 Si / 1000 Ang^3
#
#
#
# Elastic Constant Matrix: (Units=GPa)
#
#
# Indices 1 2 3 4 5 6 
#
# 1 70.4040 45.1371 32.0390 0.0000 1.6459 0.0000
# 2 45.1371 105.7761 4.1653 0.0000 19.5737 0.0000
# 3 32.0390 4.1653 101.7467 0.0000 4.9399 0.0000
# 4 0.0000 0.0000 0.0000 18.3114 0.0000 14.7696
# 5 1.6459 19.5737 4.9399 0.0000 31.8693 0.0000
# 6 0.0000 0.0000 0.0000 14.7696 0.0000 12.2077
#
#
#
# Elastic Compliance Matrix: (Units=1/GPa)
#
#
# Indices 1 2 3 4 5 6 
#
# 1 0.025077 -0.011709 -0.007762 0.000000 0.007099 0.000000
# 2 -0.011709 0.016135 0.003505 0.000000 -0.009848 0.000000
# 3 -0.007762 0.003505 0.012307 0.000000 -0.003659 0.000000
# 4 0.000000 0.000000 0.000000 2.260829 0.000000 -2.735283
# 5 0.007099 -0.009848 -0.003659 0.000000 0.037627 0.000000
# 6 0.000000 0.000000 0.000000 -2.735283 0.000000 3.391220
#
#
# Mechanical properties :
#
#
# Convention : Reuss Voigt Hill
#
# Bulk Modulus (GPa) = 46.32616 48.95664 47.64140
# Shear Modulus (GPa) = 0.86470 25.58337 13.22404
#
# Velocity S-wave (km/s) = 0.62591 3.40454 2.44772
# Velocity P-wave (km/s) = 4.63799 6.13473 5.43810
#
# Compressibility (1/GPa) = 0.02158608
#
# Stress axis : x y z
#
# Youngs Moduli (GPa) = 39.87766 61.97782 81.25711
#
# Poissons Ratio (x) = 0.72569 0.63070
# Poissons Ratio (y) = 0.46692 -0.28478
# Poissons Ratio (z) = 0.30952 -0.21721
#
# Static dielectric constant tensor:
#      x y z
#    x 4.233410 0.000000 -0.393520 
#    y 0.000000 4.393850 0.000000 
#    z -0.393520 0.000000 4.193800 
# 
# 
# High freq. dielectric constant tensor:
#      x y z
#    x 1.864420 0.000000 -0.013950 
#    y 0.000000 1.879130 0.000000 
#    z -0.013950 0.000000 1.862480 
# 
# From -- ./inp_files/263256.got.cif
#   From: 2010.06.25/outbox.cif.g09.slc.cpg/sg15_132_cif.got.tgz:263256.got - 2010.06.28 07:06:18.
