data_PCOD8153409
_publ_section_title
;
Structure prediction by ZEFSAII (Michael W. Deem and Ramdas Pophale) SiO2 
 PCOD8153409
Probable space group: C 2/C
;
_chemical_formula_sum "Si O2"
_cell_formula_units_Z 56
_cell_length_a 24.541205
_cell_length_b 13.942012
_cell_length_c 9.826842
_cell_angle_alpha 90.000000
_cell_angle_beta 49.009132
_cell_angle_gamma 90.000000
_cell_volume 2537.904837
_symmetry_space_group_name_H-M "C 2/C"
_symmetry_group_IT_number 15
_symmetry_cell_setting 'monoclinic'
loop_
_space_group_symop_operation_xyz
x,y,z
-x,y,1/2-z
-x,-y,-z
x,-y,1/2+z
1/2+x,1/2+y,z
1/2-x,1/2+y,1/2-z
1/2-x,1/2-y,-z
1/2+x,1/2-y,1/2+z
loop_
_atom_site_type_symbol
_atom_site_label
_atom_site_fract_x
_atom_site_fract_y
_atom_site_fract_z
Si Si1 0.192166 0.314852 0.023711
Si Si2 0.594168 0.352282 0.693375
Si Si3 0.888389 0.530481 0.696375
Si Si4 0.177135 0.973897 0.156869
Si Si5 0.735214 0.947444 0.744495
Si Si6 0.479056 0.855317 0.631586
Si Si7 0.947463 0.842459 0.047099
O O1 0.117207 0.258659 0.151212
O O2 0.176800 0.419133 0.113737
O O3 0.250000 0.250000 0.000000
O O4 0.224392 0.340319 0.822933
O O5 0.659731 0.420062 0.629653
O O6 0.571767 0.367631 0.575680
O O7 0.532546 0.369133 0.909736
O O8 0.845858 0.491403 0.633962
O O9 0.922457 0.443186 0.727134
O O10 0.948634 0.608294 0.560387
O O11 0.104008 0.909763 0.278059
O O12 0.214489 0.983553 0.243615
O O13 0.230173 0.926972 0.959561
O O14 0.500000 0.822792 0.750000
O O15 0.442344 0.767405 0.608670
#
# Coordination Sequence:
#
# PCOD8153409 Si02
#       7
#     8   8   8   8   8   8   8
#     4  12  23  42  75 102 140 191 237 284 358 441
#     4  11  23  46  69 103 143 193 242 292 358 427
#     4  11  24  46  71 102 143 188 234 299 364 426
#     4  12  25  45  72 105 150 192 238 296 364 425
#     4  12  24  45  72 109 147 188 235 294 363 430
#     4  11  25  45  72 103 141 183 242 303 364 421
#     4  11  25  44  70 103 141 190 247 297 351 429
#
# _framework density 22.065446000000001
#
# number of rings (size 3 to 8) (size 9 to 14) (size 15 to 20)
#    0.000    0.571    5.714    2.143    0.000    3.429 
#    2.571    4.286    0.000    0.000    0.000    0.000 
#    0.000    0.000    0.000    0.000    0.000    0.000 
#
# Total GULP energy -347013.435139 kJ/mol
# GULP energy per Si atom -12393.336969 kJ/mol
# Density = 2.201522 g / cm^3
# Si number density = 22.065446 Si / 1000 Ang^3
#
#
#
# Elastic Constant Matrix: (Units=GPa)
#
#
# Indices 1 2 3 4 5 6 
#
# 1 93.2637 31.3840 37.4170 0.0000 -5.8940 0.0000
# 2 31.3840 100.1805 41.5967 0.0000 -8.9441 0.0000
# 3 37.4170 41.5967 105.4171 0.0000 -5.4583 0.0000
# 4 0.0000 0.0000 0.0000 33.4392 0.0000 -8.8298
# 5 -5.8940 -8.9441 -5.4583 0.0000 31.3806 0.0000
# 6 0.0000 0.0000 0.0000 -8.8298 0.0000 47.3816
#
#
#
# Elastic Compliance Matrix: (Units=1/GPa)
#
#
# Indices 1 2 3 4 5 6 
#
# 1 0.013078 -0.002504 -0.003596 0.000000 0.001117 0.000000
# 2 -0.002504 0.012633 -0.003970 0.000000 0.002440 0.000000
# 3 -0.003596 -0.003970 0.012346 0.000000 0.000341 0.000000
# 4 0.000000 0.000000 0.000000 0.031453 0.000000 0.005861
# 5 0.001117 0.002440 0.000341 0.000000 0.032831 0.000000
# 6 0.000000 0.000000 0.000000 0.005861 0.000000 0.022198
#
#
# Mechanical properties :
#
#
# Convention : Reuss Voigt Hill
#
# Bulk Modulus (GPa) = 55.81056 57.73963 56.77509
# Shear Modulus (GPa) = 33.18929 35.00452 34.09691
#
# Velocity S-wave (km/s) = 3.88252 3.98728 3.93525
# Velocity P-wave (km/s) = 6.74142 6.88637 6.81428
#
# Compressibility (1/GPa) = 0.01791776
#
# Stress axis : x y z
#
# Youngs Moduli (GPa) = 76.46253 79.16080 80.99465
#
# Poissons Ratio (x) = 0.19823 0.29126
# Poissons Ratio (y) = 0.19148 0.32151
# Poissons Ratio (z) = 0.27496 0.31423
#
# Static dielectric constant tensor:
#      x y z
#    x 4.546060 0.000000 -0.993340 
#    y 0.000000 4.132480 0.000000 
#    z -0.993340 0.000000 5.581820 
# 
# 
# High freq. dielectric constant tensor:
#      x y z
#    x 1.878020 0.000000 -0.014640 
#    y 0.000000 1.863080 0.000000 
#    z -0.014640 0.000000 1.871150 
# 
# From -- ./inp_files/61814.got.cif
#   From: 2010.06.25/outbox.cif.g09.slc.cpg/sg15_31_cif.got.tgz:61814.got - 2010.06.28 07:06:18.
