data_PCOD8153304
_publ_section_title
;
Structure prediction by ZEFSAII (Michael W. Deem and Ramdas Pophale) SiO2 
 PCOD8153304
Probable space group: C 2/C
;
_chemical_formula_sum "Si O2"
_cell_formula_units_Z 52
_cell_length_a 9.305487
_cell_length_b 25.473130
_cell_length_c 12.508792
_cell_angle_alpha 90.000000
_cell_angle_beta 123.686700
_cell_angle_gamma 90.000000
_cell_volume 2467.194477
_symmetry_space_group_name_H-M "C 2/C"
_symmetry_group_IT_number 15
_symmetry_cell_setting 'monoclinic'
loop_
_space_group_symop_operation_xyz
x,y,z
-x,y,1/2-z
-x,-y,-z
x,-y,1/2+z
1/2+x,1/2+y,z
1/2-x,1/2+y,1/2-z
1/2-x,1/2-y,-z
1/2+x,1/2-y,1/2+z
loop_
_atom_site_type_symbol
_atom_site_label
_atom_site_fract_x
_atom_site_fract_y
_atom_site_fract_z
Si Si1 0.645978 0.933771 0.896056
Si Si2 0.000000 0.153186 0.250000
Si Si3 0.936234 0.634782 0.943201
Si Si4 0.132156 0.550663 0.899335
Si Si5 0.810609 0.725654 0.413173
Si Si6 0.991764 0.095800 0.025377
Si Si7 0.114589 0.825620 0.192896
O O1 0.500000 0.919560 0.750000
O O2 0.831363 0.936177 0.914529
O O3 0.612564 0.991097 0.934773
O O4 0.650004 0.888654 0.986381
O O5 0.833979 0.189155 0.197765
O O6 0.979653 0.116953 0.139488
O O7 0.789662 0.642886 0.793148
O O8 0.084728 0.593840 0.968898
O O9 0.017021 0.691719 0.998513
O O10 0.000000 0.559741 0.750000
O O11 0.327703 0.558191 0.939291
O O12 0.750000 0.750000 0.500000
O O13 0.843773 0.769365 0.338694
O O14 0.990167 0.142496 0.938972
O O15 0.000000 0.817207 0.250000
#
# Coordination Sequence:
#
# PCOD8153304 Si02
#       7
#     8   4   8   8   8   8   8
#     4  11  26  45  69 104 142 183 229 286 353 414
#     4  12  24  42  68  96 140 182 230 282 340 416
#     4  12  24  46  72  98 142 181 227 295 347 407
#     4  11  23  44  74 103 137 182 234 281 345 422
#     4  12  25  43  70 100 137 182 235 284 346 416
#     4  12  24  46  69 101 144 183 227 288 348 411
#     4  12  26  45  71 103 136 184 232 287 355 412
#
# _framework density 21.07657
#
# number of rings (size 3 to 8) (size 9 to 14) (size 15 to 20)
#    0.000    0.308    6.154    2.769    0.000    2.462 
#    0.000    0.000    0.000    0.000    0.000    0.000 
#    0.000    0.000    0.000    0.000    0.000    0.000 
#
# Total GULP energy -322532.619896 kJ/mol
# GULP energy per Si atom -12405.100765 kJ/mol
# Density = 2.102860 g / cm^3
# Si number density = 21.076570 Si / 1000 Ang^3
#
#
#
# Elastic Constant Matrix: (Units=GPa)
#
#
# Indices 1 2 3 4 5 6 
#
# 1 123.3188 41.1590 49.2623 0.0000 6.9248 0.0000
# 2 41.1590 114.9784 49.1345 0.0000 -9.9567 0.0000
# 3 49.2623 49.1345 117.8081 0.0000 2.9888 0.0000
# 4 0.0000 0.0000 0.0000 27.8697 0.0000 -10.9477
# 5 6.9248 -9.9567 2.9888 0.0000 44.8843 0.0000
# 6 0.0000 0.0000 0.0000 -10.9477 0.0000 30.8750
#
#
#
# Elastic Compliance Matrix: (Units=1/GPa)
#
#
# Indices 1 2 3 4 5 6 
#
# 1 0.010341 -0.002485 -0.003239 0.000000 -0.001931 0.000000
# 2 -0.002485 0.011504 -0.003840 0.000000 0.003191 0.000000
# 3 -0.003239 -0.003840 0.011472 0.000000 -0.001116 0.000000
# 4 0.000000 0.000000 0.000000 0.041688 0.000000 0.014782
# 5 -0.001931 0.003191 -0.001116 0.000000 0.023360 0.000000
# 6 0.000000 0.000000 0.000000 0.014782 0.000000 0.037630
#
#
# Mechanical properties :
#
#
# Convention : Reuss Voigt Hill
#
# Bulk Modulus (GPa) = 70.47068 70.57964 70.52516
# Shear Modulus (GPa) = 31.27904 35.16242 33.22073
#
# Velocity S-wave (km/s) = 3.85654 4.08894 3.97444
# Velocity P-wave (km/s) = 7.30333 7.47345 7.38888
#
# Compressibility (1/GPa) = 0.01419030
#
# Stress axis : x y z
#
# Youngs Moduli (GPa) = 96.70639 86.92584 87.16513
#
# Poissons Ratio (x) = 0.21600 0.28230
# Poissons Ratio (y) = 0.24030 0.33471
# Poissons Ratio (z) = 0.31320 0.33379
#
# Static dielectric constant tensor:
#      x y z
#    x 4.176290 0.000000 -0.042570 
#    y 0.000000 3.874710 0.000000 
#    z -0.042570 0.000000 3.950180 
# 
# 
# High freq. dielectric constant tensor:
#      x y z
#    x 1.833330 0.000000 0.010610 
#    y 0.000000 1.833740 0.000000 
#    z 0.010610 0.000000 1.833630 
# 
# From -- ./inp_files/80821.got.cif
#   From: 2010.06.25/outbox.cif.g09.slc.cpg/sg15_41_cif.got.tgz:80821.got - 2010.06.28 07:06:18.
