data_PCOD8153170
_publ_section_title
;
Structure prediction by ZEFSAII (Michael W. Deem and Ramdas Pophale) SiO2 
 PCOD8153170
Probable space group: C 2/C
;
_chemical_formula_sum "Si O2"
_cell_formula_units_Z 40
_cell_length_a 12.075476
_cell_length_b 26.030819
_cell_length_c 5.443339
_cell_angle_alpha 90.000000
_cell_angle_beta 74.443540
_cell_angle_gamma 90.000000
_cell_volume 1648.348659
_symmetry_space_group_name_H-M "C 2/C"
_symmetry_group_IT_number 15
_symmetry_cell_setting 'monoclinic'
loop_
_space_group_symop_operation_xyz
x,y,z
-x,y,1/2-z
-x,-y,-z
x,-y,1/2+z
1/2+x,1/2+y,z
1/2-x,1/2+y,1/2-z
1/2-x,1/2-y,-z
1/2+x,1/2-y,1/2+z
loop_
_atom_site_type_symbol
_atom_site_label
_atom_site_fract_x
_atom_site_fract_y
_atom_site_fract_z
Si Si1 0.782850 0.675793 0.325877
Si Si2 0.000000 0.618382 0.250000
Si Si3 0.000000 0.439941 0.250000
Si Si4 0.882896 0.224171 0.686646
Si Si5 0.247297 0.027826 0.829817
Si Si6 0.878336 0.878485 0.912116
O O1 0.828475 0.721927 0.115315
O O2 0.705357 0.700755 0.573345
O O3 0.715734 0.628550 0.243295
O O4 0.891463 0.651545 0.399018
O O5 0.035694 0.589385 0.479283
O O6 0.113468 0.471933 0.257194
O O7 0.906460 0.179933 0.476267
O O8 0.000000 0.239472 0.750000
O O9 0.205180 0.999126 0.607820
O O10 0.183034 0.083472 0.855872
O O11 0.000000 0.902337 0.750000
#
# Coordination Sequence:
#
# PCOD8153170 Si02
#       6
#     8   4   4   8   8   8
#     4  11  24  44  67 107 146 187 242 285 357 424
#     4  12  24  43  76 112 146 194 224 305 352 430
#     4  12  24  47  78 106 148 182 240 289 376 424
#     4  11  23  43  70 102 146 189 241 289 354 426
#     4  12  28  48  75 107 141 186 240 303 364 427
#     4  12  26  46  72  99 142 189 240 297 356 427
#
# _framework density 24.266711999999998
#
# number of rings (size 3 to 8) (size 9 to 14) (size 15 to 20)
#    0.000    0.400    5.000    3.600    2.800    0.800 
#    1.800    0.000    0.000    0.000    0.000    0.000 
#    0.000    0.000    0.000    0.000    0.000    0.000 
#
# Total GULP energy -247808.654353 kJ/mol
# GULP energy per Si atom -12390.432718 kJ/mol
# Density = 2.421148 g / cm^3
# Si number density = 24.266712 Si / 1000 Ang^3
#
#
#
# Elastic Constant Matrix: (Units=GPa)
#
#
# Indices 1 2 3 4 5 6 
#
# 1 109.6497 17.0165 20.2203 0.0000 -22.0872 0.0000
# 2 17.0165 72.5738 17.8480 0.0000 -3.1407 0.0000
# 3 20.2203 17.8480 98.7619 0.0000 1.8572 0.0000
# 4 0.0000 0.0000 0.0000 123.6321 0.0000 6.4860
# 5 -22.0872 -3.1407 1.8572 0.0000 33.7093 0.0000
# 6 0.0000 0.0000 0.0000 6.4860 0.0000 36.5476
#
#
#
# Elastic Compliance Matrix: (Units=1/GPa)
#
#
# Indices 1 2 3 4 5 6 
#
# 1 0.011267 -0.001804 -0.002119 0.000000 0.007331 0.000000
# 2 -0.001804 0.014784 -0.002308 0.000000 0.000323 0.000000
# 3 -0.002119 -0.002308 0.011018 0.000000 -0.002210 0.000000
# 4 0.000000 0.000000 0.000000 0.008165 0.000000 -0.001449
# 5 0.007331 0.000323 -0.002210 0.000000 0.034621 0.000000
# 6 0.000000 0.000000 0.000000 -0.001449 0.000000 0.027619
#
#
# Mechanical properties :
#
#
# Convention : Reuss Voigt Hill
#
# Bulk Modulus (GPa) = 40.63837 43.46168 42.05002
# Shear Modulus (GPa) = 39.02066 53.83783 46.42925
#
# Velocity S-wave (km/s) = 4.01433 4.71530 4.37886
# Velocity P-wave (km/s) = 6.18622 6.89886 6.55224
#
# Compressibility (1/GPa) = 0.02460729
#
# Stress axis : x y z
#
# Youngs Moduli (GPa) = 88.75199 67.64229 90.76133
#
# Poissons Ratio (x) = 0.12200 0.19230
# Poissons Ratio (y) = 0.16007 0.20952
# Poissons Ratio (z) = 0.18805 0.15615
#
# Static dielectric constant tensor:
#      x y z
#    x 4.448840 0.000000 -0.226420 
#    y 0.000000 4.962410 0.000000 
#    z -0.226420 0.000000 4.087820 
# 
# 
# High freq. dielectric constant tensor:
#      x y z
#    x 1.975950 0.000000 -0.017410 
#    y 0.000000 1.969400 0.000000 
#    z -0.017410 0.000000 1.948910 
# 
# From -- ./inp_files/4947.got.cif
#   From: 2010.06.25/outbox.cif.g09.slc.cpg/sg15_3_cif.got.tgz:4947.got - 2010.06.28 07:06:18.
