data_PCOD8153622
_publ_section_title
;
Structure prediction by ZEFSAII (Michael W. Deem and Ramdas Pophale) SiO2 
 PCOD8153622
Probable space group: C 2/C
;
_chemical_formula_sum "Si O2"
_cell_formula_units_Z 48
_cell_length_a 26.455271
_cell_length_b 9.283967
_cell_length_c 8.530704
_cell_angle_alpha 90.000000
_cell_angle_beta 90.449870
_cell_angle_gamma 90.000000
_cell_volume 2095.160456
_symmetry_space_group_name_H-M "C 2/C"
_symmetry_group_IT_number 15
_symmetry_cell_setting 'monoclinic'
loop_
_space_group_symop_operation_xyz
x,y,z
-x,y,1/2-z
-x,-y,-z
x,-y,1/2+z
1/2+x,1/2+y,z
1/2-x,1/2+y,1/2-z
1/2-x,1/2-y,-z
1/2+x,1/2-y,1/2+z
loop_
_atom_site_type_symbol
_atom_site_label
_atom_site_fract_x
_atom_site_fract_y
_atom_site_fract_z
Si Si1 0.610124 0.347850 0.298142
Si Si2 0.944387 0.650058 0.700296
Si Si3 0.221873 0.536778 0.075270
Si Si4 0.054768 0.931325 0.990689
Si Si5 0.720901 0.337035 0.212194
Si Si6 0.612162 0.932204 0.995097
O O1 0.594699 0.446300 0.444602
O O2 0.664811 0.396896 0.239366
O O3 0.612009 0.183762 0.356040
O O4 0.569669 0.361183 0.156908
O O5 0.945411 0.815203 0.648097
O O6 0.927483 0.555039 0.552392
O O7 0.904374 0.636260 0.840664
O O8 0.000000 0.598424 0.750000
O O9 0.242400 0.387772 0.147330
O O10 0.220279 0.663002 0.206780
O O11 0.166649 0.507397 0.005689
O O12 0.260507 0.591944 0.946823
O O13 0.000000 0.000000 0.000000
#
# Coordination Sequence:
#
# PCOD8153622 Si02
#       6
#     8   8   8   8   8   8
#     4  12  25  43  69  99 134 179 226 280 342 408
#     4  12  25  44  69 100 137 181 229 281 342 404
#     4  11  25  44  67  97 136 177 224 283 341 405
#     4  12  26  46  69 101 140 178 225 281 341 407
#     4  11  24  43  67  98 135 178 227 280 342 407
#     4  12  26  46  71 101 139 181 231 286 341 407
#
# _framework density 22.909938
#
# number of rings (size 3 to 8) (size 9 to 14) (size 15 to 20)
#    0.000    0.333    0.000   10.000    0.000    9.333 
#    0.000    0.000    0.000    0.000    0.000    0.000 
#    0.000    0.000    0.000    0.000    0.000    0.000 
#
# Total GULP energy -297803.510580 kJ/mol
# GULP energy per Si atom -12408.479608 kJ/mol
# Density = 2.285779 g / cm^3
# Si number density = 22.909938 Si / 1000 Ang^3
#
#
#
# Elastic Constant Matrix: (Units=GPa)
#
#
# Indices 1 2 3 4 5 6 
#
# 1 139.9725 70.4047 34.1244 0.0000 1.6914 0.0000
# 2 70.4047 133.4128 40.3505 0.0000 7.2826 0.0000
# 3 34.1244 40.3505 78.1225 0.0000 0.6225 0.0000
# 4 0.0000 0.0000 0.0000 49.3639 0.0000 7.8036
# 5 1.6914 7.2826 0.6225 0.0000 52.9180 0.0000
# 6 0.0000 0.0000 0.0000 7.8036 0.0000 38.0996
#
#
#
# Elastic Compliance Matrix: (Units=1/GPa)
#
#
# Indices 1 2 3 4 5 6 
#
# 1 0.009974 -0.004698 -0.001933 0.000000 0.000350 0.000000
# 2 -0.004698 0.011169 -0.003706 0.000000 -0.001343 0.000000
# 3 -0.001933 -0.003706 0.015556 0.000000 0.000389 0.000000
# 4 0.000000 0.000000 0.000000 0.020936 0.000000 -0.004288
# 5 0.000350 -0.001343 0.000389 0.000000 0.019066 0.000000
# 6 0.000000 0.000000 0.000000 -0.004288 0.000000 0.027125
#
#
# Mechanical properties :
#
#
# Convention : Reuss Voigt Hill
#
# Bulk Modulus (GPa) = 62.40286 71.25189 66.82738
# Shear Modulus (GPa) = 38.50820 41.85151 40.17986
#
# Velocity S-wave (km/s) = 4.10427 4.27873 4.19240
# Velocity P-wave (km/s) = 7.05390 7.45509 7.25727
#
# Compressibility (1/GPa) = 0.01602491
#
# Stress axis : x y z
#
# Youngs Moduli (GPa) = 100.25627 89.53309 64.28467
#
# Poissons Ratio (x) = 0.42064 0.12427
# Poissons Ratio (y) = 0.47102 0.23824
# Poissons Ratio (z) = 0.19380 0.33180
#
# Static dielectric constant tensor:
#      x y z
#    x 4.135070 0.000000 -0.079940 
#    y 0.000000 4.245770 0.000000 
#    z -0.079940 0.000000 4.167830 
# 
# 
# High freq. dielectric constant tensor:
#      x y z
#    x 1.915790 0.000000 -0.007070 
#    y 0.000000 1.913010 0.000000 
#    z -0.007070 0.000000 1.915930 
# 
# From -- ./inp_files/68580.got.cif
#   From: 2010.06.25/outbox.cif.g09.slc.cpg/sg15_35_cif.got.tgz:68580.got - 2010.06.28 07:06:18.
