data_PCOD8153886
_publ_section_title
;
Structure prediction by ZEFSAII (Michael W. Deem and Ramdas Pophale) SiO2 
 PCOD8153886
Probable space group: C 2/C
;
_chemical_formula_sum "Si O2"
_cell_formula_units_Z 52
_cell_length_a 7.722321
_cell_length_b 30.075297
_cell_length_c 13.955722
_cell_angle_alpha 90.000000
_cell_angle_beta 45.931886
_cell_angle_gamma 90.000000
_cell_volume 2328.868683
_symmetry_space_group_name_H-M "C 2/C"
_symmetry_group_IT_number 15
_symmetry_cell_setting 'monoclinic'
loop_
_space_group_symop_operation_xyz
x,y,z
-x,y,1/2-z
-x,-y,-z
x,-y,1/2+z
1/2+x,1/2+y,z
1/2-x,1/2+y,1/2-z
1/2-x,1/2-y,-z
1/2+x,1/2-y,1/2+z
loop_
_atom_site_type_symbol
_atom_site_label
_atom_site_fract_x
_atom_site_fract_y
_atom_site_fract_z
Si Si1 0.775707 0.536969 0.677796
Si Si2 0.167796 0.196376 0.429317
Si Si3 0.251364 0.797040 0.116100
Si Si4 0.000000 0.409829 0.250000
Si Si5 0.053833 0.438529 0.891085
Si Si6 0.786335 0.660279 0.969965
Si Si7 0.500000 0.381301 0.750000
Si Si8 0.000000 0.622582 0.250000
O O1 0.500000 0.530654 0.750000
O O2 0.912056 0.490494 0.641621
O O3 0.799607 0.561241 0.770348
O O4 0.920069 0.566836 0.544334
O O5 0.271638 0.190251 0.496726
O O6 0.247762 0.244550 0.362804
O O7 0.277597 0.157227 0.318747
O O8 0.876574 0.193101 0.533557
O O9 0.000000 0.817248 0.250000
O O10 0.465331 0.817385 0.095502
O O11 0.841394 0.382615 0.385648
O O12 0.308709 0.414802 0.778788
O O13 0.903598 0.410668 0.870548
O O14 0.634559 0.649416 0.122356
#
# Coordination Sequence:
#
# PCOD8153886 Si02
#       8
#     8   8   8   4   8   8   4   4
#     4  11  26  46  72 103 145 189 230 301 365 429
#     4  11  25  43  71 102 135 187 240 290 358 427
#     4  11  25  47  69 101 145 183 236 301 361 420
#     4  12  27  44  65 112 138 188 244 283 363 438
#     4  11  24  46  71 103 142 183 239 296 361 424
#     4  12  26  44  72 102 144 186 240 296 358 428
#     4  12  22  46  67 102 137 179 240 293 340 438
#     4  12  23  44  72 104 137 191 240 298 353 434
#
# _framework density 22.328437000000001
#
# number of rings (size 3 to 8) (size 9 to 14) (size 15 to 20)
#    0.000    0.615    4.615    2.769    2.154    0.615 
#    0.000    4.615    0.000    0.000    0.000    0.000 
#    0.000    0.000    0.000    0.000    0.000    0.000 
#
# Total GULP energy -322282.364732 kJ/mol
# GULP energy per Si atom -12395.475567 kJ/mol
# Density = 2.227762 g / cm^3
# Si number density = 22.328437 Si / 1000 Ang^3
#
#
#
# Elastic Constant Matrix: (Units=GPa)
#
#
# Indices 1 2 3 4 5 6 
#
# 1 136.9735 52.2039 37.6476 0.0000 -9.3818 0.0000
# 2 52.2039 105.6022 52.5420 0.0000 14.1896 0.0000
# 3 37.6476 52.5420 109.2722 0.0000 -1.6772 0.0000
# 4 0.0000 0.0000 0.0000 -17.9101 0.0000 -48.1383
# 5 -9.3818 14.1896 -1.6772 0.0000 38.4245 0.0000
# 6 0.0000 0.0000 0.0000 -48.1383 0.0000 -4.1766
#
#
#
# Elastic Compliance Matrix: (Units=1/GPa)
#
#
# Indices 1 2 3 4 5 6 
#
# 1 0.009703 -0.004890 -0.000928 0.000000 0.004134 0.000000
# 2 -0.004890 0.015891 -0.006069 0.000000 -0.007327 0.000000
# 3 -0.000928 -0.006069 0.012428 0.000000 0.002557 0.000000
# 4 0.000000 0.000000 0.000000 0.001862 0.000000 -0.021466
# 5 0.004134 -0.007327 0.002557 0.000000 0.029852 0.000000
# 6 0.000000 0.000000 0.000000 -0.021466 0.000000 0.007987
#
#
# Mechanical properties :
#
#
# Convention : Reuss Voigt Hill
#
# Bulk Modulus (GPa) = 70.18339 70.73719 70.46029
# Shear Modulus (GPa) = 47.06045 17.23118 32.14582
#
# Velocity S-wave (km/s) = 4.59589 2.78099 3.79843
# Velocity P-wave (km/s) = 7.72421 6.48544 7.13178
#
# Compressibility (1/GPa) = 0.01424839
#
# Stress axis : x y z
#
# Youngs Moduli (GPa) = 103.06360 62.92908 80.46099
#
# Poissons Ratio (x) = 0.30774 0.07467
# Poissons Ratio (y) = 0.50401 0.48828
# Poissons Ratio (z) = 0.09564 0.38189
#
# Static dielectric constant tensor:
#      x y z
#    x 4.798400 0.000000 0.582070 
#    y 0.000000 4.036800 0.000000 
#    z 0.582070 0.000000 4.597040 
# 
# 
# High freq. dielectric constant tensor:
#      x y z
#    x 1.889330 0.000000 -0.002360 
#    y 0.000000 1.886820 0.000000 
#    z -0.002360 0.000000 1.876960 
# 
# From -- ./inp_files/139754.got.cif
#   From: 2010.06.25/outbox.cif.g09.slc.cpg/sg15_70_cif.got.tgz:139754.got - 2010.06.28 07:06:18.
