data_PCOD8153478
_publ_section_title
;
Structure prediction by ZEFSAII (Michael W. Deem and Ramdas Pophale) SiO2 
 PCOD8153478
Probable space group: C 2/C
;
_chemical_formula_sum "Si O2"
_cell_formula_units_Z 40
_cell_length_a 10.518285
_cell_length_b 15.211007
_cell_length_c 10.583759
_cell_angle_alpha 90.000000
_cell_angle_beta 100.564183
_cell_angle_gamma 90.000000
_cell_volume 1664.633062
_symmetry_space_group_name_H-M "C 2/C"
_symmetry_group_IT_number 15
_symmetry_cell_setting 'monoclinic'
loop_
_space_group_symop_operation_xyz
x,y,z
-x,y,1/2-z
-x,-y,-z
x,-y,1/2+z
1/2+x,1/2+y,z
1/2-x,1/2+y,1/2-z
1/2-x,1/2-y,-z
1/2+x,1/2-y,1/2+z
loop_
_atom_site_type_symbol
_atom_site_label
_atom_site_fract_x
_atom_site_fract_y
_atom_site_fract_z
Si Si1 0.529831 0.253598 0.613486
Si Si2 0.253059 0.365247 0.163291
Si Si3 0.346700 0.958501 0.745770
Si Si4 0.889170 0.928623 0.961634
Si Si5 0.389440 0.772331 0.836906
O O1 0.500000 0.218700 0.750000
O O2 0.646594 0.195926 0.577000
O O3 0.562512 0.356854 0.630608
O O4 0.419640 0.236899 0.490296
O O5 0.193761 0.460792 0.174916
O O6 0.297747 0.311784 0.295442
O O7 0.374620 0.377652 0.091955
O O8 0.500000 0.967430 0.750000
O O9 0.252291 0.965552 0.605458
O O10 0.315893 0.865818 0.809008
O O11 0.000000 0.000000 0.000000
O O12 0.500000 0.772216 0.750000
#
# Coordination Sequence:
#
# PCOD8153478 Si02
#       5
#     8   8   8   8   8
#     4  12  27  46  76 111 156 199 262 320 386 461
#     4  12  25  48  77 108 155 200 257 317 393 460
#     4  11  26  45  74 114 154 200 260 318 389 465
#     4  12  27  47  78 115 155 204 266 319 384 463
#     4  11  23  47  78 105 146 206 250 310 391 459
#
# _framework density 24.029319000000001
#
# number of rings (size 3 to 8) (size 9 to 14) (size 15 to 20)
#    0.000    0.400    4.000    4.800    2.800    5.600 
#    0.000    0.000    0.000    0.000    0.000    0.000 
#    0.000    0.000    0.000    0.000    0.000    0.000 
#
# Total GULP energy -247880.323160 kJ/mol
# GULP energy per Si atom -12394.016158 kJ/mol
# Density = 2.397463 g / cm^3
# Si number density = 24.029319 Si / 1000 Ang^3
#
#
#
# Elastic Constant Matrix: (Units=GPa)
#
#
# Indices 1 2 3 4 5 6 
#
# 1 101.2991 59.1490 56.7378 0.0000 21.5434 0.0000
# 2 59.1490 162.9935 43.1171 0.0000 8.8660 0.0000
# 3 56.7378 43.1171 147.1432 0.0000 23.2040 0.0000
# 4 0.0000 0.0000 0.0000 37.4132 0.0000 7.9274
# 5 21.5434 8.8660 23.2040 0.0000 45.4555 0.0000
# 6 0.0000 0.0000 0.0000 7.9274 0.0000 48.6025
#
#
#
# Elastic Compliance Matrix: (Units=1/GPa)
#
#
# Indices 1 2 3 4 5 6 
#
# 1 0.015639 -0.004361 -0.004043 0.000000 -0.004498 0.000000
# 2 -0.004361 0.007871 -0.000771 0.000000 0.000925 0.000000
# 3 -0.004043 -0.000771 0.008978 0.000000 -0.002516 0.000000
# 4 0.000000 0.000000 0.000000 0.027685 0.000000 -0.004516
# 5 -0.004498 0.000925 -0.002516 0.000000 0.025235 0.000000
# 6 0.000000 0.000000 0.000000 -0.004516 0.000000 0.021312
#
#
# Mechanical properties :
#
#
# Convention : Reuss Voigt Hill
#
# Bulk Modulus (GPa) = 70.73043 81.04930 75.88986
# Shear Modulus (GPa) = 38.52549 43.12304 40.82426
#
# Velocity S-wave (km/s) = 4.00843 4.24087 4.12629
# Velocity P-wave (km/s) = 7.13599 7.60148 7.37241
#
# Compressibility (1/GPa) = 0.01413819
#
# Stress axis : x y z
#
# Youngs Moduli (GPa) = 63.94093 127.04175 111.38512
#
# Poissons Ratio (x) = 0.55405 0.45036
# Poissons Ratio (y) = 0.27886 0.08585
# Poissons Ratio (z) = 0.25853 0.09792
#
# Static dielectric constant tensor:
#      x y z
#    x 4.095260 0.000000 0.301660 
#    y 0.000000 4.599520 0.000000 
#    z 0.301660 0.000000 4.082280 
# 
# 
# High freq. dielectric constant tensor:
#      x y z
#    x 1.945210 0.000000 0.019680 
#    y 0.000000 1.974610 0.000000 
#    z 0.019680 0.000000 1.948470 
# 
# From -- ./inp_files/86249.got.cif
#   From: 2010.06.25/outbox.cif.g09.slc.cpg/sg15_44_cif.got.tgz:86249.got - 2010.06.28 07:06:18.
