data_PCOD8153550
_publ_section_title
;
Structure prediction by ZEFSAII (Michael W. Deem and Ramdas Pophale) SiO2 
 PCOD8153550
Probable space group: C 2/C
;
_chemical_formula_sum "Si O2"
_cell_formula_units_Z 40
_cell_length_a 14.455850
_cell_length_b 21.647041
_cell_length_c 8.962113
_cell_angle_alpha 90.000000
_cell_angle_beta 36.931089
_cell_angle_gamma 90.000000
_cell_volume 1685.084102
_symmetry_space_group_name_H-M "C 2/C"
_symmetry_group_IT_number 15
_symmetry_cell_setting 'monoclinic'
loop_
_space_group_symop_operation_xyz
x,y,z
-x,y,1/2-z
-x,-y,-z
x,-y,1/2+z
1/2+x,1/2+y,z
1/2-x,1/2+y,1/2-z
1/2-x,1/2-y,-z
1/2+x,1/2-y,1/2+z
loop_
_atom_site_type_symbol
_atom_site_label
_atom_site_fract_x
_atom_site_fract_y
_atom_site_fract_z
Si Si1 0.128964 0.648389 0.480354
Si Si2 0.347804 0.428999 0.270117
Si Si3 0.620760 0.434383 0.715764
Si Si4 0.176094 0.807041 0.015473
Si Si5 0.045318 0.562991 0.018284
O O1 0.218187 0.601663 0.476821
O O2 0.038988 0.617452 0.459270
O O3 0.254110 0.693554 0.243196
O O4 0.000000 0.682372 0.750000
O O5 0.332879 0.494441 0.375626
O O6 0.296579 0.373752 0.444218
O O7 0.232610 0.429154 0.274241
O O8 0.527026 0.424187 0.992286
O O9 0.500000 0.408534 0.750000
O O10 0.000000 0.790144 0.250000
O O11 0.250000 0.750000 0.000000
O O12 0.000000 0.563253 0.250000
O O13 0.000000 0.500000 0.000000
#
# Coordination Sequence:
#
# PCOD8153550 Si02
#       5
#     8   8   8   8   8
#     4  12  26  47  74 115 152 191 253 319 387 461
#     4  11  24  42  70 105 153 199 255 302 385 457
#     4  11  24  41  71 110 155 195 244 319 390 459
#     4  12  28  52  77 107 146 209 261 315 379 469
#     4  12  24  38  67 109 156 198 237 303 381 461
#
# _framework density 23.737689
#
# number of rings (size 3 to 8) (size 9 to 14) (size 15 to 20)
#    0.000    0.400    6.000    2.400    8.400    0.000 
#    0.000    2.000    0.000    0.000    0.000    0.000 
#    0.000    0.000    0.000    0.000    0.000    0.000 
#
# Total GULP energy -247928.061916 kJ/mol
# GULP energy per Si atom -12396.403096 kJ/mol
# Density = 2.368366 g / cm^3
# Si number density = 23.737689 Si / 1000 Ang^3
#
#
#
# Elastic Constant Matrix: (Units=GPa)
#
#
# Indices 1 2 3 4 5 6 
#
# 1 144.9812 21.9328 38.7869 0.0006 -17.3681 -0.0001
# 2 21.9328 85.0488 57.9683 0.0001 3.8706 0.0000
# 3 38.7869 57.9683 166.6380 0.0004 -14.2485 -0.0001
# 4 0.0006 0.0001 0.0004 5.6992 -0.0004 4.5098
# 5 -17.3681 3.8706 -14.2485 -0.0004 44.4023 0.0001
# 6 -0.0001 0.0000 -0.0001 4.5098 0.0001 28.0873
#
#
#
# Elastic Compliance Matrix: (Units=1/GPa)
#
#
# Indices 1 2 3 4 5 6 
#
# 1 0.007731 -0.001386 -0.001078 -0.000001 0.002799 0.000000
# 2 -0.001386 0.016102 -0.005599 0.000000 -0.003742 0.000000
# 3 -0.001078 -0.005599 0.008437 0.000000 0.002774 0.000000
# 4 -0.000001 0.000000 0.000000 0.201000 0.000002 -0.032273
# 5 0.002799 -0.003742 0.002774 0.000002 0.024832 0.000000
# 6 0.000000 0.000000 0.000000 -0.032273 0.000000 0.040785
#
#
# Mechanical properties :
#
#
# Convention : Reuss Voigt Hill
#
# Bulk Modulus (GPa) = 61.94420 70.44933 66.19677
# Shear Modulus (GPa) = 15.60577 34.16975 24.88776
#
# Velocity S-wave (km/s) = 2.56681 3.79815 3.24149
# Velocity P-wave (km/s) = 5.91072 6.99838 6.47742
#
# Compressibility (1/GPa) = 0.01614356
#
# Stress axis : x y z
#
# Youngs Moduli (GPa) = 129.35215 62.10500 118.53017
#
# Poissons Ratio (x) = 0.08610 0.12776
# Poissons Ratio (y) = 0.17933 0.66361
# Poissons Ratio (z) = 0.13942 0.34770
#
# Static dielectric constant tensor:
#      x y z
#    x 1.946290 0.000000 -0.315770 
#    y 0.000000 3.972460 0.000010 
#    z -0.315770 0.000010 4.696470 
# 
# 
# High freq. dielectric constant tensor:
#      x y z
#    x 1.956890 0.000000 -0.016250 
#    y 0.000000 1.888250 0.000000 
#    z -0.016250 0.000000 1.973580 
# 
# From -- ./inp_files/41925.got.cif
#   From: 2010.06.25/outbox.cif.g09.slc.cpg/sg15_21_cif.got.tgz:41925.got - 2010.06.28 07:06:18.
