data_PCOD8153623
_publ_section_title
;
Structure prediction by ZEFSAII (Michael W. Deem and Ramdas Pophale) SiO2 
 PCOD8153623
Probable space group: C 2/C
;
_chemical_formula_sum "Si O2"
_cell_formula_units_Z 32
_cell_length_a 19.370344
_cell_length_b 13.097036
_cell_length_c 14.401489
_cell_angle_alpha 90.000000
_cell_angle_beta 157.784911
_cell_angle_gamma 90.000000
_cell_volume 1381.359583
_symmetry_space_group_name_H-M "C 2/C"
_symmetry_group_IT_number 15
_symmetry_cell_setting 'monoclinic'
loop_
_space_group_symop_operation_xyz
x,y,z
-x,y,1/2-z
-x,-y,-z
x,-y,1/2+z
1/2+x,1/2+y,z
1/2-x,1/2+y,1/2-z
1/2-x,1/2-y,-z
1/2+x,1/2-y,1/2+z
loop_
_atom_site_type_symbol
_atom_site_label
_atom_site_fract_x
_atom_site_fract_y
_atom_site_fract_z
Si Si1 0.111127 0.838142 0.797455
Si Si2 0.541533 0.900270 0.612070
Si Si3 0.835513 0.939677 0.119392
Si Si4 0.828507 0.200475 0.787691
O O1 0.000000 0.863746 0.750000
O O2 0.995189 0.805479 0.565740
O O3 0.190660 0.948363 0.867495
O O4 0.250000 0.750000 0.000000
O O5 0.353546 0.840762 0.392537
O O6 0.686521 0.822569 0.745398
O O7 0.500000 0.000000 0.500000
O O8 0.635383 0.926890 0.825759
O O9 0.870383 0.857093 0.243390
O O10 0.000000 0.929364 0.250000
#
# Coordination Sequence:
#
# PCOD8153623 Si02
#       4
#     8   8   8   8
#     4  11  24  43  67  99 137 182 237 294 354 421
#     4  12  26  46  71 104 142 187 237 291 357 431
#     4  11  24  44  69 102 140 186 238 291 353 426
#     4  12  25  45  71 101 139 185 233 296 357 424
#
# _framework density 23.165582000000001
#
# number of rings (size 3 to 8) (size 9 to 14) (size 15 to 20)
#    0.000    0.500    0.000    9.750    0.000    6.000 
#    0.000    0.000    0.000    0.000    0.000    0.000 
#    0.000    0.000    0.000    0.000    0.000    0.000 
#
# Total GULP energy -198294.429629 kJ/mol
# GULP energy per Si atom -12393.401852 kJ/mol
# Density = 2.311286 g / cm^3
# Si number density = 23.165582 Si / 1000 Ang^3
#
#
#
# Elastic Constant Matrix: (Units=GPa)
#
#
# Indices 1 2 3 4 5 6 
#
# 1 80.0342 26.9605 20.2773 -0.0002 -6.5608 -0.0001
# 2 26.9605 147.0592 16.9657 -0.0001 10.8813 0.0001
# 3 20.2773 16.9657 132.0133 -0.0003 -14.4502 -0.0003
# 4 -0.0002 -0.0001 -0.0003 38.9708 -0.0003 -2.1360
# 5 -6.5608 10.8813 -14.4502 -0.0003 46.3165 -0.0005
# 6 -0.0001 0.0001 -0.0003 -2.1360 -0.0005 20.4785
#
#
#
# Elastic Compliance Matrix: (Units=1/GPa)
#
#
# Indices 1 2 3 4 5 6 
#
# 1 0.013916 -0.002521 -0.001587 0.000000 0.002068 0.000000
# 2 -0.002521 0.007536 -0.000843 0.000000 -0.002391 0.000000
# 3 -0.001587 -0.000843 0.008204 0.000000 0.002533 0.000000
# 4 0.000000 0.000000 0.000000 0.025808 0.000000 0.002692
# 5 0.002068 -0.002391 0.002533 0.000000 0.023235 0.000001
# 6 0.000000 0.000000 0.000000 0.002692 0.000001 0.049112
#
#
# Mechanical properties :
#
#
# Convention : Reuss Voigt Hill
#
# Bulk Modulus (GPa) = 50.62264 54.16819 52.39542
# Shear Modulus (GPa) = 34.65035 40.81338 37.73186
#
# Velocity S-wave (km/s) = 3.87171 4.20195 4.04020
# Velocity P-wave (km/s) = 6.47200 6.85388 6.66568
#
# Compressibility (1/GPa) = 0.01975401
#
# Stress axis : x y z
#
# Youngs Moduli (GPa) = 71.86199 132.69078 121.88659
#
# Poissons Ratio (x) = 0.33453 0.19344
# Poissons Ratio (y) = 0.18117 0.10275
# Poissons Ratio (z) = 0.11405 0.11185
#
# Static dielectric constant tensor:
#      x y z
#    x 4.231110 0.000010 -0.140380 
#    y 0.000010 4.382750 0.000000 
#    z -0.140380 0.000000 4.297390 
# 
# 
# High freq. dielectric constant tensor:
#      x y z
#    x 1.908970 0.000000 -0.014340 
#    y 0.000000 1.945350 0.000000 
#    z -0.014340 0.000000 1.934470 
# 
# From -- ./inp_files/36829.got.cif
#   From: 2010.06.25/outbox.cif.g09.slc.cpg/sg15_19_cif.got.tgz:36829.got - 2010.06.28 07:06:18.
