data_PCOD8153059
_publ_section_title
;
Structure prediction by ZEFSAII (Michael W. Deem and Ramdas Pophale) SiO2 
 PCOD8153059
Probable space group: C 2/C
;
_chemical_formula_sum "Si O2"
_cell_formula_units_Z 56
_cell_length_a 15.487408
_cell_length_b 16.386937
_cell_length_c 11.877751
_cell_angle_alpha 90.000000
_cell_angle_beta 56.276516
_cell_angle_gamma 90.000000
_cell_volume 2507.213690
_symmetry_space_group_name_H-M "C 2/C"
_symmetry_group_IT_number 15
_symmetry_cell_setting 'monoclinic'
loop_
_space_group_symop_operation_xyz
x,y,z
-x,y,1/2-z
-x,-y,-z
x,-y,1/2+z
1/2+x,1/2+y,z
1/2-x,1/2+y,1/2-z
1/2-x,1/2-y,-z
1/2+x,1/2-y,1/2+z
loop_
_atom_site_type_symbol
_atom_site_label
_atom_site_fract_x
_atom_site_fract_y
_atom_site_fract_z
Si Si1 0.649588 0.328048 0.535162
Si Si2 0.801136 0.594923 0.088606
Si Si3 0.225216 0.689222 0.786053
Si Si4 0.311067 0.366682 0.626393
Si Si5 0.021825 0.950896 0.873883
Si Si6 0.506621 0.826763 0.124913
Si Si7 0.685294 0.446559 0.117485
O O1 0.735198 0.330463 0.574741
O O2 0.708987 0.316646 0.375095
O O3 0.587130 0.414734 0.594704
O O4 0.563587 0.258785 0.610539
O O5 0.772227 0.580889 0.240899
O O6 0.778246 0.511988 0.037113
O O7 0.921814 0.616290 0.004208
O O8 0.234045 0.775307 0.845500
O O9 0.275213 0.623837 0.830828
O O10 0.103504 0.676648 0.855158
O O11 0.412479 0.371601 0.633702
O O12 0.337169 0.406551 0.487621
O O13 0.081193 0.010262 0.741862
O O14 0.000000 0.000000 0.000000
O O15 0.500000 0.871512 0.250000
#
# Coordination Sequence:
#
# PCOD8153059 Si02
#       7
#     8   8   8   8   8   8   8
#     4  12  23  43  69 110 141 174 242 306 363 417
#     4  11  25  43  70 103 142 184 238 309 358 422
#     4  12  24  46  71 103 146 191 240 295 359 444
#     4  11  24  44  68 103 146 189 235 288 367 434
#     4  11  23  42  69 106 140 184 237 299 364 414
#     4  12  24  41  72 103 134 184 239 295 357 425
#     4  11  27  44  70 104 147 191 232 297 363 440
#
# _framework density 22.335552
#
# number of rings (size 3 to 8) (size 9 to 14) (size 15 to 20)
#    0.000    0.571    5.714    2.571    4.000    3.429 
#    0.000    0.714    0.000    0.000    0.000    0.000 
#    0.000    0.000    0.000    0.000    0.000    0.000 
#
# Total GULP energy -346966.208067 kJ/mol
# GULP energy per Si atom -12391.650288 kJ/mol
# Density = 2.228472 g / cm^3
# Si number density = 22.335552 Si / 1000 Ang^3
#
#
#
# Elastic Constant Matrix: (Units=GPa)
#
#
# Indices 1 2 3 4 5 6 
#
# 1 106.7812 41.9752 56.0300 0.0000 -7.7861 0.0000
# 2 41.9752 97.8381 45.7771 0.0000 -4.6820 0.0000
# 3 56.0300 45.7771 164.5014 0.0000 0.2693 0.0000
# 4 0.0000 0.0000 0.0000 37.8422 0.0000 3.1741
# 5 -7.7861 -4.6820 0.2693 0.0000 38.6194 0.0000
# 6 0.0000 0.0000 0.0000 3.1741 0.0000 39.5607
#
#
#
# Elastic Compliance Matrix: (Units=1/GPa)
#
#
# Indices 1 2 3 4 5 6 
#
# 1 0.012747 -0.003833 -0.003279 0.000000 0.002128 0.000000
# 2 -0.003833 0.012985 -0.002309 0.000000 0.000818 0.000000
# 3 -0.003279 -0.002309 0.007840 0.000000 -0.000996 0.000000
# 4 0.000000 0.000000 0.000000 0.026605 0.000000 -0.002135
# 5 0.002128 0.000818 -0.000996 0.000000 0.026429 0.000000
# 6 0.000000 0.000000 0.000000 -0.002135 0.000000 0.025449
#
#
# Mechanical properties :
#
#
# Convention : Reuss Voigt Hill
#
# Bulk Modulus (GPa) = 67.88674 72.96501 70.42587
# Shear Modulus (GPa) = 36.81712 38.22701 37.52207
#
# Velocity S-wave (km/s) = 4.06441 4.14150 4.10314
# Velocity P-wave (km/s) = 7.24472 7.45707 7.35166
#
# Compressibility (1/GPa) = 0.01473042
#
# Stress axis : x y z
#
# Youngs Moduli (GPa) = 78.44849 77.01178 127.55234
#
# Poissons Ratio (x) = 0.29519 0.41819
# Poissons Ratio (y) = 0.30070 0.29455
# Poissons Ratio (z) = 0.25720 0.17784
#
# Static dielectric constant tensor:
#      x y z
#    x 4.467080 0.000000 -0.267590 
#    y 0.000000 4.215790 0.000000 
#    z -0.267590 0.000000 4.330470 
# 
# 
# High freq. dielectric constant tensor:
#      x y z
#    x 1.873370 0.000000 -0.004310 
#    y 0.000000 1.881860 0.000000 
#    z -0.004310 0.000000 1.896880 
# 
# From -- ./inp_files/98684.got.cif
#   From: 2010.06.25/outbox.cif.g09.slc.cpg/sg15_50_cif.got.tgz:98684.got - 2010.06.28 07:06:18.
