data_PCOD8153326
_publ_section_title
;
Structure prediction by ZEFSAII (Michael W. Deem and Ramdas Pophale) SiO2 
 PCOD8153326
Probable space group: C 2/C
;
_chemical_formula_sum "Si O2"
_cell_formula_units_Z 56
_cell_length_a 10.406521
_cell_length_b 9.360129
_cell_length_c 24.620804
_cell_angle_alpha 90.000000
_cell_angle_beta 73.716484
_cell_angle_gamma 90.000000
_cell_volume 2302.021034
_symmetry_space_group_name_H-M "C 2/C"
_symmetry_group_IT_number 15
_symmetry_cell_setting 'monoclinic'
loop_
_space_group_symop_operation_xyz
x,y,z
-x,y,1/2-z
-x,-y,-z
x,-y,1/2+z
1/2+x,1/2+y,z
1/2-x,1/2+y,1/2-z
1/2-x,1/2-y,-z
1/2+x,1/2-y,1/2+z
loop_
_atom_site_type_symbol
_atom_site_label
_atom_site_fract_x
_atom_site_fract_y
_atom_site_fract_z
Si Si1 0.101061 0.071828 0.529219
Si Si2 0.130284 0.385804 0.555579
Si Si3 0.115472 0.287742 0.787626
Si Si4 0.246052 0.312811 0.659689
Si Si5 0.950712 0.564136 0.638462
Si Si6 0.494134 0.492130 0.156444
Si Si7 0.393618 0.751316 0.305223
O O1 0.079572 0.242902 0.531856
O O2 0.253043 0.038981 0.492946
O O3 0.000000 0.000000 0.500000
O O4 0.074275 0.005364 0.590750
O O5 0.180536 0.354001 0.610828
O O6 0.002836 0.492179 0.576003
O O7 0.130092 0.301167 0.720231
O O8 0.084269 0.442480 0.814278
O O9 0.249098 0.223200 0.798212
O O10 0.008312 0.167670 0.819019
O O11 0.321563 0.161829 0.642796
O O12 0.348868 0.434382 0.667422
O O13 0.077978 0.657789 0.643817
O O14 0.584189 0.582928 0.187275
O O15 0.500000 0.811339 0.250000
#
# Coordination Sequence:
#
# PCOD8153326 Si02
#       7
#     8   8   8   8   8   8   8
#     4  11  24  47  72  93 130 182 237 288 337 391
#     4  11  25  45  71  96 131 179 229 287 337 402
#     4  12  24  42  69 100 143 181 215 273 342 415
#     4  11  24  41  69 103 141 171 225 275 338 418
#     4  11  25  42  66 104 136 177 220 271 337 405
#     4  11  23  45  67  97 134 181 225 275 339 404
#     4  11  25  41  65 100 145 175 219 273 336 412
#
# _framework density 24.326450000000001
#
# number of rings (size 3 to 8) (size 9 to 14) (size 15 to 20)
#    0.000    0.857    5.714    1.714    4.000    0.000 
#    0.000    7.143    0.000    0.000    0.000    0.000 
#    0.000    0.000    0.000    0.000    0.000    0.000 
#
# Total GULP energy -347278.199167 kJ/mol
# GULP energy per Si atom -12402.792827 kJ/mol
# Density = 2.427108 g / cm^3
# Si number density = 24.326450 Si / 1000 Ang^3
#
#
#
# Elastic Constant Matrix: (Units=GPa)
#
#
# Indices 1 2 3 4 5 6 
#
# 1 26.6921 18.2213 21.0992 0.0000 -0.9772 0.0000
# 2 18.2213 110.9326 22.4890 0.0000 -16.5224 0.0000
# 3 21.0992 22.4890 137.3110 0.0000 -35.2719 0.0000
# 4 0.0000 0.0000 0.0000 39.2099 0.0000 -5.9837
# 5 -0.9772 -16.5224 -35.2719 0.0000 35.0620 0.0000
# 6 0.0000 0.0000 0.0000 -5.9837 0.0000 37.6251
#
#
#
# Elastic Compliance Matrix: (Units=1/GPa)
#
#
# Indices 1 2 3 4 5 6 
#
# 1 0.049975 -0.008070 -0.009408 0.000000 -0.011874 0.000000
# 2 -0.008070 0.011030 0.000959 0.000000 0.005937 0.000000
# 3 -0.009408 0.000959 0.011624 0.000000 0.011883 0.000000
# 4 0.000000 0.000000 0.000000 0.026138 0.000000 0.004157
# 5 -0.011874 0.005937 0.011883 0.000000 0.042942 0.000000
# 6 0.000000 0.000000 0.000000 0.004157 0.000000 0.027239
#
#
# Mechanical properties :
#
#
# Convention : Reuss Voigt Hill
#
# Bulk Modulus (GPa) = 25.25840 44.28387 34.77113
# Shear Modulus (GPa) = 23.23611 36.58782 29.91196
#
# Velocity S-wave (km/s) = 3.09395 3.88240 3.51038
# Velocity P-wave (km/s) = 4.81342 6.19200 5.54571
#
# Compressibility (1/GPa) = 0.03959079
#
# Stress axis : x y z
#
# Youngs Moduli (GPa) = 20.01001 90.66203 86.03109
#
# Poissons Ratio (x) = 0.73165 0.80934
# Poissons Ratio (y) = 0.16148 -0.08247
# Poissons Ratio (z) = 0.18825 -0.08691
#
# Static dielectric constant tensor:
#      x y z
#    x 4.585540 0.000000 -0.248690 
#    y 0.000000 4.563250 0.000000 
#    z -0.248690 0.000000 4.778980 
# 
# 
# High freq. dielectric constant tensor:
#      x y z
#    x 1.972680 0.000000 -0.010170 
#    y 0.000000 1.979560 0.000000 
#    z -0.010170 0.000000 1.966960 
# 
# From -- ./inp_files/291507.got.cif
#   From: 2010.06.25/outbox.cif.g09.slc.cpg/sg15_146_cif.got.tgz:291507.got - 2010.06.28 07:06:18.
