data_PCOD8153391
_publ_section_title
;
Structure prediction by ZEFSAII (Michael W. Deem and Ramdas Pophale) SiO2 
 PCOD8153391
Probable space group: C 2/C
;
_chemical_formula_sum "Si O2"
_cell_formula_units_Z 48
_cell_length_a 27.663170
_cell_length_b 6.825320
_cell_length_c 26.310204
_cell_angle_alpha 90.000000
_cell_angle_beta 151.730752
_cell_angle_gamma 90.000000
_cell_volume 2352.746565
_symmetry_space_group_name_H-M "C 2/C"
_symmetry_group_IT_number 15
_symmetry_cell_setting 'monoclinic'
loop_
_space_group_symop_operation_xyz
x,y,z
-x,y,1/2-z
-x,-y,-z
x,-y,1/2+z
1/2+x,1/2+y,z
1/2-x,1/2+y,1/2-z
1/2-x,1/2-y,-z
1/2+x,1/2-y,1/2+z
loop_
_atom_site_type_symbol
_atom_site_label
_atom_site_fract_x
_atom_site_fract_y
_atom_site_fract_z
Si Si1 0.235279 0.045620 0.459736
Si Si2 0.973825 0.213162 0.871648
Si Si3 0.323570 0.966176 0.264109
Si Si4 0.346996 0.215922 0.891306
Si Si5 0.414418 0.755283 0.629631
Si Si6 0.701745 0.433125 0.812197
O O1 0.250000 0.250000 0.500000
O O2 0.189864 0.067227 0.361580
O O3 0.345648 0.946530 0.559906
O O4 0.154594 0.926650 0.418143
O O5 0.909072 0.414065 0.812514
O O6 0.036296 0.199871 0.877953
O O7 0.899129 0.026682 0.806558
O O8 0.048045 0.202036 0.988694
O O9 0.371224 0.889460 0.360704
O O10 0.284952 0.789134 0.193453
O O11 0.227350 0.102023 0.188074
O O12 0.299884 0.060502 0.887303
O O13 0.500000 0.804032 0.750000
#
# Coordination Sequence:
#
# PCOD8153391 Si02
#       6
#     8   8   8   8   8   8
#     4  11  26  41  69  94 129 176 215 265 331 388
#     4  11  25  42  68  95 130 170 215 270 321 385
#     4  11  25  42  69  94 133 171 216 267 325 392
#     4  11  23  46  65  95 133 172 210 271 326 383
#     4  11  24  45  63  95 134 165 214 276 321 380
#     4  11  24  43  63  99 130 170 219 262 326 389
#
# _framework density 20.401686999999999
#
# number of rings (size 3 to 8) (size 9 to 14) (size 15 to 20)
#    0.000    1.000    5.000    0.500    4.667    4.000 
#    0.000    0.000    0.000    0.000    0.000    0.000 
#    0.000    0.000    0.000    0.000    0.000    0.000 
#
# Total GULP energy -297779.269861 kJ/mol
# GULP energy per Si atom -12407.469578 kJ/mol
# Density = 2.035525 g / cm^3
# Si number density = 20.401687 Si / 1000 Ang^3
#
#
#
# Elastic Constant Matrix: (Units=GPa)
#
#
# Indices 1 2 3 4 5 6 
#
# 1 69.6547 29.7137 -0.4842 -0.0002 1.0669 -0.0013
# 2 29.7137 89.8461 18.8086 -0.0025 -11.4394 -0.0058
# 3 -0.4842 18.8086 106.0402 -0.0005 -5.7054 -0.0016
# 4 -0.0002 -0.0025 -0.0005 26.0123 -0.0003 -12.0969
# 5 1.0669 -11.4394 -5.7054 -0.0003 30.0757 -0.0007
# 6 -0.0013 -0.0058 -0.0016 -12.0969 -0.0007 27.5673
#
#
#
# Elastic Compliance Matrix: (Units=1/GPa)
#
#
# Indices 1 2 3 4 5 6 
#
# 1 0.017055 -0.006209 0.001030 -0.000001 -0.002771 -0.000001
# 2 -0.006209 0.014329 -0.002288 0.000003 0.005236 0.000004
# 3 0.001030 -0.002288 0.009893 0.000000 0.000970 0.000000
# 4 -0.000001 0.000003 0.000000 0.048300 0.000002 0.021195
# 5 -0.002771 0.005236 0.000970 0.000002 0.035523 0.000003
# 6 -0.000001 0.000004 0.000000 0.021195 0.000003 0.045575
#
#
# Mechanical properties :
#
#
# Convention : Reuss Voigt Hill
#
# Bulk Modulus (GPa) = 37.96045 40.17967 39.07006
# Shear Modulus (GPa) = 25.72143 31.23127 28.47635
#
# Velocity S-wave (km/s) = 3.55456 3.91681 3.74007
# Velocity P-wave (km/s) = 5.95763 6.33974 6.15165
#
# Compressibility (1/GPa) = 0.02634321
#
# Stress axis : x y z
#
# Youngs Moduli (GPa) = 58.63488 69.78763 101.08013
#
# Poissons Ratio (x) = 0.43329 -0.10412
# Poissons Ratio (y) = 0.36405 0.23129
# Poissons Ratio (z) = -0.06040 0.15969
#
# Static dielectric constant tensor:
#      x y z
#    x 3.791460 0.000000 -0.087680 
#    y 0.000000 3.699140 0.000010 
#    z -0.087680 0.000010 5.004120 
# 
# 
# High freq. dielectric constant tensor:
#      x y z
#    x 1.809450 0.000000 -0.003670 
#    y 0.000000 1.801470 0.000000 
#    z -0.003670 0.000000 1.805170 
# 
# From -- ./inp_files/179781.got.cif
#   From: 2010.06.25/outbox.cif.g09.slc.cpg/sg15_90_cif.got.tgz:179781.got - 2010.06.28 07:06:18.
