data_PCOD8153696
_publ_section_title
;
Structure prediction by ZEFSAII (Michael W. Deem and Ramdas Pophale) SiO2 
 PCOD8153696
Probable space group: C 2/C
;
_chemical_formula_sum "Si O2"
_cell_formula_units_Z 36
_cell_length_a 17.432405
_cell_length_b 21.499490
_cell_length_c 9.089453
_cell_angle_alpha 90.000000
_cell_angle_beta 150.446755
_cell_angle_gamma 90.000000
_cell_volume 1680.252722
_symmetry_space_group_name_H-M "C 2/C"
_symmetry_group_IT_number 15
_symmetry_cell_setting 'monoclinic'
loop_
_space_group_symop_operation_xyz
x,y,z
-x,y,1/2-z
-x,-y,-z
x,-y,1/2+z
1/2+x,1/2+y,z
1/2-x,1/2+y,1/2-z
1/2-x,1/2-y,-z
1/2+x,1/2-y,1/2+z
loop_
_atom_site_type_symbol
_atom_site_label
_atom_site_fract_x
_atom_site_fract_y
_atom_site_fract_z
Si Si1 0.760237 0.160458 0.314640
Si Si2 0.105679 0.534844 0.058139
Si Si3 0.398444 0.540635 0.940341
Si Si4 0.000000 0.745676 0.750000
Si Si5 0.454885 0.333730 0.403746
O O1 0.679519 0.098211 0.245012
O O2 0.837368 0.196257 0.584589
O O3 0.894543 0.138674 0.427274
O O4 0.650196 0.204000 0.033168
O O5 0.234972 0.489036 0.209905
O O6 0.000000 0.558255 0.750000
O O7 0.000000 0.500000 0.000000
O O8 0.361075 0.608554 0.814476
O O9 0.500000 0.552582 0.250000
O O10 0.500000 0.500000 0.000000
O O11 0.017349 0.786173 0.630973
#
# Coordination Sequence:
#
# PCOD8153696 Si02
#       5
#     8   8   8   4   8
#     4  11  24  45  68  97 140 176 223 285 339 400
#     4  12  25  42  66 102 140 177 221 286 353 398
#     4  12  23  42  70  98 133 178 233 280 337 412
#     4  12  24  44  70 100 136 180 228 274 344 402
#     4  11  24  44  69 100 131 179 233 277 330 411
#
# _framework density 21.425349000000001
#
# number of rings (size 3 to 8) (size 9 to 14) (size 15 to 20)
#    0.000    0.444    4.444    5.333    0.000    0.000 
#    4.000    0.000    0.000    0.000    0.000    0.000 
#    0.000    0.000    0.000    0.000    0.000    0.000 
#
# Total GULP energy -223097.582878 kJ/mol
# GULP energy per Si atom -12394.310160 kJ/mol
# Density = 2.137658 g / cm^3
# Si number density = 21.425349 Si / 1000 Ang^3
#
#
#
# Elastic Constant Matrix: (Units=GPa)
#
#
# Indices 1 2 3 4 5 6 
#
# 1 132.8062 53.2177 56.0997 0.0000 5.7723 0.0000
# 2 53.2177 117.9917 50.0861 0.0000 1.2961 0.0000
# 3 56.0997 50.0861 164.1635 0.0000 -20.1334 0.0000
# 4 0.0000 0.0000 0.0000 35.0700 0.0000 -0.9180
# 5 5.7723 1.2961 -20.1334 0.0000 46.1765 0.0000
# 6 0.0000 0.0000 0.0000 -0.9180 0.0000 36.4579
#
#
#
# Elastic Compliance Matrix: (Units=1/GPa)
#
#
# Indices 1 2 3 4 5 6 
#
# 1 0.010141 -0.003394 -0.002719 0.000000 -0.002358 0.000000
# 2 -0.003394 0.010993 -0.002303 0.000000 -0.000889 0.000000
# 3 -0.002719 -0.002303 0.008212 0.000000 0.003985 0.000000
# 4 0.000000 0.000000 0.000000 0.028533 0.000000 0.000718
# 5 -0.002358 -0.000889 0.003985 0.000000 0.023713 0.000000
# 6 0.000000 0.000000 0.000000 0.000718 0.000000 0.027447
#
#
# Mechanical properties :
#
#
# Convention : Reuss Voigt Hill
#
# Bulk Modulus (GPa) = 79.91058 81.52981 80.72020
# Shear Modulus (GPa) = 38.44871 40.57808 39.51339
#
# Velocity S-wave (km/s) = 4.24080 4.35665 4.29912
# Velocity P-wave (km/s) = 7.83309 7.96510 7.89937
#
# Compressibility (1/GPa) = 0.01251399
#
# Stress axis : x y z
#
# Youngs Moduli (GPa) = 98.61175 90.96464 121.76974
#
# Poissons Ratio (x) = 0.30870 0.33112
# Poissons Ratio (y) = 0.33465 0.28048
# Poissons Ratio (z) = 0.26815 0.20952
#
# Static dielectric constant tensor:
#      x y z
#    x 3.869790 0.000000 -0.150220 
#    y 0.000000 3.733620 0.000000 
#    z -0.150220 0.000000 4.334320 
# 
# 
# High freq. dielectric constant tensor:
#      x y z
#    x 1.841580 0.000000 -0.012050 
#    y 0.000000 1.833470 0.000000 
#    z -0.012050 0.000000 1.868640 
# 
# From -- ./inp_files/23171.got.cif
#   From: 2010.06.25/outbox.cif.g09.slc.cpg/sg15_12_cif.got.tgz:23171.got - 2010.06.28 07:06:18.
