data_PCOD8153700
_publ_section_title
;
Structure prediction by ZEFSAII (Michael W. Deem and Ramdas Pophale) SiO2 
 PCOD8153700
Probable space group: C 2/C
;
_chemical_formula_sum "Si O2"
_cell_formula_units_Z 48
_cell_length_a 24.914726
_cell_length_b 14.643631
_cell_length_c 9.478882
_cell_angle_alpha 90.000000
_cell_angle_beta 142.674457
_cell_angle_gamma 90.000000
_cell_volume 2096.912726
_symmetry_space_group_name_H-M "C 2/C"
_symmetry_group_IT_number 15
_symmetry_cell_setting 'monoclinic'
loop_
_space_group_symop_operation_xyz
x,y,z
-x,y,1/2-z
-x,-y,-z
x,-y,1/2+z
1/2+x,1/2+y,z
1/2-x,1/2+y,1/2-z
1/2-x,1/2-y,-z
1/2+x,1/2-y,1/2+z
loop_
_atom_site_type_symbol
_atom_site_label
_atom_site_fract_x
_atom_site_fract_y
_atom_site_fract_z
Si Si1 0.822399 0.954085 0.800219
Si Si2 0.757092 0.233349 0.179961
Si Si3 0.576768 0.457546 0.754503
Si Si4 0.500000 0.704414 0.250000
Si Si5 0.000000 0.490959 0.750000
Si Si6 0.617994 0.151404 0.094512
Si Si7 0.328830 0.902642 0.503200
O O1 0.825905 0.848220 0.849895
O O2 0.836171 0.962921 0.660753
O O3 0.730445 0.006390 0.642164
O O4 0.905838 0.991459 0.062016
O O5 0.668312 0.188368 0.060209
O O6 0.790940 0.326494 0.319466
O O7 0.750000 0.250000 0.000000
O O8 0.500000 0.500000 0.500000
O O9 0.561405 0.354610 0.774160
O O10 0.548266 0.766851 0.468407
O O11 0.934370 0.555212 0.523545
O O12 0.933044 0.425740 0.698148
O O13 0.682093 0.140281 0.363101
#
# Coordination Sequence:
#
# PCOD8153700 Si02
#       7
#     8   8   8   4   4   8   8
#     4  12  25  46  73 105 144 188 243 306 370 444
#     4  12  27  45  74 109 147 194 252 312 370 446
#     4  12  25  45  72 102 146 188 238 303 379 440
#     4  11  24  44  69 104 142 184 245 300 365 446
#     4  11  26  48  77 112 156 200 251 318 387 454
#     4  11  25  48  75 105 150 198 246 312 377 454
#     4  12  27  47  79 108 149 201 257 306 386 456
#
# _framework density 22.890796000000002
#
# number of rings (size 3 to 8) (size 9 to 14) (size 15 to 20)
#    0.000    0.333    3.333    5.000    4.667    4.000 
#    0.000    0.000    0.000    0.000    0.000    0.000 
#    0.000    0.000    0.000    0.000    0.000    0.000 
#
# Total GULP energy -297379.449099 kJ/mol
# GULP energy per Si atom -12390.810379 kJ/mol
# Density = 2.283870 g / cm^3
# Si number density = 22.890796 Si / 1000 Ang^3
#
#
#
# Elastic Constant Matrix: (Units=GPa)
#
#
# Indices 1 2 3 4 5 6 
#
# 1 125.1873 41.9288 41.2649 0.0000 -6.8299 0.0000
# 2 41.9288 149.4990 45.7057 0.0000 -4.5321 0.0000
# 3 41.2649 45.7057 116.7364 0.0000 -16.4562 0.0000
# 4 0.0000 0.0000 0.0000 24.8513 0.0000 12.5436
# 5 -6.8299 -4.5321 -16.4562 0.0000 36.4511 0.0000
# 6 0.0000 0.0000 0.0000 12.5436 0.0000 42.9300
#
#
#
# Elastic Compliance Matrix: (Units=1/GPa)
#
#
# Indices 1 2 3 4 5 6 
#
# 1 0.009479 -0.001862 -0.002567 0.000000 0.000386 0.000000
# 2 -0.001862 0.007970 -0.002533 0.000000 -0.000502 0.000000
# 3 -0.002567 -0.002533 0.011057 0.000000 0.004196 0.000000
# 4 0.000000 0.000000 0.000000 0.047201 0.000000 -0.013791
# 5 0.000386 -0.000502 0.004196 0.000000 0.029338 0.000000
# 6 0.000000 0.000000 0.000000 -0.013791 0.000000 0.027323
#
#
# Mechanical properties :
#
#
# Convention : Reuss Voigt Hill
#
# Bulk Modulus (GPa) = 68.57940 72.13569 70.35755
# Shear Modulus (GPa) = 33.07882 38.34803 35.71343
#
# Velocity S-wave (km/s) = 3.80553 4.09743 3.95418
# Velocity P-wave (km/s) = 7.02381 7.34620 7.18681
#
# Compressibility (1/GPa) = 0.01458164
#
# Stress axis : x y z
#
# Youngs Moduli (GPa) = 105.49715 125.46332 90.43925
#
# Poissons Ratio (x) = 0.23360 0.23219
# Poissons Ratio (y) = 0.19642 0.22910
# Poissons Ratio (z) = 0.27085 0.31782
#
# Static dielectric constant tensor:
#      x y z
#    x 4.462300 0.000000 0.044410 
#    y 0.000000 4.429830 0.000000 
#    z 0.044410 0.000000 4.028290 
# 
# 
# High freq. dielectric constant tensor:
#      x y z
#    x 1.912620 0.000000 -0.000300 
#    y 0.000000 1.921210 0.000000 
#    z -0.000300 0.000000 1.898280 
# 
# From -- ./inp_files/66541.got.cif
#   From: 2010.06.25/outbox.cif.g09.slc.cpg/sg15_34_cif.got.tgz:66541.got - 2010.06.28 07:06:18.
