data_PCOD8153058
_publ_section_title
;
Structure prediction by ZEFSAII (Michael W. Deem and Ramdas Pophale) SiO2 
 PCOD8153058
Probable space group: C 2/C
;
_chemical_formula_sum "Si O2"
_cell_formula_units_Z 60
_cell_length_a 20.607176
_cell_length_b 21.986337
_cell_length_c 12.180914
_cell_angle_alpha 90.000000
_cell_angle_beta 151.646691
_cell_angle_gamma 90.000000
_cell_volume 2620.957662
_symmetry_space_group_name_H-M "C 2/C"
_symmetry_group_IT_number 15
_symmetry_cell_setting 'monoclinic'
loop_
_space_group_symop_operation_xyz
x,y,z
-x,y,1/2-z
-x,-y,-z
x,-y,1/2+z
1/2+x,1/2+y,z
1/2-x,1/2+y,1/2-z
1/2-x,1/2-y,-z
1/2+x,1/2-y,1/2+z
loop_
_atom_site_type_symbol
_atom_site_label
_atom_site_fract_x
_atom_site_fract_y
_atom_site_fract_z
Si Si1 0.218695 0.761477 0.276143
Si Si2 0.000000 0.678998 0.250000
Si Si3 0.673347 0.435756 0.967074
Si Si4 0.554860 0.095334 0.724303
Si Si5 0.900625 0.929335 0.193724
Si Si6 0.558081 0.615699 0.507655
Si Si7 0.872724 0.639216 0.264054
Si Si8 0.349038 0.775353 0.053679
O O1 0.365071 0.780553 0.539184
O O2 0.110262 0.816610 0.110976
O O3 0.159469 0.710301 0.268001
O O4 0.240381 0.731618 0.188963
O O5 0.986473 0.636408 0.337386
O O6 0.603722 0.499484 0.838176
O O7 0.591901 0.384700 0.773599
O O8 0.831577 0.442335 0.171221
O O9 0.663473 0.417775 0.080835
O O10 0.500000 0.058569 0.750000
O O11 0.428601 0.108857 0.457282
O O12 0.623935 0.155831 0.873677
O O13 0.955914 0.920622 0.399079
O O14 0.000000 0.899255 0.250000
O O15 0.755648 0.897788 0.968580
O O16 0.500000 0.744625 0.250000
O O17 0.250000 0.750000 0.000000
#
# Coordination Sequence:
#
# PCOD8153058 Si02
#       8
#     8   4   8   8   8   8   8   8
#     4  12  26  45  73 108 152 193 250 298 381 448
#     4  12  26  46  66 102 150 194 246 286 370 468
#     4  11  26  47  80 107 141 196 249 314 374 432
#     4  11  25  46  69 107 144 186 248 302 376 441
#     4  12  28  49  74 108 148 191 257 308 368 447
#     4  11  25  47  75 111 144 190 249 311 368 442
#     4  12  27  48  70 109 149 199 237 309 375 443
#     4  11  23  42  69 105 147 189 242 309 368 447
#
# _framework density 22.892395
#
# number of rings (size 3 to 8) (size 9 to 14) (size 15 to 20)
#    0.000    0.533    5.333    3.200    6.533    0.533 
#    1.200    0.000    0.000    0.000    0.000    0.000 
#    0.000    0.000    0.000    0.000    0.000    0.000 
#
# Total GULP energy -371911.185838 kJ/mol
# GULP energy per Si atom -12397.039528 kJ/mol
# Density = 2.284029 g / cm^3
# Si number density = 22.892395 Si / 1000 Ang^3
#
#
#
# Elastic Constant Matrix: (Units=GPa)
#
#
# Indices 1 2 3 4 5 6 
#
# 1 181.5438 0.9832 51.1195 0.0000 -0.1320 0.0000
# 2 0.9832 47.0007 19.3223 0.0000 0.2149 0.0000
# 3 51.1195 19.3223 85.9066 0.0000 -9.8523 0.0000
# 4 0.0000 0.0000 0.0000 32.7024 0.0000 3.3405
# 5 -0.1320 0.2149 -9.8523 0.0000 48.3697 0.0000
# 6 0.0000 0.0000 0.0000 3.3405 0.0000 21.8033
#
#
#
# Elastic Compliance Matrix: (Units=1/GPa)
#
#
# Indices 1 2 3 4 5 6 
#
# 1 0.006771 0.001721 -0.004521 0.000000 -0.000910 0.000000
# 2 0.001721 0.023950 -0.006576 0.000000 -0.001441 0.000000
# 3 -0.004521 -0.006576 0.016190 0.000000 0.003315 0.000000
# 4 0.000000 0.000000 0.000000 0.031065 0.000000 -0.004759
# 5 -0.000910 -0.001441 0.003315 0.000000 0.021353 0.000000
# 6 0.000000 0.000000 0.000000 -0.004759 0.000000 0.046594
#
#
# Mechanical properties :
#
#
# Convention : Reuss Voigt Hill
#
# Bulk Modulus (GPa) = 35.51204 50.81124 43.16164
# Shear Modulus (GPa) = 28.72533 36.77683 32.75108
#
# Velocity S-wave (km/s) = 3.54616 4.01248 3.78650
# Velocity P-wave (km/s) = 5.68447 6.61139 6.16538
#
# Compressibility (1/GPa) = 0.02815946
#
# Stress axis : x y z
#
# Youngs Moduli (GPa) = 147.68206 41.75284 61.76652
#
# Poissons Ratio (x) = -0.07186 0.27923
# Poissons Ratio (y) = -0.25417 0.40620
# Poissons Ratio (z) = 0.66764 0.27458
#
# Static dielectric constant tensor:
#      x y z
#    x 3.059570 0.000000 -0.787030 
#    y 0.000000 3.877510 0.000000 
#    z -0.787030 0.000000 3.884760 
# 
# 
# High freq. dielectric constant tensor:
#      x y z
#    x 1.932100 0.000000 -0.006730 
#    y 0.000000 1.879390 0.000000 
#    z -0.006730 0.000000 1.908500 
# 
# From -- ./inp_files/114825.got.cif
#   From: 2010.06.25/outbox.cif.g09.slc.cpg/sg15_58_cif.got.tgz:114825.got - 2010.06.28 07:06:18.
