data_PCOD8153831
_publ_section_title
;
Structure prediction by ZEFSAII (Michael W. Deem and Ramdas Pophale) SiO2 
 PCOD8153831
Probable space group: C 2/C
;
_chemical_formula_sum "Si O2"
_cell_formula_units_Z 48
_cell_length_a 21.451928
_cell_length_b 9.006338
_cell_length_c 10.622909
_cell_angle_alpha 90.000000
_cell_angle_beta 104.676394
_cell_angle_gamma 90.000000
_cell_volume 1985.416582
_symmetry_space_group_name_H-M "C 2/C"
_symmetry_group_IT_number 15
_symmetry_cell_setting 'monoclinic'
loop_
_space_group_symop_operation_xyz
x,y,z
-x,y,1/2-z
-x,-y,-z
x,-y,1/2+z
1/2+x,1/2+y,z
1/2-x,1/2+y,1/2-z
1/2-x,1/2-y,-z
1/2+x,1/2-y,1/2+z
loop_
_atom_site_type_symbol
_atom_site_label
_atom_site_fract_x
_atom_site_fract_y
_atom_site_fract_z
Si Si1 0.027743 0.411043 0.395089
Si Si2 0.724545 0.052006 0.221649
Si Si3 0.549742 0.418758 0.934084
Si Si4 0.653485 0.062086 0.453368
Si Si5 0.166720 0.147852 0.648584
Si Si6 0.430432 0.700600 0.694172
O O1 0.013672 0.235914 0.391797
O O2 0.105156 0.423256 0.432909
O O3 0.000000 0.475791 0.250000
O O4 0.000000 0.500000 0.500000
O O5 0.695592 0.046750 0.348136
O O6 0.719418 0.218326 0.158929
O O7 0.798110 0.996190 0.273920
O O8 0.694214 0.938103 0.103425
O O9 0.558232 0.525392 0.819072
O O10 0.500000 0.500000 0.000000
O O11 0.625669 0.403076 0.008278
O O12 0.609426 0.212077 0.434449
O O13 0.110316 0.221571 0.701736
O O14 0.500000 0.778350 0.750000
#
# Coordination Sequence:
#
# PCOD8153831 Si02
#       6
#     8   8   8   8   8   8
#     4  12  26  45  76 110 150 194 243 308 380 445
#     4  11  27  48  73 105 147 199 244 298 361 442
#     4  12  25  45  72 110 149 189 249 309 373 441
#     4  11  25  47  73 106 144 193 245 298 367 438
#     4  11  27  47  70 105 147 192 248 299 368 435
#     4  11  24  45  73 104 148 190 241 309 373 436
#
# _framework density 24.176286999999999
#
# number of rings (size 3 to 8) (size 9 to 14) (size 15 to 20)
#    0.000    0.667    3.333    3.000    7.000    3.333 
#    0.000    0.000    0.000    0.000    0.000    0.000 
#    0.000    0.000    0.000    0.000    0.000    0.000 
#
# Total GULP energy -297332.888017 kJ/mol
# GULP energy per Si atom -12388.870334 kJ/mol
# Density = 2.412126 g / cm^3
# Si number density = 24.176287 Si / 1000 Ang^3
#
#
#
# Elastic Constant Matrix: (Units=GPa)
#
#
# Indices 1 2 3 4 5 6 
#
# 1 95.8226 16.4586 35.1016 0.0000 17.8646 0.0000
# 2 16.4586 126.2893 26.5931 0.0000 -2.2926 0.0000
# 3 35.1016 26.5931 136.7830 0.0000 13.7185 0.0000
# 4 0.0000 0.0000 0.0000 29.1840 0.0000 9.7824
# 5 17.8646 -2.2926 13.7185 0.0000 39.6985 0.0000
# 6 0.0000 0.0000 0.0000 9.7824 0.0000 36.6567
#
#
#
# Elastic Compliance Matrix: (Units=1/GPa)
#
#
# Indices 1 2 3 4 5 6 
#
# 1 0.012446 -0.001187 -0.002480 0.000000 -0.004812 0.000000
# 2 -0.001187 0.008414 -0.001485 0.000000 0.001533 0.000000
# 3 -0.002480 -0.001485 0.008425 0.000000 -0.001881 0.000000
# 4 0.000000 0.000000 0.000000 0.037632 0.000000 -0.010043
# 5 -0.004812 0.001533 -0.001881 0.000000 0.028094 0.000000
# 6 0.000000 0.000000 0.000000 -0.010043 0.000000 0.029960
#
#
# Mechanical properties :
#
#
# Convention : Reuss Voigt Hill
#
# Bulk Modulus (GPa) = 52.68939 57.24460 54.96699
# Shear Modulus (GPa) = 35.31066 39.82397 37.56731
#
# Velocity S-wave (km/s) = 3.82586 4.06301 3.94622
# Velocity P-wave (km/s) = 6.43097 6.76315 6.59915
#
# Compressibility (1/GPa) = 0.01897915
#
# Stress axis : x y z
#
# Youngs Moduli (GPa) = 80.34988 118.85605 118.69841
#
# Poissons Ratio (x) = 0.14108 0.29442
# Poissons Ratio (y) = 0.09538 0.17626
# Poissons Ratio (z) = 0.19930 0.17649
#
# Static dielectric constant tensor:
#      x y z
#    x 4.629880 0.000000 0.168260 
#    y 0.000000 4.985690 0.000000 
#    z 0.168260 0.000000 3.757190 
# 
# 
# High freq. dielectric constant tensor:
#      x y z
#    x 1.954290 0.000000 0.015290 
#    y 0.000000 1.973510 0.000000 
#    z 0.015290 0.000000 1.959760 
# 
# From -- ./inp_files/116782.got.cif
#   From: 2010.06.25/outbox.cif.g09.slc.cpg/sg15_59_cif.got.tgz:116782.got - 2010.06.28 07:06:18.
