data_PCOD8153239
_publ_section_title
;
Structure prediction by ZEFSAII (Michael W. Deem and Ramdas Pophale) SiO2 
 PCOD8153239
Probable space group: C 2/C
;
_chemical_formula_sum "Si O2"
_cell_formula_units_Z 32
_cell_length_a 11.213189
_cell_length_b 16.277791
_cell_length_c 9.522225
_cell_angle_alpha 90.000000
_cell_angle_beta 61.743244
_cell_angle_gamma 90.000000
_cell_volume 1530.937896
_symmetry_space_group_name_H-M "C 2/C"
_symmetry_group_IT_number 15
_symmetry_cell_setting 'monoclinic'
loop_
_space_group_symop_operation_xyz
x,y,z
-x,y,1/2-z
-x,-y,-z
x,-y,1/2+z
1/2+x,1/2+y,z
1/2-x,1/2+y,1/2-z
1/2-x,1/2-y,-z
1/2+x,1/2-y,1/2+z
loop_
_atom_site_type_symbol
_atom_site_label
_atom_site_fract_x
_atom_site_fract_y
_atom_site_fract_z
Si Si1 0.286626 0.483356 0.153728
Si Si2 0.909020 0.264007 0.931742
Si Si3 0.117499 0.549350 0.006573
Si Si4 0.505881 0.372488 0.910419
O O1 0.247180 0.453490 0.331326
O O2 0.379767 0.563031 0.110976
O O3 0.156201 0.508754 0.134139
O O4 0.361169 0.406762 0.040178
O O5 0.000000 0.233974 0.750000
O O6 0.750000 0.250000 0.000000
O O7 0.936948 0.359250 0.942596
O O8 0.960779 0.213923 0.036885
O O9 0.000000 0.500000 0.000000
O O10 0.500000 0.355370 0.750000
#
# Coordination Sequence:
#
# PCOD8153239 Si02
#       4
#     8   8   8   8
#     4  11  23  44  68 101 135 180 233 275 341 412
#     4  12  26  46  71 103 141 185 229 284 351 413
#     4  12  25  44  69 100 141 182 224 280 352 412
#     4  11  24  42  72 101 133 177 234 288 329 407
#
# _framework density 20.902218000000001
#
# number of rings (size 3 to 8) (size 9 to 14) (size 15 to 20)
#    0.000    0.500    5.000    3.750    0.000    2.000 
#    0.000    3.750    0.000    0.000    0.000    0.000 
#    0.000    0.000    0.000    0.000    0.000    0.000 
#
# Total GULP energy -198513.881368 kJ/mol
# GULP energy per Si atom -12407.117586 kJ/mol
# Density = 2.085464 g / cm^3
# Si number density = 20.902218 Si / 1000 Ang^3
#
#
#
# Elastic Constant Matrix: (Units=GPa)
#
#
# Indices 1 2 3 4 5 6 
#
# 1 103.6951 44.0845 13.7398 0.0000 15.0736 0.0000
# 2 44.0845 108.1994 16.1691 0.0000 14.2677 0.0000
# 3 13.7398 16.1691 113.6275 0.0000 6.4488 0.0000
# 4 0.0000 0.0000 0.0000 34.9823 0.0000 8.8049
# 5 15.0736 14.2677 6.4488 0.0000 41.5888 0.0000
# 6 0.0000 0.0000 0.0000 8.8049 0.0000 25.2685
#
#
#
# Elastic Compliance Matrix: (Units=1/GPa)
#
#
# Indices 1 2 3 4 5 6 
#
# 1 0.012015 -0.004436 -0.000667 0.000000 -0.002730 0.000000
# 2 -0.004436 0.011482 -0.000974 0.000000 -0.002181 0.000000
# 3 -0.000667 -0.000974 0.009067 0.000000 -0.000830 0.000000
# 4 0.000000 0.000000 0.000000 0.031334 0.000000 -0.010918
# 5 -0.002730 -0.002181 -0.000830 0.000000 0.025911 0.000000
# 6 0.000000 0.000000 0.000000 -0.010918 0.000000 0.043379
#
#
# Mechanical properties :
#
#
# Convention : Reuss Voigt Hill
#
# Bulk Modulus (GPa) = 48.99148 52.61209 50.80179
# Shear Modulus (GPa) = 32.86344 37.13650 34.99997
#
# Velocity S-wave (km/s) = 3.96946 4.21964 4.09646
# Velocity P-wave (km/s) = 6.67069 6.99755 6.83607
#
# Compressibility (1/GPa) = 0.02041171
#
# Stress axis : x y z
#
# Youngs Moduli (GPa) = 83.23272 87.08912 110.29010
#
# Poissons Ratio (x) = 0.38629 0.07353
# Poissons Ratio (y) = 0.36919 0.10741
# Poissons Ratio (z) = 0.05549 0.08481
#
# Static dielectric constant tensor:
#      x y z
#    x 3.538750 0.000000 0.120390 
#    y 0.000000 -4.518570 0.000000 
#    z 0.120390 0.000000 3.976970 
# 
# 
# High freq. dielectric constant tensor:
#      x y z
#    x 1.823880 0.000000 -0.002860 
#    y 0.000000 1.819400 0.000000 
#    z -0.002860 0.000000 1.839750 
# 
# From -- ./inp_files/27842.got.cif
#   From: 2010.06.25/outbox.cif.g09.slc.cpg/sg15_14_cif.got.tgz:27842.got - 2010.06.28 07:06:18.
