data_PCOD8153035
_publ_section_title
;
Structure prediction by ZEFSAII (Michael W. Deem and Ramdas Pophale) SiO2 
 PCOD8153035
Probable space group: C 2/C
;
_chemical_formula_sum "Si O2"
_cell_formula_units_Z 32
_cell_length_a 15.065245
_cell_length_b 8.003347
_cell_length_c 11.247539
_cell_angle_alpha 90.000000
_cell_angle_beta 85.930526
_cell_angle_gamma 90.000000
_cell_volume 1352.723388
_symmetry_space_group_name_H-M "C 2/C"
_symmetry_group_IT_number 15
_symmetry_cell_setting 'monoclinic'
loop_
_space_group_symop_operation_xyz
x,y,z
-x,y,1/2-z
-x,-y,-z
x,-y,1/2+z
1/2+x,1/2+y,z
1/2-x,1/2+y,1/2-z
1/2-x,1/2-y,-z
1/2+x,1/2-y,1/2+z
loop_
_atom_site_type_symbol
_atom_site_label
_atom_site_fract_x
_atom_site_fract_y
_atom_site_fract_z
Si Si1 0.413833 0.970219 0.431311
Si Si2 0.155160 0.304643 0.753456
Si Si3 0.244074 0.968926 0.087808
Si Si4 0.585311 0.619962 0.978768
O O1 0.409685 0.768533 0.422980
O O2 0.500000 0.000000 0.500000
O O3 0.409107 0.055109 0.301472
O O4 0.335720 0.062635 0.511232
O O5 0.205294 0.193992 0.652691
O O6 0.236403 0.387119 0.817815
O O7 0.089790 0.197292 0.845445
O O8 0.174236 0.017238 0.992669
O O9 0.500000 0.500000 0.000000
#
# Coordination Sequence:
#
# PCOD8153035 Si02
#       4
#     8   8   8   8
#     4  11  24  42  67 100 136 178 232 288 346 419
#     4  11  23  44  69 100 142 186 228 294 355 409
#     4  11  23  42  68 100 138 184 232 283 348 424
#     4  11  25  45  68 101 139 184 239 288 346 425
#
# _framework density 23.65598
#
# number of rings (size 3 to 8) (size 9 to 14) (size 15 to 20)
#    0.000    1.000    0.000    8.250    0.000   11.000 
#    0.000    5.000    0.000    0.000    0.000    0.000 
#    0.000    0.000    0.000    0.000    0.000    0.000 
#
# Total GULP energy -198307.475810 kJ/mol
# GULP energy per Si atom -12394.217238 kJ/mol
# Density = 2.360214 g / cm^3
# Si number density = 23.655980 Si / 1000 Ang^3
#
#
#
# Elastic Constant Matrix: (Units=GPa)
#
#
# Indices 1 2 3 4 5 6 
#
# 1 169.3035 52.4363 62.4004 0.0000 14.1632 0.0000
# 2 52.4363 127.6091 64.6205 0.0000 -8.6589 0.0000
# 3 62.4004 64.6205 122.4043 0.0000 18.7992 0.0000
# 4 0.0000 0.0000 0.0000 64.2515 0.0000 3.1902
# 5 14.1632 -8.6589 18.7992 0.0000 29.1457 0.0000
# 6 0.0000 0.0000 0.0000 3.1902 0.0000 42.8782
#
#
#
# Elastic Compliance Matrix: (Units=1/GPa)
#
#
# Indices 1 2 3 4 5 6 
#
# 1 0.007677 -0.002172 -0.002325 0.000000 -0.002876 0.000000
# 2 -0.002172 0.013061 -0.007266 0.000000 0.009623 0.000000
# 3 -0.002325 -0.007266 0.014817 0.000000 -0.010586 0.000000
# 4 0.000000 0.000000 0.000000 0.015622 0.000000 -0.001162
# 5 -0.002876 0.009623 -0.010586 0.000000 0.045395 0.000000
# 6 0.000000 0.000000 0.000000 -0.001162 0.000000 0.023408
#
#
# Mechanical properties :
#
#
# Convention : Reuss Voigt Hill
#
# Bulk Modulus (GPa) = 83.13696 86.47014 84.80355
# Shear Modulus (GPa) = 33.89473 43.24573 38.57023
#
# Velocity S-wave (km/s) = 3.78937 4.28028 4.04228
# Velocity P-wave (km/s) = 7.37334 7.81411 7.59692
#
# Compressibility (1/GPa) = 0.01202834
#
# Stress axis : x y z
#
# Youngs Moduli (GPa) = 130.26057 76.56122 67.49207
#
# Poissons Ratio (x) = 0.16632 0.15692
# Poissons Ratio (y) = 0.28297 0.49039
# Poissons Ratio (z) = 0.30286 0.55629
#
# Static dielectric constant tensor:
#      x y z
#    x 4.550710 0.000000 0.241130 
#    y 0.000000 4.261390 0.000000 
#    z 0.241130 0.000000 4.511680 
# 
# 
# High freq. dielectric constant tensor:
#      x y z
#    x 1.947080 0.000000 0.010240 
#    y 0.000000 1.946520 0.000000 
#    z 0.010240 0.000000 1.938650 
# 
# From -- ./inp_files/93218.got.cif
#   From: 2010.06.25/outbox.cif.g09.slc.cpg/sg15_47_cif.got.tgz:93218.got - 2010.06.28 07:06:18.
