data_PCOD8153321
_publ_section_title
;
Structure prediction by ZEFSAII (Michael W. Deem and Ramdas Pophale) SiO2 
 PCOD8153321
Probable space group: C 2/C
;
_chemical_formula_sum "Si O2"
_cell_formula_units_Z 40
_cell_length_a 8.241605
_cell_length_b 23.170899
_cell_length_c 9.334521
_cell_angle_alpha 90.000000
_cell_angle_beta 84.026036
_cell_angle_gamma 90.000000
_cell_volume 1772.889889
_symmetry_space_group_name_H-M "C 2/C"
_symmetry_group_IT_number 15
_symmetry_cell_setting 'monoclinic'
loop_
_space_group_symop_operation_xyz
x,y,z
-x,y,1/2-z
-x,-y,-z
x,-y,1/2+z
1/2+x,1/2+y,z
1/2-x,1/2+y,1/2-z
1/2-x,1/2-y,-z
1/2+x,1/2-y,1/2+z
loop_
_atom_site_type_symbol
_atom_site_label
_atom_site_fract_x
_atom_site_fract_y
_atom_site_fract_z
Si Si1 0.688727 0.745415 0.674570
Si Si2 0.675563 0.567785 0.044951
Si Si3 0.818276 0.937643 0.452442
Si Si4 0.685471 0.128721 0.717175
Si Si5 0.311891 0.873106 0.790169
O O1 0.500000 0.735048 0.750000
O O2 0.750000 0.750000 0.500000
O O3 0.791168 0.695124 0.740463
O O4 0.739512 0.807094 0.733806
O O5 0.746522 0.502944 0.026112
O O6 0.691849 0.586302 0.208640
O O7 0.494717 0.568733 0.003391
O O8 0.777015 0.616752 0.952190
O O9 0.806141 0.915641 0.290107
O O10 0.705711 0.891695 0.543758
O O11 0.500000 0.110305 0.750000
O O12 0.500000 0.884497 0.750000
#
# Coordination Sequence:
#
# PCOD8153321 Si02
#       5
#     8   8   8   8   8
#     4  11  25  48  75 101 143 187 231 295 357 423
#     4  11  25  41  69 101 132 186 229 287 348 424
#     4  11  23  45  66  96 141 179 231 285 351 422
#     4  12  26  43  69 101 138 181 236 289 354 416
#     4  11  24  42  69 100 136 177 232 288 350 417
#
# _framework density 22.562031000000001
#
# number of rings (size 3 to 8) (size 9 to 14) (size 15 to 20)
#    0.000    0.800    2.000    4.800    2.800   10.400 
#    0.000    0.000    0.000    0.000    0.000    0.000 
#    0.000    0.000    0.000    0.000    0.000    0.000 
#
# Total GULP energy -247762.543880 kJ/mol
# GULP energy per Si atom -12388.127194 kJ/mol
# Density = 2.251068 g / cm^3
# Si number density = 22.562031 Si / 1000 Ang^3
#
#
#
# Elastic Constant Matrix: (Units=GPa)
#
#
# Indices 1 2 3 4 5 6 
#
# 1 74.1516 31.1274 21.2180 0.0000 3.7362 0.0000
# 2 31.1274 137.2961 11.0364 0.0000 6.6058 0.0000
# 3 21.2180 11.0364 69.4053 0.0000 -12.5850 0.0000
# 4 0.0000 0.0000 0.0000 39.4213 0.0000 -2.1879
# 5 3.7362 6.6058 -12.5850 0.0000 42.3847 0.0000
# 6 0.0000 0.0000 0.0000 -2.1879 0.0000 28.9516
#
#
#
# Elastic Compliance Matrix: (Units=1/GPa)
#
#
# Indices 1 2 3 4 5 6 
#
# 1 0.016360 -0.003197 -0.004930 0.000000 -0.002408 0.000000
# 2 -0.003197 0.008105 -0.000517 0.000000 -0.001135 0.000000
# 3 -0.004930 -0.000517 0.017006 0.000000 0.005565 0.000000
# 4 0.000000 0.000000 0.000000 0.025474 0.000000 0.001925
# 5 -0.002408 -0.001135 0.005565 0.000000 0.025635 0.000000
# 6 0.000000 0.000000 0.000000 0.001925 0.000000 0.034686
#
#
# Mechanical properties :
#
#
# Convention : Reuss Voigt Hill
#
# Bulk Modulus (GPa) = 41.35078 45.29073 43.32076
# Shear Modulus (GPa) = 32.76246 36.64961 34.70603
#
# Velocity S-wave (km/s) = 3.81478 4.03475 3.92631
# Velocity P-wave (km/s) = 6.14580 6.46707 6.30848
#
# Compressibility (1/GPa) = 0.02418334
#
# Stress axis : x y z
#
# Youngs Moduli (GPa) = 61.12553 123.38816 58.80131
#
# Poissons Ratio (x) = 0.39447 0.28987
# Poissons Ratio (y) = 0.19542 0.03041
# Poissons Ratio (z) = 0.30132 0.06381
#
# Static dielectric constant tensor:
#      x y z
#    x 3.971100 0.000000 -0.475020 
#    y 0.000000 4.241660 0.000000 
#    z -0.475020 0.000000 5.789460 
# 
# 
# High freq. dielectric constant tensor:
#      x y z
#    x 1.883860 0.000000 -0.008570 
#    y 0.000000 1.904140 0.000000 
#    z -0.008570 0.000000 1.904670 
# 
# From -- ./inp_files/23431.got.cif
#   From: 2010.06.25/outbox.cif.g09.slc.cpg/sg15_12_cif.got.tgz:23431.got - 2010.06.28 07:06:18.
