data_PCOD8153068
_publ_section_title
;
Structure prediction by ZEFSAII (Michael W. Deem and Ramdas Pophale) SiO2 
 PCOD8153068
Probable space group: C 2/C
;
_chemical_formula_sum "Si O2"
_cell_formula_units_Z 60
_cell_length_a 17.188586
_cell_length_b 17.676496
_cell_length_c 9.502170
_cell_angle_alpha 90.000000
_cell_angle_beta 97.971819
_cell_angle_gamma 90.000000
_cell_volume 2859.182449
_symmetry_space_group_name_H-M "C 2/C"
_symmetry_group_IT_number 15
_symmetry_cell_setting 'monoclinic'
loop_
_space_group_symop_operation_xyz
x,y,z
-x,y,1/2-z
-x,-y,-z
x,-y,1/2+z
1/2+x,1/2+y,z
1/2-x,1/2+y,1/2-z
1/2-x,1/2-y,-z
1/2+x,1/2-y,1/2+z
loop_
_atom_site_type_symbol
_atom_site_label
_atom_site_fract_x
_atom_site_fract_y
_atom_site_fract_z
Si Si1 0.697397 0.013725 0.597978
Si Si2 0.432826 0.309905 0.043295
Si Si3 0.783154 0.201607 0.310894
Si Si4 0.693791 0.647143 0.781870
Si Si5 0.697256 0.380642 0.963260
Si Si6 0.971153 0.067757 0.086438
Si Si7 0.853000 0.413931 0.678607
Si Si8 0.000000 0.686653 0.250000
O O1 0.767466 0.069272 0.660406
O O2 0.636056 0.055551 0.477895
O O3 0.729826 0.937831 0.531316
O O4 0.651488 0.988162 0.725159
O O5 0.393556 0.349498 0.171381
O O6 0.479082 0.235241 0.106182
O O7 0.365223 0.295240 0.912562
O O8 0.499262 0.357126 0.982534
O O9 0.741921 0.279621 0.343949
O O10 0.799056 0.188373 0.148459
O O11 0.729222 0.131641 0.346512
O O12 0.691127 0.656145 0.614327
O O13 0.621838 0.432847 0.922346
O O14 0.000000 0.058166 0.250000
O O15 0.000000 0.000000 0.000000
O O16 0.923779 0.364576 0.758129
#
# Coordination Sequence:
#
# PCOD8153068 Si02
#       8
#     8   8   8   8   8   8   8   4
#     4  11  23  42  70 100 130 181 230 283 337 408
#     4  12  24  45  68 101 134 179 226 280 342 415
#     4  11  23  44  70  97 133 175 231 279 336 409
#     4  12  22  41  72  98 127 176 228 281 336 397
#     4  11  25  42  66  99 139 173 223 279 334 410
#     4  12  28  43  64  98 142 179 215 278 351 416
#     4  11  24  45  69 100 136 178 233 285 345 411
#     4  12  26  44  72  98 142 184 230 284 348 416
#
# _framework density 20.985019999999999
#
# number of rings (size 3 to 8) (size 9 to 14) (size 15 to 20)
#    0.000    0.533    5.333    3.200    4.667    0.533 
#    0.000    0.000    0.000    0.000    0.000    0.000 
#    0.000    0.000    0.000    0.000    0.000    0.000 
#
# Total GULP energy -371990.819415 kJ/mol
# GULP energy per Si atom -12399.693980 kJ/mol
# Density = 2.093726 g / cm^3
# Si number density = 20.985020 Si / 1000 Ang^3
#
#
#
# Elastic Constant Matrix: (Units=GPa)
#
#
# Indices 1 2 3 4 5 6 
#
# 1 73.1434 24.2987 23.1722 0.0000 13.1508 0.0000
# 2 24.2987 88.7856 35.5441 0.0000 5.2780 0.0000
# 3 23.1722 35.5441 125.0863 0.0000 6.4299 0.0000
# 4 0.0000 0.0000 0.0000 34.2728 0.0000 5.8899
# 5 13.1508 5.2780 6.4299 0.0000 33.7280 0.0000
# 6 0.0000 0.0000 0.0000 5.8899 0.0000 36.0799
#
#
#
# Elastic Compliance Matrix: (Units=1/GPa)
#
#
# Indices 1 2 3 4 5 6 
#
# 1 0.016366 -0.003443 -0.001771 0.000000 -0.005505 0.000000
# 2 -0.003443 0.013491 -0.003187 0.000000 -0.000161 0.000000
# 3 -0.001771 -0.003187 0.009258 0.000000 -0.000576 0.000000
# 4 0.000000 0.000000 0.000000 0.030020 0.000000 -0.004901
# 5 -0.005505 -0.000161 -0.000576 0.000000 0.031930 0.000000
# 6 0.000000 0.000000 0.000000 -0.004901 0.000000 0.028516
#
#
# Mechanical properties :
#
#
# Convention : Reuss Voigt Hill
#
# Bulk Modulus (GPa) = 44.81683 50.33838 47.57760
# Shear Modulus (GPa) = 32.50526 34.41615 33.46071
#
# Velocity S-wave (km/s) = 3.93997 4.05413 3.99746
# Velocity P-wave (km/s) = 6.48851 6.77897 6.63533
#
# Compressibility (1/GPa) = 0.02231305
#
# Stress axis : x y z
#
# Youngs Moduli (GPa) = 61.10136 74.12342 108.01703
#
# Poissons Ratio (x) = 0.25521 0.19124
# Poissons Ratio (y) = 0.21037 0.34430
# Poissons Ratio (z) = 0.10818 0.23627
#
# Static dielectric constant tensor:
#      x y z
#    x 3.826570 0.000000 -0.104980 
#    y 0.000000 3.855080 0.000000 
#    z -0.104980 0.000000 4.069210 
# 
# 
# High freq. dielectric constant tensor:
#      x y z
#    x 1.807750 0.000000 0.004350 
#    y 0.000000 1.823140 0.000000 
#    z 0.004350 0.000000 1.841360 
# 
# From -- ./inp_files/49085.got.cif
#   From: 2010.06.25/outbox.cif.g09.slc.cpg/sg15_25_cif.got.tgz:49085.got - 2010.06.28 07:06:18.
