data_PCOD8153388
_publ_section_title
;
Structure prediction by ZEFSAII (Michael W. Deem and Ramdas Pophale) SiO2 
 PCOD8153388
Probable space group: C 2/C
;
_chemical_formula_sum "Si O2"
_cell_formula_units_Z 36
_cell_length_a 19.135561
_cell_length_b 7.648117
_cell_length_c 9.702296
_cell_angle_alpha 90.000000
_cell_angle_beta 91.554324
_cell_angle_gamma 90.000000
_cell_volume 1419.418355
_symmetry_space_group_name_H-M "C 2/C"
_symmetry_group_IT_number 15
_symmetry_cell_setting 'monoclinic'
loop_
_space_group_symop_operation_xyz
x,y,z
-x,y,1/2-z
-x,-y,-z
x,-y,1/2+z
1/2+x,1/2+y,z
1/2-x,1/2+y,1/2-z
1/2-x,1/2-y,-z
1/2+x,1/2-y,1/2+z
loop_
_atom_site_type_symbol
_atom_site_label
_atom_site_fract_x
_atom_site_fract_y
_atom_site_fract_z
Si Si1 0.909586 0.503534 0.060093
Si Si2 0.568306 0.617759 0.528610
Si Si3 0.827011 0.607278 0.797975
Si Si4 0.207093 0.109824 0.405696
Si Si5 0.000000 0.721879 0.250000
O O1 0.847881 0.519725 0.171149
O O2 0.977180 0.607673 0.117271
O O3 0.929877 0.299644 0.055491
O O4 0.888112 0.591861 0.914913
O O5 0.500000 0.500000 0.500000
O O6 0.642037 0.528033 0.490819
O O7 0.563916 0.660625 0.693029
O O8 0.818784 0.802814 0.738941
O O9 0.755158 0.550651 0.865763
O O10 0.250000 0.250000 0.500000
#
# Coordination Sequence:
#
# PCOD8153388 Si02
#       5
#     8   8   8   8   4
#     4  11  23  47  76 102 144 208 256 304 384 470
#     4  11  26  45  70 110 151 193 248 323 379 440
#     4  11  23  45  77 106 146 200 254 315 375 450
#     4  11  23  48  74 108 152 191 254 317 378 456
#     4  12  24  48  74 100 152 208 256 294 388 480
#
# _framework density 25.362501999999999
#
# number of rings (size 3 to 8) (size 9 to 14) (size 15 to 20)
#    0.000    0.889    6.667    0.667    0.000    5.333 
#    8.000    0.000    0.000    0.000    0.000    0.000 
#    0.000    0.000    0.000    0.000    0.000    0.000 
#
# Total GULP energy -223059.545131 kJ/mol
# GULP energy per Si atom -12392.196952 kJ/mol
# Density = 2.530478 g / cm^3
# Si number density = 25.362502 Si / 1000 Ang^3
#
#
#
# Elastic Constant Matrix: (Units=GPa)
#
#
# Indices 1 2 3 4 5 6 
#
# 1 168.2449 35.0616 50.6207 0.0000 -31.5584 0.0000
# 2 35.0616 51.5045 30.2060 0.0000 4.1231 0.0000
# 3 50.6207 30.2060 140.3280 0.0000 -1.4718 0.0000
# 4 0.0000 0.0000 0.0000 24.9339 0.0000 -5.7048
# 5 -31.5584 4.1231 -1.4718 0.0000 65.2615 0.0000
# 6 0.0000 0.0000 0.0000 -5.7048 0.0000 42.9084
#
#
#
# Elastic Compliance Matrix: (Units=1/GPa)
#
#
# Indices 1 2 3 4 5 6 
#
# 1 0.008348 -0.004908 -0.001910 0.000000 0.004304 0.000000
# 2 -0.004908 0.025256 -0.003709 0.000000 -0.004052 0.000000
# 3 -0.001910 -0.003709 0.008608 0.000000 -0.000495 0.000000
# 4 0.000000 0.000000 0.000000 0.041364 0.000000 0.005500
# 5 0.004304 -0.004052 -0.000495 0.000000 0.017649 0.000000
# 6 0.000000 0.000000 0.000000 0.005500 0.000000 0.024037
#
#
# Mechanical properties :
#
#
# Convention : Reuss Voigt Hill
#
# Bulk Modulus (GPa) = 47.25836 65.76157 56.50996
# Shear Modulus (GPa) = 32.60121 42.90004 37.75062
#
# Velocity S-wave (km/s) = 3.58915 4.11722 3.86222
# Velocity P-wave (km/s) = 5.98746 6.97043 6.49756
#
# Compressibility (1/GPa) = 0.02116028
#
# Stress axis : x y z
#
# Youngs Moduli (GPa) = 119.78290 39.59459 116.16740
#
# Poissons Ratio (x) = 0.19431 0.22188
# Poissons Ratio (y) = 0.58784 0.43082
# Poissons Ratio (z) = 0.22879 0.14684
#
# Static dielectric constant tensor:
#      x y z
#    x 4.949710 0.000000 -0.518340 
#    y 0.000000 4.279540 0.000000 
#    z -0.518340 0.000000 5.011110 
# 
# 
# High freq. dielectric constant tensor:
#      x y z
#    x 2.024100 0.000000 -0.032880 
#    y 0.000000 1.981620 0.000000 
#    z -0.032880 0.000000 2.029450 
# 
# From -- ./inp_files/53637.got.cif
#   From: 2010.06.25/outbox.cif.g09.slc.cpg/sg15_27_cif.got.tgz:53637.got - 2010.06.28 07:06:18.
