data_PCOD8153998
_publ_section_title
;
Structure prediction by ZEFSAII (Michael W. Deem and Ramdas Pophale) SiO2 
 PCOD8153998
Probable space group: C 2/C
;
_chemical_formula_sum "Si O2"
_cell_formula_units_Z 40
_cell_length_a 25.306923
_cell_length_b 5.068707
_cell_length_c 12.264659
_cell_angle_alpha 90.000000
_cell_angle_beta 89.624077
_cell_angle_gamma 90.000000
_cell_volume 1573.195375
_symmetry_space_group_name_H-M "C 2/C"
_symmetry_group_IT_number 15
_symmetry_cell_setting 'monoclinic'
loop_
_space_group_symop_operation_xyz
x,y,z
-x,y,1/2-z
-x,-y,-z
x,-y,1/2+z
1/2+x,1/2+y,z
1/2-x,1/2+y,1/2-z
1/2-x,1/2-y,-z
1/2+x,1/2-y,1/2+z
loop_
_atom_site_type_symbol
_atom_site_label
_atom_site_fract_x
_atom_site_fract_y
_atom_site_fract_z
Si Si1 0.586365 0.000733 0.683776
Si Si2 0.731426 0.945211 0.408895
Si Si3 0.371123 0.728355 0.630285
Si Si4 0.944194 0.986210 0.943750
Si Si5 0.315494 0.692398 0.285673
O O1 0.582943 0.910785 0.811829
O O2 0.569100 0.770752 0.603467
O O3 0.553441 0.264022 0.652141
O O4 0.648514 0.068077 0.672120
O O5 0.750000 0.750000 0.500000
O O6 0.728895 0.776086 0.299061
O O7 0.675645 0.097001 0.422627
O O8 0.782698 0.129700 0.395480
O O9 0.398001 0.575092 0.530721
O O10 0.351107 0.535365 0.727804
O O11 0.000000 0.000000 0.000000
#
# Coordination Sequence:
#
# PCOD8153998 Si02
#       5
#     8   8   8   8   8
#     4  11  27  52  79 111 162 198 258 332 393 468
#     4  11  26  44  78 116 158 217 260 316 383 468
#     4  11  27  49  77 114 160 208 259 323 392 466
#     4  12  29  53  81 118 149 203 271 329 402 471
#     4  11  24  48  71 113 161 201 265 308 389 470
#
# _framework density 25.425958000000001
#
# number of rings (size 3 to 8) (size 9 to 14) (size 15 to 20)
#    0.000    0.800    4.000    0.600   11.200    1.600 
#    3.600    1.000    0.000    0.000    0.000    0.000 
#    0.000    0.000    0.000    0.000    0.000    0.000 
#
# Total GULP energy -247808.467445 kJ/mol
# GULP energy per Si atom -12390.423372 kJ/mol
# Density = 2.536809 g / cm^3
# Si number density = 25.425958 Si / 1000 Ang^3
#
#
#
# Elastic Constant Matrix: (Units=GPa)
#
#
# Indices 1 2 3 4 5 6 
#
# 1 117.4446 48.9474 49.6930 0.0000 31.0963 0.0000
# 2 48.9474 135.7970 36.8334 0.0000 29.7483 0.0000
# 3 49.6930 36.8334 54.3334 0.0000 29.4294 0.0000
# 4 0.0000 0.0000 0.0000 29.8265 0.0000 24.5019
# 5 31.0963 29.7483 29.4294 0.0000 49.8779 0.0000
# 6 0.0000 0.0000 0.0000 24.5019 0.0000 43.3364
#
#
#
# Elastic Compliance Matrix: (Units=1/GPa)
#
#
# Indices 1 2 3 4 5 6 
#
# 1 0.014357 -0.001868 -0.011199 0.000000 -0.001229 0.000000
# 2 -0.001868 0.009502 -0.003372 0.000000 -0.002513 0.000000
# 3 -0.011199 -0.003372 0.038303 0.000000 -0.013607 0.000000
# 4 0.000000 0.000000 0.000000 0.062604 0.000000 -0.035396
# 5 -0.001229 -0.002513 -0.013607 0.000000 0.030343 0.000000
# 6 0.000000 0.000000 0.000000 -0.035396 0.000000 0.043088
#
#
# Mechanical properties :
#
#
# Convention : Reuss Voigt Hill
#
# Bulk Modulus (GPa) = 34.14694 64.28030 49.21362
# Shear Modulus (GPa) = 20.76089 36.08155 28.42122
#
# Velocity S-wave (km/s) = 2.86059 3.77116 3.34698
# Velocity P-wave (km/s) = 4.93657 6.65571 5.85953
#
# Compressibility (1/GPa) = 0.02928520
#
# Stress axis : x y z
#
# Youngs Moduli (GPa) = 69.65210 105.23576 26.10737
#
# Poissons Ratio (x) = 0.19660 0.29237
# Poissons Ratio (y) = 0.13012 0.08803
# Poissons Ratio (z) = 0.78001 0.35485
#
# Static dielectric constant tensor:
#      x y z
#    x 4.677710 0.000000 0.354940 
#    y 0.000000 5.075310 0.000000 
#    z 0.354940 0.000000 4.887250 
# 
# 
# High freq. dielectric constant tensor:
#      x y z
#    x 2.006830 0.000000 0.034060 
#    y 0.000000 2.034200 0.000000 
#    z 0.034060 0.000000 2.024640 
# 
# From -- ./inp_files/120801.got.cif
#   From: 2010.06.25/outbox.cif.g09.slc.cpg/sg15_61_cif.got.tgz:120801.got - 2010.06.28 07:06:18.
