data_PCOD8153328
_publ_section_title
;
Structure prediction by ZEFSAII (Michael W. Deem and Ramdas Pophale) SiO2 
 PCOD8153328
Probable space group: C 2/C
;
_chemical_formula_sum "Si O2"
_cell_formula_units_Z 32
_cell_length_a 4.856672
_cell_length_b 18.322860
_cell_length_c 18.063793
_cell_angle_alpha 90.000000
_cell_angle_beta 56.741873
_cell_angle_gamma 90.000000
_cell_volume 1344.174024
_symmetry_space_group_name_H-M "C 2/C"
_symmetry_group_IT_number 15
_symmetry_cell_setting 'monoclinic'
loop_
_space_group_symop_operation_xyz
x,y,z
-x,y,1/2-z
-x,-y,-z
x,-y,1/2+z
1/2+x,1/2+y,z
1/2-x,1/2+y,1/2-z
1/2-x,1/2-y,-z
1/2+x,1/2-y,1/2+z
loop_
_atom_site_type_symbol
_atom_site_label
_atom_site_fract_x
_atom_site_fract_y
_atom_site_fract_z
Si Si1 0.342732 0.809661 0.353528
Si Si2 0.083810 0.036319 0.067148
Si Si3 0.785616 0.605782 0.582031
Si Si4 0.367346 0.337218 0.689828
O O1 0.500000 0.809985 0.250000
O O2 0.545841 0.869347 0.368077
O O3 0.395110 0.727524 0.377184
O O4 0.956454 0.830959 0.413465
O O5 0.833339 0.096734 0.135540
O O6 0.082640 0.969223 0.125926
O O7 0.432164 0.080438 0.017596
O O8 0.000000 0.000000 0.000000
O O9 0.500000 0.364552 0.750000
O O10 0.000000 0.304028 0.750000
#
# Coordination Sequence:
#
# PCOD8153328 Si02
#       4
#     8   8   8   8
#     4  11  23  45  68 102 138 180 237 289 343 409
#     4  11  26  48  67 106 142 181 235 283 350 421
#     4  11  24  43  71  98 137 184 227 293 335 420
#     4  11  27  46  71 101 141 185 233 292 352 415
#
# _framework density 23.806439000000001
#
# number of rings (size 3 to 8) (size 9 to 14) (size 15 to 20)
#    0.000    1.000    2.500    3.750    7.000    5.000 
#    0.000    0.000    0.000    0.000    0.000    0.000 
#    0.000    0.000    0.000    0.000    0.000    0.000 
#
# Total GULP energy -198251.494709 kJ/mol
# GULP energy per Si atom -12390.718419 kJ/mol
# Density = 2.375225 g / cm^3
# Si number density = 23.806439 Si / 1000 Ang^3
#
#
#
# Elastic Constant Matrix: (Units=GPa)
#
#
# Indices 1 2 3 4 5 6 
#
# 1 129.9496 22.6811 22.8754 0.0000 -7.0960 0.0000
# 2 22.6811 94.3908 36.4471 0.0000 4.1291 0.0000
# 3 22.8754 36.4471 36.1281 0.0000 -1.2808 0.0000
# 4 0.0000 0.0000 0.0000 39.2383 0.0000 3.1241
# 5 -7.0960 4.1291 -1.2808 0.0000 42.9752 0.0000
# 6 0.0000 0.0000 0.0000 3.1241 0.0000 37.8690
#
#
#
# Elastic Compliance Matrix: (Units=1/GPa)
#
#
# Indices 1 2 3 4 5 6 
#
# 1 0.008730 -0.000061 -0.005421 0.000000 0.001286 0.000000
# 2 -0.000061 0.017564 -0.017759 0.000000 -0.002227 0.000000
# 3 -0.005421 -0.017759 0.049108 0.000000 0.002275 0.000000
# 4 0.000000 0.000000 0.000000 0.025654 0.000000 -0.002116
# 5 0.001286 -0.002227 0.002275 0.000000 0.023763 0.000000
# 6 0.000000 0.000000 0.000000 -0.002116 0.000000 0.026581
#
#
# Mechanical properties :
#
#
# Convention : Reuss Voigt Hill
#
# Bulk Modulus (GPa) = 34.57750 47.16397 40.87074
# Shear Modulus (GPa) = 24.09378 35.91415 30.00396
#
# Velocity S-wave (km/s) = 3.18476 3.88827 3.55396
# Velocity P-wave (km/s) = 5.29901 6.32555 5.83490
#
# Compressibility (1/GPa) = 0.02892054
#
# Stress axis : x y z
#
# Youngs Moduli (GPa) = 114.54264 56.93585 20.36323
#
# Poissons Ratio (x) = 0.00347 0.11038
# Poissons Ratio (y) = 0.00698 0.36163
# Poissons Ratio (z) = 0.62091 1.01113
#
# Static dielectric constant tensor:
#      x y z
#    x 4.504410 0.000000 -0.225640 
#    y 0.000000 5.098000 0.000000 
#    z -0.225640 0.000000 3.952570 
# 
# 
# High freq. dielectric constant tensor:
#      x y z
#    x 1.958120 0.000000 -0.007160 
#    y 0.000000 1.964060 0.000000 
#    z -0.007160 0.000000 1.903430 
# 
# From -- ./inp_files/226699.got.cif
#   From: 2010.06.25/outbox.cif.g09.slc.cpg/sg15_114_cif.got.tgz:226699.got - 2010.06.28 07:06:18.
