data_PCOD8153338
_publ_section_title
;
Structure prediction by ZEFSAII (Michael W. Deem and Ramdas Pophale) SiO2 
 PCOD8153338
Probable space group: C 2/C
;
_chemical_formula_sum "Si O2"
_cell_formula_units_Z 32
_cell_length_a 25.061081
_cell_length_b 12.415941
_cell_length_c 13.890772
_cell_angle_alpha 90.000000
_cell_angle_beta 162.707757
_cell_angle_gamma 90.000000
_cell_volume 1284.757832
_symmetry_space_group_name_H-M "C 2/C"
_symmetry_group_IT_number 15
_symmetry_cell_setting 'monoclinic'
loop_
_space_group_symop_operation_xyz
x,y,z
-x,y,1/2-z
-x,-y,-z
x,-y,1/2+z
1/2+x,1/2+y,z
1/2-x,1/2+y,1/2-z
1/2-x,1/2-y,-z
1/2+x,1/2-y,1/2+z
loop_
_atom_site_type_symbol
_atom_site_label
_atom_site_fract_x
_atom_site_fract_y
_atom_site_fract_z
Si Si1 0.921102 0.741042 0.408039
Si Si2 0.547615 0.343240 0.228609
Si Si3 0.525928 0.968891 0.153171
Si Si4 0.295903 0.462851 0.265127
O O1 0.027215 0.778700 0.494027
O O2 0.036347 0.662304 0.675256
O O3 0.859253 0.839553 0.368959
O O4 0.762544 0.662101 0.095122
O O5 0.500000 0.288459 0.250000
O O6 0.468288 0.463993 0.087523
O O7 0.715580 0.009526 0.521458
O O8 0.359067 0.018130 0.924253
O O9 0.500000 0.000000 0.000000
#
# Coordination Sequence:
#
# PCOD8153338 Si02
#       4
#     8   8   8   8
#     4  11  25  45  73  97 139 187 224 293 353 397
#     4  11  23  45  70 101 136 181 235 283 347 417
#     4  11  25  44  70 106 139 182 237 285 340 418
#     4  11  26  45  69 101 141 181 234 284 345 420
#
# _framework density 24.907416999999999
#
# number of rings (size 3 to 8) (size 9 to 14) (size 15 to 20)
#    0.000    1.000    2.500    3.750    7.000    1.000 
#    4.500    2.500    0.000    0.000    0.000    0.000 
#    0.000    0.000    0.000    0.000    0.000    0.000 
#
# Total GULP energy -198280.096314 kJ/mol
# GULP energy per Si atom -12392.506020 kJ/mol
# Density = 2.485073 g / cm^3
# Si number density = 24.907417 Si / 1000 Ang^3
#
#
#
# Elastic Constant Matrix: (Units=GPa)
#
#
# Indices 1 2 3 4 5 6 
#
# 1 140.9069 36.1646 -6.9709 0.0000 -14.5467 0.0000
# 2 36.1646 158.2177 29.7221 0.0000 1.2723 0.0000
# 3 -6.9709 29.7221 50.4812 0.0000 -0.3061 0.0000
# 4 0.0000 0.0000 0.0000 28.9336 0.0000 1.1521
# 5 -14.5467 1.2723 -0.3061 0.0000 20.7612 0.0000
# 6 0.0000 0.0000 0.0000 1.1521 0.0000 33.2966
#
#
#
# Elastic Compliance Matrix: (Units=1/GPa)
#
#
# Indices 1 2 3 4 5 6 
#
# 1 0.008506 -0.002498 0.002682 0.000000 0.006152 0.000000
# 2 -0.002498 0.007845 -0.004978 0.000000 -0.002304 0.000000
# 3 0.002682 -0.004978 0.023126 0.000000 0.002525 0.000000
# 4 0.000000 0.000000 0.000000 0.034610 0.000000 -0.001197
# 5 0.006152 -0.002304 0.002525 0.000000 0.052656 0.000000
# 6 0.000000 0.000000 0.000000 -0.001197 0.000000 0.030075
#
#
# Mechanical properties :
#
#
# Convention : Reuss Voigt Hill
#
# Bulk Modulus (GPa) = 33.45533 51.93748 42.69641
# Shear Modulus (GPa) = 28.35011 35.97759 32.16385
#
# Velocity S-wave (km/s) = 3.37741 3.80472 3.59742
# Velocity P-wave (km/s) = 5.35446 6.34024 5.86809
#
# Compressibility (1/GPa) = 0.02989060
#
# Stress axis : x y z
#
# Youngs Moduli (GPa) = 117.56765 127.47111 43.24162
#
# Poissons Ratio (x) = 0.31837 -0.11599
# Poissons Ratio (y) = 0.29363 0.21525
# Poissons Ratio (z) = -0.31536 0.63452
#
# Static dielectric constant tensor:
#      x y z
#    x 5.003440 0.000000 -0.439530 
#    y 0.000000 4.817440 0.000000 
#    z -0.439530 0.000000 4.701730 
# 
# 
# High freq. dielectric constant tensor:
#      x y z
#    x 2.010210 0.000000 -0.005850 
#    y 0.000000 1.996820 0.000000 
#    z -0.005850 0.000000 1.966530 
# 
# From -- ./inp_files/177706.got.cif
#   From: 2010.06.25/outbox.cif.g09.slc.cpg/sg15_89_cif.got.tgz:177706.got - 2010.06.28 07:06:18.
