data_PCOD8153564
_publ_section_title
;
Structure prediction by ZEFSAII (Michael W. Deem and Ramdas Pophale) SiO2 
 PCOD8153564
Probable space group: C 2/C
;
_chemical_formula_sum "Si O2"
_cell_formula_units_Z 56
_cell_length_a 28.793771
_cell_length_b 8.945291
_cell_length_c 10.602696
_cell_angle_alpha 90.000000
_cell_angle_beta 81.490881
_cell_angle_gamma 90.000000
_cell_volume 2700.861106
_symmetry_space_group_name_H-M "C 2/C"
_symmetry_group_IT_number 15
_symmetry_cell_setting 'monoclinic'
loop_
_space_group_symop_operation_xyz
x,y,z
-x,y,1/2-z
-x,-y,-z
x,-y,1/2+z
1/2+x,1/2+y,z
1/2-x,1/2+y,1/2-z
1/2-x,1/2-y,-z
1/2+x,1/2-y,1/2+z
loop_
_atom_site_type_symbol
_atom_site_label
_atom_site_fract_x
_atom_site_fract_y
_atom_site_fract_z
Si Si1 0.854976 0.557122 0.485336
Si Si2 0.791911 0.281306 0.207977
Si Si3 0.104706 0.820507 0.176665
Si Si4 0.822909 0.932251 0.906809
Si Si5 0.740755 0.016177 0.103771
Si Si6 0.894880 0.759341 0.033574
Si Si7 0.970912 0.045201 0.387623
O O1 0.831848 0.633433 0.615580
O O2 0.890708 0.667366 0.401829
O O3 0.814151 0.514609 0.404319
O O4 0.884765 0.414304 0.515129
O O5 0.821727 0.183156 0.293127
O O6 0.759516 0.178539 0.133386
O O7 0.754897 0.397061 0.284561
O O8 0.093355 0.787521 0.325913
O O9 0.152612 0.915084 0.146234
O O10 0.061358 0.904668 0.131852
O O11 0.850026 0.859318 0.013790
O O12 0.769570 0.963010 0.970339
O O13 0.939463 0.809460 0.931912
O O14 0.000000 0.086630 0.250000
O O15 0.000000 0.000000 0.500000
#
# Coordination Sequence:
#
# PCOD8153564 Si02
#       7
#     8   8   8   8   8   8   8
#     4  12  26  44  62 103 143 187 236 290 359 404
#     4  12  25  39  64  89 137 195 246 295 342 403
#     4  11  25  44  73 103 143 174 235 290 359 428
#     4  11  24  42  64  97 130 195 240 290 342 408
#     4  12  25  42  60  93 142 192 248 290 343 408
#     4  11  25  44  72 104 141 180 226 301 353 428
#     4  11  24  51  83 110 138 178 229 284 360 454
#
# _framework density 20.734128999999999
#
# number of rings (size 3 to 8) (size 9 to 14) (size 15 to 20)
#    0.000    0.571    4.286    3.429    8.000    0.000 
#    0.000    1.429    0.000    0.000    0.000    0.000 
#    0.000    0.000    0.000    0.000    0.000    0.000 
#
# Total GULP energy -347347.849198 kJ/mol
# GULP energy per Si atom -12405.280329 kJ/mol
# Density = 2.068694 g / cm^3
# Si number density = 20.734129 Si / 1000 Ang^3
#
#
#
# Elastic Constant Matrix: (Units=GPa)
#
#
# Indices 1 2 3 4 5 6 
#
# 1 97.9142 49.4506 47.8599 0.0000 4.2785 0.0000
# 2 49.4506 141.1943 64.4007 0.0000 -0.3667 0.0000
# 3 47.8599 64.4007 144.0983 0.0000 0.4021 0.0000
# 4 0.0000 0.0000 0.0000 38.1679 0.0000 -3.4685
# 5 4.2785 -0.3667 0.4021 0.0000 32.9805 0.0000
# 6 0.0000 0.0000 0.0000 -3.4685 0.0000 32.7052
#
#
#
# Elastic Compliance Matrix: (Units=1/GPa)
#
#
# Indices 1 2 3 4 5 6 
#
# 1 0.013430 -0.003361 -0.002954 0.000000 -0.001744 0.000000
# 2 -0.003361 0.009738 -0.003237 0.000000 0.000584 0.000000
# 3 -0.002954 -0.003237 0.009367 0.000000 0.000233 0.000000
# 4 0.000000 0.000000 0.000000 0.026455 0.000000 0.002806
# 5 -0.001744 0.000584 0.000233 0.000000 0.030551 0.000000
# 6 0.000000 0.000000 0.000000 0.002806 0.000000 0.030874
#
#
# Mechanical properties :
#
#
# Convention : Reuss Voigt Hill
#
# Bulk Modulus (GPa) = 74.45513 78.51435 76.48474
# Shear Modulus (GPa) = 34.72329 35.53710 35.13020
#
# Velocity S-wave (km/s) = 4.09674 4.14447 4.12067
# Velocity P-wave (km/s) = 7.63971 7.80074 7.72064
#
# Compressibility (1/GPa) = 0.01343091
#
# Stress axis : x y z
#
# Youngs Moduli (GPa) = 74.45775 102.69388 106.75895
#
# Poissons Ratio (x) = 0.34516 0.31533
# Poissons Ratio (y) = 0.25026 0.34561
# Poissons Ratio (z) = 0.21993 0.33245
#
# Static dielectric constant tensor:
#      x y z
#    x 3.641810 0.000000 0.024720 
#    y 0.000000 3.912640 0.000000 
#    z 0.024720 0.000000 3.904270 
# 
# 
# High freq. dielectric constant tensor:
#      x y z
#    x 1.796540 0.000000 0.007860 
#    y 0.000000 1.821800 0.000000 
#    z 0.007860 0.000000 1.830530 
# 
# From -- ./inp_files/125543.got.cif
#   From: 2010.06.25/outbox.cif.g09.slc.cpg/sg15_63_cif.got.tgz:125543.got - 2010.06.28 07:06:18.
