data_PCOD8153539
_publ_section_title
;
Structure prediction by ZEFSAII (Michael W. Deem and Ramdas Pophale) SiO2 
 PCOD8153539
Probable space group: C 2/C
;
_chemical_formula_sum "Si O2"
_cell_formula_units_Z 44
_cell_length_a 28.468020
_cell_length_b 6.734950
_cell_length_c 10.496707
_cell_angle_alpha 90.000000
_cell_angle_beta 98.580757
_cell_angle_gamma 90.000000
_cell_volume 1990.013608
_symmetry_space_group_name_H-M "C 2/C"
_symmetry_group_IT_number 15
_symmetry_cell_setting 'monoclinic'
loop_
_space_group_symop_operation_xyz
x,y,z
-x,y,1/2-z
-x,-y,-z
x,-y,1/2+z
1/2+x,1/2+y,z
1/2-x,1/2+y,1/2-z
1/2-x,1/2-y,-z
1/2+x,1/2-y,1/2+z
loop_
_atom_site_type_symbol
_atom_site_label
_atom_site_fract_x
_atom_site_fract_y
_atom_site_fract_z
Si Si1 0.870450 0.519357 0.128776
Si Si2 0.035835 0.656564 0.955578
Si Si3 0.000000 0.949654 0.750000
Si Si4 0.668769 0.623344 0.280103
Si Si5 0.801714 0.179479 0.485353
Si Si6 0.912899 0.148058 0.799612
O O1 0.922614 0.451086 0.106124
O O2 0.837440 0.344363 0.168319
O O3 0.840400 0.641466 0.010658
O O4 0.880108 0.667986 0.248586
O O5 0.999928 0.800293 0.867940
O O6 0.063149 0.804461 0.058452
O O7 0.000000 0.500000 0.000000
O O8 0.045249 0.093790 0.781255
O O9 0.686346 0.495354 0.408681
O O10 0.618773 0.548352 0.204237
O O11 0.701548 0.613691 0.165604
O O12 0.750000 0.250000 0.500000
#
# Coordination Sequence:
#
# PCOD8153539 Si02
#       6
#     8   8   4   8   8   8
#     4  11  24  46  71 101 141 187 235 293 364 427
#     4  12  24  40  67  99 139 189 238 288 351 429
#     4  12  24  40  62  96 140 184 234 300 334 420
#     4  11  25  49  74 104 146 187 237 298 367 432
#     4  11  28  47  77 109 142 186 241 302 367 440
#     4  11  24  41  65  97 136 182 232 284 351 414
#
# _framework density 22.110402000000001
#
# number of rings (size 3 to 8) (size 9 to 14) (size 15 to 20)
#    0.000    0.727    1.818    4.909    7.636    2.182 
#    0.000    0.000    0.000    0.000    0.000    0.000 
#    0.000    0.000    0.000    0.000    0.000    0.000 
#
# Total GULP energy -272634.176834 kJ/mol
# GULP energy per Si atom -12392.462583 kJ/mol
# Density = 2.206008 g / cm^3
# Si number density = 22.110402 Si / 1000 Ang^3
#
#
#
# Elastic Constant Matrix: (Units=GPa)
#
#
# Indices 1 2 3 4 5 6 
#
# 1 90.2922 19.7619 4.0432 0.0000 -9.1531 0.0000
# 2 19.7619 116.4907 40.6978 0.0000 3.9902 0.0000
# 3 4.0432 40.6978 99.9862 0.0000 -8.4634 0.0000
# 4 0.0000 0.0000 0.0000 28.6919 0.0000 -11.2877
# 5 -9.1531 3.9902 -8.4634 0.0000 37.7938 0.0000
# 6 0.0000 0.0000 0.0000 -11.2877 0.0000 27.4790
#
#
#
# Elastic Compliance Matrix: (Units=1/GPa)
#
#
# Indices 1 2 3 4 5 6 
#
# 1 0.011902 -0.002404 0.000777 0.000000 0.003310 0.000000
# 2 -0.002404 0.010645 -0.004465 0.000000 -0.002706 0.000000
# 3 0.000777 -0.004465 0.012072 0.000000 0.003363 0.000000
# 4 0.000000 0.000000 0.000000 0.041571 0.000000 0.017076
# 5 0.003310 -0.002706 0.003363 0.000000 0.028300 0.000000
# 6 0.000000 0.000000 0.000000 0.017076 0.000000 0.043406
#
#
# Mechanical properties :
#
#
# Convention : Reuss Voigt Hill
#
# Bulk Modulus (GPa) = 44.57088 48.41944 46.49516
# Shear Modulus (GPa) = 29.84067 34.94402 32.39235
#
# Velocity S-wave (km/s) = 3.67770 3.97978 3.83172
# Velocity P-wave (km/s) = 6.18354 6.56237 6.37577
#
# Compressibility (1/GPa) = 0.02243618
#
# Stress axis : x y z
#
# Youngs Moduli (GPa) = 84.01868 93.94363 82.83746
#
# Poissons Ratio (x) = 0.22585 -0.06441
# Poissons Ratio (y) = 0.20199 0.36983
# Poissons Ratio (z) = -0.06532 0.41942
#
# Static dielectric constant tensor:
#      x y z
#    x 4.023380 0.000000 0.038410 
#    y 0.000000 1.884640 0.000000 
#    z 0.038410 0.000000 4.088440 
# 
# 
# High freq. dielectric constant tensor:
#      x y z
#    x 1.871270 0.000000 0.005780 
#    y 0.000000 1.887950 0.000000 
#    z 0.005780 0.000000 1.872520 
# 
# From -- ./inp_files/125034.got.cif
#   From: 2010.06.25/outbox.cif.g09.slc.cpg/sg15_63_cif.got.tgz:125034.got - 2010.06.28 07:06:18.
