data_PCOD8153575
_publ_section_title
;
Structure prediction by ZEFSAII (Michael W. Deem and Ramdas Pophale) SiO2 
 PCOD8153575
Probable space group: C 2/C
;
_chemical_formula_sum "Si O2"
_cell_formula_units_Z 44
_cell_length_a 15.797181
_cell_length_b 12.774879
_cell_length_c 26.974405
_cell_angle_alpha 90.000000
_cell_angle_beta 157.565506
_cell_angle_gamma 90.000000
_cell_volume 2077.434120
_symmetry_space_group_name_H-M "C 2/C"
_symmetry_group_IT_number 15
_symmetry_cell_setting 'monoclinic'
loop_
_space_group_symop_operation_xyz
x,y,z
-x,y,1/2-z
-x,-y,-z
x,-y,1/2+z
1/2+x,1/2+y,z
1/2-x,1/2+y,1/2-z
1/2-x,1/2-y,-z
1/2+x,1/2-y,1/2+z
loop_
_atom_site_type_symbol
_atom_site_label
_atom_site_fract_x
_atom_site_fract_y
_atom_site_fract_z
Si Si1 0.500000 0.268865 0.750000
Si Si2 0.759551 0.627617 0.884493
Si Si3 0.440894 0.514834 0.387802
Si Si4 0.959753 0.835186 0.471234
Si Si5 0.702969 0.360595 0.951817
Si Si6 0.565508 0.007547 0.610588
O O1 0.289558 0.194985 0.647312
O O2 0.527923 0.346195 0.812179
O O3 0.500000 0.649101 0.750000
O O4 0.783059 0.541467 0.853796
O O5 0.881153 0.736323 0.941372
O O6 0.879394 0.579618 0.997682
O O7 0.464050 0.394260 0.419712
O O8 0.433567 0.587633 0.431380
O O9 0.632994 0.550877 0.453702
O O10 0.211798 0.533726 0.234998
O O11 0.750000 0.250000 0.000000
O O12 0.940823 0.388069 0.058943
#
# Coordination Sequence:
#
# PCOD8153575 Si02
#       6
#     4   8   8   8   8   8
#     4  12  22  44  76  98 142 186 240 286 340 420
#     4  11  24  44  67  98 139 181 225 285 352 411
#     4  11  25  43  67 103 136 174 235 286 352 404
#     4  11  25  45  68 102 139 182 231 291 347 416
#     4  12  23  42  70 101 132 181 231 286 340 411
#     4  11  24  42  67  98 135 179 230 280 341 420
#
# _framework density 21.179974000000001
#
# number of rings (size 3 to 8) (size 9 to 14) (size 15 to 20)
#    0.000    0.727    3.636    3.273    3.818    2.909 
#    3.273    2.727    0.000    0.000    0.000    0.000 
#    0.000    0.000    0.000    0.000    0.000    0.000 
#
# Total GULP energy -272756.367622 kJ/mol
# GULP energy per Si atom -12398.016710 kJ/mol
# Density = 2.113177 g / cm^3
# Si number density = 21.179974 Si / 1000 Ang^3
#
#
#
# Elastic Constant Matrix: (Units=GPa)
#
#
# Indices 1 2 3 4 5 6 
#
# 1 92.7633 47.6879 55.9174 -0.0036 -14.1001 -0.0008
# 2 47.6879 77.6507 38.0634 0.0070 18.0081 -0.0007
# 3 55.9174 38.0634 151.1500 -0.0030 5.4374 -0.0020
# 4 -0.0036 0.0070 -0.0030 31.7752 -0.0089 4.0116
# 5 -14.1001 18.0081 5.4374 -0.0089 35.0393 -0.0012
# 6 -0.0008 -0.0007 -0.0020 4.0116 -0.0012 40.5253
#
#
#
# Elastic Compliance Matrix: (Units=1/GPa)
#
#
# Indices 1 2 3 4 5 6 
#
# 1 0.027582 -0.018948 -0.006217 0.000013 0.021802 -0.000001
# 2 -0.018948 0.029650 0.000368 -0.000015 -0.022920 0.000001
# 3 -0.006217 0.000368 0.008970 -0.000001 -0.004083 0.000000
# 4 0.000013 -0.000015 -0.000001 0.031869 0.000021 -0.003155
# 5 0.021802 -0.022920 -0.004083 0.000021 0.049726 -0.000001
# 6 -0.000001 0.000001 0.000000 -0.003155 -0.000001 0.024988
#
#
# Mechanical properties :
#
#
# Convention : Reuss Voigt Hill
#
# Bulk Modulus (GPa) = 60.21096 67.21124 63.71110
# Shear Modulus (GPa) = 21.93792 33.46098 27.69945
#
# Velocity S-wave (km/s) = 3.22185 3.97903 3.62029
# Velocity P-wave (km/s) = 6.50618 7.27410 6.90083
#
# Compressibility (1/GPa) = 0.01660827
#
# Stress axis : x y z
#
# Youngs Moduli (GPa) = 36.25522 33.72682 111.48199
#
# Poissons Ratio (x) = 0.63906 0.69305
# Poissons Ratio (y) = 0.68696 -0.04099
# Poissons Ratio (z) = 0.22539 -0.01240
#
# Static dielectric constant tensor:
#      x y z
#    x 4.052830 0.000000 -0.137650 
#    y 0.000000 3.947170 -0.000010 
#    z -0.137650 -0.000010 3.977700 
# 
# 
# High freq. dielectric constant tensor:
#      x y z
#    x 1.833080 0.000000 -0.010650 
#    y 0.000000 1.836010 0.000000 
#    z -0.010650 0.000000 1.840700 
# 
# From -- ./inp_files/316140.got.cif
#   From: 2010.06.25/outbox.cif.g09.slc.cpg/sg15_159_cif.got.tgz:316140.got - 2010.06.28 07:06:18.
