data_PCOD8153562
_publ_section_title
;
Structure prediction by ZEFSAII (Michael W. Deem and Ramdas Pophale) SiO2 
 PCOD8153562
Probable space group: C 2/C
;
_chemical_formula_sum "Si O2"
_cell_formula_units_Z 56
_cell_length_a 15.637094
_cell_length_b 16.910694
_cell_length_c 12.022185
_cell_angle_alpha 90.000000
_cell_angle_beta 59.390978
_cell_angle_gamma 90.000000
_cell_volume 2736.109303
_symmetry_space_group_name_H-M "C 2/C"
_symmetry_group_IT_number 15
_symmetry_cell_setting 'monoclinic'
loop_
_space_group_symop_operation_xyz
x,y,z
-x,y,1/2-z
-x,-y,-z
x,-y,1/2+z
1/2+x,1/2+y,z
1/2-x,1/2+y,1/2-z
1/2-x,1/2-y,-z
1/2+x,1/2-y,1/2+z
loop_
_atom_site_type_symbol
_atom_site_label
_atom_site_fract_x
_atom_site_fract_y
_atom_site_fract_z
Si Si1 0.246965 0.930096 0.542133
Si Si2 0.404916 0.047831 0.525217
Si Si3 0.813175 0.812994 0.526863
Si Si4 0.115830 0.062500 0.688646
Si Si5 0.209633 0.702460 0.315335
Si Si6 0.753455 0.117983 0.708040
Si Si7 0.488201 0.206212 0.386340
O O1 0.263793 0.847463 0.593401
O O2 0.231097 0.916666 0.423343
O O3 0.339465 0.988546 0.496100
O O4 0.147631 0.970886 0.657619
O O5 0.344389 0.079985 0.671844
O O6 0.437089 0.120589 0.426635
O O7 0.500000 0.000000 0.500000
O O8 0.750000 0.750000 0.500000
O O9 0.824819 0.891416 0.446719
O O10 0.755110 0.839605 0.676129
O O11 0.918744 0.773233 0.487550
O O12 0.147823 0.097781 0.786484
O O13 0.000000 0.072957 0.750000
O O14 0.259844 0.788044 0.291686
O O15 0.091077 0.707901 0.384296
O O16 0.500000 0.229728 0.250000
#
# Coordination Sequence:
#
# PCOD8153562 Si02
#       7
#     8   8   8   8   8   8   8
#     4  11  27  43  68  94 136 184 215 276 343 409
#     4  11  24  42  64 101 134 170 222 274 338 398
#     4  12  21  41  69 101 130 169 228 284 325 387
#     4  11  25  45  68  99 130 173 228 281 334 391
#     4  12  24  44  66  98 137 175 224 275 337 402
#     4  11  24  46  68  95 136 175 222 275 336 405
#     4  12  23  38  70 101 128 172 224 283 334 384
#
# _framework density 20.467019000000001
#
# number of rings (size 3 to 8) (size 9 to 14) (size 15 to 20)
#    0.000    0.571    5.714    2.571    6.000    0.571 
#    2.571    0.000    0.000    0.000    0.000    0.000 
#    0.000    0.000    0.000    0.000    0.000    0.000 
#
# Total GULP energy -347358.254379 kJ/mol
# GULP energy per Si atom -12405.651942 kJ/mol
# Density = 2.042044 g / cm^3
# Si number density = 20.467019 Si / 1000 Ang^3
#
#
#
# Elastic Constant Matrix: (Units=GPa)
#
#
# Indices 1 2 3 4 5 6 
#
# 1 121.7654 49.2230 58.2853 0.0000 -4.7547 0.0000
# 2 49.2230 99.2843 28.8502 0.0000 7.7806 0.0000
# 3 58.2853 28.8502 89.8937 0.0000 4.8526 0.0000
# 4 0.0000 0.0000 0.0000 34.7187 0.0000 2.0717
# 5 -4.7547 7.7806 4.8526 0.0000 33.2986 0.0000
# 6 0.0000 0.0000 0.0000 2.0717 0.0000 27.4887
#
#
#
# Elastic Compliance Matrix: (Units=1/GPa)
#
#
# Indices 1 2 3 4 5 6 
#
# 1 0.014173 -0.005105 -0.007786 0.000000 0.004351 0.000000
# 2 -0.005105 0.013094 -0.000693 0.000000 -0.003687 0.000000
# 3 -0.007786 -0.000693 0.016577 0.000000 -0.003366 0.000000
# 4 0.000000 0.000000 0.000000 0.028933 0.000000 -0.002181
# 5 0.004351 -0.003687 -0.003366 0.000000 0.032005 0.000000
# 6 0.000000 0.000000 0.000000 -0.002181 0.000000 0.036543
#
#
# Mechanical properties :
#
#
# Convention : Reuss Voigt Hill
#
# Bulk Modulus (GPa) = 59.97088 64.85117 62.41102
# Shear Modulus (GPa) = 28.72729 30.74021 29.73375
#
# Velocity S-wave (km/s) = 3.75052 3.87969 3.81565
# Velocity P-wave (km/s) = 6.93686 7.19888 7.06908
#
# Compressibility (1/GPa) = 0.01667476
#
# Stress axis : x y z
#
# Youngs Moduli (GPa) = 70.55611 76.37371 60.32594
#
# Poissons Ratio (x) = 0.38991 0.46970
# Poissons Ratio (y) = 0.36021 0.04180
# Poissons Ratio (z) = 0.54935 0.05293
#
# Static dielectric constant tensor:
#      x y z
#    x 4.128450 0.000000 -0.242720 
#    y 0.000000 3.933420 0.000000 
#    z -0.242720 0.000000 3.820680 
# 
# 
# High freq. dielectric constant tensor:
#      x y z
#    x 1.801510 0.000000 -0.008960 
#    y 0.000000 1.811710 0.000000 
#    z -0.008960 0.000000 1.796170 
# 
# From -- ./inp_files/98655.got.cif
#   From: 2010.06.25/outbox.cif.g09.slc.cpg/sg15_50_cif.got.tgz:98655.got - 2010.06.28 07:06:18.
