data_PCOD8153955
_publ_section_title
;
Structure prediction by ZEFSAII (Michael W. Deem and Ramdas Pophale) SiO2 
 PCOD8153955
Probable space group: C 2/C
;
_chemical_formula_sum "Si O2"
_cell_formula_units_Z 36
_cell_length_a 8.678363
_cell_length_b 22.891402
_cell_length_c 8.131001
_cell_angle_alpha 90.000000
_cell_angle_beta 88.911207
_cell_angle_gamma 90.000000
_cell_volume 1615.012168
_symmetry_space_group_name_H-M "C 2/C"
_symmetry_group_IT_number 15
_symmetry_cell_setting 'monoclinic'
loop_
_space_group_symop_operation_xyz
x,y,z
-x,y,1/2-z
-x,-y,-z
x,-y,1/2+z
1/2+x,1/2+y,z
1/2-x,1/2+y,1/2-z
1/2-x,1/2-y,-z
1/2+x,1/2-y,1/2+z
loop_
_atom_site_type_symbol
_atom_site_label
_atom_site_fract_x
_atom_site_fract_y
_atom_site_fract_z
Si Si1 0.567533 0.835010 0.491098
Si Si2 0.160695 0.966632 0.507719
Si Si3 0.246995 0.647572 0.322895
Si Si4 0.000000 0.236571 0.250000
Si Si5 0.842132 0.446469 0.193525
O O1 0.390557 0.845653 0.544602
O O2 0.682473 0.842909 0.641109
O O3 0.579953 0.773456 0.395430
O O4 0.619207 0.881114 0.356153
O O5 0.170058 0.915430 0.646599
O O6 0.204758 0.941640 0.329104
O O7 0.287713 0.015456 0.541784
O O8 0.000000 0.000000 0.500000
O O9 0.374623 0.697082 0.346744
O O10 0.000000 0.477139 0.250000
#
# Coordination Sequence:
#
# PCOD8153955 Si02
#       5
#     8   8   8   4   8
#     4  11  24  47  71 104 137 192 244 290 346 435
#     4  12  27  45  68 109 146 188 232 303 366 424
#     4  11  26  44  72 104 143 185 240 295 361 421
#     4  12  24  46  72 104 144 184 236 302 362 412
#     4  12  24  44  73  98 140 186 246 286 353 433
#
# _framework density 22.290854
#
# number of rings (size 3 to 8) (size 9 to 14) (size 15 to 20)
#    0.000    0.444    3.333    4.000    9.333    0.000 
#    0.000    0.000    0.000    0.000    0.000    0.000 
#    0.000    0.000    0.000    0.000    0.000    0.000 
#
# Total GULP energy -223186.407869 kJ/mol
# GULP energy per Si atom -12399.244882 kJ/mol
# Density = 2.224012 g / cm^3
# Si number density = 22.290854 Si / 1000 Ang^3
#
#
#
# Elastic Constant Matrix: (Units=GPa)
#
#
# Indices 1 2 3 4 5 6 
#
# 1 134.8958 83.2273 56.9250 0.0000 -7.6671 0.0000
# 2 83.2273 152.6588 51.9897 0.0000 -1.5085 0.0000
# 3 56.9250 51.9897 114.0925 0.0000 -12.7782 0.0000
# 4 0.0000 0.0000 0.0000 28.0056 0.0000 -1.0720
# 5 -7.6671 -1.5085 -12.7782 0.0000 35.6712 0.0000
# 6 0.0000 0.0000 0.0000 -1.0720 0.0000 49.2119
#
#
#
# Elastic Compliance Matrix: (Units=1/GPa)
#
#
# Indices 1 2 3 4 5 6 
#
# 1 0.012385 -0.005540 -0.003524 0.000000 0.001165 0.000000
# 2 -0.005540 0.010265 -0.002082 0.000000 -0.001502 0.000000
# 3 -0.003524 -0.002082 0.011852 0.000000 0.003400 0.000000
# 4 0.000000 0.000000 0.000000 0.035737 0.000000 0.000778
# 5 0.001165 -0.001502 0.003400 0.000000 0.029439 0.000000
# 6 0.000000 0.000000 0.000000 0.000778 0.000000 0.020337
#
#
# Mechanical properties :
#
#
# Convention : Reuss Voigt Hill
#
# Bulk Modulus (GPa) = 81.89780 87.32566 84.61173
# Shear Modulus (GPa) = 34.15827 36.54474 35.35151
#
# Velocity S-wave (km/s) = 3.91882 4.05340 3.98668
# Velocity P-wave (km/s) = 7.56945 7.82096 7.69623
#
# Compressibility (1/GPa) = 0.01221034
#
# Stress axis : x y z
#
# Youngs Moduli (GPa) = 80.74480 97.41747 84.37039
#
# Poissons Ratio (x) = 0.53972 0.29733
# Poissons Ratio (y) = 0.44735 0.17563
# Poissons Ratio (z) = 0.28455 0.20279
#
# Static dielectric constant tensor:
#      x y z
#    x 4.232000 0.000000 0.134160 
#    y 0.000000 4.032680 0.000000 
#    z 0.134160 0.000000 4.049270 
# 
# 
# High freq. dielectric constant tensor:
#      x y z
#    x 1.885670 0.000000 0.002440 
#    y 0.000000 1.880190 0.000000 
#    z 0.002440 0.000000 1.887300 
# 
# From -- ./inp_files/23095.got.cif
#   From: 2010.06.25/outbox.cif.g09.slc.cpg/sg15_12_cif.got.tgz:23095.got - 2010.06.28 07:06:18.
