data_PCOD8153290
_publ_section_title
;
Structure prediction by ZEFSAII (Michael W. Deem and Ramdas Pophale) SiO2 
 PCOD8153290
Probable space group: C 2/C
;
_chemical_formula_sum "Si O2"
_cell_formula_units_Z 64
_cell_length_a 9.095890
_cell_length_b 16.635051
_cell_length_c 30.096684
_cell_angle_alpha 90.000000
_cell_angle_beta 38.474948
_cell_angle_gamma 90.000000
_cell_volume 2833.340171
_symmetry_space_group_name_H-M "C 2/C"
_symmetry_group_IT_number 15
_symmetry_cell_setting 'monoclinic'
loop_
_space_group_symop_operation_xyz
x,y,z
-x,y,1/2-z
-x,-y,-z
x,-y,1/2+z
1/2+x,1/2+y,z
1/2-x,1/2+y,1/2-z
1/2-x,1/2-y,-z
1/2+x,1/2-y,1/2+z
loop_
_atom_site_type_symbol
_atom_site_label
_atom_site_fract_x
_atom_site_fract_y
_atom_site_fract_z
Si Si1 0.956708 0.803120 0.809410
Si Si2 0.323305 0.551027 0.665978
Si Si3 0.089833 0.311883 0.563715
Si Si4 0.311468 0.973927 0.009065
Si Si5 0.126457 0.367906 0.057304
Si Si6 0.052972 0.372097 0.304162
Si Si7 0.238929 0.870560 0.817318
Si Si8 0.081181 0.222291 0.437456
O O1 0.679267 0.788456 0.881263
O O2 0.102179 0.722250 0.785990
O O3 0.000000 0.834828 0.750000
O O4 0.072256 0.870730 0.813256
O O5 0.596715 0.556381 0.590086
O O6 0.189103 0.610259 0.664456
O O7 0.227176 0.462756 0.677217
O O8 0.267885 0.577613 0.730315
O O9 0.250000 0.250000 0.500000
O O10 0.115702 0.403120 0.541364
O O11 0.176410 0.299768 0.594129
O O12 0.500000 0.000000 0.000000
O O13 0.264148 0.051731 0.989906
O O14 0.974898 0.391540 0.136932
O O15 0.959627 0.317992 0.061921
O O16 0.350577 0.312107 0.017998
O O17 0.500000 0.832202 0.750000
O O18 0.091961 0.820244 0.887526
#
# Coordination Sequence:
#
# PCOD8153290 Si02
#       8
#     8   8   8   8   8   8   8   8
#     4  12  25  47  71 103 147 191 240 303 369 439
#     4  11  23  44  73  99 146 185 245 292 369 446
#     4  12  27  43  71 105 146 194 246 296 379 445
#     4  12  26  45  70 103 148 194 238 307 368 443
#     4  11  24  43  73 103 145 186 249 302 368 436
#     4  11  23  44  73 103 134 192 235 302 359 444
#     4  12  24  44  73 108 141 189 249 309 370 431
#     4  11  24  44  71 105 145 190 244 304 367 446
#
# _framework density 22.588180999999999
#
# number of rings (size 3 to 8) (size 9 to 14) (size 15 to 20)
#    0.000    0.500    5.000    4.500    3.500    2.000 
#    2.250    0.625    0.000    0.000    0.000    0.000 
#    0.000    0.000    0.000    0.000    0.000    0.000 
#
# Total GULP energy -396792.254045 kJ/mol
# GULP energy per Si atom -12399.757939 kJ/mol
# Density = 2.253677 g / cm^3
# Si number density = 22.588181 Si / 1000 Ang^3
#
#
#
# Elastic Constant Matrix: (Units=GPa)
#
#
# Indices 1 2 3 4 5 6 
#
# 1 108.3630 7.0183 32.6588 -0.0011 1.8486 0.0000
# 2 7.0183 100.5724 23.8385 -0.0085 7.6607 0.0035
# 3 32.6588 23.8385 123.7456 -0.0135 8.1145 0.0021
# 4 -0.0011 -0.0085 -0.0135 31.9854 -0.0048 0.2120
# 5 1.8486 7.6607 8.1145 -0.0048 38.8244 0.0034
# 6 0.0000 0.0035 0.0021 0.2120 0.0034 27.9066
#
#
#
# Elastic Compliance Matrix: (Units=1/GPa)
#
#
# Indices 1 2 3 4 5 6 
#
# 1 0.010027 -0.000082 -0.002636 -0.000001 0.000090 0.000000
# 2 -0.000082 0.010526 -0.001896 0.000002 -0.001677 -0.000001
# 3 -0.002636 -0.001896 0.009236 0.000003 -0.001431 0.000000
# 4 -0.000001 0.000002 0.000003 0.031266 0.000003 -0.000237
# 5 0.000090 -0.001677 -0.001431 0.000003 0.026383 -0.000003
# 6 0.000000 -0.000001 0.000000 -0.000237 -0.000003 0.035836
#
#
# Mechanical properties :
#
#
# Convention : Reuss Voigt Hill
#
# Bulk Modulus (GPa) = 48.63802 51.07915 49.85859
# Shear Modulus (GPa) = 35.87979 37.68767 36.78373
#
# Velocity S-wave (km/s) = 3.98984 4.08912 4.03978
# Velocity P-wave (km/s) = 6.54250 6.70499 6.62424
#
# Compressibility (1/GPa) = 0.02056005
#
# Stress axis : x y z
#
# Youngs Moduli (GPa) = 99.73523 95.00321 108.27215
#
# Poissons Ratio (x) = 0.00776 0.28544
# Poissons Ratio (y) = 0.00814 0.20531
# Poissons Ratio (z) = 0.26294 0.18015
#
# Static dielectric constant tensor:
#      x y z
#    x 2.975890 0.001480 0.775660 
#    y 0.001480 4.431290 -0.000360 
#    z 0.775660 -0.000360 3.929400 
# 
# 
# High freq. dielectric constant tensor:
#      x y z
#    x 1.879750 0.000000 0.004260 
#    y 0.000000 1.897820 0.000000 
#    z 0.004260 0.000000 1.900210 
# 
# From -- ./inp_files/308771.got.cif
#   From: 2010.06.25/outbox.cif.g09.slc.cpg/sg15_155_cif.got.tgz:308771.got - 2010.06.28 07:06:18.
