data_PCOD8153978
_publ_section_title
;
Structure prediction by ZEFSAII (Michael W. Deem and Ramdas Pophale) SiO2 
 PCOD8153978
Probable space group: C 2/C
;
_chemical_formula_sum "Si O2"
_cell_formula_units_Z 40
_cell_length_a 8.486197
_cell_length_b 14.399793
_cell_length_c 15.724603
_cell_angle_alpha 90.000000
_cell_angle_beta 61.980312
_cell_angle_gamma 90.000000
_cell_volume 1696.307545
_symmetry_space_group_name_H-M "C 2/C"
_symmetry_group_IT_number 15
_symmetry_cell_setting 'monoclinic'
loop_
_space_group_symop_operation_xyz
x,y,z
-x,y,1/2-z
-x,-y,-z
x,-y,1/2+z
1/2+x,1/2+y,z
1/2-x,1/2+y,1/2-z
1/2-x,1/2-y,-z
1/2+x,1/2-y,1/2+z
loop_
_atom_site_type_symbol
_atom_site_label
_atom_site_fract_x
_atom_site_fract_y
_atom_site_fract_z
Si Si1 0.840107 0.752920 0.731416
Si Si2 0.633058 0.082458 0.491035
Si Si3 0.968539 0.044912 0.169243
Si Si4 0.588978 0.248166 0.976443
Si Si5 0.321939 0.619563 0.603982
O O1 0.841538 0.717913 0.634029
O O2 0.680529 0.699796 0.821699
O O3 0.000000 0.716981 0.750000
O O4 0.844807 0.865242 0.724189
O O5 0.835824 0.067057 0.414482
O O6 0.558761 0.171711 0.459549
O O7 0.644944 0.106046 0.589900
O O8 0.500000 0.000000 0.500000
O O9 0.000000 0.990665 0.250000
O O10 0.860163 0.981053 0.132496
O O11 0.750000 0.250000 0.000000
O O12 0.490170 0.348396 0.001374
#
# Coordination Sequence:
#
# PCOD8153978 Si02
#       5
#     8   8   8   8   8
#     4  11  24  47  75 105 149 201 247 304 384 448
#     4  12  26  47  75 109 149 199 257 310 379 449
#     4  11  26  46  75 108 150 193 252 311 376 451
#     4  12  26  45  76 108 148 199 252 308 378 449
#     4  12  26  48  78 104 154 200 247 317 379 447
#
# _framework density 23.580628999999998
#
# number of rings (size 3 to 8) (size 9 to 14) (size 15 to 20)
#    0.000    0.400    4.000    4.800    8.400    0.000 
#    0.000    0.000    0.000    0.000    0.000    0.000 
#    0.000    0.000    0.000    0.000    0.000    0.000 
#
# Total GULP energy -247776.476677 kJ/mol
# GULP energy per Si atom -12388.823834 kJ/mol
# Density = 2.352696 g / cm^3
# Si number density = 23.580629 Si / 1000 Ang^3
#
#
#
# Elastic Constant Matrix: (Units=GPa)
#
#
# Indices 1 2 3 4 5 6 
#
# 1 161.4586 75.1418 51.1310 0.0000 35.4086 0.0000
# 2 75.1418 137.6045 49.5287 0.0000 7.6945 0.0000
# 3 51.1310 49.5287 117.8218 0.0000 23.9893 0.0000
# 4 0.0000 0.0000 0.0000 40.5152 0.0000 8.0242
# 5 35.4086 7.6945 23.9893 0.0000 36.8465 0.0000
# 6 0.0000 0.0000 0.0000 8.0242 0.0000 50.8149
#
#
#
# Elastic Compliance Matrix: (Units=1/GPa)
#
#
# Indices 1 2 3 4 5 6 
#
# 1 0.010720 -0.005104 -0.000722 0.000000 -0.008766 0.000000
# 2 -0.005104 0.011006 -0.003392 0.000000 0.004815 0.000000
# 3 -0.000722 -0.003392 0.011460 0.000000 -0.006059 0.000000
# 4 0.000000 0.000000 0.000000 0.025479 0.000000 -0.004023
# 5 -0.008766 0.004815 -0.006059 0.000000 0.038503 0.000000
# 6 0.000000 0.000000 0.000000 -0.004023 0.000000 0.020315
#
#
# Mechanical properties :
#
#
# Convention : Reuss Voigt Hill
#
# Bulk Modulus (GPa) = 67.79307 85.38752 76.59029
# Shear Modulus (GPa) = 35.50277 41.70756 38.60516
#
# Velocity S-wave (km/s) = 3.88440 4.21018 4.05057
# Velocity P-wave (km/s) = 6.99500 7.74104 7.37745
#
# Compressibility (1/GPa) = 0.01475077
#
# Stress axis : x y z
#
# Youngs Moduli (GPa) = 93.28590 90.86047 87.25826
#
# Poissons Ratio (x) = 0.46373 0.06298
# Poissons Ratio (y) = 0.47611 0.29598
# Poissons Ratio (z) = 0.06734 0.30819
#
# Static dielectric constant tensor:
#      x y z
#    x 4.138110 0.000000 0.338390 
#    y 0.000000 4.459750 0.000000 
#    z 0.338390 0.000000 4.835470 
# 
# 
# High freq. dielectric constant tensor:
#      x y z
#    x 1.919990 0.000000 0.021340 
#    y 0.000000 1.934450 0.000000 
#    z 0.021340 0.000000 1.949630 
# 
# From -- ./inp_files/133058.got.cif
#   From: 2010.06.25/outbox.cif.g09.slc.cpg/sg15_67_cif.got.tgz:133058.got - 2010.06.28 07:06:18.
