data_PCOD8153620
_publ_section_title
;
Structure prediction by ZEFSAII (Michael W. Deem and Ramdas Pophale) SiO2 
 PCOD8153620
Probable space group: C 2/C
;
_chemical_formula_sum "Si O2"
_cell_formula_units_Z 40
_cell_length_a 27.300565
_cell_length_b 4.920071
_cell_length_c 16.065340
_cell_angle_alpha 90.000000
_cell_angle_beta 125.307783
_cell_angle_gamma 90.000000
_cell_volume 1760.980437
_symmetry_space_group_name_H-M "C 2/C"
_symmetry_group_IT_number 15
_symmetry_cell_setting 'monoclinic'
loop_
_space_group_symop_operation_xyz
x,y,z
-x,y,1/2-z
-x,-y,-z
x,-y,1/2+z
1/2+x,1/2+y,z
1/2-x,1/2+y,1/2-z
1/2-x,1/2-y,-z
1/2+x,1/2-y,1/2+z
loop_
_atom_site_type_symbol
_atom_site_label
_atom_site_fract_x
_atom_site_fract_y
_atom_site_fract_z
Si Si1 0.361712 0.459366 0.017814
Si Si2 0.630718 0.626858 0.785299
Si Si3 0.572239 0.035503 0.981879
Si Si4 0.937289 0.385792 0.338197
Si Si5 0.251972 0.210027 0.196336
O O1 0.354722 0.487670 0.109591
O O2 0.415217 0.255098 0.047108
O O3 0.376625 0.753327 0.994979
O O4 0.299347 0.356279 0.919904
O O5 0.590470 0.412918 0.694919
O O6 0.692080 0.664854 0.796539
O O7 0.594786 0.910492 0.758170
O O8 0.507619 0.137478 0.886425
O O9 0.573572 0.012501 0.082137
O O10 0.227527 0.435728 0.236699
#
# Coordination Sequence:
#
# PCOD8153620 Si02
#       5
#     8   8   8   8   8
#     4  12  25  42  66  98 132 165 211 268 324 375
#     4  12  25  42  66  98 132 165 211 268 324 375
#     4  11  24  43  67  95 130 173 217 258 310 382
#     4  11  24  43  67  95 130 173 217 258 310 382
#     4  12  25  44  69  92 126 172 218 262 315 384
#
# _framework density 22.714617000000001
#
# number of rings (size 3 to 8) (size 9 to 14) (size 15 to 20)
#    0.000    0.400    0.000   10.200    0.000    8.000 
#    0.000    6.000    0.000    0.000    0.000    0.000 
#    0.000    0.000    0.000    0.000    0.000    0.000 
#
# Total GULP energy -248217.469138 kJ/mol
# GULP energy per Si atom -12410.873457 kJ/mol
# Density = 2.266292 g / cm^3
# Si number density = 22.714617 Si / 1000 Ang^3
#
#
#
# Elastic Constant Matrix: (Units=GPa)
#
#
# Indices 1 2 3 4 5 6 
#
# 1 45.6145 8.7770 37.6075 0.0019 27.4565 0.0029
# 2 8.7770 98.7595 12.7718 0.0000 4.6070 -0.0078
# 3 37.6075 12.7718 100.0625 -0.0008 7.4637 -0.0016
# 4 0.0019 0.0000 -0.0008 37.5193 -0.0007 5.7700
# 5 27.4565 4.6070 7.4637 -0.0007 32.6602 -0.0020
# 6 0.0029 -0.0078 -0.0016 5.7700 -0.0020 45.0288
#
#
#
# Elastic Compliance Matrix: (Units=1/GPa)
#
#
# Indices 1 2 3 4 5 6 
#
# 1 0.079764 -0.000966 -0.025295 -0.000005 -0.061139 -0.000008
# 2 -0.000966 0.010352 -0.000926 0.000000 -0.000437 0.000002
# 3 -0.025295 -0.000926 0.018335 0.000002 0.017205 0.000003
# 4 -0.000005 0.000000 0.000002 0.027189 0.000004 -0.003484
# 5 -0.061139 -0.000437 0.017205 0.000004 0.078146 0.000008
# 6 -0.000008 0.000002 0.000003 -0.003484 0.000008 0.022654
#
#
# Mechanical properties :
#
#
# Convention : Reuss Voigt Hill
#
# Bulk Modulus (GPa) = 18.49164 40.30546 29.39855
# Shear Modulus (GPa) = 16.18966 35.39367 25.79166
#
# Velocity S-wave (km/s) = 2.67262 3.95167 3.37332
# Velocity P-wave (km/s) = 4.20504 6.21319 5.30500
#
# Compressibility (1/GPa) = 0.05407850
#
# Stress axis : x y z
#
# Youngs Moduli (GPa) = 12.53693 96.60411 54.53901
#
# Poissons Ratio (x) = 0.09328 1.37957
# Poissons Ratio (y) = 0.01211 0.05049
# Poissons Ratio (z) = 0.31712 0.08943
#
# Static dielectric constant tensor:
#      x y z
#    x 4.036240 -0.000010 0.069630 
#    y -0.000010 4.223390 0.000000 
#    z 0.069630 0.000000 4.102280 
# 
# 
# High freq. dielectric constant tensor:
#      x y z
#    x 1.900900 0.000000 0.006130 
#    y 0.000000 1.912240 0.000000 
#    z 0.006130 0.000000 1.903310 
# 
# From -- ./inp_files/175530.got.cif
#   From: 2010.06.25/outbox.cif.g09.slc.cpg/sg15_88_cif.got.tgz:175530.got - 2010.06.28 07:06:18.
