data_PCOD8153788
_publ_section_title
;
Structure prediction by ZEFSAII (Michael W. Deem and Ramdas Pophale) SiO2 
 PCOD8153788
Probable space group: C 2/C
;
_chemical_formula_sum "Si O2"
_cell_formula_units_Z 52
_cell_length_a 22.648223
_cell_length_b 10.592171
_cell_length_c 12.086948
_cell_angle_alpha 90.000000
_cell_angle_beta 54.551803
_cell_angle_gamma 90.000000
_cell_volume 2362.118150
_symmetry_space_group_name_H-M "C 2/C"
_symmetry_group_IT_number 15
_symmetry_cell_setting 'monoclinic'
loop_
_space_group_symop_operation_xyz
x,y,z
-x,y,1/2-z
-x,-y,-z
x,-y,1/2+z
1/2+x,1/2+y,z
1/2-x,1/2+y,1/2-z
1/2-x,1/2-y,-z
1/2+x,1/2-y,1/2+z
loop_
_atom_site_type_symbol
_atom_site_label
_atom_site_fract_x
_atom_site_fract_y
_atom_site_fract_z
Si Si1 0.376978 0.687695 0.590157
Si Si2 0.884707 0.534997 0.759077
Si Si3 0.670887 0.706346 0.100331
Si Si4 0.523667 0.193116 0.988540
Si Si5 0.364744 0.590880 0.149135
Si Si6 0.500000 0.887602 0.750000
Si Si7 0.735572 0.176180 0.133649
O O1 0.360906 0.661359 0.480141
O O2 0.441665 0.789408 0.531394
O O3 0.397622 0.548337 0.607115
O O4 0.306503 0.731933 0.736184
O O5 0.873333 0.675884 0.808326
O O6 0.937811 0.560626 0.594187
O O7 0.928939 0.470031 0.808021
O O8 0.811772 0.453172 0.821846
O O9 0.674107 0.595740 0.188546
O O10 0.750000 0.750000 0.000000
O O11 0.516959 0.198448 0.127362
O O12 0.567854 0.316977 0.911696
O O13 0.311527 0.634634 0.106739
O O14 0.750000 0.250000 0.000000
#
# Coordination Sequence:
#
# PCOD8153788 Si02
#       7
#     8   8   8   8   8   4   8
#     4  12  26  46  73 103 143 187 244 290 362 433
#     4  11  25  43  70 100 144 181 241 294 350 431
#     4  11  24  45  69 100 139 189 235 289 361 424
#     4  11  26  46  67 108 137 193 236 295 363 422
#     4  11  27  45  71 101 146 185 238 297 358 430
#     4  12  22  40  72  98 140 178 232 296 350 416
#     4  12  27  44  71 109 142 188 239 300 361 424
#
# _framework density 22.014139
#
# number of rings (size 3 to 8) (size 9 to 14) (size 15 to 20)
#    0.000    0.615    3.077    3.692    8.615    1.846 
#    0.000    0.000    0.000    0.000    0.000    0.000 
#    0.000    0.000    0.000    0.000    0.000    0.000 
#
# Total GULP energy -322163.608499 kJ/mol
# GULP energy per Si atom -12390.908019 kJ/mol
# Density = 2.196403 g / cm^3
# Si number density = 22.014139 Si / 1000 Ang^3
#
#
#
# Elastic Constant Matrix: (Units=GPa)
#
#
# Indices 1 2 3 4 5 6 
#
# 1 58.0832 13.8309 44.3501 0.0000 7.6021 0.0000
# 2 13.8309 91.8485 32.6011 0.0000 7.6816 0.0000
# 3 44.3501 32.6011 119.2740 0.0000 17.9550 0.0000
# 4 0.0000 0.0000 0.0000 21.7377 0.0000 -17.6071
# 5 7.6021 7.6816 17.9550 0.0000 45.6448 0.0000
# 6 0.0000 0.0000 0.0000 -17.6071 0.0000 1.7903
#
#
#
# Elastic Compliance Matrix: (Units=1/GPa)
#
#
# Indices 1 2 3 4 5 6 
#
# 1 0.024073 -0.000480 -0.008747 0.000000 -0.000488 0.000000
# 2 -0.000480 0.012093 -0.003011 0.000000 -0.000771 0.000000
# 3 -0.008747 -0.003011 0.012929 0.000000 -0.003122 0.000000
# 4 0.000000 0.000000 0.000000 -0.006604 0.000000 -0.064949
# 5 -0.000488 -0.000771 -0.003122 0.000000 0.023348 0.000000
# 6 0.000000 0.000000 0.000000 -0.064949 0.000000 -0.080186
#
#
# Mechanical properties :
#
#
# Convention : Reuss Voigt Hill
#
# Bulk Modulus (GPa) = 40.61564 50.08555 45.35060
# Shear Modulus (GPa) = 272.69803 25.72945 149.21374
#
# Velocity S-wave (km/s) = 11.14195 3.42244 8.24185
# Velocity P-wave (km/s) = 13.56517 6.19825 10.54590
#
# Compressibility (1/GPa) = 0.02462106
#
# Stress axis : x y z
#
# Youngs Moduli (GPa) = 41.53953 82.69304 77.34294
#
# Poissons Ratio (x) = 0.03966 0.67650
# Poissons Ratio (y) = 0.01992 0.23288
# Poissons Ratio (z) = 0.36334 0.24899
#
# Static dielectric constant tensor:
#      x y z
#    x 3.876800 0.000000 -0.000330 
#    y 0.000000 3.965560 0.000000 
#    z -0.000330 0.000000 4.287740 
# 
# 
# High freq. dielectric constant tensor:
#      x y z
#    x 1.868550 0.000000 -0.002310 
#    y 0.000000 1.872430 0.000000 
#    z -0.002310 0.000000 1.885210 
# 
# From -- ./inp_files/111523.got.cif
#   From: 2010.06.25/outbox.cif.g09.slc.cpg/sg15_56_cif.got.tgz:111523.got - 2010.06.28 07:06:18.
