data_PCOD8153063
_publ_section_title
;
Structure prediction by ZEFSAII (Michael W. Deem and Ramdas Pophale) SiO2 
 PCOD8153063
Probable space group: C 2/C
;
_chemical_formula_sum "Si O2"
_cell_formula_units_Z 40
_cell_length_a 16.971819
_cell_length_b 11.184245
_cell_length_c 9.757727
_cell_angle_alpha 90.000000
_cell_angle_beta 69.828303
_cell_angle_gamma 90.000000
_cell_volume 1738.575870
_symmetry_space_group_name_H-M "C 2/C"
_symmetry_group_IT_number 15
_symmetry_cell_setting 'monoclinic'
loop_
_space_group_symop_operation_xyz
x,y,z
-x,y,1/2-z
-x,-y,-z
x,-y,1/2+z
1/2+x,1/2+y,z
1/2-x,1/2+y,1/2-z
1/2-x,1/2-y,-z
1/2+x,1/2-y,1/2+z
loop_
_atom_site_type_symbol
_atom_site_label
_atom_site_fract_x
_atom_site_fract_y
_atom_site_fract_z
Si Si1 0.137694 0.858116 0.341638
Si Si2 0.338416 0.135841 0.322109
Si Si3 0.053562 0.438396 0.351520
Si Si4 0.946050 0.227603 0.969191
Si Si5 0.324549 0.535376 0.959981
O O1 0.191428 0.740028 0.265913
O O2 0.042081 0.813309 0.404804
O O3 0.170693 0.904757 0.470132
O O4 0.150802 0.961452 0.216120
O O5 0.418281 0.190441 0.355979
O O6 0.265486 0.099078 0.470646
O O7 0.363360 0.017287 0.222968
O O8 0.075202 0.303662 0.382500
O O9 0.000000 0.428252 0.250000
O O10 0.000000 0.500000 0.500000
O O11 0.891992 0.108299 0.008269
#
# Coordination Sequence:
#
# PCOD8153063 Si02
#       5
#     8   8   8   8   8
#     4  11  23  45  66  96 134 181 224 271 335 409
#     4  11  23  42  69  94 138 174 221 274 343 398
#     4  12  23  41  69  98 127 174 226 278 324 400
#     4  11  23  44  69  93 132 181 223 267 337 405
#     4  11  26  40  69  98 137 174 219 280 343 398
#
# _framework density 23.007337
#
# number of rings (size 3 to 8) (size 9 to 14) (size 15 to 20)
#    0.000    0.800    4.000    5.400    5.600    1.600 
#    0.000    1.000    0.000    0.000    0.000    0.000 
#    0.000    0.000    0.000    0.000    0.000    0.000 
#
# Total GULP energy -247877.929536 kJ/mol
# GULP energy per Si atom -12393.896477 kJ/mol
# Density = 2.295497 g / cm^3
# Si number density = 23.007337 Si / 1000 Ang^3
#
#
#
# Elastic Constant Matrix: (Units=GPa)
#
#
# Indices 1 2 3 4 5 6 
#
# 1 33.9596 4.1673 12.5244 0.0000 -7.6736 0.0000
# 2 4.1673 64.8911 31.9915 0.0000 7.2319 0.0000
# 3 12.5244 31.9915 94.0012 0.0000 5.3614 0.0000
# 4 0.0000 0.0000 0.0000 45.4012 0.0000 10.9166
# 5 -7.6736 7.2319 5.3614 0.0000 40.1820 0.0000
# 6 0.0000 0.0000 0.0000 10.9166 0.0000 38.8517
#
#
#
# Elastic Compliance Matrix: (Units=1/GPa)
#
#
# Indices 1 2 3 4 5 6 
#
# 1 0.032780 -0.000641 -0.004548 0.000000 0.006982 0.000000
# 2 -0.000641 0.018785 -0.006155 0.000000 -0.002682 0.000000
# 3 -0.004548 -0.006155 0.013427 0.000000 -0.001552 0.000000
# 4 0.000000 0.000000 0.000000 0.023622 0.000000 -0.006637
# 5 0.006982 -0.002682 -0.001552 0.000000 0.026910 0.000000
# 6 0.000000 0.000000 0.000000 -0.006637 0.000000 0.027604
#
#
# Mechanical properties :
#
#
# Convention : Reuss Voigt Hill
#
# Bulk Modulus (GPa) = 23.63767 32.24649 27.94208
# Shear Modulus (GPa) = 27.79061 34.49821 31.14441
#
# Velocity S-wave (km/s) = 3.47926 3.87647 3.68322
# Velocity P-wave (km/s) = 5.14165 5.83799 5.50085
#
# Compressibility (1/GPa) = 0.04230535
#
# Stress axis : x y z
#
# Youngs Moduli (GPa) = 30.50604 53.23459 74.47564
#
# Poissons Ratio (x) = 0.03414 0.33868
# Poissons Ratio (y) = 0.01957 0.45837
# Poissons Ratio (z) = 0.13873 0.32764
#
# Static dielectric constant tensor:
#      x y z
#    x 3.874840 0.000000 -0.025090 
#    y 0.000000 5.017680 0.000000 
#    z -0.025090 0.000000 4.393880 
# 
# 
# High freq. dielectric constant tensor:
#      x y z
#    x 1.889610 0.000000 -0.010270 
#    y 0.000000 1.908740 0.000000 
#    z -0.010270 0.000000 1.915350 
# 
# From -- ./inp_files/103572.got.cif
#   From: 2010.06.25/outbox.cif.g09.slc.cpg/sg15_52_cif.got.tgz:103572.got - 2010.06.28 07:06:18.
