data_PCOD8153531
_publ_section_title
;
Structure prediction by ZEFSAII (Michael W. Deem and Ramdas Pophale) SiO2 
 PCOD8153531
Probable space group: C 2/C
;
_chemical_formula_sum "Si O2"
_cell_formula_units_Z 48
_cell_length_a 26.543605
_cell_length_b 6.258042
_cell_length_c 18.271310
_cell_angle_alpha 90.000000
_cell_angle_beta 43.444057
_cell_angle_gamma 90.000000
_cell_volume 2087.050638
_symmetry_space_group_name_H-M "C 2/C"
_symmetry_group_IT_number 15
_symmetry_cell_setting 'monoclinic'
loop_
_space_group_symop_operation_xyz
x,y,z
-x,y,1/2-z
-x,-y,-z
x,-y,1/2+z
1/2+x,1/2+y,z
1/2-x,1/2+y,1/2-z
1/2-x,1/2-y,-z
1/2+x,1/2-y,1/2+z
loop_
_atom_site_type_symbol
_atom_site_label
_atom_site_fract_x
_atom_site_fract_y
_atom_site_fract_z
Si Si1 0.377239 0.947898 0.109791
Si Si2 0.088133 0.227877 0.050088
Si Si3 0.843930 0.272962 0.771752
Si Si4 0.045937 0.095262 0.385498
Si Si5 0.818593 0.828187 0.549653
Si Si6 0.083279 0.419556 0.664843
O O1 0.430975 0.827084 0.109161
O O2 0.327862 0.776551 0.119675
O O3 0.329846 0.103357 0.210708
O O4 0.417556 0.091063 0.006686
O O5 0.093744 0.339595 0.123376
O O6 0.009966 0.106660 0.124699
O O7 0.160247 0.078981 0.964367
O O8 0.762498 0.261998 0.891837
O O9 0.891561 0.413155 0.777717
O O10 0.883883 0.046668 0.713285
O O11 0.000000 0.000000 0.500000
O O12 0.872493 0.747503 0.430279
O O13 0.000000 0.346071 0.750000
#
# Coordination Sequence:
#
# PCOD8153531 Si02
#       6
#     8   8   8   8   8   8
#     4  11  24  40  70 104 143 182 247 294 354 417
#     4  11  24  45  70 101 142 190 239 301 358 417
#     4  12  27  43  73 108 148 190 239 292 364 435
#     4  12  23  42  74 108 137 188 243 302 349 418
#     4  11  26  45  70 102 149 188 234 297 368 433
#     4  11  26  47  71 102 141 191 246 299 352 435
#
# _framework density 22.998964000000001
#
# number of rings (size 3 to 8) (size 9 to 14) (size 15 to 20)
#    0.000    0.667    3.333    3.000    7.000    5.333 
#    0.000    0.000    0.000    0.000    0.000    0.000 
#    0.000    0.000    0.000    0.000    0.000    0.000 
#
# Total GULP energy -297503.260593 kJ/mol
# GULP energy per Si atom -12395.969191 kJ/mol
# Density = 2.294662 g / cm^3
# Si number density = 22.998964 Si / 1000 Ang^3
#
#
#
# Elastic Constant Matrix: (Units=GPa)
#
#
# Indices 1 2 3 4 5 6 
#
# 1 105.6278 35.2684 44.5893 0.0440 -13.7056 -0.0282
# 2 35.2684 116.4877 46.6265 0.1213 -7.5505 0.0480
# 3 44.5893 46.6265 122.1580 0.0901 -21.6092 -0.0884
# 4 0.0440 0.1213 0.0901 38.7004 -0.0457 8.9729
# 5 -13.7056 -7.5505 -21.6092 -0.0457 49.3655 0.0053
# 6 -0.0282 0.0480 -0.0884 8.9729 0.0053 38.7899
#
#
#
# Elastic Compliance Matrix: (Units=1/GPa)
#
#
# Indices 1 2 3 4 5 6 
#
# 1 0.011737 -0.002181 -0.003180 0.000002 0.001533 0.000003
# 2 -0.002181 0.010539 -0.003304 -0.000019 -0.000440 -0.000018
# 3 -0.003180 -0.003304 0.011232 -0.000015 0.003528 0.000030
# 4 0.000002 -0.000019 -0.000015 0.027304 0.000017 -0.006316
# 5 0.001533 -0.000440 0.003528 0.000017 0.022160 0.000003
# 6 0.000003 -0.000018 0.000030 -0.006316 0.000003 0.027241
#
#
# Mechanical properties :
#
#
# Convention : Reuss Voigt Hill
#
# Bulk Modulus (GPa) = 61.81785 66.36021 64.08903
# Shear Modulus (GPa) = 37.61161 39.89043 38.75102
#
# Velocity S-wave (km/s) = 4.04835 4.16918 4.10921
# Velocity P-wave (km/s) = 6.98491 7.21750 7.10216
#
# Compressibility (1/GPa) = 0.01617656
#
# Stress axis : x y z
#
# Youngs Moduli (GPa) = 85.20102 94.88465 89.02744
#
# Poissons Ratio (x) = 0.20696 0.28315
# Poissons Ratio (y) = 0.18583 0.29418
# Poissons Ratio (z) = 0.27098 0.31353
#
# Static dielectric constant tensor:
#      x y z
#    x 4.262940 -0.000070 0.013950 
#    y -0.000070 4.322800 0.000000 
#    z 0.013950 0.000000 4.118240 
# 
# 
# High freq. dielectric constant tensor:
#      x y z
#    x 1.912150 -0.000030 0.006680 
#    y -0.000030 1.909410 0.000030 
#    z 0.006680 0.000030 1.906010 
# 
# From -- ./inp_files/258539.got.cif
#   From: 2010.06.25/outbox.cif.g09.slc.cpg/sg15_130_cif.got.tgz:258539.got - 2010.06.28 07:06:18.
