data_PCOD8153958
_publ_section_title
;
Structure prediction by ZEFSAII (Michael W. Deem and Ramdas Pophale) SiO2 
 PCOD8153958
Probable space group: C 2/C
;
_chemical_formula_sum "Si O2"
_cell_formula_units_Z 60
_cell_length_a 18.976194
_cell_length_b 8.268625
_cell_length_c 16.041021
_cell_angle_alpha 90.000000
_cell_angle_beta 92.337409
_cell_angle_gamma 90.000000
_cell_volume 2514.854844
_symmetry_space_group_name_H-M "C 2/C"
_symmetry_group_IT_number 15
_symmetry_cell_setting 'monoclinic'
loop_
_space_group_symop_operation_xyz
x,y,z
-x,y,1/2-z
-x,-y,-z
x,-y,1/2+z
1/2+x,1/2+y,z
1/2-x,1/2+y,1/2-z
1/2-x,1/2-y,-z
1/2+x,1/2-y,1/2+z
loop_
_atom_site_type_symbol
_atom_site_label
_atom_site_fract_x
_atom_site_fract_y
_atom_site_fract_z
Si Si1 0.500000 0.998601 0.250000
Si Si2 0.418028 0.539918 0.580689
Si Si3 0.387543 0.803057 0.157760
Si Si4 0.676616 0.715250 0.043651
Si Si5 0.915200 0.522679 0.498197
Si Si6 0.778619 0.151048 0.266529
Si Si7 0.453276 0.260142 0.375924
Si Si8 0.850619 0.165578 0.733982
O O1 0.492415 0.112026 0.330767
O O2 0.435597 0.876314 0.233147
O O3 0.420861 0.359332 0.617451
O O4 0.366197 0.561931 0.498476
O O5 0.496812 0.613376 0.570740
O O6 0.388578 0.665441 0.647709
O O7 0.313453 0.767261 0.198233
O O8 0.381130 0.937910 0.086025
O O9 0.690642 0.677764 0.140239
O O10 0.624178 0.866908 0.038156
O O11 0.750000 0.750000 0.000000
O O12 0.900168 0.679180 0.439652
O O13 0.000000 0.500000 0.500000
O O14 0.693699 0.169018 0.260035
O O15 0.791455 0.971108 0.236166
O O16 0.408856 0.361927 0.307377
#
# Coordination Sequence:
#
# PCOD8153958 Si02
#       8
#     4   8   8   8   8   8   8   8
#     4  12  22  40  74  98 142 190 228 302 352 424
#     4  11  24  47  71 109 145 182 242 303 359 429
#     4  11  28  43  70 107 151 182 241 302 360 431
#     4  12  26  48  76 103 147 192 243 299 367 435
#     4  12  26  46  70 112 140 191 247 293 364 436
#     4  11  28  46  71 103 146 188 241 295 362 438
#     4  12  25  44  76 102 143 187 243 297 361 428
#     4  11  26  45  70 105 136 195 235 290 367 430
#
# _framework density 23.858236000000002
#
# number of rings (size 3 to 8) (size 9 to 14) (size 15 to 20)
#    0.000    0.533    5.333    0.800   11.200    0.533 
#    0.000    1.333    0.000    0.000    0.000    0.000 
#    0.000    0.000    0.000    0.000    0.000    0.000 
#
# Total GULP energy -371926.385330 kJ/mol
# GULP energy per Si atom -12397.546178 kJ/mol
# Density = 2.380393 g / cm^3
# Si number density = 23.858236 Si / 1000 Ang^3
#
#
#
# Elastic Constant Matrix: (Units=GPa)
#
#
# Indices 1 2 3 4 5 6 
#
# 1 62.5330 -0.1152 -6.2816 0.0000 18.7518 0.0000
# 2 -0.1152 51.9473 -12.5363 0.0000 9.9140 0.0000
# 3 -6.2816 -12.5363 95.0404 0.0000 6.9215 0.0000
# 4 0.0000 0.0000 0.0000 40.3339 0.0000 -0.0897
# 5 18.7518 9.9140 6.9215 0.0000 33.1756 0.0000
# 6 0.0000 0.0000 0.0000 -0.0897 0.0000 44.8406
#
#
#
# Elastic Compliance Matrix: (Units=1/GPa)
#
#
# Indices 1 2 3 4 5 6 
#
# 1 0.020129 0.003150 0.002684 0.000000 -0.012879 0.000000
# 2 0.003150 0.021904 0.003761 0.000000 -0.009111 0.000000
# 3 0.002684 0.003761 0.011563 0.000000 -0.005053 0.000000
# 4 0.000000 0.000000 0.000000 0.024793 0.000000 0.000050
# 5 -0.012879 -0.009111 -0.005053 0.000000 0.041199 0.000000
# 6 0.000000 0.000000 0.000000 0.000050 0.000000 0.022301
#
#
# Mechanical properties :
#
#
# Convention : Reuss Voigt Hill
#
# Bulk Modulus (GPa) = 13.73894 19.07271 16.40583
# Shear Modulus (GPa) = 34.02256 38.90028 36.46142
#
# Velocity S-wave (km/s) = 3.78038 4.04230 3.91353
# Velocity P-wave (km/s) = 4.98258 5.45879 5.22611
#
# Compressibility (1/GPa) = 0.07278583
#
# Stress axis : x y z
#
# Youngs Moduli (GPa) = 49.67974 45.65451 86.48029
#
# Poissons Ratio (x) = -0.14382 -0.23210
# Poissons Ratio (y) = -0.15650 -0.32525
# Poissons Ratio (z) = -0.13333 -0.17170
#
# Static dielectric constant tensor:
#      x y z
#    x 4.311360 0.000000 -0.097850 
#    y 0.000000 4.332270 0.000000 
#    z -0.097850 0.000000 4.633050 
# 
# 
# High freq. dielectric constant tensor:
#      x y z
#    x 1.940100 0.000000 -0.006530 
#    y 0.000000 1.953570 0.000000 
#    z -0.006530 0.000000 1.959710 
# 
# From -- ./inp_files/209608.got.cif
#   From: 2010.06.25/outbox.cif.g09.slc.cpg/sg15_105_cif.got.tgz:209608.got - 2010.06.28 07:06:18.
