data_PCOD8153152
_publ_section_title
;
Structure prediction by ZEFSAII (Michael W. Deem and Ramdas Pophale) SiO2 
 PCOD8153152
Probable space group: C 2/C
;
_chemical_formula_sum "Si O2"
_cell_formula_units_Z 52
_cell_length_a 9.145326
_cell_length_b 16.532730
_cell_length_c 25.042496
_cell_angle_alpha 90.000000
_cell_angle_beta 140.542119
_cell_angle_gamma 90.000000
_cell_volume 2406.269817
_symmetry_space_group_name_H-M "C 2/C"
_symmetry_group_IT_number 15
_symmetry_cell_setting 'monoclinic'
loop_
_space_group_symop_operation_xyz
x,y,z
-x,y,1/2-z
-x,-y,-z
x,-y,1/2+z
1/2+x,1/2+y,z
1/2-x,1/2+y,1/2-z
1/2-x,1/2-y,-z
1/2+x,1/2-y,1/2+z
loop_
_atom_site_type_symbol
_atom_site_label
_atom_site_fract_x
_atom_site_fract_y
_atom_site_fract_z
Si Si1 0.160466 0.503609 0.596148
Si Si2 0.454128 0.032835 0.150100
Si Si3 0.000000 0.239444 0.250000
Si Si4 0.580426 0.662798 0.072351
Si Si5 0.751208 0.175343 0.659396
Si Si6 0.915941 0.108221 0.308390
Si Si7 0.652134 0.143289 0.875217
O O1 0.266025 0.592970 0.630046
O O2 0.372545 0.442440 0.654923
O O3 0.000000 0.500000 0.500000
O O4 0.002671 0.481028 0.601585
O O5 0.271914 0.104208 0.102629
O O6 0.685398 0.054867 0.247695
O O7 0.349370 0.949999 0.144860
O O8 0.134235 0.183507 0.245167
O O9 0.181155 0.297477 0.332328
O O10 0.666085 0.754905 0.095400
O O11 0.513885 0.639223 0.113762
O O12 0.354627 0.658016 0.973562
O O13 0.588569 0.164404 0.664646
O O14 0.000000 0.201714 0.750000
#
# Coordination Sequence:
#
# PCOD8153152 Si02
#       7
#     8   8   4   8   8   8   8
#     4  11  24  43  70  98 137 183 228 286 343 407
#     4  11  24  46  68 103 133 182 232 278 339 413
#     4  12  26  42  72  98 136 178 228 278 348 414
#     4  12  26  45  71 100 140 180 227 287 341 408
#     4  11  23  43  68  99 130 178 231 276 338 407
#     4  12  23  45  71  98 138 181 228 283 346 405
#     4  11  26  46  67  99 140 180 222 278 349 408
#
# _framework density 21.610211
#
# number of rings (size 3 to 8) (size 9 to 14) (size 15 to 20)
#    0.000    0.615    3.077    6.000    4.308    0.000 
#    2.769    1.538    0.000    0.000    0.000    0.000 
#    0.000    0.000    0.000    0.000    0.000    0.000 
#
# Total GULP energy -322553.578295 kJ/mol
# GULP energy per Si atom -12405.906857 kJ/mol
# Density = 2.156103 g / cm^3
# Si number density = 21.610211 Si / 1000 Ang^3
#
#
#
# Elastic Constant Matrix: (Units=GPa)
#
#
# Indices 1 2 3 4 5 6 
#
# 1 68.6770 55.2575 36.6653 0.0000 -0.6398 0.0000
# 2 55.2575 156.9480 51.5202 0.0001 -16.7249 0.0000
# 3 36.6653 51.5202 137.7966 0.0000 -18.8268 0.0000
# 4 0.0000 0.0001 0.0000 33.2576 0.0000 -1.0830
# 5 -0.6398 -16.7249 -18.8268 0.0000 33.9762 0.0000
# 6 0.0000 0.0000 0.0000 -1.0830 0.0000 25.8999
#
#
#
# Elastic Compliance Matrix: (Units=1/GPa)
#
#
# Indices 1 2 3 4 5 6 
#
# 1 0.022395 -0.007132 -0.004019 0.000000 -0.005316 0.000000
# 2 -0.007132 0.009695 -0.001183 0.000000 0.003983 0.000000
# 3 -0.004019 -0.001183 0.009390 0.000000 0.004545 0.000000
# 4 0.000000 0.000000 0.000000 0.030109 0.000000 0.001259
# 5 -0.005316 0.003983 0.004545 0.000000 0.033811 0.000000
# 6 0.000000 0.000000 0.000000 0.001259 0.000000 0.038663
#
#
# Mechanical properties :
#
#
# Convention : Reuss Voigt Hill
#
# Bulk Modulus (GPa) = 59.47930 72.25638 65.86784
# Shear Modulus (GPa) = 28.68024 33.29198 30.98611
#
# Velocity S-wave (km/s) = 3.64698 3.92926 3.79075
# Velocity P-wave (km/s) = 6.73182 7.35488 7.05024
#
# Compressibility (1/GPa) = 0.01681257
#
# Stress axis : x y z
#
# Youngs Moduli (GPa) = 44.65192 103.14208 106.49989
#
# Poissons Ratio (x) = 0.73563 0.42799
# Poissons Ratio (y) = 0.31847 0.12600
# Poissons Ratio (z) = 0.17944 0.12202
#
# Static dielectric constant tensor:
#      x y z
#    x 3.996250 0.000000 0.015040 
#    y 0.000000 4.448390 0.000000 
#    z 0.015040 0.000000 3.913220 
# 
# 
# High freq. dielectric constant tensor:
#      x y z
#    x 1.837060 0.000000 -0.006480 
#    y 0.000000 1.875760 0.000000 
#    z -0.006480 0.000000 1.854230 
# 
# From -- ./inp_files/289625.got.cif
#   From: 2010.06.25/outbox.cif.g09.slc.cpg/sg15_145_cif.got.tgz:289625.got - 2010.06.28 07:06:18.
