data_PCOD8153747
_publ_section_title
;
Structure prediction by ZEFSAII (Michael W. Deem and Ramdas Pophale) SiO2 
 PCOD8153747
Probable space group: C 2/C
;
_chemical_formula_sum "Si O2"
_cell_formula_units_Z 44
_cell_length_a 7.454008
_cell_length_b 11.592071
_cell_length_c 27.649296
_cell_angle_alpha 90.000000
_cell_angle_beta 58.035262
_cell_angle_gamma 90.000000
_cell_volume 2026.853457
_symmetry_space_group_name_H-M "C 2/C"
_symmetry_group_IT_number 15
_symmetry_cell_setting 'monoclinic'
loop_
_space_group_symop_operation_xyz
x,y,z
-x,y,1/2-z
-x,-y,-z
x,-y,1/2+z
1/2+x,1/2+y,z
1/2-x,1/2+y,1/2-z
1/2-x,1/2-y,-z
1/2+x,1/2-y,1/2+z
loop_
_atom_site_type_symbol
_atom_site_label
_atom_site_fract_x
_atom_site_fract_y
_atom_site_fract_z
Si Si1 0.674254 0.640995 0.344872
Si Si2 0.573089 0.755029 0.607045
Si Si3 0.118723 0.334903 0.149367
Si Si4 0.912617 0.499441 0.936010
Si Si5 0.815332 0.013062 0.934823
Si Si6 0.000000 0.491848 0.250000
O O1 0.507563 0.720818 0.343316
O O2 0.545750 0.545075 0.394777
O O3 0.795108 0.572486 0.285330
O O4 0.836618 0.721171 0.351988
O O5 0.329007 0.715443 0.644583
O O6 0.682489 0.651476 0.562449
O O7 0.641691 0.869320 0.569452
O O8 0.154005 0.409375 0.095645
O O9 0.980789 0.413588 0.205061
O O10 0.163102 0.491598 0.910689
O O11 0.781942 0.538317 0.002010
#
# Coordination Sequence:
#
# PCOD8153747 Si02
#       6
#     8   8   8   8   8   4
#     4  12  27  47  71 103 142 181 236 293 344 418
#     4  12  23  46  72 106 138 186 229 276 354 414
#     4  12  27  47  71 103 142 181 236 293 344 418
#     4  11  24  44  73 107 144 185 227 283 353 420
#     4  11  24  44  73 107 144 185 227 283 353 420
#     4  12  28  48  72 102 132 190 240 282 356 400
#
# _framework density 21.708525999999999
#
# number of rings (size 3 to 8) (size 9 to 14) (size 15 to 20)
#    0.000    0.364    7.273    0.545    2.545    5.091 
#    0.000    1.818    0.000    0.000    0.000    0.000 
#    0.000    0.000    0.000    0.000    0.000    0.000 
#
# Total GULP energy -272684.779384 kJ/mol
# GULP energy per Si atom -12394.762699 kJ/mol
# Density = 2.165912 g / cm^3
# Si number density = 21.708526 Si / 1000 Ang^3
#
#
#
# Elastic Constant Matrix: (Units=GPa)
#
#
# Indices 1 2 3 4 5 6 
#
# 1 98.6156 8.6780 25.9595 0.0000 -7.8182 0.0000
# 2 8.6780 98.7292 20.4573 -0.0001 -11.0826 0.0000
# 3 25.9595 20.4573 102.6543 0.0002 -12.4896 0.0001
# 4 0.0000 -0.0001 0.0002 -66.4218 -0.0001 5.3067
# 5 -7.8182 -11.0826 -12.4896 -0.0001 25.4021 0.0000
# 6 0.0000 0.0000 0.0001 5.3067 0.0000 34.0652
#
#
#
# Elastic Compliance Matrix: (Units=1/GPa)
#
#
# Indices 1 2 3 4 5 6 
#
# 1 0.010976 -0.000219 -0.002481 0.000000 0.002063 0.000000
# 2 -0.000219 0.010926 -0.001649 0.000000 0.003889 0.000000
# 3 -0.002481 -0.001649 0.011186 0.000000 0.004017 0.000000
# 4 0.000000 0.000000 0.000000 -0.014870 0.000000 0.002317
# 5 0.002063 0.003889 0.004017 0.000000 0.043673 0.000000
# 6 0.000000 0.000000 0.000000 0.002317 0.000000 0.028995
#
#
# Mechanical properties :
#
#
# Convention : Reuss Voigt Hill
#
# Bulk Modulus (GPa) = 40.99956 45.57651 43.28804
# Shear Modulus (GPa) = 46.41896 14.93606 30.67751
#
# Velocity S-wave (km/s) = 4.62917 2.62587 3.76327
# Velocity P-wave (km/s) = 6.89200 5.49854 6.23433
#
# Compressibility (1/GPa) = 0.02439050
#
# Stress axis : x y z
#
# Youngs Moduli (GPa) = 91.10527 91.52350 89.39615
#
# Poissons Ratio (x) = 0.02006 0.22180
# Poissons Ratio (y) = 0.01997 0.14740
# Poissons Ratio (z) = 0.22604 0.15091
#
# Static dielectric constant tensor:
#      x y z
#    x 4.128190 0.000000 0.012250 
#    y 0.000000 4.174140 0.000000 
#    z 0.012250 0.000000 3.673890 
# 
# 
# High freq. dielectric constant tensor:
#      x y z
#    x 1.862440 0.000000 -0.002860 
#    y 0.000000 1.875420 0.000000 
#    z -0.002860 0.000000 1.835060 
# 
# From -- ./inp_files/287869.got.cif
#   From: 2010.06.25/outbox.cif.g09.slc.cpg/sg15_144_cif.got.tgz:287869.got - 2010.06.28 07:06:18.
