data_PCOD8153257
_publ_section_title
;
Structure prediction by ZEFSAII (Michael W. Deem and Ramdas Pophale) SiO2 
 PCOD8153257
Probable space group: C 2/C
;
_chemical_formula_sum "Si O2"
_cell_formula_units_Z 40
_cell_length_a 16.364627
_cell_length_b 10.459373
_cell_length_c 17.595886
_cell_angle_alpha 90.000000
_cell_angle_beta 145.110645
_cell_angle_gamma 90.000000
_cell_volume 1722.717183
_symmetry_space_group_name_H-M "C 2/C"
_symmetry_group_IT_number 15
_symmetry_cell_setting 'monoclinic'
loop_
_space_group_symop_operation_xyz
x,y,z
-x,y,1/2-z
-x,-y,-z
x,-y,1/2+z
1/2+x,1/2+y,z
1/2-x,1/2+y,1/2-z
1/2-x,1/2-y,-z
1/2+x,1/2-y,1/2+z
loop_
_atom_site_type_symbol
_atom_site_label
_atom_site_fract_x
_atom_site_fract_y
_atom_site_fract_z
Si Si1 0.726075 0.774592 0.112784
Si Si2 0.131424 0.986996 0.045642
Si Si3 0.090337 0.205349 0.394162
Si Si4 0.997047 0.640312 0.332739
Si Si5 0.887634 0.605434 0.822675
O O1 0.701972 0.623780 0.096766
O O2 0.651558 0.858591 0.121058
O O3 0.899760 0.771949 0.253255
O O4 0.658563 0.823373 0.981649
O O5 0.243264 0.880840 0.163049
O O6 0.086509 0.935098 0.928887
O O7 0.000000 0.000000 0.000000
O O8 0.250000 0.250000 0.500000
O O9 0.000000 0.193976 0.250000
O O10 0.014863 0.303965 0.393216
O O11 0.000000 0.577481 0.250000
O O12 0.939616 0.541019 0.352455
#
# Coordination Sequence:
#
# PCOD8153257 Si02
#       5
#     8   8   8   8   8
#     4  11  24  44  70  99 139 183 237 288 356 433
#     4  11  23  44  70 102 144 185 236 299 357 434
#     4  12  25  45  73 106 146 188 243 302 362 423
#     4  11  25  45  70 102 143 182 231 299 357 425
#     4  11  24  45  73 101 140 192 246 291 358 438
#
# _framework density 23.219132999999999
#
# number of rings (size 3 to 8) (size 9 to 14) (size 15 to 20)
#    0.000    0.800    4.000    3.000    2.800    0.800 
#    7.200    0.000    0.000    0.000    0.000    0.000 
#    0.000    0.000    0.000    0.000    0.000    0.000 
#
# Total GULP energy -247852.046211 kJ/mol
# GULP energy per Si atom -12392.602311 kJ/mol
# Density = 2.316629 g / cm^3
# Si number density = 23.219133 Si / 1000 Ang^3
#
#
#
# Elastic Constant Matrix: (Units=GPa)
#
#
# Indices 1 2 3 4 5 6 
#
# 1 98.0811 24.1108 32.2488 0.0000 3.6702 0.0000
# 2 24.1108 76.4027 33.1046 0.0000 -8.1891 0.0000
# 3 32.2488 33.1046 131.2908 -0.0001 -6.4250 0.0000
# 4 0.0000 0.0000 -0.0001 33.7218 -0.0001 -3.9007
# 5 3.6702 -8.1891 -6.4250 -0.0001 42.7310 0.0000
# 6 0.0000 0.0000 0.0000 -3.9007 0.0000 36.0630
#
#
#
# Elastic Compliance Matrix: (Units=1/GPa)
#
#
# Indices 1 2 3 4 5 6 
#
# 1 0.011723 -0.002936 -0.002232 0.000000 -0.001905 0.000000
# 2 -0.002936 0.015652 -0.003089 0.000000 0.002787 0.000000
# 3 -0.002232 -0.003089 0.008990 0.000000 0.000952 0.000000
# 4 0.000000 0.000000 0.000000 0.030030 0.000000 0.003248
# 5 -0.001905 0.002787 0.000952 0.000000 0.024243 0.000000
# 6 0.000000 0.000000 0.000000 0.003248 0.000000 0.028081
#
#
# Mechanical properties :
#
#
# Convention : Reuss Voigt Hill
#
# Bulk Modulus (GPa) = 50.37737 53.85589 52.11663
# Shear Modulus (GPa) = 35.24812 36.92387 36.08599
#
# Velocity S-wave (km/s) = 3.90046 3.99210 3.94655
# Velocity P-wave (km/s) = 6.48293 6.67039 6.57733
#
# Compressibility (1/GPa) = 0.01985018
#
# Stress axis : x y z
#
# Youngs Moduli (GPa) = 85.30425 63.88791 111.22911
#
# Poissons Ratio (x) = 0.18760 0.24829
# Poissons Ratio (y) = 0.25049 0.34359
# Poissons Ratio (z) = 0.19042 0.19735
#
# Static dielectric constant tensor:
#      x y z
#    x 4.042240 0.000000 -0.010170 
#    y 0.000000 3.911490 0.000000 
#    z -0.010170 0.000000 4.476310 
# 
# 
# High freq. dielectric constant tensor:
#      x y z
#    x 1.920980 0.000000 0.007750 
#    y 0.000000 1.901530 0.000000 
#    z 0.007750 0.000000 1.942460 
# 
# From -- ./inp_files/117760.got.cif
#   From: 2010.06.25/outbox.cif.g09.slc.cpg/sg15_59_cif.got.tgz:117760.got - 2010.06.28 07:06:18.
