data_PCOD8153939
_publ_section_title
;
Structure prediction by ZEFSAII (Michael W. Deem and Ramdas Pophale) SiO2 
 PCOD8153939
Probable space group: C 2/C
;
_chemical_formula_sum "Si O2"
_cell_formula_units_Z 60
_cell_length_a 16.241899
_cell_length_b 11.224200
_cell_length_c 15.920327
_cell_angle_alpha 90.000000
_cell_angle_beta 78.472487
_cell_angle_gamma 90.000000
_cell_volume 2843.769628
_symmetry_space_group_name_H-M "C 2/C"
_symmetry_group_IT_number 15
_symmetry_cell_setting 'monoclinic'
loop_
_space_group_symop_operation_xyz
x,y,z
-x,y,1/2-z
-x,-y,-z
x,-y,1/2+z
1/2+x,1/2+y,z
1/2-x,1/2+y,1/2-z
1/2-x,1/2-y,-z
1/2+x,1/2-y,1/2+z
loop_
_atom_site_type_symbol
_atom_site_label
_atom_site_fract_x
_atom_site_fract_y
_atom_site_fract_z
Si Si1 0.035686 0.883480 0.038978
Si Si2 0.069076 0.528393 0.418350
Si Si3 0.398322 0.234945 0.628370
Si Si4 0.147672 0.011340 0.656758
Si Si5 0.228414 0.788133 0.247103
Si Si6 0.551630 0.773120 0.816512
Si Si7 0.000000 0.150815 0.250000
Si Si8 0.270989 0.814569 0.580725
O O1 0.107503 0.907185 0.092817
O O2 0.958065 0.819916 0.103299
O O3 0.080267 0.796413 0.963675
O O4 0.000000 0.000000 0.000000
O O5 0.111001 0.407030 0.379152
O O6 0.020998 0.595270 0.351313
O O7 0.134939 0.629723 0.436834
O O8 0.000000 0.500000 0.500000
O O9 0.305627 0.272340 0.680610
O O10 0.473387 0.265990 0.677523
O O11 0.199786 0.083845 0.716945
O O12 0.077436 0.934310 0.716403
O O13 0.210876 0.926629 0.596764
O O14 0.145470 0.706339 0.261411
O O15 0.249919 0.783995 0.342476
O O16 0.500000 0.719768 0.750000
O O17 0.250000 0.750000 0.500000
#
# Coordination Sequence:
#
# PCOD8153939 Si02
#       8
#     8   8   8   8   8   8   4   8
#     4  12  26  43  75 105 141 187 240 298 360 431
#     4  11  25  46  69  96 144 184 240 289 354 432
#     4  12  26  47  69 107 141 186 242 302 356 433
#     4  12  24  46  69 107 138 185 241 295 368 434
#     4  11  25  46  72 101 144 181 234 303 360 422
#     4  11  24  47  69 101 142 187 234 291 366 427
#     4  12  26  42  76  98 144 184 242 296 360 434
#     4  11  27  47  70 104 143 190 240 298 364 435
#
# _framework density 21.098755000000001
#
# number of rings (size 3 to 8) (size 9 to 14) (size 15 to 20)
#    0.000    0.533    6.667    0.800    6.533    0.533 
#    2.400    0.000    0.000    0.000    0.000    0.000 
#    0.000    0.000    0.000    0.000    0.000    0.000 
#
# Total GULP energy -371747.636171 kJ/mol
# GULP energy per Si atom -12391.587872 kJ/mol
# Density = 2.105073 g / cm^3
# Si number density = 21.098755 Si / 1000 Ang^3
#
#
#
# Elastic Constant Matrix: (Units=GPa)
#
#
# Indices 1 2 3 4 5 6 
#
# 1 86.7586 35.9212 51.3669 0.0000 -8.3080 0.0000
# 2 35.9212 128.8616 67.0398 0.0000 7.2019 0.0000
# 3 51.3669 67.0398 140.8412 0.0000 -0.9794 0.0000
# 4 0.0000 0.0000 0.0000 -16.8505 0.0000 -54.1600
# 5 -8.3080 7.2019 -0.9794 0.0000 45.8333 0.0000
# 6 0.0000 0.0000 0.0000 -54.1600 0.0000 -11.5467
#
#
#
# Elastic Compliance Matrix: (Units=1/GPa)
#
#
# Indices 1 2 3 4 5 6 
#
# 1 0.015401 -0.002061 -0.004615 0.000000 0.003017 0.000000
# 2 -0.002061 0.010729 -0.004370 0.000000 -0.002153 0.000000
# 3 -0.004615 -0.004370 0.010864 0.000000 0.000082 0.000000
# 4 0.000000 0.000000 0.000000 0.004216 0.000000 -0.019776
# 5 0.003017 -0.002153 0.000082 0.000000 0.022705 0.000000
# 6 0.000000 0.000000 0.000000 -0.019776 0.000000 0.006153
#
#
# Mechanical properties :
#
#
# Convention : Reuss Voigt Hill
#
# Bulk Modulus (GPa) = 67.10672 73.90191 70.50431
# Shear Modulus (GPa) = 51.47944 16.96279 34.22111
#
# Velocity S-wave (km/s) = 4.94492 2.83851 4.03171
# Velocity P-wave (km/s) = 8.02982 6.77094 7.42710
#
# Compressibility (1/GPa) = 0.01490164
#
# Stress axis : x y z
#
# Youngs Moduli (GPa) = 64.93199 93.20897 92.04632
#
# Poissons Ratio (x) = 0.19208 0.42479
# Poissons Ratio (y) = 0.13381 0.40226
# Poissons Ratio (z) = 0.29966 0.40734
#
# Static dielectric constant tensor:
#      x y z
#    x 3.968850 0.000000 0.325100 
#    y 0.000000 3.371730 0.000000 
#    z 0.325100 0.000000 4.456590 
# 
# 
# High freq. dielectric constant tensor:
#      x y z
#    x 1.832400 0.000000 -0.008090 
#    y 0.000000 1.828130 0.000000 
#    z -0.008090 0.000000 1.839820 
# 
# From -- ./inp_files/161290.got.cif
#   From: 2010.06.25/outbox.cif.g09.slc.cpg/sg15_81_cif.got.tgz:161290.got - 2010.06.28 07:06:18.
