data_PCOD8153023
_publ_section_title
;
Structure prediction by ZEFSAII (Michael W. Deem and Ramdas Pophale) SiO2 
 PCOD8153023
Probable space group: C 2/C
;
_chemical_formula_sum "Si O2"
_cell_formula_units_Z 44
_cell_length_a 7.123765
_cell_length_b 16.842772
_cell_length_c 20.692736
_cell_angle_alpha 90.000000
_cell_angle_beta 54.526822
_cell_angle_gamma 90.000000
_cell_volume 2021.957627
_symmetry_space_group_name_H-M "C 2/C"
_symmetry_group_IT_number 15
_symmetry_cell_setting 'monoclinic'
loop_
_space_group_symop_operation_xyz
x,y,z
-x,y,1/2-z
-x,-y,-z
x,-y,1/2+z
1/2+x,1/2+y,z
1/2-x,1/2+y,1/2-z
1/2-x,1/2-y,-z
1/2+x,1/2-y,1/2+z
loop_
_atom_site_type_symbol
_atom_site_label
_atom_site_fract_x
_atom_site_fract_y
_atom_site_fract_z
Si Si1 0.266996 0.652831 0.563383
Si Si2 0.736882 0.630369 0.232769
Si Si3 0.500000 0.613482 0.750000
Si Si4 0.995787 0.227066 0.869428
Si Si5 0.937576 0.207843 0.104489
Si Si6 0.541288 0.031497 0.814601
O O1 0.470582 0.679598 0.570904
O O2 0.370626 0.653394 0.470028
O O3 0.055644 0.714806 0.612495
O O4 0.172325 0.564714 0.599712
O O5 0.500000 0.597028 0.250000
O O6 0.697700 0.657246 0.314817
O O7 0.938738 0.564034 0.190275
O O8 0.816539 0.702834 0.172270
O O9 0.542868 0.667155 0.802745
O O10 0.274888 0.559992 0.801708
O O11 0.739707 0.262247 0.914878
O O12 0.500000 0.063374 0.750000
#
# Coordination Sequence:
#
# PCOD8153023 Si02
#       6
#     8   8   4   8   8   8
#     4  11  24  40  69  98 130 167 220 266 326 378
#     4  12  24  42  67  94 131 171 221 260 325 382
#     4  12  22  36  68  96 126 156 232 262 300 376
#     4  12  21  41  68  96 125 174 216 264 311 391
#     4  11  23  42  66  99 133 167 212 276 322 379
#     4  12  24  42  65  96 128 173 214 267 318 386
#
# _framework density 21.761091
#
# number of rings (size 3 to 8) (size 9 to 14) (size 15 to 20)
#    0.000    0.364    8.182    1.636    0.000    0.000 
#    0.000    4.545    0.000    0.000    0.000    0.000 
#    0.000    0.000    0.000    0.000    0.000    0.000 
#
# Total GULP energy -272816.258797 kJ/mol
# GULP energy per Si atom -12400.739036 kJ/mol
# Density = 2.171156 g / cm^3
# Si number density = 21.761091 Si / 1000 Ang^3
#
#
#
# Elastic Constant Matrix: (Units=GPa)
#
#
# Indices 1 2 3 4 5 6 
#
# 1 96.7617 18.7788 -7.6680 0.0000 -2.5764 0.0001
# 2 18.7788 93.2241 28.4041 0.0000 1.0843 0.0000
# 3 -7.6680 28.4041 54.6485 0.0000 0.9467 0.0000
# 4 0.0000 0.0000 0.0000 27.9743 0.0000 -10.7646
# 5 -2.5764 1.0843 0.9467 0.0000 24.2981 0.0000
# 6 0.0001 0.0000 0.0000 -10.7646 0.0000 44.7810
#
#
#
# Elastic Compliance Matrix: (Units=1/GPa)
#
#
# Indices 1 2 3 4 5 6 
#
# 1 0.011261 -0.003276 0.003262 0.000000 0.001213 0.000000
# 2 -0.003276 0.013701 -0.007569 0.000000 -0.000664 0.000000
# 3 0.003262 -0.007569 0.022694 0.000000 -0.000201 0.000000
# 4 0.000000 0.000000 0.000000 0.039391 0.000000 0.009469
# 5 0.001213 -0.000664 -0.000201 0.000000 0.041322 0.000000
# 6 0.000000 0.000000 0.000000 0.009469 0.000000 0.024607
#
#
# Mechanical properties :
#
#
# Convention : Reuss Voigt Hill
#
# Bulk Modulus (GPa) = 30.77973 35.96266 33.37119
# Shear Modulus (GPa) = 27.93718 33.08530 30.51124
#
# Velocity S-wave (km/s) = 3.58692 3.90345 3.74853
# Velocity P-wave (km/s) = 5.59730 6.07271 5.83985
#
# Compressibility (1/GPa) = 0.03248891
#
# Stress axis : x y z
#
# Youngs Moduli (GPa) = 88.79931 72.98817 44.06406
#
# Poissons Ratio (x) = 0.23914 -0.14374
# Poissons Ratio (y) = 0.29095 0.33354
# Poissons Ratio (z) = -0.28967 0.55248
#
# Static dielectric constant tensor:
#      x y z
#    x 3.541550 0.000000 -0.411240 
#    y 0.000000 3.780270 0.000000 
#    z -0.411240 0.000000 3.355190 
# 
# 
# High freq. dielectric constant tensor:
#      x y z
#    x 1.876120 0.000000 -0.002860 
#    y 0.000000 1.842160 0.000000 
#    z -0.002860 0.000000 1.834990 
# 
# From -- ./inp_files/264137.got.cif
#   From: 2010.06.25/outbox.cif.g09.slc.cpg/sg15_133_cif.got.tgz:264137.got - 2010.06.28 07:06:18.
