data_PCOD8153967
_publ_section_title
;
Structure prediction by ZEFSAII (Michael W. Deem and Ramdas Pophale) SiO2 
 PCOD8153967
Probable space group: C 2/C
;
_chemical_formula_sum "Si O2"
_cell_formula_units_Z 44
_cell_length_a 8.132623
_cell_length_b 15.956694
_cell_length_c 16.370965
_cell_angle_alpha 90.000000
_cell_angle_beta 70.655645
_cell_angle_gamma 90.000000
_cell_volume 2004.519865
_symmetry_space_group_name_H-M "C 2/C"
_symmetry_group_IT_number 15
_symmetry_cell_setting 'monoclinic'
loop_
_space_group_symop_operation_xyz
x,y,z
-x,y,1/2-z
-x,-y,-z
x,-y,1/2+z
1/2+x,1/2+y,z
1/2-x,1/2+y,1/2-z
1/2-x,1/2-y,-z
1/2+x,1/2-y,1/2+z
loop_
_atom_site_type_symbol
_atom_site_label
_atom_site_fract_x
_atom_site_fract_y
_atom_site_fract_z
Si Si1 0.232501 0.962793 0.391685
Si Si2 0.500000 0.073666 0.250000
Si Si3 0.642802 0.815857 0.463410
Si Si4 0.085515 0.289536 0.148602
Si Si5 0.670662 0.867749 0.873753
Si Si6 0.649166 0.475825 0.084487
O O1 0.291657 0.867253 0.395420
O O2 0.057869 0.968316 0.366123
O O3 0.384225 0.014576 0.325192
O O4 0.193653 0.003220 0.484582
O O5 0.386549 0.134517 0.211408
O O6 0.750000 0.750000 0.500000
O O7 0.558541 0.772400 0.397669
O O8 0.496000 0.861309 0.540896
O O9 0.771377 0.885864 0.406571
O O10 0.200805 0.207439 0.130264
O O11 0.000000 0.306803 0.250000
O O12 0.770152 0.955197 0.869398
#
# Coordination Sequence:
#
# PCOD8153967 Si02
#       6
#     8   4   8   8   8   8
#     4  11  24  47  73 102 138 185 234 294 356 428
#     4  12  26  46  70 106 140 184 232 304 348 420
#     4  12  26  47  74 103 143 191 237 292 355 434
#     4  12  28  46  69 104 146 186 240 298 358 414
#     4  12  27  45  72 103 144 186 240 290 359 424
#     4  11  25  45  75 103 136 188 243 284 359 432
#
# _framework density 21.950395
#
# number of rings (size 3 to 8) (size 9 to 14) (size 15 to 20)
#    0.000    0.364    4.545    3.273   10.182    0.000 
#    0.000    0.000    0.000    0.000    0.000    0.000 
#    0.000    0.000    0.000    0.000    0.000    0.000 
#
# Total GULP energy -272957.446633 kJ/mol
# GULP energy per Si atom -12407.156665 kJ/mol
# Density = 2.190044 g / cm^3
# Si number density = 21.950395 Si / 1000 Ang^3
#
#
#
# Elastic Constant Matrix: (Units=GPa)
#
#
# Indices 1 2 3 4 5 6 
#
# 1 167.3690 61.1748 33.5259 0.0000 23.6624 0.0000
# 2 61.1748 119.0000 4.1649 0.0000 6.2928 0.0000
# 3 33.5259 4.1649 56.4496 0.0000 12.7111 0.0000
# 4 0.0000 0.0000 0.0000 31.8689 0.0000 4.8327
# 5 23.6624 6.2928 12.7111 0.0000 45.3830 0.0000
# 6 0.0000 0.0000 0.0000 4.8327 0.0000 43.2056
#
#
#
# Elastic Compliance Matrix: (Units=1/GPa)
#
#
# Indices 1 2 3 4 5 6 
#
# 1 0.008761 -0.004207 -0.004265 0.000000 -0.002790 0.000000
# 2 -0.004207 0.010494 0.001663 0.000000 0.000273 0.000000
# 3 -0.004265 0.001663 0.021001 0.000000 -0.003889 0.000000
# 4 0.000000 0.000000 0.000000 0.031920 0.000000 -0.003570
# 5 -0.002790 0.000273 -0.003889 0.000000 0.024541 0.000000
# 6 0.000000 0.000000 0.000000 -0.003570 0.000000 0.023545
#
#
# Mechanical properties :
#
#
# Convention : Reuss Voigt Hill
#
# Bulk Modulus (GPa) = 37.54044 60.06109 48.80076
# Shear Modulus (GPa) = 35.02428 40.35502 37.68965
#
# Velocity S-wave (km/s) = 3.99884 4.29238 4.14821
# Velocity P-wave (km/s) = 6.20165 7.21025 6.72489
#
# Compressibility (1/GPa) = 0.02663794
#
# Stress axis : x y z
#
# Youngs Moduli (GPa) = 114.13800 95.29689 47.61725
#
# Poissons Ratio (x) = 0.40093 0.20307
# Poissons Ratio (y) = 0.48020 -0.07919
# Poissons Ratio (z) = 0.48677 -0.15848
#
# Static dielectric constant tensor:
#      x y z
#    x 4.625830 0.000000 -0.261120 
#    y 0.000000 3.991270 0.000000 
#    z -0.261120 0.000000 4.363690 
# 
# 
# High freq. dielectric constant tensor:
#      x y z
#    x 1.887380 0.000000 0.001620 
#    y 0.000000 1.869450 0.000000 
#    z 0.001620 0.000000 1.861600 
# 
# From -- ./inp_files/189168.got.cif
#   From: 2010.06.25/outbox.cif.g09.slc.cpg/sg15_95_cif.got.tgz:189168.got - 2010.06.28 07:06:18.
