data_PCOD8153120
_publ_section_title
;
Structure prediction by ZEFSAII (Michael W. Deem and Ramdas Pophale) SiO2 
 PCOD8153120
Probable space group: C 2/C
;
_chemical_formula_sum "Si O2"
_cell_formula_units_Z 60
_cell_length_a 11.185967
_cell_length_b 15.035171
_cell_length_c 19.810758
_cell_angle_alpha 90.000000
_cell_angle_beta 121.188933
_cell_angle_gamma 90.000000
_cell_volume 2850.262710
_symmetry_space_group_name_H-M "C 2/C"
_symmetry_group_IT_number 15
_symmetry_cell_setting 'monoclinic'
loop_
_space_group_symop_operation_xyz
x,y,z
-x,y,1/2-z
-x,-y,-z
x,-y,1/2+z
1/2+x,1/2+y,z
1/2-x,1/2+y,1/2-z
1/2-x,1/2-y,-z
1/2+x,1/2-y,1/2+z
loop_
_atom_site_type_symbol
_atom_site_label
_atom_site_fract_x
_atom_site_fract_y
_atom_site_fract_z
Si Si1 0.330330 0.089550 0.342060
Si Si2 0.500000 0.360599 0.250000
Si Si3 0.161458 0.018794 0.889724
Si Si4 0.823222 0.778848 0.914355
Si Si5 0.223732 0.775507 0.241316
Si Si6 0.866470 0.362035 0.533230
Si Si7 0.339684 0.044510 0.724515
Si Si8 0.577350 0.535845 0.086563
O O1 0.272272 0.183874 0.298730
O O2 0.492808 0.087674 0.407389
O O3 0.246230 0.065300 0.385383
O O4 0.305623 0.013323 0.280110
O O5 0.371497 0.416485 0.182285
O O6 0.561630 0.303427 0.205144
O O7 0.012027 0.986545 0.873354
O O8 0.250498 0.068030 0.973618
O O9 0.782217 0.731448 0.833652
O O10 0.687481 0.813989 0.914931
O O11 0.923701 0.858649 0.923018
O O12 0.903628 0.709386 0.985858
O O13 0.310082 0.850832 0.226639
O O14 0.500000 0.030871 0.750000
O O15 0.233427 0.006254 0.636624
O O16 0.500000 0.500000 0.000000
#
# Coordination Sequence:
#
# PCOD8153120 Si02
#       8
#     8   4   8   8   8   8   8   8
#     4  12  26  44  71 105 139 185 235 288 353 414
#     4  12  22  44  70  98 134 186 234 284 336 418
#     4  12  24  45  70  99 139 182 230 285 350 421
#     4  11  23  43  66 104 133 181 234 289 338 415
#     4  12  25  43  70 103 139 180 238 287 347 418
#     4  11  24  42  70 102 142 177 235 291 345 408
#     4  12  27  47  70 102 143 186 232 293 353 417
#     4  12  25  45  71 100 139 184 232 281 353 419
#
# _framework density 21.050691
#
# number of rings (size 3 to 8) (size 9 to 14) (size 15 to 20)
#    0.000    0.267    6.667    2.000    4.667    1.067 
#    0.000    0.667    0.000    0.000    0.000    0.000 
#    0.000    0.000    0.000    0.000    0.000    0.000 
#
# Total GULP energy -372060.213606 kJ/mol
# GULP energy per Si atom -12402.007120 kJ/mol
# Density = 2.100278 g / cm^3
# Si number density = 21.050691 Si / 1000 Ang^3
#
#
#
# Elastic Constant Matrix: (Units=GPa)
#
#
# Indices 1 2 3 4 5 6 
#
# 1 83.8062 22.0781 12.6128 0.0000 8.7835 0.0000
# 2 22.0781 111.7343 18.5749 0.0000 -1.1547 0.0000
# 3 12.6128 18.5749 94.5799 0.0000 14.2200 0.0000
# 4 0.0000 0.0000 0.0000 17.0590 0.0000 -5.7315
# 5 8.7835 -1.1547 14.2200 0.0000 30.5119 0.0000
# 6 0.0000 0.0000 0.0000 -5.7315 0.0000 42.1726
#
#
#
# Elastic Compliance Matrix: (Units=1/GPa)
#
#
# Indices 1 2 3 4 5 6 
#
# 1 0.013068 -0.002498 -0.000723 0.000000 -0.003520 0.000000
# 2 -0.002498 0.009777 -0.001883 0.000000 0.001967 0.000000
# 3 -0.000723 -0.001883 0.011849 0.000000 -0.005385 0.000000
# 4 0.000000 0.000000 0.000000 0.061425 0.000000 0.008348
# 5 -0.003520 0.001967 -0.005385 0.000000 0.036371 0.000000
# 6 0.000000 0.000000 0.000000 0.008348 0.000000 0.024847
#
#
# Mechanical properties :
#
#
# Convention : Reuss Voigt Hill
#
# Bulk Modulus (GPa) = 40.83961 44.07245 42.45603
# Shear Modulus (GPa) = 28.45657 33.73902 31.09780
#
# Velocity S-wave (km/s) = 3.68069 4.00778 3.84771
# Velocity P-wave (km/s) = 6.12421 6.51139 6.32077
#
# Compressibility (1/GPa) = 0.02448603
#
# Stress axis : x y z
#
# Youngs Moduli (GPa) = 76.52198 102.28336 84.39626
#
# Poissons Ratio (x) = 0.25554 0.06101
# Poissons Ratio (y) = 0.19118 0.15888
# Poissons Ratio (z) = 0.05532 0.19256
#
# Static dielectric constant tensor:
#      x y z
#    x 3.555170 0.000000 -0.112710 
#    y 0.000000 3.716930 0.000000 
#    z -0.112710 0.000000 3.786920 
# 
# 
# High freq. dielectric constant tensor:
#      x y z
#    x 1.816830 0.000000 -0.000130 
#    y 0.000000 1.834270 0.000000 
#    z -0.000130 0.000000 1.834260 
# 
# From -- ./inp_files/197905.got.cif
#   From: 2010.06.25/outbox.cif.g09.slc.cpg/sg15_99_cif.got.tgz:197905.got - 2010.06.28 07:06:18.
