data_PCOD8153899
_publ_section_title
;
Structure prediction by ZEFSAII (Michael W. Deem and Ramdas Pophale) SiO2 
 PCOD8153899
Probable space group: C 2/C
;
_chemical_formula_sum "Si O2"
_cell_formula_units_Z 48
_cell_length_a 20.331345
_cell_length_b 14.211217
_cell_length_c 11.161346
_cell_angle_alpha 90.000000
_cell_angle_beta 140.792209
_cell_angle_gamma 90.000000
_cell_volume 2038.560310
_symmetry_space_group_name_H-M "C 2/C"
_symmetry_group_IT_number 15
_symmetry_cell_setting 'monoclinic'
loop_
_space_group_symop_operation_xyz
x,y,z
-x,y,1/2-z
-x,-y,-z
x,-y,1/2+z
1/2+x,1/2+y,z
1/2-x,1/2+y,1/2-z
1/2-x,1/2-y,-z
1/2+x,1/2-y,1/2+z
loop_
_atom_site_type_symbol
_atom_site_label
_atom_site_fract_x
_atom_site_fract_y
_atom_site_fract_z
Si Si1 0.503737 0.403151 0.885383
Si Si2 0.660468 0.753667 0.020006
Si Si3 0.346384 0.949989 0.358615
Si Si4 0.102817 0.746033 0.181349
Si Si5 0.487091 0.906042 0.364172
Si Si6 0.357002 0.431905 0.873615
O O1 0.500000 0.352352 0.750000
O O2 0.388453 0.425463 0.776276
O O3 0.574570 0.343867 0.077279
O O4 0.560946 0.501894 0.943361
O O5 0.672420 0.855288 0.096044
O O6 0.776605 0.719762 0.154887
O O7 0.621022 0.675163 0.056224
O O8 0.582389 0.751976 0.795618
O O9 0.368790 0.926973 0.247228
O O10 0.452469 0.995451 0.556925
O O11 0.256649 0.026576 0.258230
O O12 0.034618 0.664171 0.028391
O O13 0.500000 0.860263 0.250000
#
# Coordination Sequence:
#
# PCOD8153899 Si02
#       6
#     8   8   8   8   8   8
#     4  11  26  44  71 103 142 182 232 288 353 414
#     4  11  25  44  73 101 140 184 240 286 338 423
#     4  11  25  46  70 105 139 185 231 288 351 411
#     4  11  24  46  72 104 139 187 233 287 352 406
#     4  11  26  44  71 103 142 182 232 288 353 414
#     4  11  25  46  70 105 139 185 231 288 351 411
#
# _framework density 23.546026999999999
#
# number of rings (size 3 to 8) (size 9 to 14) (size 15 to 20)
#    0.000    1.000    3.333    1.500    9.333    2.667 
#    0.000    1.667    0.000    0.000    0.000    0.000 
#    0.000    0.000    0.000    0.000    0.000    0.000 
#
# Total GULP energy -297384.540827 kJ/mol
# GULP energy per Si atom -12391.022534 kJ/mol
# Density = 2.349244 g / cm^3
# Si number density = 23.546027 Si / 1000 Ang^3
#
#
#
# Elastic Constant Matrix: (Units=GPa)
#
#
# Indices 1 2 3 4 5 6 
#
# 1 164.7170 16.9044 60.6418 0.0000 -15.5982 0.0000
# 2 16.9044 125.2033 25.0044 0.0000 -5.5551 0.0000
# 3 60.6418 25.0044 76.9281 0.0000 -15.2785 0.0000
# 4 0.0000 0.0000 0.0000 26.2439 0.0000 5.3670
# 5 -15.5982 -5.5551 -15.2785 0.0000 29.8273 0.0000
# 6 0.0000 0.0000 0.0000 5.3670 0.0000 35.7967
#
#
#
# Elastic Compliance Matrix: (Units=1/GPa)
#
#
# Indices 1 2 3 4 5 6 
#
# 1 0.008593 0.000212 -0.006615 0.000000 0.001145 0.000000
# 2 0.000212 0.008548 -0.002902 0.000000 0.000216 0.000000
# 3 -0.006615 -0.002902 0.020443 0.000000 0.006471 0.000000
# 4 0.000000 0.000000 0.000000 0.039309 0.000000 -0.005894
# 5 0.001145 0.000216 0.006471 0.000000 0.037480 0.000000
# 6 0.000000 0.000000 0.000000 -0.005894 0.000000 0.028819
#
#
# Mechanical properties :
#
#
# Convention : Reuss Voigt Hill
#
# Bulk Modulus (GPa) = 52.71069 63.54995 58.13032
# Shear Modulus (GPa) = 29.73929 35.99344 32.86637
#
# Velocity S-wave (km/s) = 3.55777 3.91403 3.74014
# Velocity P-wave (km/s) = 6.26991 6.89017 6.58734
#
# Compressibility (1/GPa) = 0.01897148
#
# Stress axis : x y z
#
# Youngs Moduli (GPa) = 116.37095 116.99155 48.91729
#
# Poissons Ratio (x) = -0.02477 0.32361
# Poissons Ratio (y) = -0.02464 0.14197
# Poissons Ratio (z) = 0.76985 0.33954
#
# Static dielectric constant tensor:
#      x y z
#    x 4.828290 0.000000 0.049740 
#    y 0.000000 4.172260 0.000000 
#    z 0.049740 0.000000 3.904650 
# 
# 
# High freq. dielectric constant tensor:
#      x y z
#    x 1.964920 0.000000 0.008170 
#    y 0.000000 1.945600 0.000000 
#    z 0.008170 0.000000 1.897400 
# 
# From -- ./inp_files/112998.got.cif
#   From: 2010.06.25/outbox.cif.g09.slc.cpg/sg15_57_cif.got.tgz:112998.got - 2010.06.28 07:06:18.
