data_PCOD8153215
_publ_section_title
;
Structure prediction by ZEFSAII (Michael W. Deem and Ramdas Pophale) SiO2 
 PCOD8153215
Probable space group: C 2/C
;
_chemical_formula_sum "Si O2"
_cell_formula_units_Z 40
_cell_length_a 17.093321
_cell_length_b 5.142498
_cell_length_c 19.137744
_cell_angle_alpha 90.000000
_cell_angle_beta 97.444515
_cell_angle_gamma 90.000000
_cell_volume 1668.072984
_symmetry_space_group_name_H-M "C 2/C"
_symmetry_group_IT_number 15
_symmetry_cell_setting 'monoclinic'
loop_
_space_group_symop_operation_xyz
x,y,z
-x,y,1/2-z
-x,-y,-z
x,-y,1/2+z
1/2+x,1/2+y,z
1/2-x,1/2+y,1/2-z
1/2-x,1/2-y,-z
1/2+x,1/2-y,1/2+z
loop_
_atom_site_type_symbol
_atom_site_label
_atom_site_fract_x
_atom_site_fract_y
_atom_site_fract_z
Si Si1 0.429201 0.093815 0.875387
Si Si2 0.687625 0.947734 0.021824
Si Si3 0.801320 0.632438 0.745278
Si Si4 0.981600 0.068604 0.577743
Si Si5 0.832714 0.811556 0.598372
O O1 0.380105 0.176833 0.938885
O O2 0.371437 0.046347 0.804217
O O3 0.485309 0.339048 0.868148
O O4 0.480399 0.837994 0.894923
O O5 0.739055 0.139807 0.077181
O O6 0.750000 0.750000 0.000000
O O7 0.641632 0.092534 0.954312
O O8 0.745371 0.380508 0.728500
O O9 0.843003 0.709948 0.677838
O O10 0.887381 0.064111 0.585341
O O11 0.000000 0.000000 0.500000
#
# Coordination Sequence:
#
# PCOD8153215 Si02
#       5
#     8   8   8   8   8
#     4  12  26  46  74 105 149 190 243 300 372 444
#     4  11  23  43  75 109 136 190 256 297 354 436
#     4  12  26  48  73 108 148 196 246 310 372 438
#     4  12  26  47  73 108 147 190 241 308 375 429
#     4  11  26  43  74 107 142 192 245 303 364 436
#
# _framework density 23.979766000000001
#
# number of rings (size 3 to 8) (size 9 to 14) (size 15 to 20)
#    0.000    0.400    4.000    4.200    5.600    0.800 
#    0.000    2.000    0.000    0.000    0.000    0.000 
#    0.000    0.000    0.000    0.000    0.000    0.000 
#
# Total GULP energy -248028.654187 kJ/mol
# GULP energy per Si atom -12401.432709 kJ/mol
# Density = 2.392519 g / cm^3
# Si number density = 23.979766 Si / 1000 Ang^3
#
#
#
# Elastic Constant Matrix: (Units=GPa)
#
#
# Indices 1 2 3 4 5 6 
#
# 1 114.1656 42.9362 42.2832 0.0000 -0.4872 0.0000
# 2 42.9362 129.4447 16.3545 0.0000 11.6372 0.0000
# 3 42.2832 16.3545 106.0133 0.0000 -5.9348 0.0000
# 4 0.0000 0.0000 0.0000 26.7084 0.0000 4.1962
# 5 -0.4872 11.6372 -5.9348 0.0000 31.9218 0.0000
# 6 0.0000 0.0000 0.0000 4.1962 0.0000 56.6192
#
#
#
# Elastic Compliance Matrix: (Units=1/GPa)
#
#
# Indices 1 2 3 4 5 6 
#
# 1 0.011527 -0.003372 -0.004041 0.000000 0.000654 0.000000
# 2 -0.003372 0.009187 -0.000266 0.000000 -0.003450 0.000000
# 3 -0.004041 -0.000266 0.011204 0.000000 0.002118 0.000000
# 4 0.000000 0.000000 0.000000 0.037883 0.000000 -0.002808
# 5 0.000654 -0.003450 0.002118 0.000000 0.032988 0.000000
# 6 0.000000 0.000000 0.000000 -0.002808 0.000000 0.017870
#
#
# Mechanical properties :
#
#
# Convention : Reuss Voigt Hill
#
# Bulk Modulus (GPa) = 60.37901 61.41905 60.89903
# Shear Modulus (GPa) = 35.32698 39.58652 37.45675
#
# Velocity S-wave (km/s) = 3.84239 4.06745 3.95652
# Velocity P-wave (km/s) = 6.70217 6.90850 6.80612
#
# Compressibility (1/GPa) = 0.01656205
#
# Stress axis : x y z
#
# Youngs Moduli (GPa) = 86.75657 108.84494 89.25434
#
# Poissons Ratio (x) = 0.36698 0.36064
# Poissons Ratio (y) = 0.29251 0.02372
# Poissons Ratio (z) = 0.35055 0.02892
#
# Static dielectric constant tensor:
#      x y z
#    x 4.832260 0.000000 0.217520 
#    y 0.000000 4.555050 0.000000 
#    z 0.217520 0.000000 4.338910 
# 
# 
# High freq. dielectric constant tensor:
#      x y z
#    x 1.965870 0.000000 0.013240 
#    y 0.000000 1.958390 0.000000 
#    z 0.013240 0.000000 1.948290 
# 
# From -- ./inp_files/208099.got.cif
#   From: 2010.06.25/outbox.cif.g09.slc.cpg/sg15_105_cif.got.tgz:208099.got - 2010.06.28 07:06:18.
