data_PCOD8153815
_publ_section_title
;
Structure prediction by ZEFSAII (Michael W. Deem and Ramdas Pophale) SiO2 
 PCOD8153815
Probable space group: C 2/C
;
_chemical_formula_sum "Si O2"
_cell_formula_units_Z 44
_cell_length_a 26.282588
_cell_length_b 8.441438
_cell_length_c 24.564622
_cell_angle_alpha 90.000000
_cell_angle_beta 158.574621
_cell_angle_gamma 90.000000
_cell_volume 1990.817405
_symmetry_space_group_name_H-M "C 2/C"
_symmetry_group_IT_number 15
_symmetry_cell_setting 'monoclinic'
loop_
_space_group_symop_operation_xyz
x,y,z
-x,y,1/2-z
-x,-y,-z
x,-y,1/2+z
1/2+x,1/2+y,z
1/2-x,1/2+y,1/2-z
1/2-x,1/2-y,-z
1/2+x,1/2-y,1/2+z
loop_
_atom_site_type_symbol
_atom_site_label
_atom_site_fract_x
_atom_site_fract_y
_atom_site_fract_z
Si Si1 0.616742 0.108256 0.642711
Si Si2 0.500000 0.388072 0.250000
Si Si3 0.976580 0.273058 0.836996
Si Si4 0.816511 0.151937 0.018553
Si Si5 0.283963 0.330915 0.853690
Si Si6 0.536996 0.867063 0.177004
O O1 0.673859 0.231487 0.656856
O O2 0.545963 0.197334 0.623912
O O3 0.500000 0.000000 0.500000
O O4 0.744874 0.004578 0.793390
O O5 0.558133 0.279622 0.259034
O O6 0.372693 0.490533 0.100262
O O7 0.844261 0.247882 0.743681
O O8 0.028280 0.456037 0.887759
O O9 0.093146 0.159553 0.979625
O O10 0.945063 0.248099 0.120558
O O11 0.750000 0.250000 0.000000
O O12 0.695897 0.115002 0.855663
#
# Coordination Sequence:
#
# PCOD8153815 Si02
#       6
#     8   4   8   8   8   8
#     4  11  24  45  71 103 137 179 223 284 341 403
#     4  12  26  42  74 100 134 184 232 278 354 394
#     4  11  27  45  70 103 140 179 230 285 338 413
#     4  12  26  46  67 103 134 181 233 282 342 408
#     4  11  24  47  70 103 139 177 230 276 344 404
#     4  11  26  46  69 100 142 176 230 284 340 408
#
# _framework density 22.101474
#
# number of rings (size 3 to 8) (size 9 to 14) (size 15 to 20)
#    0.000    0.727    5.455    2.182    7.636    3.636 
#    0.000    0.000    0.000    0.000    0.000    0.000 
#    0.000    0.000    0.000    0.000    0.000    0.000 
#
# Total GULP energy -272846.443676 kJ/mol
# GULP energy per Si atom -12402.111076 kJ/mol
# Density = 2.205117 g / cm^3
# Si number density = 22.101474 Si / 1000 Ang^3
#
#
#
# Elastic Constant Matrix: (Units=GPa)
#
#
# Indices 1 2 3 4 5 6 
#
# 1 169.2108 46.4271 20.0396 -0.0003 -0.9631 -0.0001
# 2 46.4271 59.1766 -0.4679 0.0001 5.3554 0.0001
# 3 20.0396 -0.4679 91.7335 0.0001 -7.9993 0.0000
# 4 -0.0003 0.0001 0.0001 33.7903 0.0000 -5.1128
# 5 -0.9631 5.3554 -7.9993 0.0000 39.5185 0.0000
# 6 -0.0001 0.0001 0.0000 -5.1128 0.0000 39.4889
#
#
#
# Elastic Compliance Matrix: (Units=1/GPa)
#
#
# Indices 1 2 3 4 5 6 
#
# 1 0.007816 -0.006208 -0.001679 0.000000 0.000692 0.000000
# 2 -0.006208 0.022040 0.001216 0.000000 -0.002892 0.000000
# 3 -0.001679 0.001216 0.011458 0.000000 0.002114 0.000000
# 4 0.000000 0.000000 0.000000 0.030186 0.000000 0.003908
# 5 0.000692 -0.002892 0.002114 0.000000 0.026141 0.000000
# 6 0.000000 0.000000 0.000000 0.003908 0.000000 0.025830
#
#
# Mechanical properties :
#
#
# Convention : Reuss Voigt Hill
#
# Bulk Modulus (GPa) = 35.74734 50.23539 42.99136
# Shear Modulus (GPa) = 34.21473 39.50101 36.85787
#
# Velocity S-wave (km/s) = 3.93883 4.23218 4.08814
# Velocity P-wave (km/s) = 6.07413 6.83086 6.46358
#
# Compressibility (1/GPa) = 0.02797411
#
# Stress axis : x y z
#
# Youngs Moduli (GPa) = 127.94605 45.37155 87.27234
#
# Poissons Ratio (x) = 0.28166 0.14651
# Poissons Ratio (y) = 0.79426 -0.10615
# Poissons Ratio (z) = 0.21479 -0.05519
#
# Static dielectric constant tensor:
#      x y z
#    x 3.421450 0.000020 1.757200 
#    y 0.000020 3.614590 -0.000030 
#    z 1.757200 -0.000030 1.203130 
# 
# 
# High freq. dielectric constant tensor:
#      x y z
#    x 1.901090 0.000000 -0.010040 
#    y 0.000000 1.856780 0.000000 
#    z -0.010040 0.000000 1.875800 
# 
# From -- ./inp_files/68653.got.cif
#   From: 2010.06.25/outbox.cif.g09.slc.cpg/sg15_35_cif.got.tgz:68653.got - 2010.06.28 07:06:18.
