data_PCOD8153314
_publ_section_title
;
Structure prediction by ZEFSAII (Michael W. Deem and Ramdas Pophale) SiO2 
 PCOD8153314
Probable space group: C 2/C
;
_chemical_formula_sum "Si O2"
_cell_formula_units_Z 44
_cell_length_a 14.737393
_cell_length_b 12.473447
_cell_length_c 11.077378
_cell_angle_alpha 90.000000
_cell_angle_beta 106.408221
_cell_angle_gamma 90.000000
_cell_volume 1953.379172
_symmetry_space_group_name_H-M "C 2/C"
_symmetry_group_IT_number 15
_symmetry_cell_setting 'monoclinic'
loop_
_space_group_symop_operation_xyz
x,y,z
-x,y,1/2-z
-x,-y,-z
x,-y,1/2+z
1/2+x,1/2+y,z
1/2-x,1/2+y,1/2-z
1/2-x,1/2-y,-z
1/2+x,1/2-y,1/2+z
loop_
_atom_site_type_symbol
_atom_site_label
_atom_site_fract_x
_atom_site_fract_y
_atom_site_fract_z
Si Si1 0.617813 0.206091 0.390474
Si Si2 0.897408 0.004032 0.396796
Si Si3 0.272544 0.146510 0.586596
Si Si4 0.697254 0.734515 0.163191
Si Si5 0.000000 0.117177 0.750000
Si Si6 0.451117 0.983133 0.112465
O O1 0.666393 0.193661 0.538360
O O2 0.691444 0.213948 0.307932
O O3 0.547954 0.308207 0.369815
O O4 0.562144 0.100420 0.339474
O O5 0.819210 0.930775 0.434875
O O6 0.915566 0.954019 0.272065
O O7 0.860557 0.123473 0.358020
O O8 0.000000 0.000000 0.500000
O O9 0.250000 0.250000 0.500000
O O10 0.317466 0.190538 0.727347
O O11 0.353301 0.078774 0.549237
O O12 0.500000 0.926137 0.250000
O O13 0.500000 0.000000 0.000000
#
# Coordination Sequence:
#
# PCOD8153314 Si02
#       6
#     8   8   8   8   4   8
#     4  11  23  44  76 103 140 192 243 300 369 446
#     4  12  27  47  71 110 147 195 247 305 377 450
#     4  12  30  47  73 108 153 195 250 315 378 445
#     4  11  25  46  71 104 148 190 247 303 372 444
#     4  12  24  44  76 106 142 192 246 298 372 452
#     4  12  28  48  78 110 149 196 254 310 383 455
#
# _framework density 22.525068000000001
#
# number of rings (size 3 to 8) (size 9 to 14) (size 15 to 20)
#    0.000    0.364    6.364    1.091    7.636    2.909 
#    0.000    0.000    0.000    0.000    0.000    0.000 
#    0.000    0.000    0.000    0.000    0.000    0.000 
#
# Total GULP energy -272611.506733 kJ/mol
# GULP energy per Si atom -12391.432124 kJ/mol
# Density = 2.247380 g / cm^3
# Si number density = 22.525068 Si / 1000 Ang^3
#
#
#
# Elastic Constant Matrix: (Units=GPa)
#
#
# Indices 1 2 3 4 5 6 
#
# 1 158.3940 62.4446 45.7478 0.0000 -8.1649 0.0000
# 2 62.4446 114.3923 17.3725 0.0000 -0.7198 0.0000
# 3 45.7478 17.3725 102.4342 0.0000 -6.1176 0.0000
# 4 0.0000 0.0000 0.0000 30.9232 0.0000 3.2637
# 5 -8.1649 -0.7198 -6.1176 0.0000 33.7543 0.0000
# 6 0.0000 0.0000 0.0000 3.2637 0.0000 45.5387
#
#
#
# Elastic Compliance Matrix: (Units=1/GPa)
#
#
# Indices 1 2 3 4 5 6 
#
# 1 0.009075 -0.004457 -0.003206 0.000000 0.001519 0.000000
# 2 -0.004457 0.011163 0.000048 0.000000 -0.000831 0.000000
# 3 -0.003206 0.000048 0.011262 0.000000 0.001267 0.000000
# 4 0.000000 0.000000 0.000000 0.032585 0.000000 -0.002335
# 5 0.001519 -0.000831 0.001267 0.000000 0.030205 0.000000
# 6 0.000000 0.000000 0.000000 -0.002335 0.000000 0.022127
#
#
# Mechanical properties :
#
#
# Convention : Reuss Voigt Hill
#
# Bulk Modulus (GPa) = 61.47091 69.59448 65.53270
# Shear Modulus (GPa) = 36.47774 38.68695 37.58235
#
# Velocity S-wave (km/s) = 4.02858 4.14878 4.08912
# Velocity P-wave (km/s) = 6.99918 7.34257 7.17293
#
# Compressibility (1/GPa) = 0.01626786
#
# Stress axis : x y z
#
# Youngs Moduli (GPa) = 110.19316 89.58537 88.79561
#
# Poissons Ratio (x) = 0.39932 0.28470
# Poissons Ratio (y) = 0.49117 -0.00425
# Poissons Ratio (z) = 0.35331 -0.00429
#
# Static dielectric constant tensor:
#      x y z
#    x 4.243030 0.000000 0.114770 
#    y 0.000000 3.967560 0.000000 
#    z 0.114770 0.000000 3.657360 
# 
# 
# High freq. dielectric constant tensor:
#      x y z
#    x 1.898490 0.000000 0.004970 
#    y 0.000000 1.899340 0.000000 
#    z 0.004970 0.000000 1.890710 
# 
# From -- ./inp_files/95054.got.cif
#   From: 2010.06.25/outbox.cif.g09.slc.cpg/sg15_48_cif.got.tgz:95054.got - 2010.06.28 07:06:18.
