data_PCOD8153354
_publ_section_title
;
Structure prediction by ZEFSAII (Michael W. Deem and Ramdas Pophale) SiO2 
 PCOD8153354
Probable space group: C 2/C
;
_chemical_formula_sum "Si O2"
_cell_formula_units_Z 32
_cell_length_a 8.309672
_cell_length_b 14.811747
_cell_length_c 11.002332
_cell_angle_alpha 90.000000
_cell_angle_beta 91.238587
_cell_angle_gamma 90.000000
_cell_volume 1353.858977
_symmetry_space_group_name_H-M "C 2/C"
_symmetry_group_IT_number 15
_symmetry_cell_setting 'monoclinic'
loop_
_space_group_symop_operation_xyz
x,y,z
-x,y,1/2-z
-x,-y,-z
x,-y,1/2+z
1/2+x,1/2+y,z
1/2-x,1/2+y,1/2-z
1/2-x,1/2-y,-z
1/2+x,1/2-y,1/2+z
loop_
_atom_site_type_symbol
_atom_site_label
_atom_site_fract_x
_atom_site_fract_y
_atom_site_fract_z
Si Si1 0.314085 0.521471 0.989838
Si Si2 0.619703 0.144149 0.142319
Si Si3 0.661649 0.158357 0.530328
Si Si4 0.813302 0.162800 0.783014
O O1 0.245670 0.563418 0.115834
O O2 0.500000 0.500000 0.000000
O O3 0.230214 0.426945 0.956439
O O4 0.271164 0.593170 0.886713
O O5 0.500000 0.116533 0.250000
O O6 0.522248 0.166307 0.015578
O O7 0.718649 0.234192 0.177302
O O8 0.750000 0.250000 0.500000
O O9 0.688904 0.139917 0.673044
O O10 0.000000 0.151386 0.750000
#
# Coordination Sequence:
#
# PCOD8153354 Si02
#       4
#     8   8   8   8
#     4  12  26  45  73 105 145 190 250 304 370 436
#     4  11  25  47  73 103 149 191 248 301 370 441
#     4  12  24  45  71 103 148 194 242 306 364 432
#     4  11  23  45  72 104 148 190 241 302 369 438
#
# _framework density 23.636140000000001
#
# number of rings (size 3 to 8) (size 9 to 14) (size 15 to 20)
#    0.000    0.500    7.500    1.500    3.500    1.000 
#    0.000    0.000    0.000    0.000    0.000    0.000 
#    0.000    0.000    0.000    0.000    0.000    0.000 
#
# Total GULP energy -198384.886555 kJ/mol
# GULP energy per Si atom -12399.055410 kJ/mol
# Density = 2.358234 g / cm^3
# Si number density = 23.636140 Si / 1000 Ang^3
#
#
#
# Elastic Constant Matrix: (Units=GPa)
#
#
# Indices 1 2 3 4 5 6 
#
# 1 88.3042 34.9636 47.1940 0.0000 3.7543 0.0000
# 2 34.9636 165.9273 40.2820 0.0000 -39.6692 0.0000
# 3 47.1940 40.2820 127.9666 0.0000 2.0064 0.0000
# 4 0.0000 0.0000 0.0000 41.2122 0.0000 -13.0395
# 5 3.7543 -39.6692 2.0064 0.0000 39.8212 0.0000
# 6 0.0000 0.0000 0.0000 -13.0395 0.0000 30.8966
#
#
#
# Elastic Compliance Matrix: (Units=1/GPa)
#
#
# Indices 1 2 3 4 5 6 
#
# 1 0.015175 -0.003126 -0.004545 0.000000 -0.004316 0.000000
# 2 -0.003126 0.009539 -0.002005 0.000000 0.009898 0.000000
# 3 -0.004545 -0.002005 0.010154 0.000000 -0.002080 0.000000
# 4 0.000000 0.000000 0.000000 0.028004 0.000000 0.011819
# 5 -0.004316 0.009898 -0.002080 0.000000 0.035484 0.000000
# 6 0.000000 0.000000 0.000000 0.011819 0.000000 0.037354
#
#
# Mechanical properties :
#
#
# Convention : Reuss Voigt Hill
#
# Bulk Modulus (GPa) = 64.44860 69.67525 67.06192
# Shear Modulus (GPa) = 31.20456 39.70322 35.45389
#
# Velocity S-wave (km/s) = 3.63741 4.10294 3.87717
# Velocity P-wave (km/s) = 6.70575 7.21026 6.96258
#
# Compressibility (1/GPa) = 0.01551624
#
# Stress axis : x y z
#
# Youngs Moduli (GPa) = 65.89950 104.83821 98.47998
#
# Poissons Ratio (x) = 0.32773 0.44756
# Poissons Ratio (y) = 0.20600 0.19744
# Poissons Ratio (z) = 0.29949 0.21019
#
# Static dielectric constant tensor:
#      x y z
#    x 4.067290 0.000000 0.297490 
#    y 0.000000 3.703220 0.000000 
#    z 0.297490 0.000000 4.591870 
# 
# 
# High freq. dielectric constant tensor:
#      x y z
#    x 1.922010 0.000000 0.005870 
#    y 0.000000 1.957700 0.000000 
#    z 0.005870 0.000000 1.938090 
# 
# From -- ./inp_files/75341.got.cif
#   From: 2010.06.25/outbox.cif.g09.slc.cpg/sg15_38_cif.got.tgz:75341.got - 2010.06.28 07:06:18.
