data_PCOD8153837
_publ_section_title
;
Structure prediction by ZEFSAII (Michael W. Deem and Ramdas Pophale) SiO2 
 PCOD8153837
Probable space group: C 2/C
;
_chemical_formula_sum "Si O2"
_cell_formula_units_Z 48
_cell_length_a 10.851768
_cell_length_b 11.145098
_cell_length_c 18.186378
_cell_angle_alpha 90.000000
_cell_angle_beta 79.336741
_cell_angle_gamma 90.000000
_cell_volume 2161.551316
_symmetry_space_group_name_H-M "C 2/C"
_symmetry_group_IT_number 15
_symmetry_cell_setting 'monoclinic'
loop_
_space_group_symop_operation_xyz
x,y,z
-x,y,1/2-z
-x,-y,-z
x,-y,1/2+z
1/2+x,1/2+y,z
1/2-x,1/2+y,1/2-z
1/2-x,1/2-y,-z
1/2+x,1/2-y,1/2+z
loop_
_atom_site_type_symbol
_atom_site_label
_atom_site_fract_x
_atom_site_fract_y
_atom_site_fract_z
Si Si1 0.470626 0.049467 0.081793
Si Si2 0.021127 0.006701 0.584712
Si Si3 0.669876 0.748797 0.582918
Si Si4 0.797726 0.151859 0.351855
Si Si5 0.715507 0.412712 0.812950
Si Si6 0.092500 0.607922 0.680866
O O1 0.557566 0.159782 0.090609
O O2 0.330164 0.096310 0.104997
O O3 0.498656 0.934207 0.127825
O O4 0.500000 0.000000 0.000000
O O5 0.105298 0.119615 0.602022
O O6 0.093871 0.890587 0.605220
O O7 0.000000 0.000000 0.500000
O O8 0.885664 0.000565 0.637846
O O9 0.750000 0.750000 0.500000
O O10 0.757692 0.791126 0.641880
O O11 0.826739 0.119954 0.264138
O O12 0.803711 0.296418 0.358183
O O13 0.841493 0.490651 0.792600
O O14 0.000000 0.669675 0.750000
#
# Coordination Sequence:
#
# PCOD8153837 Si02
#       6
#     8   8   8   8   8   8
#     4  11  26  45  72 104 140 185 242 295 365 432
#     4  12  26  44  70 105 145 188 246 295 364 443
#     4  11  24  45  74 101 143 188 231 305 361 431
#     4  12  27  45  73 104 141 192 241 300 367 435
#     4  11  25  47  71 106 141 188 244 295 371 435
#     4  11  24  46  73 101 142 182 236 306 358 438
#
# _framework density 22.206274000000001
#
# number of rings (size 3 to 8) (size 9 to 14) (size 15 to 20)
#    0.000    0.667    3.333    3.500    7.000    3.333 
#    3.000    0.000    0.000    0.000    0.000    0.000 
#    0.000    0.000    0.000    0.000    0.000    0.000 
#
# Total GULP energy -297550.203964 kJ/mol
# GULP energy per Si atom -12397.925165 kJ/mol
# Density = 2.215573 g / cm^3
# Si number density = 22.206274 Si / 1000 Ang^3
#
#
#
# Elastic Constant Matrix: (Units=GPa)
#
#
# Indices 1 2 3 4 5 6 
#
# 1 106.2853 34.7305 56.1282 0.0000 -1.8117 0.0000
# 2 34.7305 117.5580 38.6697 0.0000 4.5007 0.0000
# 3 56.1282 38.6697 138.0156 0.0000 2.9448 0.0000
# 4 0.0000 0.0000 0.0000 23.8454 0.0000 -6.1433
# 5 -1.8117 4.5007 2.9448 0.0000 43.0397 0.0000
# 6 0.0000 0.0000 0.0000 -6.1433 0.0000 50.8270
#
#
#
# Elastic Compliance Matrix: (Units=1/GPa)
#
#
# Indices 1 2 3 4 5 6 
#
# 1 0.012537 -0.002269 -0.004486 0.000000 0.001072 0.000000
# 2 -0.002269 0.009809 -0.001804 0.000000 -0.000998 0.000000
# 3 -0.004486 -0.001804 0.009589 0.000000 -0.000656 0.000000
# 4 0.000000 0.000000 0.000000 0.043285 0.000000 0.005232
# 5 0.001072 -0.000998 -0.000656 0.000000 0.023429 0.000000
# 6 0.000000 0.000000 0.000000 0.005232 0.000000 0.020307
#
#
# Mechanical properties :
#
#
# Convention : Reuss Voigt Hill
#
# Bulk Modulus (GPa) = 67.49054 68.99063 68.24059
# Shear Modulus (GPa) = 35.45784 39.03112 37.24448
#
# Velocity S-wave (km/s) = 4.00027 4.19700 4.09981
# Velocity P-wave (km/s) = 7.19686 7.39066 7.29440
#
# Compressibility (1/GPa) = 0.01481689
#
# Stress axis : x y z
#
# Youngs Moduli (GPa) = 79.76172 101.95238 104.28355
#
# Poissons Ratio (x) = 0.23138 0.46778
# Poissons Ratio (y) = 0.18101 0.18812
# Poissons Ratio (z) = 0.35779 0.18392
#
# Static dielectric constant tensor:
#      x y z
#    x 4.212470 0.000000 0.039730 
#    y 0.000000 4.110530 0.000000 
#    z 0.039730 0.000000 4.030460 
# 
# 
# High freq. dielectric constant tensor:
#      x y z
#    x 1.891520 0.000000 0.001580 
#    y 0.000000 1.881580 0.000000 
#    z 0.001580 0.000000 1.879930 
# 
# From -- ./inp_files/195991.got.cif
#   From: 2010.06.25/outbox.cif.g09.slc.cpg/sg15_98_cif.got.tgz:195991.got - 2010.06.28 07:06:18.
