data_PCOD8153169
_publ_section_title
;
Structure prediction by ZEFSAII (Michael W. Deem and Ramdas Pophale) SiO2 
 PCOD8153169
Probable space group: C 2/C
;
_chemical_formula_sum "Si O2"
_cell_formula_units_Z 48
_cell_length_a 14.390204
_cell_length_b 12.019801
_cell_length_c 25.630756
_cell_angle_alpha 90.000000
_cell_angle_beta 151.081058
_cell_angle_gamma 90.000000
_cell_volume 2143.811509
_symmetry_space_group_name_H-M "C 2/C"
_symmetry_group_IT_number 15
_symmetry_cell_setting 'monoclinic'
loop_
_space_group_symop_operation_xyz
x,y,z
-x,y,1/2-z
-x,-y,-z
x,-y,1/2+z
1/2+x,1/2+y,z
1/2-x,1/2+y,1/2-z
1/2-x,1/2-y,-z
1/2+x,1/2-y,1/2+z
loop_
_atom_site_type_symbol
_atom_site_label
_atom_site_fract_x
_atom_site_fract_y
_atom_site_fract_z
Si Si1 0.879938 0.060360 0.984136
Si Si2 0.500000 0.330511 0.250000
Si Si3 0.000000 0.642666 0.750000
Si Si4 0.453433 0.998654 0.917850
Si Si5 0.349352 0.755058 0.362636
Si Si6 0.634369 0.511888 0.909302
Si Si7 0.132338 0.825253 0.738750
O O1 0.653817 0.067165 0.857343
O O2 0.920348 0.985787 0.056077
O O3 0.962338 0.186412 0.027395
O O4 0.000000 0.000000 0.000000
O O5 0.683867 0.253189 0.326344
O O6 0.467185 0.402260 0.180759
O O7 0.879466 0.716917 0.731377
O O8 0.401305 0.120141 0.872433
O O9 0.277905 0.916119 0.830532
O O10 0.640677 0.960394 0.978870
O O11 0.500000 0.000000 0.000000
O O12 0.278754 0.702710 0.273869
O O13 0.577977 0.385391 0.864425
#
# Coordination Sequence:
#
# PCOD8153169 Si02
#       7
#     8   4   4   8   8   8   8
#     4  11  28  47  71 102 150 190 244 297 369 437
#     4  12  23  43  74 104 146 180 241 297 366 438
#     4  12  25  45  72 100 142 200 241 293 372 440
#     4  12  21  40  70 101 138 182 242 301 358 439
#     4  11  25  43  69 107 140 186 242 303 366 437
#     4  11  23  43  70 102 136 187 234 302 355 432
#     4  11  24  41  70 103 142 183 242 304 365 426
#
# _framework density 22.390028000000001
#
# number of rings (size 3 to 8) (size 9 to 14) (size 15 to 20)
#    0.000    0.667    3.333    4.500    2.333    7.333 
#    0.000    1.667    0.000    0.000    0.000    0.000 
#    0.000    0.000    0.000    0.000    0.000    0.000 
#
# Total GULP energy -297369.010883 kJ/mol
# GULP energy per Si atom -12390.375453 kJ/mol
# Density = 2.233907 g / cm^3
# Si number density = 22.390028 Si / 1000 Ang^3
#
#
#
# Elastic Constant Matrix: (Units=GPa)
#
#
# Indices 1 2 3 4 5 6 
#
# 1 140.4934 35.7256 50.2138 -0.0002 -5.0835 0.0000
# 2 35.7256 65.6907 44.2391 -0.0001 -4.0444 -0.0001
# 3 50.2138 44.2391 122.1780 0.0003 -4.8625 -0.0001
# 4 -0.0002 -0.0001 0.0003 22.4867 -0.0003 3.2106
# 5 -5.0835 -4.0444 -4.8625 -0.0003 42.1485 -0.0001
# 6 0.0000 -0.0001 -0.0001 3.2106 -0.0001 43.0065
#
#
#
# Elastic Compliance Matrix: (Units=1/GPa)
#
#
# Indices 1 2 3 4 5 6 
#
# 1 0.008808 -0.003089 -0.002482 0.000000 0.000480 0.000000
# 2 -0.003089 0.021266 -0.006394 0.000000 0.000930 0.000000
# 3 -0.002482 -0.006394 0.011537 0.000000 0.000418 0.000000
# 4 0.000000 0.000000 0.000000 0.044950 0.000000 -0.003356
# 5 0.000480 0.000930 0.000418 0.000000 0.023921 0.000000
# 6 0.000000 0.000000 0.000000 -0.003356 0.000000 0.023503
#
#
# Mechanical properties :
#
#
# Convention : Reuss Voigt Hill
#
# Bulk Modulus (GPa) = 56.55895 65.41323 60.98609
# Shear Modulus (GPa) = 30.52376 34.74057 32.63216
#
# Velocity S-wave (km/s) = 3.69626 3.94332 3.82179
# Velocity P-wave (km/s) = 6.59788 7.07190 6.83900
#
# Compressibility (1/GPa) = 0.01768067
#
# Stress axis : x y z
#
# Youngs Moduli (GPa) = 113.53570 47.02412 86.68002
#
# Poissons Ratio (x) = 0.14525 0.21518
# Poissons Ratio (y) = 0.35069 0.55419
# Poissons Ratio (z) = 0.28184 0.30065
#
# Static dielectric constant tensor:
#      x y z
#    x 4.160870 0.000000 0.009460 
#    y 0.000000 4.017900 0.000000 
#    z 0.009460 0.000000 4.368090 
# 
# 
# High freq. dielectric constant tensor:
#      x y z
#    x 1.895360 0.000000 -0.003160 
#    y 0.000000 1.863950 0.000000 
#    z -0.003160 0.000000 1.890760 
# 
# From -- ./inp_files/296219.got.cif
#   From: 2010.06.25/outbox.cif.g09.slc.cpg/sg15_149_cif.got.tgz:296219.got - 2010.06.28 07:06:18.
