data_PCOD8153992
_publ_section_title
;
Structure prediction by ZEFSAII (Michael W. Deem and Ramdas Pophale) SiO2 
 PCOD8153992
Probable space group: C 2/C
;
_chemical_formula_sum "Si O2"
_cell_formula_units_Z 60
_cell_length_a 11.695799
_cell_length_b 25.983526
_cell_length_c 9.345246
_cell_angle_alpha 90.000000
_cell_angle_beta 89.726115
_cell_angle_gamma 90.000000
_cell_volume 2839.970032
_symmetry_space_group_name_H-M "C 2/C"
_symmetry_group_IT_number 15
_symmetry_cell_setting 'monoclinic'
loop_
_space_group_symop_operation_xyz
x,y,z
-x,y,1/2-z
-x,-y,-z
x,-y,1/2+z
1/2+x,1/2+y,z
1/2-x,1/2+y,1/2-z
1/2-x,1/2-y,-z
1/2+x,1/2-y,1/2+z
loop_
_atom_site_type_symbol
_atom_site_label
_atom_site_fract_x
_atom_site_fract_y
_atom_site_fract_z
Si Si1 0.072835 0.173511 0.039309
Si Si2 0.660670 0.638202 0.339565
Si Si3 0.557309 0.205120 0.509213
Si Si4 0.000000 0.361480 0.750000
Si Si5 0.370505 0.953873 0.216844
Si Si6 0.173077 0.441833 0.618941
Si Si7 0.701030 0.803786 0.458375
Si Si8 0.752130 0.354783 0.321237
O O1 0.140720 0.161626 0.184296
O O2 0.945447 0.151120 0.055883
O O3 0.077512 0.233701 0.000871
O O4 0.135446 0.143161 0.912009
O O5 0.696382 0.577732 0.344590
O O6 0.777375 0.662552 0.400950
O O7 0.567083 0.177175 0.356192
O O8 0.432555 0.196639 0.580021
O O9 0.652416 0.180339 0.606800
O O10 0.917472 0.398455 0.838754
O O11 0.500000 0.937693 0.250000
O O12 0.291230 0.913081 0.298395
O O13 0.345428 0.009082 0.282547
O O14 0.344592 0.955082 0.047890
O O15 0.750000 0.750000 0.500000
O O16 0.773870 0.827955 0.329437
#
# Coordination Sequence:
#
# PCOD8153992 Si02
#       8
#     8   8   8   4   8   8   8   8
#     4  11  27  46  71  97 146 198 236 280 350 428
#     4  11  24  48  68  98 145 188 234 293 351 412
#     4  12  25  40  69 107 143 188 228 289 352 423
#     4  12  24  40  70 108 148 174 234 282 348 434
#     4  12  26  46  75 106 141 180 229 301 373 416
#     4  12  26  46  72 107 136 186 231 299 363 420
#     4  12  23  41  68  97 146 182 230 287 351 421
#     4  12  26  43  68 105 137 184 241 286 347 428
#
# _framework density 21.126982999999999
#
# number of rings (size 3 to 8) (size 9 to 14) (size 15 to 20)
#    0.000    0.267    4.667    4.400    7.467    0.533 
#    0.000    0.667    0.000    0.000    0.000    0.000 
#    0.000    0.000    0.000    0.000    0.000    0.000 
#
# Total GULP energy -371915.018989 kJ/mol
# GULP energy per Si atom -12397.167300 kJ/mol
# Density = 2.107890 g / cm^3
# Si number density = 21.126983 Si / 1000 Ang^3
#
#
#
# Elastic Constant Matrix: (Units=GPa)
#
#
# Indices 1 2 3 4 5 6 
#
# 1 64.8380 55.5635 26.0322 0.0000 -4.4040 0.0000
# 2 55.5635 135.7502 75.4380 0.0000 -6.9139 0.0000
# 3 26.0322 75.4380 102.7442 0.0000 -5.6281 0.0000
# 4 0.0000 0.0000 0.0000 42.7367 0.0000 -38.6702
# 5 -4.4040 -6.9139 -5.6281 0.0000 36.2015 0.0000
# 6 0.0000 0.0000 0.0000 -38.6702 0.0000 -305.3470
#
#
#
# Elastic Compliance Matrix: (Units=1/GPa)
#
#
# Indices 1 2 3 4 5 6 
#
# 1 0.024023 -0.010856 0.001947 0.000000 0.001152 0.000000
# 2 -0.010856 0.017383 -0.009988 0.000000 0.000446 0.000000
# 3 0.001947 -0.009988 0.016623 0.000000 0.000914 0.000000
# 4 0.000000 0.000000 0.000000 0.020993 0.000000 -0.002659
# 5 0.001152 0.000446 0.000914 0.000000 0.027991 0.000000
# 6 0.000000 0.000000 0.000000 -0.002659 0.000000 -0.002938
#
#
# Mechanical properties :
#
#
# Convention : Reuss Voigt Hill
#
# Bulk Modulus (GPa) = 49.41887 68.59995 59.00941
# Shear Modulus (GPa) = 33.64412 -35.52853 -0.94220
#
# Velocity S-wave (km/s) = 3.99491 -4.10526 -0.66853
# Velocity P-wave (km/s) = 6.68739 3.17331 5.23408
#
# Compressibility (1/GPa) = 0.02023519
#
# Stress axis : x y z
#
# Youngs Moduli (GPa) = 41.62722 57.52628 60.15665
#
# Poissons Ratio (x) = 0.62452 -0.11715
# Poissons Ratio (y) = 0.45191 0.60086
# Poissons Ratio (z) = -0.08107 0.57459
#
# Static dielectric constant tensor:
#      x y z
#    x 3.927420 0.000000 -0.037390 
#    y 0.000000 3.907290 0.000000 
#    z -0.037390 0.000000 4.088200 
# 
# 
# High freq. dielectric constant tensor:
#      x y z
#    x 1.829790 0.000000 -0.001160 
#    y 0.000000 1.833040 0.000000 
#    z -0.001160 0.000000 1.844760 
# 
# From -- ./inp_files/34278.got.cif
#   From: 2010.06.25/outbox.cif.g09.slc.cpg/sg15_18_cif.got.tgz:34278.got - 2010.06.28 07:06:18.
