data_PCOD8153680
_publ_section_title
;
Structure prediction by ZEFSAII (Michael W. Deem and Ramdas Pophale) SiO2 
 PCOD8153680
Probable space group: C 2/C
;
_chemical_formula_sum "Si O2"
_cell_formula_units_Z 56
_cell_length_a 11.968454
_cell_length_b 24.404474
_cell_length_c 9.706362
_cell_angle_alpha 90.000000
_cell_angle_beta 66.741333
_cell_angle_gamma 90.000000
_cell_volume 2604.669305
_symmetry_space_group_name_H-M "C 2/C"
_symmetry_group_IT_number 15
_symmetry_cell_setting 'monoclinic'
loop_
_space_group_symop_operation_xyz
x,y,z
-x,y,1/2-z
-x,-y,-z
x,-y,1/2+z
1/2+x,1/2+y,z
1/2-x,1/2+y,1/2-z
1/2-x,1/2-y,-z
1/2+x,1/2-y,1/2+z
loop_
_atom_site_type_symbol
_atom_site_label
_atom_site_fract_x
_atom_site_fract_y
_atom_site_fract_z
Si Si1 0.210428 0.991826 0.403389
Si Si2 0.817982 0.272314 0.099083
Si Si3 0.673364 0.255381 0.400977
Si Si4 0.879043 0.463813 0.573249
Si Si5 0.538788 0.324137 0.882493
Si Si6 0.533071 0.154413 0.390381
Si Si7 0.989443 0.923613 0.410912
O O1 0.300907 0.967176 0.472358
O O2 0.124416 0.944253 0.384648
O O3 0.293259 0.019857 0.244446
O O4 0.117309 0.031896 0.526917
O O5 0.727154 0.296862 0.257919
O O6 0.848413 0.217127 0.175009
O O7 0.750000 0.250000 0.000000
O O8 0.916423 0.318878 0.022783
O O9 0.750000 0.250000 0.500000
O O10 0.550432 0.284353 0.496065
O O11 0.644506 0.195960 0.349572
O O12 0.926541 0.401928 0.559947
O O13 0.000000 0.500000 0.500000
O O14 0.500000 0.343499 0.750000
O O15 0.559583 0.377423 0.962852
O O16 0.500000 0.142096 0.250000
O O17 0.000000 0.901851 0.250000
#
# Coordination Sequence:
#
# PCOD8153680 Si02
#       7
#     8   8   8   8   8   8   8
#     4  11  26  48  73 101 143 184 244 307 358 425
#     4  11  24  44  69  98 141 182 228 286 345 426
#     4  11  24  44  66 100 141 178 225 285 346 418
#     4  12  27  49  72 104 146 190 239 293 362 440
#     4  11  26  41  67 105 135 178 236 285 350 423
#     4  11  25  44  72 102 135 186 236 280 355 425
#     4  11  26  46  74 105 136 186 247 306 365 414
#
# _framework density 21.499849000000001
#
# number of rings (size 3 to 8) (size 9 to 14) (size 15 to 20)
#    0.000    0.857    4.286    1.286    8.000    2.286 
#    2.571    0.000    0.000    0.000    0.000    0.000 
#    0.000    0.000    0.000    0.000    0.000    0.000 
#
# Total GULP energy -346968.998308 kJ/mol
# GULP energy per Si atom -12391.749940 kJ/mol
# Density = 2.145091 g / cm^3
# Si number density = 21.499849 Si / 1000 Ang^3
#
#
#
# Elastic Constant Matrix: (Units=GPa)
#
#
# Indices 1 2 3 4 5 6 
#
# 1 125.6947 43.9273 41.5142 0.0000 14.6722 0.0000
# 2 43.9273 109.6622 33.2512 0.0000 5.4125 0.0000
# 3 41.5142 33.2512 138.8614 0.0000 14.2991 0.0000
# 4 0.0000 0.0000 0.0000 7.5929 0.0000 33.9977
# 5 14.6722 5.4125 14.2991 0.0000 49.2241 0.0000
# 6 0.0000 0.0000 0.0000 33.9977 0.0000 2.8045
#
#
#
# Elastic Compliance Matrix: (Units=1/GPa)
#
#
# Indices 1 2 3 4 5 6 
#
# 1 0.010006 -0.003304 -0.001990 0.000000 -0.002041 0.000000
# 2 -0.003304 0.010932 -0.001657 0.000000 0.000264 0.000000
# 3 -0.001990 -0.001657 0.008364 0.000000 -0.001654 0.000000
# 4 0.000000 0.000000 0.000000 -0.002472 0.000000 0.029966
# 5 -0.002041 0.000264 -0.001654 0.000000 0.021375 0.000000
# 6 0.000000 0.000000 0.000000 0.029966 0.000000 -0.006692
#
#
# Mechanical properties :
#
#
# Convention : Reuss Voigt Hill
#
# Bulk Modulus (GPa) = 64.93926 67.95598 66.44762
# Shear Modulus (GPa) = 82.58006 28.95933 55.76970
#
# Velocity S-wave (km/s) = 6.20427 3.67407 5.09862
# Velocity P-wave (km/s) = 9.03294 7.04803 8.10150
#
# Compressibility (1/GPa) = 0.01539900
#
# Stress axis : x y z
#
# Youngs Moduli (GPa) = 99.94042 91.47632 119.56675
#
# Poissons Ratio (x) = 0.30223 0.23795
# Poissons Ratio (y) = 0.33020 0.19814
# Poissons Ratio (z) = 0.19889 0.15159
#
# Static dielectric constant tensor:
#      x y z
#    x 4.433310 0.000000 -0.330950 
#    y 0.000000 4.071510 0.000000 
#    z -0.330950 0.000000 4.190190 
# 
# 
# High freq. dielectric constant tensor:
#      x y z
#    x 1.866800 0.000000 -0.006860 
#    y 0.000000 1.835900 0.000000 
#    z -0.006860 0.000000 1.868030 
# 
# From -- ./inp_files/34206.got.cif
#   From: 2010.06.25/outbox.cif.g09.slc.cpg/sg15_18_cif.got.tgz:34206.got - 2010.06.28 07:06:18.
