data_PCOD8153556
_publ_section_title
;
Structure prediction by ZEFSAII (Michael W. Deem and Ramdas Pophale) SiO2 
 PCOD8153556
Probable space group: C 2/C
;
_chemical_formula_sum "Si O2"
_cell_formula_units_Z 36
_cell_length_a 7.805895
_cell_length_b 21.627527
_cell_length_c 9.033281
_cell_angle_alpha 90.000000
_cell_angle_beta 88.365472
_cell_angle_gamma 90.000000
_cell_volume 1524.397897
_symmetry_space_group_name_H-M "C 2/C"
_symmetry_group_IT_number 15
_symmetry_cell_setting 'monoclinic'
loop_
_space_group_symop_operation_xyz
x,y,z
-x,y,1/2-z
-x,-y,-z
x,-y,1/2+z
1/2+x,1/2+y,z
1/2-x,1/2+y,1/2-z
1/2-x,1/2-y,-z
1/2+x,1/2-y,1/2+z
loop_
_atom_site_type_symbol
_atom_site_label
_atom_site_fract_x
_atom_site_fract_y
_atom_site_fract_z
Si Si1 0.189615 0.442715 0.718387
Si Si2 0.500000 0.534201 0.750000
Si Si3 0.802239 0.292335 0.278548
Si Si4 0.150313 0.129429 0.526194
Si Si5 0.684867 0.336933 0.590565
O O1 0.333854 0.495092 0.706580
O O2 0.192557 0.402200 0.566400
O O3 0.227343 0.398738 0.855474
O O4 0.000000 0.471377 0.750000
O O5 0.545524 0.575783 0.609303
O O6 0.706214 0.315629 0.133760
O O7 0.741278 0.331996 0.418927
O O8 0.755728 0.220852 0.310282
O O9 0.000000 0.304229 0.250000
O O10 0.023492 0.158649 0.404541
#
# Coordination Sequence:
#
# PCOD8153556 Si02
#       5
#     8   4   8   8   8
#     4  12  27  45  74 107 143 189 245 298 355 429
#     4  12  26  48  74 102 148 194 242 298 354 424
#     4  11  24  41  72 106 142 189 244 292 361 437
#     4  12  24  48  72 101 150 193 232 301 364 421
#     4  11  24  46  69 105 146 190 237 297 367 421
#
# _framework density 23.615883
#
# number of rings (size 3 to 8) (size 9 to 14) (size 15 to 20)
#    0.000    0.444    4.444    3.333    0.000    8.889 
#    0.000    0.000    0.000    0.000    0.000    0.000 
#    0.000    0.000    0.000    0.000    0.000    0.000 
#
# Total GULP energy -223276.802574 kJ/mol
# GULP energy per Si atom -12404.266810 kJ/mol
# Density = 2.356213 g / cm^3
# Si number density = 23.615883 Si / 1000 Ang^3
#
#
#
# Elastic Constant Matrix: (Units=GPa)
#
#
# Indices 1 2 3 4 5 6 
#
# 1 139.4433 27.9423 28.3491 0.0000 2.1290 0.0000
# 2 27.9423 75.4301 32.4716 0.0000 20.6888 0.0000
# 3 28.3491 32.4716 88.8114 0.0000 11.1676 0.0000
# 4 0.0000 0.0000 0.0000 7.1082 0.0000 16.1778
# 5 2.1290 20.6888 11.1676 0.0000 41.3151 0.0000
# 6 0.0000 0.0000 0.0000 16.1778 0.0000 18.0430
#
#
#
# Elastic Compliance Matrix: (Units=1/GPa)
#
#
# Indices 1 2 3 4 5 6 
#
# 1 0.008031 -0.002577 -0.001793 0.000000 0.001361 0.000000
# 2 -0.002577 0.018479 -0.004956 0.000000 -0.007781 0.000000
# 3 -0.001793 -0.004956 0.013789 0.000000 -0.001153 0.000000
# 4 0.000000 0.000000 0.000000 -0.135187 0.000000 0.121212
# 5 0.001361 -0.007781 -0.001153 0.000000 0.028342 0.000000
# 6 0.000000 0.000000 0.000000 0.121212 0.000000 -0.053258
#
#
# Mechanical properties :
#
#
# Convention : Reuss Voigt Hill
#
# Bulk Modulus (GPa) = 46.18977 53.46787 49.82882
# Shear Modulus (GPa) = -53.22785 27.62137 -12.80324
#
# Velocity S-wave (km/s) = -4.75268 3.42367 -2.33093
# Velocity P-wave (km/s) = 3.24284 6.19019 3.72843
#
# Compressibility (1/GPa) = 0.02164982
#
# Stress axis : x y z
#
# Youngs Moduli (GPa) = 124.51148 54.11427 72.52188
#
# Poissons Ratio (x) = 0.13944 0.13001
# Poissons Ratio (y) = 0.32083 0.35939
# Poissons Ratio (z) = 0.22321 0.26817
#
# Static dielectric constant tensor:
#      x y z
#    x 4.233040 0.000000 -0.240720 
#    y 0.000000 4.291490 0.000000 
#    z -0.240720 0.000000 4.397750 
# 
# 
# High freq. dielectric constant tensor:
#      x y z
#    x 1.931840 0.000000 -0.015850 
#    y 0.000000 1.936030 0.000000 
#    z -0.015850 0.000000 1.955990 
# 
# From -- ./inp_files/22522.got.cif
#   From: 2010.06.25/outbox.cif.g09.slc.cpg/sg15_12_cif.got.tgz:22522.got - 2010.06.28 07:06:18.
