data_PCOD8153902
_publ_section_title
;
Structure prediction by ZEFSAII (Michael W. Deem and Ramdas Pophale) SiO2 
 PCOD8153902
Probable space group: C 2/C
;
_chemical_formula_sum "Si O2"
_cell_formula_units_Z 40
_cell_length_a 9.416557
_cell_length_b 10.514771
_cell_length_c 17.663116
_cell_angle_alpha 90.000000
_cell_angle_beta 99.579892
_cell_angle_gamma 90.000000
_cell_volume 1724.488095
_symmetry_space_group_name_H-M "C 2/C"
_symmetry_group_IT_number 15
_symmetry_cell_setting 'monoclinic'
loop_
_space_group_symop_operation_xyz
x,y,z
-x,y,1/2-z
-x,-y,-z
x,-y,1/2+z
1/2+x,1/2+y,z
1/2-x,1/2+y,1/2-z
1/2-x,1/2-y,-z
1/2+x,1/2-y,1/2+z
loop_
_atom_site_type_symbol
_atom_site_label
_atom_site_fract_x
_atom_site_fract_y
_atom_site_fract_z
Si Si1 0.831394 0.591087 0.725509
Si Si2 0.276404 0.483164 0.933976
Si Si3 0.986309 0.363795 0.536615
Si Si4 0.229243 0.346592 0.681386
Si Si5 0.569160 0.359749 0.935039
O O1 0.808095 0.564490 0.635146
O O2 0.770679 0.475871 0.770721
O O3 0.743588 0.722038 0.737477
O O4 0.000000 0.609696 0.750000
O O5 0.179823 0.360100 0.948177
O O6 0.432329 0.450826 0.914648
O O7 0.298449 0.573975 0.008917
O O8 0.000000 0.500000 0.500000
O O9 0.086592 0.338636 0.617905
O O10 0.014575 0.263818 0.473602
O O11 0.373739 0.335569 0.643807
#
# Coordination Sequence:
#
# PCOD8153902 Si02
#       5
#     8   8   8   8   8
#     4  12  28  50  72 109 154 202 250 303 381 456
#     4  11  24  46  72 112 144 186 247 310 369 439
#     4  12  22  43  76 108 140 188 249 307 368 434
#     4  12  27  48  75 106 150 201 248 307 374 451
#     4  11  25  45  75 109 144 188 250 311 368 433
#
# _framework density 23.195288000000001
#
# number of rings (size 3 to 8) (size 9 to 14) (size 15 to 20)
#    0.000    0.400    6.000    2.400    2.800    0.000 
#   10.800    0.000    0.000    0.000    0.000    0.000 
#    0.000    0.000    0.000    0.000    0.000    0.000 
#
# Total GULP energy -248007.406714 kJ/mol
# GULP energy per Si atom -12400.370336 kJ/mol
# Density = 2.314249 g / cm^3
# Si number density = 23.195288 Si / 1000 Ang^3
#
#
#
# Elastic Constant Matrix: (Units=GPa)
#
#
# Indices 1 2 3 4 5 6 
#
# 1 104.0472 43.8821 46.6509 0.0000 7.5260 0.0000
# 2 43.8821 157.2731 54.8119 0.0000 6.9622 0.0000
# 3 46.6509 54.8119 92.6227 0.0000 12.7979 0.0000
# 4 0.0000 0.0000 0.0000 32.8208 0.0000 -5.3133
# 5 7.5260 6.9622 12.7979 0.0000 37.5054 0.0000
# 6 0.0000 0.0000 0.0000 -5.3133 0.0000 43.2630
#
#
#
# Elastic Compliance Matrix: (Units=1/GPa)
#
#
# Indices 1 2 3 4 5 6 
#
# 1 0.012757 -0.001665 -0.005382 0.000000 -0.000414 0.000000
# 2 -0.001665 0.008228 -0.004057 0.000000 0.000191 0.000000
# 3 -0.005382 -0.004057 0.016430 0.000000 -0.003773 0.000000
# 4 0.000000 0.000000 0.000000 0.031087 0.000000 0.003818
# 5 -0.000414 0.000191 -0.003773 0.000000 0.027998 0.000000
# 6 0.000000 0.000000 0.000000 0.003818 0.000000 0.023583
#
#
# Mechanical properties :
#
#
# Convention : Reuss Voigt Hill
#
# Bulk Modulus (GPa) = 65.76662 71.62585 68.69624
# Shear Modulus (GPa) = 33.93044 36.62440 35.27742
#
# Velocity S-wave (km/s) = 3.82883 3.97792 3.90409
# Velocity P-wave (km/s) = 6.92543 7.21422 7.07130
#
# Compressibility (1/GPa) = 0.01520528
#
# Stress axis : x y z
#
# Youngs Moduli (GPa) = 78.39129 121.52910 60.86538
#
# Poissons Ratio (x) = 0.20236 0.32760
# Poissons Ratio (y) = 0.13053 0.24694
# Poissons Ratio (z) = 0.42194 0.49306
#
# Static dielectric constant tensor:
#      x y z
#    x 4.580670 0.000000 0.153330 
#    y 0.000000 4.453350 0.000000 
#    z 0.153330 0.000000 4.197050 
# 
# 
# High freq. dielectric constant tensor:
#      x y z
#    x 1.932190 0.000000 0.012130 
#    y 0.000000 1.924380 0.000000 
#    z 0.012130 0.000000 1.913710 
# 
# From -- ./inp_files/187806.got.cif
#   From: 2010.06.25/outbox.cif.g09.slc.cpg/sg15_94_cif.got.tgz:187806.got - 2010.06.28 07:06:18.
