data_PCOD8153751
_publ_section_title
;
Structure prediction by ZEFSAII (Michael W. Deem and Ramdas Pophale) SiO2 
 PCOD8153751
Probable space group: C 2/C
;
_chemical_formula_sum "Si O2"
_cell_formula_units_Z 64
_cell_length_a 18.669175
_cell_length_b 17.157276
_cell_length_c 14.429069
_cell_angle_alpha 90.000000
_cell_angle_beta 143.950085
_cell_angle_gamma 90.000000
_cell_volume 2719.886216
_symmetry_space_group_name_H-M "C 2/C"
_symmetry_group_IT_number 15
_symmetry_cell_setting 'monoclinic'
loop_
_space_group_symop_operation_xyz
x,y,z
-x,y,1/2-z
-x,-y,-z
x,-y,1/2+z
1/2+x,1/2+y,z
1/2-x,1/2+y,1/2-z
1/2-x,1/2-y,-z
1/2+x,1/2-y,1/2+z
loop_
_atom_site_type_symbol
_atom_site_label
_atom_site_fract_x
_atom_site_fract_y
_atom_site_fract_z
Si Si1 0.710832 0.973464 0.302943
Si Si2 0.672037 0.863056 0.673494
Si Si3 0.805147 0.804370 0.637162
Si Si4 0.044187 0.812596 0.208023
Si Si5 0.201882 0.741241 0.580935
Si Si6 0.866702 0.030161 0.140992
Si Si7 0.399573 0.443648 0.356758
Si Si8 0.591471 0.174430 0.632232
O O1 0.763509 0.995297 0.458708
O O2 0.813028 0.927712 0.352228
O O3 0.605215 0.907680 0.202083
O O4 0.664994 0.046241 0.194106
O O5 0.707417 0.845488 0.603807
O O6 0.767063 0.825582 0.844124
O O7 0.541781 0.822457 0.553228
O O8 0.750000 0.750000 0.500000
O O9 0.873017 0.876506 0.660465
O O10 0.898058 0.749387 0.790310
O O11 0.185722 0.783347 0.369679
O O12 0.037433 0.862093 0.106817
O O13 0.000000 0.865591 0.250000
O O14 0.936796 0.746184 0.103425
O O15 0.192501 0.679051 0.655533
O O16 0.000000 0.003232 0.250000
O O17 0.831600 0.983514 0.198023
O O18 0.500000 0.500000 0.500000
#
# Coordination Sequence:
#
# PCOD8153751 Si02
#       8
#     8   8   8   8   8   8   8   8
#     4  12  24  46  70 102 147 193 242 298 367 448
#     4  11  25  44  73  99 146 195 240 296 377 437
#     4  11  25  43  68 109 143 182 244 312 370 442
#     4  12  26  45  72 102 143 186 243 304 361 433
#     4  11  24  45  70 102 137 190 240 300 361 431
#     4  12  26  42  70 108 142 183 241 304 374 441
#     4  12  25  43  68 104 142 185 236 298 370 437
#     4  11  24  44  73  99 140 197 243 293 367 448
#
# _framework density 23.530396
#
# number of rings (size 3 to 8) (size 9 to 14) (size 15 to 20)
#    0.000    0.500    6.250    1.875    5.250    0.000 
#    0.000    0.000    0.000    0.000    0.000    0.000 
#    0.000    0.000    0.000    0.000    0.000    0.000 
#
# Total GULP energy -396508.275223 kJ/mol
# GULP energy per Si atom -12390.883601 kJ/mol
# Density = 2.347684 g / cm^3
# Si number density = 23.530396 Si / 1000 Ang^3
#
#
#
# Elastic Constant Matrix: (Units=GPa)
#
#
# Indices 1 2 3 4 5 6 
#
# 1 100.7090 17.1381 34.1431 0.0000 -0.8356 0.0000
# 2 17.1381 99.8236 27.1858 0.0000 4.5881 0.0000
# 3 34.1431 27.1858 120.7298 0.0000 9.1497 0.0000
# 4 0.0000 0.0000 0.0000 38.5499 0.0000 -6.8128
# 5 -0.8356 4.5881 9.1497 0.0000 34.3255 0.0000
# 6 0.0000 0.0000 0.0000 -6.8128 0.0000 33.4793
#
#
#
# Elastic Compliance Matrix: (Units=1/GPa)
#
#
# Indices 1 2 3 4 5 6 
#
# 1 0.011149 -0.001157 -0.002985 0.000000 0.001222 0.000000
# 2 -0.001157 0.010814 -0.002037 0.000000 -0.000931 0.000000
# 3 -0.002985 -0.002037 0.009768 0.000000 -0.002404 0.000000
# 4 0.000000 0.000000 0.000000 0.026908 0.000000 0.005476
# 5 0.001222 -0.000931 -0.002404 0.000000 0.029928 0.000000
# 6 0.000000 0.000000 0.000000 0.005476 0.000000 0.030983
#
#
# Mechanical properties :
#
#
# Convention : Reuss Voigt Hill
#
# Bulk Modulus (GPa) = 51.62157 53.13294 52.37726
# Shear Modulus (GPa) = 36.13601 37.45730 36.79665
#
# Velocity S-wave (km/s) = 3.92307 3.99415 3.95877
# Velocity P-wave (km/s) = 6.51970 6.62575 6.57294
#
# Compressibility (1/GPa) = 0.01937175
#
# Stress axis : x y z
#
# Youngs Moduli (GPa) = 89.69698 92.47311 102.37452
#
# Poissons Ratio (x) = 0.10702 0.30558
# Poissons Ratio (y) = 0.10381 0.20856
# Poissons Ratio (z) = 0.26774 0.18839
#
# Static dielectric constant tensor:
#      x y z
#    x 4.309920 0.000000 -0.599350 
#    y 0.000000 4.470810 0.000000 
#    z -0.599350 0.000000 3.548550 
# 
# 
# High freq. dielectric constant tensor:
#      x y z
#    x 1.933830 0.000000 -0.009070 
#    y 0.000000 1.935520 0.000000 
#    z -0.009070 0.000000 1.927610 
# 
# From -- ./inp_files/163300.got.cif
#   From: 2010.06.25/outbox.cif.g09.slc.cpg/sg15_82_cif.got.tgz:163300.got - 2010.06.28 07:06:18.
