data_PCOD8153694
_publ_section_title
;
Structure prediction by ZEFSAII (Michael W. Deem and Ramdas Pophale) SiO2 
 PCOD8153694
Probable space group: C 2/C
;
_chemical_formula_sum "Si O2"
_cell_formula_units_Z 40
_cell_length_a 16.680269
_cell_length_b 9.912207
_cell_length_c 26.284772
_cell_angle_alpha 90.000000
_cell_angle_beta 24.432395
_cell_angle_gamma 90.000000
_cell_volume 1797.539260
_symmetry_space_group_name_H-M "C 2/C"
_symmetry_group_IT_number 15
_symmetry_cell_setting 'monoclinic'
loop_
_space_group_symop_operation_xyz
x,y,z
-x,y,1/2-z
-x,-y,-z
x,-y,1/2+z
1/2+x,1/2+y,z
1/2-x,1/2+y,1/2-z
1/2-x,1/2-y,-z
1/2+x,1/2-y,1/2+z
loop_
_atom_site_type_symbol
_atom_site_label
_atom_site_fract_x
_atom_site_fract_y
_atom_site_fract_z
Si Si1 0.148378 0.952302 0.060496
Si Si2 0.650708 0.611436 0.394022
Si Si3 0.413383 0.792422 0.976907
Si Si4 0.847979 0.836583 0.721503
Si Si5 0.505812 0.083253 0.803611
O O1 0.066348 0.828820 0.075052
O O2 0.254901 0.900383 0.049705
O O3 0.967593 0.045877 0.181203
O O4 0.290672 0.043651 0.944306
O O5 0.500000 0.500000 0.500000
O O6 0.651320 0.739708 0.430747
O O7 0.591986 0.662172 0.372328
O O8 0.866980 0.552365 0.268155
O O9 0.620985 0.865464 0.860899
O O10 0.901012 0.691218 0.712732
O O11 0.500000 0.143091 0.750000
#
# Coordination Sequence:
#
# PCOD8153694 Si02
#       5
#     8   8   8   8   8
#     4  11  24  44  68 107 142 182 238 298 353 421
#     4  12  22  45  74 104 137 195 243 284 364 432
#     4  11  24  44  75 104 144 189 239 296 357 427
#     4  12  24  43  74 107 143 181 244 301 349 428
#     4  12  23  43  74 101 140 192 238 296 357 426
#
# _framework density 22.252644
#
# number of rings (size 3 to 8) (size 9 to 14) (size 15 to 20)
#    0.000    0.400    8.000    0.600    0.000    0.000 
#    0.000    5.000    0.000    0.000    0.000    0.000 
#    0.000    0.000    0.000    0.000    0.000    0.000 
#
# Total GULP energy -248159.446477 kJ/mol
# GULP energy per Si atom -12407.972324 kJ/mol
# Density = 2.220200 g / cm^3
# Si number density = 22.252644 Si / 1000 Ang^3
#
#
#
# Elastic Constant Matrix: (Units=GPa)
#
#
# Indices 1 2 3 4 5 6 
#
# 1 147.7812 70.6281 64.7926 0.0007 1.2039 -0.0006
# 2 70.6281 86.1774 55.9759 -0.0044 -3.0879 -0.0007
# 3 64.7926 55.9759 94.4241 0.0006 -23.8638 0.0007
# 4 0.0007 -0.0044 0.0006 45.6122 0.0027 -8.3080
# 5 1.2039 -3.0879 -23.8638 0.0027 44.6906 -0.0023
# 6 -0.0006 -0.0007 0.0007 -8.3080 -0.0023 46.2391
#
#
#
# Elastic Compliance Matrix: (Units=1/GPa)
#
#
# Indices 1 2 3 4 5 6 
#
# 1 0.012424 -0.006779 -0.005444 -0.000001 -0.003710 0.000000
# 2 -0.006779 0.023767 -0.010377 0.000003 -0.003716 0.000001
# 3 -0.005444 -0.010377 0.023506 -0.000002 0.011981 0.000000
# 4 -0.000001 0.000003 -0.000002 0.022666 -0.000002 0.004072
# 5 -0.003710 -0.003716 0.011981 -0.000002 0.028617 0.000001
# 6 0.000000 0.000001 0.000000 0.004072 0.000001 0.022358
#
#
# Mechanical properties :
#
#
# Convention : Reuss Voigt Hill
#
# Bulk Modulus (GPa) = 68.98169 79.01954 74.00061
# Shear Modulus (GPa) = 27.26750 36.44080 31.85415
#
# Velocity S-wave (km/s) = 3.50431 4.05111 3.78759
# Velocity P-wave (km/s) = 6.88769 7.58085 7.24256
#
# Compressibility (1/GPa) = 0.01449660
#
# Stress axis : x y z
#
# Youngs Moduli (GPa) = 80.49233 42.07565 42.54295
#
# Poissons Ratio (x) = 0.28522 0.23160
# Poissons Ratio (y) = 0.54564 0.44147
# Poissons Ratio (z) = 0.43820 0.43662
#
# Static dielectric constant tensor:
#      x y z
#    x 4.265050 -0.000010 -0.076150 
#    y -0.000010 3.929640 0.000020 
#    z -0.076150 0.000020 4.106900 
# 
# 
# High freq. dielectric constant tensor:
#      x y z
#    x 1.890140 0.000000 -0.017590 
#    y 0.000000 1.862680 0.000000 
#    z -0.017590 0.000000 1.875730 
# 
# From -- ./inp_files/273754.got.cif
#   From: 2010.06.25/outbox.cif.g09.slc.cpg/sg15_137_cif.got.tgz:273754.got - 2010.06.28 07:06:18.
