data_PCOD8153374
_publ_section_title
;
Structure prediction by ZEFSAII (Michael W. Deem and Ramdas Pophale) SiO2 
 PCOD8153374
Probable space group: C 2/C
;
_chemical_formula_sum "Si O2"
_cell_formula_units_Z 48
_cell_length_a 12.590954
_cell_length_b 18.046362
_cell_length_c 12.708479
_cell_angle_alpha 90.000000
_cell_angle_beta 49.772685
_cell_angle_gamma 90.000000
_cell_volume 2204.673202
_symmetry_space_group_name_H-M "C 2/C"
_symmetry_group_IT_number 15
_symmetry_cell_setting 'monoclinic'
loop_
_space_group_symop_operation_xyz
x,y,z
-x,y,1/2-z
-x,-y,-z
x,-y,1/2+z
1/2+x,1/2+y,z
1/2-x,1/2+y,1/2-z
1/2-x,1/2-y,-z
1/2+x,1/2-y,1/2+z
loop_
_atom_site_type_symbol
_atom_site_label
_atom_site_fract_x
_atom_site_fract_y
_atom_site_fract_z
Si Si1 0.152451 0.090097 0.118461
Si Si2 0.347124 0.967801 0.086876
Si Si3 0.624400 0.843216 0.600066
Si Si4 0.624486 0.257585 0.741392
Si Si5 0.816777 0.880904 0.139972
Si Si6 0.913244 0.804125 0.500735
O O1 0.188019 0.171457 0.140586
O O2 0.000000 0.064748 0.250000
O O3 0.261782 0.034144 0.094060
O O4 0.159599 0.085478 0.989059
O O5 0.277127 0.941352 0.240275
O O6 0.344466 0.896094 0.016224
O O7 0.500000 0.000000 0.000000
O O8 0.500000 0.876046 0.750000
O O9 0.761460 0.840050 0.584812
O O10 0.575220 0.763821 0.587621
O O11 0.500000 0.224004 0.750000
O O12 0.743321 0.198237 0.680281
O O13 0.563255 0.280099 0.893797
O O14 0.965136 0.864210 0.102598
#
# Coordination Sequence:
#
# PCOD8153374 Si02
#       6
#     8   8   8   8   8   8
#     4  11  27  47  72 109 141 194 247 304 369 441
#     4  12  32  47  72 108 149 199 240 304 383 442
#     4  11  27  47  74 105 152 190 246 308 362 448
#     4  11  23  45  74 111 142 186 246 307 358 437
#     4  12  26  46  80 103 151 192 246 313 361 445
#     4  11  24  46  77 112 138 194 252 301 369 426
#
# _framework density 21.771934000000002
#
# number of rings (size 3 to 8) (size 9 to 14) (size 15 to 20)
#    0.000    0.667    5.000    1.500   14.000    0.667 
#    0.000    0.000    0.000    0.000    0.000    0.000 
#    0.000    0.000    0.000    0.000    0.000    0.000 
#
# Total GULP energy -297711.766538 kJ/mol
# GULP energy per Si atom -12404.656939 kJ/mol
# Density = 2.172238 g / cm^3
# Si number density = 21.771934 Si / 1000 Ang^3
#
#
#
# Elastic Constant Matrix: (Units=GPa)
#
#
# Indices 1 2 3 4 5 6 
#
# 1 147.5547 52.1656 52.8323 -0.0001 -18.2165 0.0000
# 2 52.1656 68.3211 23.6660 0.0000 -17.1313 0.0000
# 3 52.8323 23.6660 128.8592 -0.0001 -3.4911 0.0000
# 4 -0.0001 0.0000 -0.0001 35.7557 0.0001 -14.3718
# 5 -18.2165 -17.1313 -3.4911 0.0001 40.1152 0.0000
# 6 0.0000 0.0000 0.0000 -14.3718 0.0000 34.7541
#
#
#
# Elastic Compliance Matrix: (Units=1/GPa)
#
#
# Indices 1 2 3 4 5 6 
#
# 1 0.010335 -0.006425 -0.003012 0.000000 0.001687 0.000000
# 2 -0.006425 0.021483 -0.001144 0.000000 0.006157 0.000000
# 3 -0.003012 -0.001144 0.009177 0.000000 -0.001058 0.000000
# 4 0.000000 0.000000 0.000000 0.033543 0.000000 0.013871
# 5 0.001687 0.006157 -0.001058 0.000000 0.028232 0.000000
# 6 0.000000 0.000000 0.000000 0.013871 0.000000 0.034510
#
#
# Mechanical properties :
#
#
# Convention : Reuss Voigt Hill
#
# Bulk Modulus (GPa) = 50.42241 66.89586 58.65914
# Shear Modulus (GPa) = 30.29346 36.52975 33.41160
#
# Velocity S-wave (km/s) = 3.73419 4.10058 3.92167
# Velocity P-wave (km/s) = 6.46544 7.29467 6.89253
#
# Compressibility (1/GPa) = 0.01983245
#
# Stress axis : x y z
#
# Youngs Moduli (GPa) = 96.75596 46.54901 108.97110
#
# Poissons Ratio (x) = 0.29908 0.32819
# Poissons Ratio (y) = 0.62166 0.12471
# Poissons Ratio (z) = 0.29140 0.05327
#
# Static dielectric constant tensor:
#      x y z
#    x 4.052400 0.000000 0.046310 
#    y 0.000000 3.914840 0.000000 
#    z 0.046310 0.000000 4.003980 
# 
# 
# High freq. dielectric constant tensor:
#      x y z
#    x 1.870220 0.000000 -0.001620 
#    y 0.000000 1.848110 0.000000 
#    z -0.001620 0.000000 1.872060 
# 
# From -- ./inp_files/89384.got.cif
#   From: 2010.06.25/outbox.cif.g09.slc.cpg/sg15_45_cif.got.tgz:89384.got - 2010.06.28 07:06:18.
