data_PCOD8153504
_publ_section_title
;
Structure prediction by ZEFSAII (Michael W. Deem and Ramdas Pophale) SiO2 
 PCOD8153504
Probable space group: C 2/C
;
_chemical_formula_sum "Si O2"
_cell_formula_units_Z 60
_cell_length_a 17.059993
_cell_length_b 21.860167
_cell_length_c 14.361109
_cell_angle_alpha 90.000000
_cell_angle_beta 31.044928
_cell_angle_gamma 90.000000
_cell_volume 2762.014176
_symmetry_space_group_name_H-M "C 2/C"
_symmetry_group_IT_number 15
_symmetry_cell_setting 'monoclinic'
loop_
_space_group_symop_operation_xyz
x,y,z
-x,y,1/2-z
-x,-y,-z
x,-y,1/2+z
1/2+x,1/2+y,z
1/2-x,1/2+y,1/2-z
1/2-x,1/2-y,-z
1/2+x,1/2-y,1/2+z
loop_
_atom_site_type_symbol
_atom_site_label
_atom_site_fract_x
_atom_site_fract_y
_atom_site_fract_z
Si Si1 0.958892 0.620031 0.393700
Si Si2 0.723429 0.345523 0.869998
Si Si3 0.000000 0.177391 0.750000
Si Si4 0.166561 0.517505 0.865766
Si Si5 0.213372 0.207684 0.694118
Si Si6 0.836307 0.101499 0.256865
Si Si7 0.320071 0.817460 0.430147
Si Si8 0.171576 0.116895 0.909106
O O1 0.846501 0.568064 0.541986
O O2 0.867915 0.683542 0.489560
O O3 0.000000 0.601428 0.250000
O O4 0.112575 0.622294 0.297246
O O5 0.745991 0.275522 0.817440
O O6 0.631848 0.374369 0.879225
O O7 0.632576 0.359534 0.059445
O O8 0.082675 0.214984 0.748103
O O9 0.257881 0.464117 0.824799
O O10 0.259836 0.550603 0.688158
O O11 0.000000 0.500000 0.000000
O O12 0.163628 0.165855 0.832054
O O13 0.733126 0.145667 0.424374
O O14 0.008036 0.100973 0.121510
O O15 0.500000 0.810612 0.250000
O O16 0.250000 0.750000 0.500000
O O17 0.275896 0.854087 0.382586
#
# Coordination Sequence:
#
# PCOD8153504 Si02
#       8
#     8   8   4   8   8   8   8   8
#     4  11  24  40  63  96 132 181 228 282 338 423
#     4  12  24  39  66  99 143 180 232 276 354 417
#     4  12  22  40  60 100 138 184 222 274 338 430
#     4  11  24  45  69  98 138 184 244 296 355 424
#     4  11  24  38  66  99 143 180 225 284 350 425
#     4  12  25  47  72 102 140 193 238 303 367 428
#     4  12  27  48  78 111 145 187 250 311 379 445
#     4  11  25  47  71 104 143 185 243 301 368 437
#
# _framework density 21.723277
#
# number of rings (size 3 to 8) (size 9 to 14) (size 15 to 20)
#    0.000    0.533    4.000    4.400    3.733    1.600 
#    0.000    0.000    0.000    0.000    0.000    0.000 
#    0.000    0.000    0.000    0.000    0.000    0.000 
#
# Total GULP energy -371857.049388 kJ/mol
# GULP energy per Si atom -12395.234980 kJ/mol
# Density = 2.167383 g / cm^3
# Si number density = 21.723277 Si / 1000 Ang^3
#
#
#
# Elastic Constant Matrix: (Units=GPa)
#
#
# Indices 1 2 3 4 5 6 
#
# 1 92.2282 31.9193 38.7076 -0.0012 -10.2849 0.0129
# 2 31.9193 128.2931 55.6768 0.0677 -3.1852 -0.0314
# 3 38.7076 55.6768 144.9010 0.0536 -17.4937 -0.0163
# 4 -0.0012 0.0677 0.0536 37.0856 -0.0486 -6.6596
# 5 -10.2849 -3.1852 -17.4937 -0.0486 45.4550 0.0087
# 6 0.0129 -0.0314 -0.0163 -6.6596 0.0087 35.7586
#
#
#
# Elastic Compliance Matrix: (Units=1/GPa)
#
#
# Indices 1 2 3 4 5 6 
#
# 1 0.012773 -0.002097 -0.002386 0.000009 0.001825 -0.000006
# 2 -0.002097 0.009724 -0.003305 -0.000013 -0.001065 0.000006
# 3 -0.002386 -0.003305 0.009140 -0.000004 0.002746 0.000001
# 4 0.000009 -0.000013 -0.000004 0.027898 0.000029 0.005196
# 5 0.001825 -0.001065 0.002746 0.000029 0.023395 -0.000001
# 6 -0.000006 0.000006 0.000001 0.005196 -0.000001 0.028933
#
#
# Mechanical properties :
#
#
# Convention : Reuss Voigt Hill
#
# Bulk Modulus (GPa) = 62.26029 68.66996 65.46513
# Shear Modulus (GPa) = 37.65257 39.60110 38.62683
#
# Velocity S-wave (km/s) = 4.16779 4.27427 4.22136
# Velocity P-wave (km/s) = 7.20302 7.48592 7.34583
#
# Compressibility (1/GPa) = 0.01606160
#
# Stress axis : x y z
#
# Youngs Moduli (GPa) = 78.28768 102.83610 109.40911
#
# Poissons Ratio (x) = 0.21567 0.26105
# Poissons Ratio (y) = 0.16419 0.36157
# Poissons Ratio (z) = 0.18680 0.33985
#
# Static dielectric constant tensor:
#      x y z
#    x 3.886030 0.000060 -0.060660 
#    y 0.000060 3.915970 -0.000140 
#    z -0.060660 -0.000140 4.026800 
# 
# 
# High freq. dielectric constant tensor:
#      x y z
#    x 1.859030 -0.000010 -0.010400 
#    y -0.000010 1.846760 0.000010 
#    z -0.010400 0.000010 1.876290 
# 
# From -- ./inp_files/164111.got.cif
#   From: 2010.06.25/outbox.cif.g09.slc.cpg/sg15_83_cif.got.tgz:164111.got - 2010.06.28 07:06:18.
