data_PCOD8153705
_publ_section_title
;
Structure prediction by ZEFSAII (Michael W. Deem and Ramdas Pophale) SiO2 
 PCOD8153705
Probable space group: C 2/C
;
_chemical_formula_sum "Si O2"
_cell_formula_units_Z 40
_cell_length_a 8.428852
_cell_length_b 24.859123
_cell_length_c 16.237983
_cell_angle_alpha 90.000000
_cell_angle_beta 145.720152
_cell_angle_gamma 90.000000
_cell_volume 1916.356495
_symmetry_space_group_name_H-M "C 2/C"
_symmetry_group_IT_number 15
_symmetry_cell_setting 'monoclinic'
loop_
_space_group_symop_operation_xyz
x,y,z
-x,y,1/2-z
-x,-y,-z
x,-y,1/2+z
1/2+x,1/2+y,z
1/2-x,1/2+y,1/2-z
1/2-x,1/2-y,-z
1/2+x,1/2-y,1/2+z
loop_
_atom_site_type_symbol
_atom_site_label
_atom_site_fract_x
_atom_site_fract_y
_atom_site_fract_z
Si Si1 0.712796 0.296586 0.915743
Si Si2 0.242203 0.898715 0.030112
Si Si3 0.306331 0.290511 0.096670
Si Si4 0.603463 0.605202 0.656599
Si Si5 0.691079 0.500641 0.404727
O O1 0.500000 0.279832 0.750000
O O2 0.750000 0.250000 0.000000
O O3 0.613967 0.351280 0.918179
O O4 0.011848 0.310161 0.005384
O O5 0.579519 0.898676 0.175268
O O6 0.099162 0.891497 0.056794
O O7 0.150769 0.957209 0.960654
O O8 0.500000 0.262318 0.250000
O O9 0.477416 0.340788 0.137564
O O10 0.250000 0.250000 0.000000
O O11 0.409897 0.557018 0.606080
O O12 0.500000 0.522219 0.250000
O O13 0.000000 0.500000 0.500000
#
# Coordination Sequence:
#
# PCOD8153705 Si02
#       5
#     8   8   8   8   8
#     4  12  26  44  69 103 137 178 227 279 338 401
#     4  11  24  44  69  98 138 175 226 279 337 404
#     4  12  24  44  70  99 134 176 228 274 334 403
#     4  11  24  44  69  99 135 181 220 279 345 395
#     4  12  23  43  69  99 134 175 227 276 336 404
#
# _framework density 20.872945000000001
#
# number of rings (size 3 to 8) (size 9 to 14) (size 15 to 20)
#    0.000    0.400    4.000    5.400    2.800    0.000 
#    0.000    2.000    0.000    0.000    0.000    0.000 
#    0.000    0.000    0.000    0.000    0.000    0.000 
#
# Total GULP energy -248035.012244 kJ/mol
# GULP energy per Si atom -12401.750612 kJ/mol
# Density = 2.082544 g / cm^3
# Si number density = 20.872945 Si / 1000 Ang^3
#
#
#
# Elastic Constant Matrix: (Units=GPa)
#
#
# Indices 1 2 3 4 5 6 
#
# 1 125.5904 39.2245 59.6982 0.0000 -8.8140 0.0000
# 2 39.2245 114.1340 35.6364 0.0001 -23.6216 0.0000
# 3 59.6982 35.6364 141.3594 -0.0011 -21.6188 -0.0074
# 4 0.0000 0.0001 -0.0011 36.8929 -0.0002 -10.0579
# 5 -8.8140 -23.6216 -21.6188 -0.0002 45.0835 -0.0005
# 6 0.0000 0.0000 -0.0074 -10.0579 -0.0005 -6.8118
#
#
#
# Elastic Compliance Matrix: (Units=1/GPa)
#
#
# Indices 1 2 3 4 5 6 
#
# 1 0.010605 -0.002651 -0.003999 0.000001 -0.001233 0.000003
# 2 -0.002651 0.010946 -0.000909 0.000000 0.004781 0.000000
# 3 -0.003999 -0.000909 0.009496 -0.000002 0.003296 -0.000008
# 4 0.000001 0.000000 -0.000002 0.019326 -0.000001 -0.028536
# 5 -0.001233 0.004781 0.003296 -0.000001 0.026025 -0.000004
# 6 0.000003 0.000000 -0.000008 -0.028536 -0.000004 -0.104670
#
#
# Mechanical properties :
#
#
# Convention : Reuss Voigt Hill
#
# Bulk Modulus (GPa) = 62.77678 72.24468 67.51073
# Shear Modulus (GPa) = -637.33261 31.46790 -302.93235
#
# Velocity S-wave (km/s) = -17.49291 3.88699 -12.06013
# Velocity P-wave (km/s) = 19.43866 7.40484 12.70886
#
# Compressibility (1/GPa) = 0.01592946
#
# Stress axis : x y z
#
# Youngs Moduli (GPa) = 94.29840 91.35759 105.30755
#
# Poissons Ratio (x) = 0.24221 0.42110
# Poissons Ratio (y) = 0.25001 0.09568
# Poissons Ratio (z) = 0.37708 0.08301
#
# Static dielectric constant tensor:
#      x y z
#    x 4.297940 -0.000020 -0.350590 
#    y -0.000020 3.779960 0.000010 
#    z -0.350590 0.000010 4.091550 
# 
# 
# High freq. dielectric constant tensor:
#      x y z
#    x 1.841170 0.000000 -0.007050 
#    y 0.000000 1.824490 0.000000 
#    z -0.007050 0.000000 1.824600 
# 
# From -- ./inp_files/23446.got.cif
#   From: 2010.06.25/outbox.cif.g09.slc.cpg/sg15_12_cif.got.tgz:23446.got - 2010.06.28 07:06:18.
