data_PCOD8153366
_publ_section_title
;
Structure prediction by ZEFSAII (Michael W. Deem and Ramdas Pophale) SiO2 
 PCOD8153366
Probable space group: C 2/C
;
_chemical_formula_sum "Si O2"
_cell_formula_units_Z 44
_cell_length_a 16.427362
_cell_length_b 8.043685
_cell_length_c 20.151945
_cell_angle_alpha 90.000000
_cell_angle_beta 127.218217
_cell_angle_gamma 90.000000
_cell_volume 2120.494251
_symmetry_space_group_name_H-M "C 2/C"
_symmetry_group_IT_number 15
_symmetry_cell_setting 'monoclinic'
loop_
_space_group_symop_operation_xyz
x,y,z
-x,y,1/2-z
-x,-y,-z
x,-y,1/2+z
1/2+x,1/2+y,z
1/2-x,1/2+y,1/2-z
1/2-x,1/2-y,-z
1/2+x,1/2-y,1/2+z
loop_
_atom_site_type_symbol
_atom_site_label
_atom_site_fract_x
_atom_site_fract_y
_atom_site_fract_z
Si Si1 0.864988 0.346221 0.820474
Si Si2 0.500000 0.320042 0.750000
Si Si3 0.501308 0.303577 0.498067
Si Si4 0.318375 0.463960 0.208804
Si Si5 0.191424 0.362121 0.022732
Si Si6 0.536849 0.892409 0.389176
O O1 0.906297 0.264602 0.908693
O O2 0.758140 0.436480 0.781410
O O3 0.847883 0.210520 0.755728
O O4 0.945343 0.478232 0.831629
O O5 0.579296 0.430563 0.748393
O O6 0.441322 0.206548 0.667544
O O7 0.500000 0.500000 0.500000
O O8 0.607129 0.245972 0.518606
O O9 0.495197 0.232908 0.568656
O O10 0.271960 0.434897 0.113829
O O11 0.250000 0.250000 0.000000
O O12 0.141175 0.514911 0.958911
#
# Coordination Sequence:
#
# PCOD8153366 Si02
#       6
#     8   4   8   8   8   8
#     4  11  24  45  72  93 137 180 232 280 336 417
#     4  12  30  40  68 106 142 176 230 288 350 404
#     4  11  23  45  73  98 131 186 228 276 342 416
#     4  12  26  45  67 105 136 180 231 285 343 409
#     4  11  26  44  71 100 138 180 233 285 345 406
#     4  11  24  50  66 100 138 186 227 284 341 414
#
# _framework density 20.749880999999998
#
# number of rings (size 3 to 8) (size 9 to 14) (size 15 to 20)
#    0.000    0.727    3.636    3.273   12.727    2.182 
#    0.000    0.000    0.000    0.000    0.000    0.000 
#    0.000    0.000    0.000    0.000    0.000    0.000 
#
# Total GULP energy -272980.088301 kJ/mol
# GULP energy per Si atom -12408.185832 kJ/mol
# Density = 2.070265 g / cm^3
# Si number density = 20.749881 Si / 1000 Ang^3
#
#
#
# Elastic Constant Matrix: (Units=GPa)
#
#
# Indices 1 2 3 4 5 6 
#
# 1 64.6254 35.5335 39.0868 0.0000 -9.3219 0.0000
# 2 35.5335 140.7784 55.4372 0.0000 -5.9720 0.0000
# 3 39.0868 55.4372 116.6288 0.0000 -4.7376 0.0000
# 4 0.0000 0.0000 0.0000 37.0319 0.0000 -12.7674
# 5 -9.3219 -5.9720 -4.7376 0.0000 32.3684 0.0000
# 6 0.0000 0.0000 0.0000 -12.7674 0.0000 40.4812
#
#
#
# Elastic Compliance Matrix: (Units=1/GPa)
#
#
# Indices 1 2 3 4 5 6 
#
# 1 0.021095 -0.002972 -0.005465 0.000000 0.004727 0.000000
# 2 -0.002972 0.009191 -0.003359 0.000000 0.000348 0.000000
# 3 -0.005465 -0.003359 0.011984 0.000000 -0.000439 0.000000
# 4 0.000000 0.000000 0.000000 0.030298 0.000000 0.009556
# 5 0.004727 0.000348 -0.000439 0.000000 0.032256 0.000000
# 6 0.000000 0.000000 0.000000 0.009556 0.000000 0.027717
#
#
# Mechanical properties :
#
#
# Convention : Reuss Voigt Hill
#
# Bulk Modulus (GPa) = 53.53562 64.68308 59.10935
# Shear Modulus (GPa) = 30.79605 34.77463 32.78534
#
# Velocity S-wave (km/s) = 3.85665 4.09821 3.97927
# Velocity P-wave (km/s) = 6.75930 7.32354 7.04707
#
# Compressibility (1/GPa) = 0.01867915
#
# Stress axis : x y z
#
# Youngs Moduli (GPa) = 47.40426 108.80415 83.44222
#
# Poissons Ratio (x) = 0.32336 0.45602
# Poissons Ratio (y) = 0.14088 0.28024
# Poissons Ratio (z) = 0.25907 0.36542
#
# Static dielectric constant tensor:
#      x y z
#    x 3.698030 0.000000 0.071470 
#    y 0.000000 3.909660 0.000000 
#    z 0.071470 0.000000 3.915030 
# 
# 
# High freq. dielectric constant tensor:
#      x y z
#    x 1.812080 0.000000 0.001750 
#    y 0.000000 1.829440 0.000000 
#    z 0.001750 0.000000 1.826940 
# 
# From -- ./inp_files/202553.got.cif
#   From: 2010.06.25/outbox.cif.g09.slc.cpg/sg15_102_cif.got.tgz:202553.got - 2010.06.28 07:06:18.
