data_PCOD8153395
_publ_section_title
;
Structure prediction by ZEFSAII (Michael W. Deem and Ramdas Pophale) SiO2 
 PCOD8153395
Probable space group: C 2/C
;
_chemical_formula_sum "Si O2"
_cell_formula_units_Z 52
_cell_length_a 16.501595
_cell_length_b 18.639631
_cell_length_c 8.148482
_cell_angle_alpha 90.000000
_cell_angle_beta 102.562755
_cell_angle_gamma 90.000000
_cell_volume 2446.333882
_symmetry_space_group_name_H-M "C 2/C"
_symmetry_group_IT_number 15
_symmetry_cell_setting 'monoclinic'
loop_
_space_group_symop_operation_xyz
x,y,z
-x,y,1/2-z
-x,-y,-z
x,-y,1/2+z
1/2+x,1/2+y,z
1/2-x,1/2+y,1/2-z
1/2-x,1/2-y,-z
1/2+x,1/2-y,1/2+z
loop_
_atom_site_type_symbol
_atom_site_label
_atom_site_fract_x
_atom_site_fract_y
_atom_site_fract_z
Si Si1 0.776330 0.556725 0.783245
Si Si2 0.269479 0.408449 0.596067
Si Si3 0.500000 0.836677 0.750000
Si Si4 0.716726 0.211074 0.640122
Si Si5 0.595301 0.289818 0.790413
Si Si6 0.463019 0.929984 0.408977
Si Si7 0.648189 0.210948 0.125437
O O1 0.725998 0.488190 0.825662
O O2 0.733351 0.581267 0.598237
O O3 0.774989 0.627141 0.899762
O O4 0.873092 0.541682 0.813087
O O5 0.350917 0.362866 0.679685
O O6 0.186024 0.368875 0.621144
O O7 0.473949 0.875922 0.567716
O O8 0.418073 0.789770 0.754580
O O9 0.750000 0.250000 0.500000
O O10 0.624315 0.239636 0.648544
O O11 0.777449 0.232300 0.816884
O O12 0.500000 0.314491 0.750000
O O13 0.602460 0.235788 0.943768
O O14 0.500000 0.901662 0.250000
O O15 0.500000 0.000000 0.500000
#
# Coordination Sequence:
#
# PCOD8153395 Si02
#       7
#     8   8   4   8   8   8   8
#     4  12  24  42  67  95 138 191 227 286 358 428
#     4  11  25  45  68 100 139 187 236 287 360 436
#     4  12  26  38  66 106 140 180 234 298 354 424
#     4  11  24  43  70 101 132 182 240 288 354 431
#     4  11  25  48  75  98 138 189 238 306 365 415
#     4  12  25  40  59  99 147 187 226 279 358 440
#     4  11  23  46  66  99 139 179 236 292 352 436
#
# _framework density 21.256298000000001
#
# number of rings (size 3 to 8) (size 9 to 14) (size 15 to 20)
#    0.000    0.615    3.846    4.615   10.769    0.000 
#    0.000    0.769    1.692    0.000    0.000    0.000 
#    0.000    0.000    0.000    0.000    0.000    0.000 
#
# Total GULP energy -322116.920115 kJ/mol
# GULP energy per Si atom -12389.112312 kJ/mol
# Density = 2.120792 g / cm^3
# Si number density = 21.256298 Si / 1000 Ang^3
#
#
#
# Elastic Constant Matrix: (Units=GPa)
#
#
# Indices 1 2 3 4 5 6 
#
# 1 135.5086 60.6233 37.3693 0.0000 -11.6238 0.0000
# 2 60.6233 156.9323 30.9022 0.0000 -9.3446 0.0000
# 3 37.3693 30.9022 96.3810 0.0000 -18.0799 0.0000
# 4 0.0000 0.0000 0.0000 33.5630 0.0000 -5.4097
# 5 -11.6238 -9.3446 -18.0799 0.0000 36.4823 0.0000
# 6 0.0000 0.0000 0.0000 -5.4097 0.0000 25.4617
#
#
#
# Elastic Compliance Matrix: (Units=1/GPa)
#
#
# Indices 1 2 3 4 5 6 
#
# 1 0.009563 -0.003140 -0.002514 0.000000 0.000997 0.000000
# 2 -0.003140 0.007850 -0.001224 0.000000 0.000404 0.000000
# 3 -0.002514 -0.001224 0.012716 0.000000 0.005187 0.000000
# 4 0.000000 0.000000 0.000000 0.030851 0.000000 0.006555
# 5 0.000997 0.000404 0.005187 0.000000 0.030402 0.000000
# 6 0.000000 0.000000 0.000000 0.006555 0.000000 0.040667
#
#
# Mechanical properties :
#
#
# Convention : Reuss Voigt Hill
#
# Bulk Modulus (GPa) = 61.07480 71.84572 66.46026
# Shear Modulus (GPa) = 33.05499 36.42987 34.74243
#
# Velocity S-wave (km/s) = 3.94771 4.14435 4.04722
# Velocity P-wave (km/s) = 7.04089 7.53485 7.29205
#
# Compressibility (1/GPa) = 0.01637337
#
# Stress axis : x y z
#
# Youngs Moduli (GPa) = 104.56834 127.38639 78.64276
#
# Poissons Ratio (x) = 0.39997 0.19772
# Poissons Ratio (y) = 0.32833 0.09624
# Poissons Ratio (z) = 0.26290 0.15590
#
# Static dielectric constant tensor:
#      x y z
#    x 4.425320 0.000000 0.144080 
#    y 0.000000 5.334500 0.000000 
#    z 0.144080 0.000000 3.596940 
# 
# 
# High freq. dielectric constant tensor:
#      x y z
#    x 1.825540 0.000000 -0.000500 
#    y 0.000000 1.834980 0.000000 
#    z -0.000500 0.000000 1.847970 
# 
# From -- ./inp_files/48615.got.cif
#   From: 2010.06.25/outbox.cif.g09.slc.cpg/sg15_25_cif.got.tgz:48615.got - 2010.06.28 07:06:18.
