data_PCOD8153906
_publ_section_title
;
Structure prediction by ZEFSAII (Michael W. Deem and Ramdas Pophale) SiO2 
 PCOD8153906
Probable space group: C 2/C
;
_chemical_formula_sum "Si O2"
_cell_formula_units_Z 48
_cell_length_a 28.785343
_cell_length_b 11.337782
_cell_length_c 14.715455
_cell_angle_alpha 90.000000
_cell_angle_beta 152.054882
_cell_angle_gamma 90.000000
_cell_volume 2250.604655
_symmetry_space_group_name_H-M "C 2/C"
_symmetry_group_IT_number 15
_symmetry_cell_setting 'monoclinic'
loop_
_space_group_symop_operation_xyz
x,y,z
-x,y,1/2-z
-x,-y,-z
x,-y,1/2+z
1/2+x,1/2+y,z
1/2-x,1/2+y,1/2-z
1/2-x,1/2-y,-z
1/2+x,1/2-y,1/2+z
loop_
_atom_site_type_symbol
_atom_site_label
_atom_site_fract_x
_atom_site_fract_y
_atom_site_fract_z
Si Si1 0.424617 0.749239 0.544952
Si Si2 0.076569 0.604928 0.639157
Si Si3 0.260503 0.069805 0.028649
Si Si4 0.768741 0.768273 0.179824
Si Si5 0.965894 0.976840 0.339617
Si Si6 0.481461 0.724787 0.120666
O O1 0.500000 0.804264 0.750000
O O2 0.410835 0.839649 0.438519
O O3 0.317567 0.724710 0.403105
O O4 0.465576 0.623660 0.584253
O O5 0.181343 0.553357 0.857210
O O6 0.000000 0.500000 0.500000
O O7 0.036846 0.703170 0.638479
O O8 0.305903 0.168436 0.173633
O O9 0.269063 0.114931 0.939313
O O10 0.146529 0.063435 0.858234
O O11 0.865063 0.794894 0.405175
O O12 0.000000 0.000000 0.500000
O O13 0.971346 0.095483 0.291380
O O14 0.500000 0.787499 0.250000
#
# Coordination Sequence:
#
# PCOD8153906 Si02
#       6
#     8   8   8   8   8   8
#     4  12  25  44  75 103 139 190 244 286 353 429
#     4  12  26  46  70 107 146 182 234 297 356 416
#     4  11  24  46  74 100 142 187 236 290 349 427
#     4  11  24  46  73 102 138 192 237 280 357 428
#     4  12  24  48  74 101 140 189 236 294 349 423
#     4  12  28  48  71 106 149 182 235 303 356 412
#
# _framework density 21.327603
#
# number of rings (size 3 to 8) (size 9 to 14) (size 15 to 20)
#    0.000    0.333    6.667    1.500    2.333    4.000 
#    0.000    0.000    0.000    0.000    0.000    0.000 
#    0.000    0.000    0.000    0.000    0.000    0.000 
#
# Total GULP energy -297690.849837 kJ/mol
# GULP energy per Si atom -12403.785410 kJ/mol
# Density = 2.127906 g / cm^3
# Si number density = 21.327603 Si / 1000 Ang^3
#
#
#
# Elastic Constant Matrix: (Units=GPa)
#
#
# Indices 1 2 3 4 5 6 
#
# 1 135.2668 46.7018 66.6064 0.0000 -1.5431 0.0000
# 2 46.7018 115.0498 52.8893 0.0000 7.2849 0.0000
# 3 66.6064 52.8893 82.4098 0.0000 -12.9608 0.0000
# 4 0.0000 0.0000 0.0000 39.2603 0.0000 -2.2227
# 5 -1.5431 7.2849 -12.9608 0.0000 43.8873 0.0000
# 6 0.0000 0.0000 0.0000 -2.2227 0.0000 24.6722
#
#
#
# Elastic Compliance Matrix: (Units=1/GPa)
#
#
# Indices 1 2 3 4 5 6 
#
# 1 0.012575 -0.000104 -0.010513 0.000000 -0.002645 0.000000
# 2 -0.000104 0.013283 -0.009216 0.000000 -0.004930 0.000000
# 3 -0.010513 -0.009216 0.028030 0.000000 0.009438 0.000000
# 4 0.000000 0.000000 0.000000 0.025602 0.000000 0.002306
# 5 -0.002645 -0.004930 0.009438 0.000000 0.026298 0.000000
# 6 0.000000 0.000000 0.000000 0.002306 0.000000 0.040739
#
#
# Mechanical properties :
#
#
# Convention : Reuss Voigt Hill
#
# Bulk Modulus (GPa) = 70.31128 73.90239 72.10683
# Shear Modulus (GPa) = 26.18697 32.66587 29.42642
#
# Velocity S-wave (km/s) = 3.50786 3.91784 3.71851
# Velocity P-wave (km/s) = 7.03176 7.42915 7.23318
#
# Compressibility (1/GPa) = 0.01422247
#
# Stress axis : x y z
#
# Youngs Moduli (GPa) = 79.52146 75.28391 35.67567
#
# Poissons Ratio (x) = 0.00785 0.37505
# Poissons Ratio (y) = 0.00829 0.32878
# Poissons Ratio (z) = 0.83599 0.69381
#
# Static dielectric constant tensor:
#      x y z
#    x 4.086510 0.000000 0.039720 
#    y 0.000000 0.810510 0.000000 
#    z 0.039720 0.000000 4.322820 
# 
# 
# High freq. dielectric constant tensor:
#      x y z
#    x 1.849030 0.000000 -0.001370 
#    y 0.000000 1.834100 0.000000 
#    z -0.001370 0.000000 1.849510 
# 
# From -- ./inp_files/152445.got.cif
#   From: 2010.06.25/outbox.cif.g09.slc.cpg/sg15_77_cif.got.tgz:152445.got - 2010.06.28 07:06:18.
