data_PCOD8153711
_publ_section_title
;
Structure prediction by ZEFSAII (Michael W. Deem and Ramdas Pophale) SiO2 
 PCOD8153711
Probable space group: C 2/C
;
_chemical_formula_sum "Si O2"
_cell_formula_units_Z 40
_cell_length_a 17.048522
_cell_length_b 7.597054
_cell_length_c 26.766951
_cell_angle_alpha 90.000000
_cell_angle_beta 148.608258
_cell_angle_gamma 90.000000
_cell_volume 1805.818263
_symmetry_space_group_name_H-M "C 2/C"
_symmetry_group_IT_number 15
_symmetry_cell_setting 'monoclinic'
loop_
_space_group_symop_operation_xyz
x,y,z
-x,y,1/2-z
-x,-y,-z
x,-y,1/2+z
1/2+x,1/2+y,z
1/2-x,1/2+y,1/2-z
1/2-x,1/2-y,-z
1/2+x,1/2-y,1/2+z
loop_
_atom_site_type_symbol
_atom_site_label
_atom_site_fract_x
_atom_site_fract_y
_atom_site_fract_z
Si Si1 0.329218 0.200783 0.469178
Si Si2 0.405194 0.011806 0.652161
Si Si3 0.869808 0.723817 0.375194
Si Si4 0.704364 0.790539 0.031273
Si Si5 0.896934 0.402661 0.328441
O O1 0.207019 0.331983 0.426328
O O2 0.343446 0.251792 0.419032
O O3 0.487141 0.238339 0.584022
O O4 0.278523 0.996329 0.446354
O O5 0.500000 0.085585 0.750000
O O6 0.510711 0.977122 0.661236
O O7 0.321497 0.833576 0.625368
O O8 0.846587 0.520293 0.348071
O O9 0.749118 0.827609 0.276893
O O10 0.038471 0.783363 0.453211
O O11 0.750000 0.750000 0.000000
#
# Coordination Sequence:
#
# PCOD8153711 Si02
#       5
#     8   8   8   8   8
#     4  11  25  47  71 101 145 181 232 292 347 408
#     4  12  25  45  70 105 138 184 236 281 349 421
#     4  11  25  45  70 104 139 184 233 289 351 409
#     4  11  24  45  70 100 139 184 230 285 347 411
#     4  11  24  44  70 101 139 180 231 284 352 412
#
# _framework density 22.150623
#
# number of rings (size 3 to 8) (size 9 to 14) (size 15 to 20)
#    0.000    0.800    6.000    3.000    2.800    4.800 
#    0.000    0.000    0.000    0.000    0.000    0.000 
#    0.000    0.000    0.000    0.000    0.000    0.000 
#
# Total GULP energy -247916.999649 kJ/mol
# GULP energy per Si atom -12395.849982 kJ/mol
# Density = 2.210021 g / cm^3
# Si number density = 22.150623 Si / 1000 Ang^3
#
#
#
# Elastic Constant Matrix: (Units=GPa)
#
#
# Indices 1 2 3 4 5 6 
#
# 1 54.6695 -5.7264 -8.8783 0.0000 3.0310 -0.0001
# 2 -5.7264 64.1262 8.8780 0.0000 25.0678 -0.0005
# 3 -8.8783 8.8780 81.8906 0.0000 7.0074 0.0001
# 4 0.0000 0.0000 0.0000 36.2820 0.0000 -4.1195
# 5 3.0310 25.0678 7.0074 0.0000 38.4314 0.0000
# 6 -0.0001 -0.0005 0.0001 -4.1195 0.0000 29.4944
#
#
#
# Elastic Compliance Matrix: (Units=1/GPa)
#
#
# Indices 1 2 3 4 5 6 
#
# 1 0.019144 0.002899 0.002085 0.000000 -0.003781 0.000000
# 2 0.002899 0.021472 -0.000808 0.000000 -0.014087 0.000000
# 3 0.002085 -0.000808 0.012692 0.000000 -0.001951 0.000000
# 4 0.000000 0.000000 0.000000 0.028006 0.000000 0.003912
# 5 -0.003781 -0.014087 -0.001951 0.000000 0.035863 0.000000
# 6 0.000000 0.000000 0.000000 0.003912 0.000000 0.034451
#
#
# Mechanical properties :
#
#
# Convention : Reuss Voigt Hill
#
# Bulk Modulus (GPa) = 16.21846 21.02588 18.62217
# Shear Modulus (GPa) = 30.51963 34.60243 32.56103
#
# Velocity S-wave (km/s) = 3.71593 3.95668 3.83819
# Velocity P-wave (km/s) = 5.07431 5.51241 5.29789
#
# Compressibility (1/GPa) = 0.06165812
#
# Stress axis : x y z
#
# Youngs Moduli (GPa) = 52.23691 46.57300 78.78952
#
# Poissons Ratio (x) = -0.13501 -0.16426
# Poissons Ratio (y) = -0.15143 0.06367
# Poissons Ratio (z) = -0.10890 0.03764
#
# Static dielectric constant tensor:
#      x y z
#    x 4.113670 0.000000 0.169470 
#    y 0.000000 4.156640 0.000000 
#    z 0.169470 0.000000 4.444210 
# 
# 
# High freq. dielectric constant tensor:
#      x y z
#    x 1.884240 0.000000 -0.002110 
#    y 0.000000 1.855070 0.000000 
#    z -0.002110 0.000000 1.886630 
# 
# From -- ./inp_files/150593.got.cif
#   From: 2010.06.25/outbox.cif.g09.slc.cpg/sg15_76_cif.got.tgz:150593.got - 2010.06.28 07:06:18.
