data_PCOD8153719
_publ_section_title
;
Structure prediction by ZEFSAII (Michael W. Deem and Ramdas Pophale) SiO2 
 PCOD8153719
Probable space group: C 2/C
;
_chemical_formula_sum "Si O2"
_cell_formula_units_Z 36
_cell_length_a 5.308087
_cell_length_b 21.241846
_cell_length_c 13.839999
_cell_angle_alpha 90.000000
_cell_angle_beta 84.457838
_cell_angle_gamma 90.000000
_cell_volume 1553.214491
_symmetry_space_group_name_H-M "C 2/C"
_symmetry_group_IT_number 15
_symmetry_cell_setting 'monoclinic'
loop_
_space_group_symop_operation_xyz
x,y,z
-x,y,1/2-z
-x,-y,-z
x,-y,1/2+z
1/2+x,1/2+y,z
1/2-x,1/2+y,1/2-z
1/2-x,1/2-y,-z
1/2+x,1/2-y,1/2+z
loop_
_atom_site_type_symbol
_atom_site_label
_atom_site_fract_x
_atom_site_fract_y
_atom_site_fract_z
Si Si1 0.014199 0.271572 0.444905
Si Si2 0.140688 0.414806 0.411309
Si Si3 0.500000 0.697912 0.250000
Si Si4 0.500000 0.534950 0.750000
Si Si5 0.000000 0.383119 0.750000
Si Si6 0.779091 0.472956 0.903680
O O1 0.250000 0.250000 0.500000
O O2 0.029775 0.346233 0.432380
O O3 0.750000 0.250000 0.500000
O O4 0.032157 0.241999 0.339993
O O5 0.281566 0.419733 0.301878
O O6 0.321418 0.437966 0.494827
O O7 0.900890 0.460211 0.424181
O O8 0.246973 0.657208 0.264182
O O9 0.562112 0.487191 0.834376
O O10 0.977725 0.426072 0.845965
#
# Coordination Sequence:
#
# PCOD8153719 Si02
#       6
#     8   8   4   4   4   8
#     4  12  29  52  74 108 150 202 252 304 369 441
#     4  11  26  44  72 105 149 187 249 305 373 443
#     4  12  27  45  78 103 148 205 252 306 362 450
#     4  12  23  43  72 112 145 189 242 306 382 436
#     4  12  24  48  74 107 149 192 254 300 378 444
#     4  11  24  44  70 108 144 192 235 314 376 438
#
# _framework density 23.177741999999999
#
# number of rings (size 3 to 8) (size 9 to 14) (size 15 to 20)
#    0.000    0.444    2.222    5.333    6.222    0.889 
#    0.000    0.000    0.000    0.000    0.000    0.000 
#    0.000    0.000    0.000    0.000    0.000    0.000 
#
# Total GULP energy -223160.751642 kJ/mol
# GULP energy per Si atom -12397.819536 kJ/mol
# Density = 2.312499 g / cm^3
# Si number density = 23.177742 Si / 1000 Ang^3
#
#
#
# Elastic Constant Matrix: (Units=GPa)
#
#
# Indices 1 2 3 4 5 6 
#
# 1 136.3858 64.3520 46.2536 0.0000 8.3018 0.0000
# 2 64.3520 189.6170 64.8929 0.0000 4.3666 0.0000
# 3 46.2536 64.8929 153.0832 0.0000 5.0739 0.0000
# 4 0.0000 0.0000 0.0000 48.6033 0.0000 -6.1095
# 5 8.3018 4.3666 5.0739 0.0000 47.7221 0.0000
# 6 0.0000 0.0000 0.0000 -6.1095 0.0000 16.0180
#
#
#
# Elastic Compliance Matrix: (Units=1/GPa)
#
#
# Indices 1 2 3 4 5 6 
#
# 1 0.009152 -0.002510 -0.001662 0.000000 -0.001186 0.000000
# 2 -0.002510 0.006861 -0.002151 0.000000 0.000038 0.000000
# 3 -0.001662 -0.002151 0.007958 0.000000 -0.000360 0.000000
# 4 0.000000 0.000000 0.000000 0.021611 0.000000 0.008243
# 5 -0.001186 0.000038 -0.000360 0.000000 0.021196 0.000000
# 6 0.000000 0.000000 0.000000 0.008243 0.000000 0.065574
#
#
# Mechanical properties :
#
#
# Convention : Reuss Voigt Hill
#
# Bulk Modulus (GPa) = 88.29919 92.23146 90.26532
# Shear Modulus (GPa) = 33.60809 42.70785 38.15797
#
# Velocity S-wave (km/s) = 3.81204 4.29724 4.06189
# Velocity P-wave (km/s) = 7.58649 8.03126 7.81204
#
# Compressibility (1/GPa) = 0.01132513
#
# Stress axis : x y z
#
# Youngs Moduli (GPa) = 109.26229 145.75140 125.65256
#
# Poissons Ratio (x) = 0.36583 0.20884
# Poissons Ratio (y) = 0.27425 0.27031
# Poissons Ratio (z) = 0.18160 0.31355
#
# Static dielectric constant tensor:
#      x y z
#    x 4.119040 0.000000 0.161430 
#    y 0.000000 4.332540 0.000000 
#    z 0.161430 0.000000 5.030630 
# 
# 
# High freq. dielectric constant tensor:
#      x y z
#    x 1.912630 0.000000 0.006480 
#    y 0.000000 1.925670 0.000000 
#    z 0.006480 0.000000 1.945470 
# 
# From -- ./inp_files/128705.got.cif
#   From: 2010.06.25/outbox.cif.g09.slc.cpg/sg15_65_cif.got.tgz:128705.got - 2010.06.28 07:06:18.
