data_PCOD8153429
_publ_section_title
;
Structure prediction by ZEFSAII (Michael W. Deem and Ramdas Pophale) SiO2 
 PCOD8153429
Probable space group: C 2/C
;
_chemical_formula_sum "Si O2"
_cell_formula_units_Z 52
_cell_length_a 12.836018
_cell_length_b 13.030054
_cell_length_c 17.122382
_cell_angle_alpha 90.000000
_cell_angle_beta 128.155413
_cell_angle_gamma 90.000000
_cell_volume 2251.904248
_symmetry_space_group_name_H-M "C 2/C"
_symmetry_group_IT_number 15
_symmetry_cell_setting 'monoclinic'
loop_
_space_group_symop_operation_xyz
x,y,z
-x,y,1/2-z
-x,-y,-z
x,-y,1/2+z
1/2+x,1/2+y,z
1/2-x,1/2+y,1/2-z
1/2-x,1/2-y,-z
1/2+x,1/2-y,1/2+z
loop_
_atom_site_type_symbol
_atom_site_label
_atom_site_fract_x
_atom_site_fract_y
_atom_site_fract_z
Si Si1 0.085266 0.068063 0.596915
Si Si2 0.986770 0.607341 0.327903
Si Si3 0.191010 0.522377 0.529830
Si Si4 0.719636 0.588503 0.276926
Si Si5 0.221161 0.655197 0.932392
Si Si6 0.500000 0.739677 0.250000
Si Si7 0.582461 0.326222 0.360601
O O1 0.189780 0.144258 0.603708
O O2 0.984100 0.145643 0.589061
O O3 0.152478 0.997949 0.693524
O O4 0.000000 0.000000 0.500000
O O5 0.043005 0.544283 0.428715
O O6 0.083821 0.703664 0.356560
O O7 0.000000 0.546280 0.250000
O O8 0.835080 0.640341 0.277077
O O9 0.198799 0.463091 0.614791
O O10 0.253672 0.448792 0.493387
O O11 0.269554 0.629249 0.573079
O O12 0.609184 0.669171 0.255810
O O13 0.069593 0.680106 0.840316
O O14 0.250000 0.750000 0.000000
O O15 0.500000 0.374535 0.250000
#
# Coordination Sequence:
#
# PCOD8153429 Si02
#       7
#     8   8   8   8   8   4   8
#     4  12  24  43  73 107 143 197 245 301 375 444
#     4  11  27  47  70 109 148 191 247 307 370 444
#     4  12  24  47  71 105 148 194 243 305 376 441
#     4  12  25  49  75 106 148 195 246 309 371 447
#     4  12  26  45  72 110 150 191 247 308 372 454
#     4  12  26  48  74 108 148 192 254 306 374 440
#     4  11  23  46  73 103 147 190 246 300 369 441
#
# _framework density 23.091569
#
# number of rings (size 3 to 8) (size 9 to 14) (size 15 to 20)
#    0.000    0.308    4.615    4.615    3.231    0.000 
#    0.000    0.000    0.000    0.000    0.000    0.000 
#    0.000    0.000    0.000    0.000    0.000    0.000 
#
# Total GULP energy -322187.429994 kJ/mol
# GULP energy per Si atom -12391.824231 kJ/mol
# Density = 2.303901 g / cm^3
# Si number density = 23.091569 Si / 1000 Ang^3
#
#
#
# Elastic Constant Matrix: (Units=GPa)
#
#
# Indices 1 2 3 4 5 6 
#
# 1 118.2901 8.4723 28.3854 0.0000 0.1455 0.0000
# 2 8.4723 56.7245 21.0663 0.0000 -0.4400 0.0000
# 3 28.3854 21.0663 158.6219 0.0000 -4.0928 0.0000
# 4 0.0000 0.0000 0.0000 44.0252 0.0000 4.4423
# 5 0.1455 -0.4400 -4.0928 0.0000 34.1255 0.0000
# 6 0.0000 0.0000 0.0000 4.4423 0.0000 30.6210
#
#
#
# Elastic Compliance Matrix: (Units=1/GPa)
#
#
# Indices 1 2 3 4 5 6 
#
# 1 0.008867 -0.000773 -0.001490 0.000000 -0.000226 0.000000
# 2 -0.000773 0.018611 -0.002334 0.000000 -0.000037 0.000000
# 3 -0.001490 -0.002334 0.006902 0.000000 0.000804 0.000000
# 4 0.000000 0.000000 0.000000 0.023052 0.000000 -0.003344
# 5 -0.000226 -0.000037 0.000804 0.000000 0.029401 0.000000
# 6 0.000000 0.000000 0.000000 -0.003344 0.000000 0.033142
#
#
# Mechanical properties :
#
#
# Convention : Reuss Voigt Hill
#
# Bulk Modulus (GPa) = 39.70526 49.94273 44.82399
# Shear Modulus (GPa) = 36.34674 40.13517 38.24096
#
# Velocity S-wave (km/s) = 3.97170 4.17356 4.07388
# Velocity P-wave (km/s) = 6.18584 6.70074 6.44843
#
# Compressibility (1/GPa) = 0.02518558
#
# Stress axis : x y z
#
# Youngs Moduli (GPa) = 112.77831 53.73125 144.89192
#
# Poissons Ratio (x) = 0.04152 0.21588
# Poissons Ratio (y) = 0.08715 0.33823
# Poissons Ratio (z) = 0.16803 0.12543
#
# Static dielectric constant tensor:
#      x y z
#    x 3.903910 0.000000 -0.544240 
#    y 0.000000 4.231000 0.000000 
#    z -0.544240 0.000000 3.787250 
# 
# 
# High freq. dielectric constant tensor:
#      x y z
#    x 1.908930 0.000000 -0.005810 
#    y 0.000000 1.907350 0.000000 
#    z -0.005810 0.000000 1.937870 
# 
# From -- ./inp_files/198038.got.cif
#   From: 2010.06.25/outbox.cif.g09.slc.cpg/sg15_100_cif.got.tgz:198038.got - 2010.06.28 07:06:18.
