data_PCOD8153846
_publ_section_title
;
Structure prediction by ZEFSAII (Michael W. Deem and Ramdas Pophale) SiO2 
 PCOD8153846
Probable space group: C 2/C
;
_chemical_formula_sum "Si O2"
_cell_formula_units_Z 40
_cell_length_a 15.371553
_cell_length_b 8.833971
_cell_length_c 14.387390
_cell_angle_alpha 90.000000
_cell_angle_beta 66.045929
_cell_angle_gamma 90.000000
_cell_volume 1785.421366
_symmetry_space_group_name_H-M "C 2/C"
_symmetry_group_IT_number 15
_symmetry_cell_setting 'monoclinic'
loop_
_space_group_symop_operation_xyz
x,y,z
-x,y,1/2-z
-x,-y,-z
x,-y,1/2+z
1/2+x,1/2+y,z
1/2-x,1/2+y,1/2-z
1/2-x,1/2-y,-z
1/2+x,1/2-y,1/2+z
loop_
_atom_site_type_symbol
_atom_site_label
_atom_site_fract_x
_atom_site_fract_y
_atom_site_fract_z
Si Si1 0.580938 0.629045 0.081279
Si Si2 0.627236 0.343548 0.769670
Si Si3 0.900694 0.584456 0.049498
Si Si4 0.800992 0.513482 0.757185
Si Si5 0.245899 0.426356 0.518514
O O1 0.468237 0.601723 0.136338
O O2 0.614680 0.688402 0.166329
O O3 0.598600 0.749782 0.993283
O O4 0.644121 0.482941 0.028009
O O5 0.696017 0.482244 0.763043
O O6 0.669786 0.183910 0.785801
O O7 0.874433 0.596371 0.170143
O O8 0.815028 0.494717 0.038119
O O9 0.000000 0.500000 0.000000
O O10 0.806975 0.473831 0.863236
O O11 0.250000 0.250000 0.500000
#
# Coordination Sequence:
#
# PCOD8153846 Si02
#       5
#     8   8   8   8   8
#     4  11  24  48  71 103 143 190 237 294 365 431
#     4  11  24  45  75 104 140 188 240 292 365 432
#     4  12  24  46  75 104 138 191 241 296 365 430
#     4  12  24  44  75 103 141 188 241 291 362 432
#     4  12  27  47  69 108 150 185 240 303 357 432
#
# _framework density 22.403673999999999
#
# number of rings (size 3 to 8) (size 9 to 14) (size 15 to 20)
#    0.000    0.400    6.000    3.000    0.000    1.600 
#    3.600    0.000    0.000    0.000    0.000    0.000 
#    0.000    0.000    0.000    0.000    0.000    0.000 
#
# Total GULP energy -247954.443152 kJ/mol
# GULP energy per Si atom -12397.722158 kJ/mol
# Density = 2.235268 g / cm^3
# Si number density = 22.403674 Si / 1000 Ang^3
#
#
#
# Elastic Constant Matrix: (Units=GPa)
#
#
# Indices 1 2 3 4 5 6 
#
# 1 122.8985 62.5914 39.4818 0.0000 -25.8087 0.0000
# 2 62.5914 130.9809 44.3294 0.0000 -25.1051 0.0000
# 3 39.4818 44.3294 145.8593 0.0000 -27.2429 0.0000
# 4 0.0000 0.0000 0.0000 18.7963 0.0000 -5.4156
# 5 -25.8087 -25.1051 -27.2429 0.0000 29.5992 0.0000
# 6 0.0000 0.0000 0.0000 -5.4156 0.0000 47.0079
#
#
#
# Elastic Compliance Matrix: (Units=1/GPa)
#
#
# Indices 1 2 3 4 5 6 
#
# 1 0.011798 -0.004224 -0.000794 0.000000 0.005973 0.000000
# 2 -0.004224 0.010950 -0.001374 0.000000 0.004340 0.000000
# 3 -0.000794 -0.001374 0.008624 0.000000 0.006080 0.000000
# 4 0.000000 0.000000 0.000000 0.055029 0.000000 0.006340
# 5 0.005973 0.004340 0.006080 0.000000 0.048270 0.000000
# 6 0.000000 0.000000 0.000000 0.006340 0.000000 0.022003
#
#
# Mechanical properties :
#
#
# Convention : Reuss Voigt Hill
#
# Bulk Modulus (GPa) = 53.79950 76.94931 65.37441
# Shear Modulus (GPa) = 28.46523 35.96976 32.21749
#
# Velocity S-wave (km/s) = 3.56836 4.01125 3.79627
# Velocity P-wave (km/s) = 6.40651 7.47495 6.96126
#
# Compressibility (1/GPa) = 0.01858753
#
# Stress axis : x y z
#
# Youngs Moduli (GPa) = 84.76357 91.32386 115.95591
#
# Poissons Ratio (x) = 0.38575 0.09207
# Poissons Ratio (y) = 0.35804 0.15932
# Poissons Ratio (z) = 0.06730 0.12548
#
# Static dielectric constant tensor:
#      x y z
#    x 4.418820 0.000000 -0.077530 
#    y 0.000000 3.742200 0.000000 
#    z -0.077530 0.000000 4.447530 
# 
# 
# High freq. dielectric constant tensor:
#      x y z
#    x 1.888240 0.000000 -0.006380 
#    y 0.000000 1.870220 0.000000 
#    z -0.006380 0.000000 1.909240 
# 
# From -- ./inp_files/150552.got.cif
#   From: 2010.06.25/outbox.cif.g09.slc.cpg/sg15_76_cif.got.tgz:150552.got - 2010.06.28 07:06:18.
