data_PCOD8153180
_publ_section_title
;
Structure prediction by ZEFSAII (Michael W. Deem and Ramdas Pophale) SiO2 
 PCOD8153180
Probable space group: C 2/C
;
_chemical_formula_sum "Si O2"
_cell_formula_units_Z 48
_cell_length_a 19.747060
_cell_length_b 16.728472
_cell_length_c 9.484240
_cell_angle_alpha 90.000000
_cell_angle_beta 44.528759
_cell_angle_gamma 90.000000
_cell_volume 2197.074439
_symmetry_space_group_name_H-M "C 2/C"
_symmetry_group_IT_number 15
_symmetry_cell_setting 'monoclinic'
loop_
_space_group_symop_operation_xyz
x,y,z
-x,y,1/2-z
-x,-y,-z
x,-y,1/2+z
1/2+x,1/2+y,z
1/2-x,1/2+y,1/2-z
1/2-x,1/2-y,-z
1/2+x,1/2-y,1/2+z
loop_
_atom_site_type_symbol
_atom_site_label
_atom_site_fract_x
_atom_site_fract_y
_atom_site_fract_z
Si Si1 0.775984 0.437752 0.371388
Si Si2 0.100387 0.365206 0.547714
Si Si3 0.110557 0.348162 0.073840
Si Si4 0.279570 0.876944 0.860180
Si Si5 0.086504 0.186400 0.524053
Si Si6 0.900689 0.169791 0.318084
O O1 0.822486 0.414054 0.451545
O O2 0.750803 0.530368 0.405429
O O3 0.678547 0.387300 0.492839
O O4 0.855208 0.422715 0.134431
O O5 0.180066 0.350991 0.549253
O O6 0.072940 0.280668 0.518942
O O7 0.000000 0.405418 0.750000
O O8 0.132057 0.261323 0.109417
O O9 0.000000 0.372621 0.250000
O O10 0.136462 0.351378 0.871672
O O11 0.184164 0.828597 0.963771
O O12 0.088017 0.148413 0.364912
O O13 0.000000 0.151860 0.750000
O O14 0.000000 0.152153 0.250000
#
# Coordination Sequence:
#
# PCOD8153180 Si02
#       6
#     8   8   8   8   8   8
#     4  12  24  44  66  98 136 175 217 268 330 397
#     4  11  25  42  66  99 134 174 220 269 325 385
#     4  11  23  43  71  95 129 176 222 269 321 393
#     4  12  26  41  67 100 137 173 213 270 335 389
#     4  11  25  46  69  98 129 170 226 279 323 385
#     4  11  25  45  73  95 125 177 227 273 323 387
#
# _framework density 21.847234
#
# number of rings (size 3 to 8) (size 9 to 14) (size 15 to 20)
#    0.000    0.667    3.333    4.000    9.333    4.667 
#    0.000    1.667    0.000    0.000    0.000    0.000 
#    0.000    0.000    0.000    0.000    0.000    0.000 
#
# Total GULP energy -297741.466374 kJ/mol
# GULP energy per Si atom -12405.894432 kJ/mol
# Density = 2.179751 g / cm^3
# Si number density = 21.847234 Si / 1000 Ang^3
#
#
#
# Elastic Constant Matrix: (Units=GPa)
#
#
# Indices 1 2 3 4 5 6 
#
# 1 85.7078 -1.9905 4.0253 0.0000 -4.4580 0.0000
# 2 -1.9905 66.4252 16.9848 0.0000 -9.5397 0.0000
# 3 4.0253 16.9848 99.0202 0.0000 -7.2596 0.0000
# 4 0.0000 0.0000 0.0000 9.2587 0.0000 13.5404
# 5 -4.4580 -9.5397 -7.2596 0.0000 37.5370 0.0000
# 6 0.0000 0.0000 0.0000 13.5404 0.0000 3.7585
#
#
#
# Elastic Compliance Matrix: (Units=1/GPa)
#
#
# Indices 1 2 3 4 5 6 
#
# 1 0.011784 0.000691 -0.000489 0.000000 0.001480 0.000000
# 2 0.000691 0.016260 -0.002544 0.000000 0.003722 0.000000
# 3 -0.000489 -0.002544 0.010655 0.000000 0.001356 0.000000
# 4 0.000000 0.000000 0.000000 -0.025302 0.000000 0.091154
# 5 0.001480 0.003722 0.001356 0.000000 0.028024 0.000000
# 6 0.000000 0.000000 0.000000 0.091154 0.000000 -0.062330
#
#
# Mechanical properties :
#
#
# Convention : Reuss Voigt Hill
#
# Bulk Modulus (GPa) = 29.40001 32.13248 30.76624
# Shear Modulus (GPa) = -1023.35332 25.58641 -498.88346
#
# Velocity S-wave (km/s) = -21.66634 3.42592 -15.12768
# Velocity P-wave (km/s) = 24.74713 5.51262 17.05918
#
# Compressibility (1/GPa) = 0.03401360
#
# Stress axis : x y z
#
# Youngs Moduli (GPa) = 84.86401 61.49915 93.85576
#
# Poissons Ratio (x) = -0.04248 0.04589
# Poissons Ratio (y) = -0.05862 0.23880
# Poissons Ratio (z) = 0.04150 0.15647
#
# Static dielectric constant tensor:
#      x y z
#    x 3.929210 0.000000 0.005920 
#    y 0.000000 3.724520 0.000000 
#    z 0.005920 0.000000 4.114290 
# 
# 
# High freq. dielectric constant tensor:
#      x y z
#    x 1.869090 0.000000 0.000040 
#    y 0.000000 1.842730 0.000000 
#    z 0.000040 0.000000 1.873940 
# 
# From -- ./inp_files/56433.got.cif
#   From: 2010.06.25/outbox.cif.g09.slc.cpg/sg15_29_cif.got.tgz:56433.got - 2010.06.28 07:06:18.
