data_PCOD8153024
_publ_section_title
;
Structure prediction by ZEFSAII (Michael W. Deem and Ramdas Pophale) SiO2 
 PCOD8153024
Probable space group: C 2/C
;
_chemical_formula_sum "Si O2"
_cell_formula_units_Z 56
_cell_length_a 13.885930
_cell_length_b 12.736272
_cell_length_c 27.153628
_cell_angle_alpha 90.000000
_cell_angle_beta 34.361633
_cell_angle_gamma 90.000000
_cell_volume 2710.461310
_symmetry_space_group_name_H-M "C 2/C"
_symmetry_group_IT_number 15
_symmetry_cell_setting 'monoclinic'
loop_
_space_group_symop_operation_xyz
x,y,z
-x,y,1/2-z
-x,-y,-z
x,-y,1/2+z
1/2+x,1/2+y,z
1/2-x,1/2+y,1/2-z
1/2-x,1/2-y,-z
1/2+x,1/2-y,1/2+z
loop_
_atom_site_type_symbol
_atom_site_label
_atom_site_fract_x
_atom_site_fract_y
_atom_site_fract_z
Si Si1 0.940994 0.445484 0.900833
Si Si2 0.764359 0.465995 0.795348
Si Si3 0.659483 0.424985 0.943960
Si Si4 0.094143 0.358161 0.022665
Si Si5 0.506784 0.791318 0.958329
Si Si6 0.849155 0.697735 0.776771
Si Si7 0.527016 0.331917 0.618864
O O1 0.765779 0.468265 0.945599
O O2 0.087351 0.413992 0.800146
O O3 0.922345 0.351195 0.947879
O O4 0.990898 0.553067 0.907360
O O5 0.781809 0.425805 0.844336
O O6 0.770756 0.591330 0.788222
O O7 0.580159 0.432611 0.852638
O O8 0.500000 0.500000 0.000000
O O9 0.606319 0.308576 0.980852
O O10 0.009681 0.367627 0.004506
O O11 0.297477 0.375603 0.932918
O O12 0.059252 0.241769 0.058070
O O13 0.702209 0.760505 0.866614
O O14 0.921275 0.768469 0.703373
O O15 0.000000 0.666396 0.750000
#
# Coordination Sequence:
#
# PCOD8153024 Si02
#       7
#     8   8   8   8   8   8   8
#     4  12  26  43  66  99 135 179 220 280 342 399
#     4  12  24  40  69 100 133 165 226 287 331 390
#     4  12  25  43  66  98 131 175 226 278 338 400
#     4  11  24  42  69  97 133 182 223 270 333 418
#     4  12  25  43  67  95 140 174 220 274 338 408
#     4  12  23  41  68 101 132 174 222 278 338 399
#     4  11  23  42  67 101 135 173 222 279 340 396
#
# _framework density 20.660688
#
# number of rings (size 3 to 8) (size 9 to 14) (size 15 to 20)
#    0.000    0.286    7.143    3.000    2.000    0.000 
#    0.000    0.000    0.000    0.000    0.000    0.000 
#    0.000    0.000    0.000    0.000    0.000    0.000 
#
# Total GULP energy -347340.561715 kJ/mol
# GULP energy per Si atom -12405.020061 kJ/mol
# Density = 2.061366 g / cm^3
# Si number density = 20.660688 Si / 1000 Ang^3
#
#
#
# Elastic Constant Matrix: (Units=GPa)
#
#
# Indices 1 2 3 4 5 6 
#
# 1 122.0282 41.2079 37.5470 0.0001 15.3375 0.0000
# 2 41.2079 88.5595 25.5480 0.0001 5.6784 0.0000
# 3 37.5470 25.5480 94.3426 -0.0001 15.8127 -0.0002
# 4 0.0001 0.0001 -0.0001 36.9468 -0.0003 2.0040
# 5 15.3375 5.6784 15.8127 -0.0003 33.9304 0.0000
# 6 0.0000 0.0000 -0.0002 2.0040 0.0000 40.6234
#
#
#
# Elastic Compliance Matrix: (Units=1/GPa)
#
#
# Indices 1 2 3 4 5 6 
#
# 1 0.010757 -0.004040 -0.002696 0.000000 -0.002930 0.000000
# 2 -0.004040 0.013775 -0.002215 0.000000 0.000553 0.000000
# 3 -0.002696 -0.002215 0.013023 0.000000 -0.004480 0.000000
# 4 0.000000 0.000000 0.000000 0.027139 0.000000 -0.001339
# 5 -0.002930 0.000553 -0.004480 0.000000 0.032792 0.000000
# 6 0.000000 0.000000 0.000000 -0.001339 0.000000 0.024682
#
#
# Mechanical properties :
#
#
# Convention : Reuss Voigt Hill
#
# Bulk Modulus (GPa) = 50.88178 57.05956 53.97067
# Shear Modulus (GPa) = 34.10151 35.67529 34.88840
#
# Velocity S-wave (km/s) = 4.06710 4.15989 4.11376
# Velocity P-wave (km/s) = 6.83637 7.12393 6.98163
#
# Compressibility (1/GPa) = 0.01965340
#
# Stress axis : x y z
#
# Youngs Moduli (GPa) = 92.96463 72.59451 76.78477
#
# Poissons Ratio (x) = 0.29326 0.20701
# Poissons Ratio (y) = 0.37554 0.17010
# Poissons Ratio (z) = 0.25064 0.16082
#
# Static dielectric constant tensor:
#      x y z
#    x 3.890400 0.000000 0.152900 
#    y 0.000000 3.573570 0.000000 
#    z 0.152900 0.000000 3.933870 
# 
# 
# High freq. dielectric constant tensor:
#      x y z
#    x 1.813000 0.000000 0.012320 
#    y 0.000000 1.801430 0.000000 
#    z 0.012320 0.000000 1.819270 
# 
# From -- ./inp_files/313696.got.cif
#   From: 2010.06.25/outbox.cif.g09.slc.cpg/sg15_157_cif.got.tgz:313696.got - 2010.06.28 07:06:18.
