data_PCOD8153919
_publ_section_title
;
Structure prediction by ZEFSAII (Michael W. Deem and Ramdas Pophale) SiO2 
 PCOD8153919
Probable space group: C 2/C
;
_chemical_formula_sum "Si O2"
_cell_formula_units_Z 32
_cell_length_a 13.569645
_cell_length_b 7.192519
_cell_length_c 23.525921
_cell_angle_alpha 90.000000
_cell_angle_beta 28.382696
_cell_angle_gamma 90.000000
_cell_volume 1091.484125
_symmetry_space_group_name_H-M "C 2/C"
_symmetry_group_IT_number 15
_symmetry_cell_setting 'monoclinic'
loop_
_space_group_symop_operation_xyz
x,y,z
-x,y,1/2-z
-x,-y,-z
x,-y,1/2+z
1/2+x,1/2+y,z
1/2-x,1/2+y,1/2-z
1/2-x,1/2-y,-z
1/2+x,1/2-y,1/2+z
loop_
_atom_site_type_symbol
_atom_site_label
_atom_site_fract_x
_atom_site_fract_y
_atom_site_fract_z
Si Si1 0.423638 0.477898 0.912071
Si Si2 0.253322 0.449367 0.386161
Si Si3 0.239201 0.468414 0.620549
Si Si4 0.817512 0.266911 0.670841
O O1 0.241481 0.474558 0.956811
O O2 0.601665 0.323227 0.809278
O O3 0.519253 0.694546 0.863848
O O4 0.303321 0.424016 0.030693
O O5 0.500000 0.468097 0.250000
O O6 0.169772 0.239565 0.426014
O O7 0.122008 0.567543 0.404901
O O8 0.324830 0.572630 0.632154
O O9 0.000000 0.471961 0.750000
#
# Coordination Sequence:
#
# PCOD8153919 Si02
#       4
#     8   8   8   8
#     4  11  25  48  71 110 144 189 245 297 371 433
#     4   9  22  45  69 105 143 188 240 293 367 436
#     4  11  24  46  75 102 146 191 238 301 363 434
#     4  11  26  45  71 108 146 186 246 299 360 440
#
# _framework density 29.317878
#
# number of rings (size 3 to 8) (size 9 to 14) (size 15 to 20)
#    0.000    1.500    0.000    3.750   10.500    5.000 
#    4.500    0.000    0.000    0.000    0.000    0.000 
#    0.000    0.000    0.000    0.000    0.000    0.000 
#
# Total GULP energy -198290.476152 kJ/mol
# GULP energy per Si atom -12393.154760 kJ/mol
# Density = 2.925115 g / cm^3
# Si number density = 29.317878 Si / 1000 Ang^3
#
#
#
# Elastic Constant Matrix: (Units=GPa)
#
#
# Indices 1 2 3 4 5 6 
#
# 1 145.4967 49.3146 58.7104 -0.0016 -0.3147 -0.0010
# 2 49.3146 124.1775 41.5669 -0.0005 12.9003 -0.0048
# 3 58.7104 41.5669 124.0804 -0.0016 27.1699 0.0001
# 4 -0.0016 -0.0005 -0.0016 60.1571 0.0017 9.3002
# 5 -0.3147 12.9003 27.1699 0.0017 43.4227 -0.0007
# 6 -0.0010 -0.0048 0.0001 9.3002 -0.0007 58.6223
#
#
#
# Elastic Compliance Matrix: (Units=1/GPa)
#
#
# Indices 1 2 3 4 5 6 
#
# 1 0.009583 -0.002702 -0.004427 0.000000 0.003642 0.000000
# 2 -0.002702 0.009864 -0.001599 0.000000 -0.001950 0.000001
# 3 -0.004427 -0.001599 0.012274 0.000000 -0.007237 0.000000
# 4 0.000000 0.000000 0.000000 0.017041 -0.000001 -0.002704
# 5 0.003642 -0.001950 -0.007237 -0.000001 0.028163 0.000000
# 6 0.000000 0.000001 0.000000 -0.002704 0.000000 0.017487
#
#
# Mechanical properties :
#
#
# Convention : Reuss Voigt Hill
#
# Bulk Modulus (GPa) = 70.09897 76.99315 73.54606
# Shear Modulus (GPa) = 42.87310 48.71794 45.79552
#
# Velocity S-wave (km/s) = 3.82822 4.08084 3.95655
# Velocity P-wave (km/s) = 6.59562 6.96583 6.78325
#
# Compressibility (1/GPa) = 0.01426554
#
# Stress axis : x y z
#
# Youngs Moduli (GPa) = 104.35155 101.37983 81.47248
#
# Poissons Ratio (x) = 0.27396 0.36064
# Poissons Ratio (y) = 0.28199 0.13026
# Poissons Ratio (z) = 0.46192 0.16209
#
# Static dielectric constant tensor:
#      x y z
#    x 6.174640 -0.000010 0.036490 
#    y -0.000010 6.115790 0.000000 
#    z 0.036490 0.000000 5.776100 
# 
# 
# High freq. dielectric constant tensor:
#      x y z
#    x 2.204300 0.000000 0.002040 
#    y 0.000000 2.183290 0.000000 
#    z 0.002040 0.000000 2.236570 
# 
# From -- ./inp_files/93561.got.cif
#   From: 2010.06.25/outbox.cif.g09.slc.cpg/sg15_47_cif.got.tgz:93561.got - 2010.06.28 07:06:18.
