data_PCOD8153577
_publ_section_title
;
Structure prediction by ZEFSAII (Michael W. Deem and Ramdas Pophale) SiO2 
 PCOD8153577
Probable space group: C 2/C
;
_chemical_formula_sum "Si O2"
_cell_formula_units_Z 36
_cell_length_a 15.032631
_cell_length_b 11.136858
_cell_length_c 12.217172
_cell_angle_alpha 90.000000
_cell_angle_beta 53.551368
_cell_angle_gamma 90.000000
_cell_volume 1645.261494
_symmetry_space_group_name_H-M "C 2/C"
_symmetry_group_IT_number 15
_symmetry_cell_setting 'monoclinic'
loop_
_space_group_symop_operation_xyz
x,y,z
-x,y,1/2-z
-x,-y,-z
x,-y,1/2+z
1/2+x,1/2+y,z
1/2-x,1/2+y,1/2-z
1/2-x,1/2-y,-z
1/2+x,1/2-y,1/2+z
loop_
_atom_site_type_symbol
_atom_site_label
_atom_site_fract_x
_atom_site_fract_y
_atom_site_fract_z
Si Si1 0.294704 0.822726 0.363650
Si Si2 0.964999 0.963085 0.408792
Si Si3 0.181711 0.180380 0.712914
Si Si4 0.725427 0.091285 0.060544
Si Si5 0.000000 0.181815 0.250000
O O1 0.250000 0.750000 0.500000
O O2 0.215248 0.816028 0.315887
O O3 0.413276 0.764395 0.246924
O O4 0.317829 0.959710 0.380466
O O5 0.854464 0.884663 0.496610
O O6 0.068740 0.895655 0.275122
O O7 0.932971 0.091700 0.378313
O O8 0.000000 0.000000 0.500000
O O9 0.279162 0.119177 0.567331
O O10 0.157798 0.314591 0.684791
#
# Coordination Sequence:
#
# PCOD8153577 Si02
#       5
#     8   8   8   8   4
#     4  12  24  43  69  98 135 180 230 280 344 409
#     4  12  20  42  72  98 131 181 226 274 345 414
#     4  11  24  42  69 102 137 178 233 284 341 417
#     4  11  24  42  68 101 140 179 226 290 344 404
#     4  12  24  42  66  96 132 176 232 270 334 422
#
# _framework density 21.881021
#
# number of rings (size 3 to 8) (size 9 to 14) (size 15 to 20)
#    0.000    0.444    6.667    1.333    3.111    0.000 
#    8.000    1.111    0.000    0.000    0.000    0.000 
#    0.000    0.000    0.000    0.000    0.000    0.000 
#
# Total GULP energy -223091.071407 kJ/mol
# GULP energy per Si atom -12393.948412 kJ/mol
# Density = 2.183122 g / cm^3
# Si number density = 21.881021 Si / 1000 Ang^3
#
#
#
# Elastic Constant Matrix: (Units=GPa)
#
#
# Indices 1 2 3 4 5 6 
#
# 1 90.8683 36.4538 20.7691 0.0000 6.9352 0.0000
# 2 36.4538 185.2211 46.5465 0.0000 -0.5686 0.0000
# 3 20.7691 46.5465 76.3421 0.0000 20.4118 0.0000
# 4 0.0000 0.0000 0.0000 40.2265 0.0000 -6.3734
# 5 6.9352 -0.5686 20.4118 0.0000 43.1635 0.0000
# 6 0.0000 0.0000 0.0000 -6.3734 0.0000 36.5570
#
#
#
# Elastic Compliance Matrix: (Units=1/GPa)
#
#
# Indices 1 2 3 4 5 6 
#
# 1 0.012300 -0.001959 -0.001850 0.000000 -0.001127 0.000000
# 2 -0.001959 0.006876 -0.004313 0.000000 0.002445 0.000000
# 3 -0.001850 -0.004313 0.018508 0.000000 -0.008512 0.000000
# 4 0.000000 0.000000 0.000000 0.025565 0.000000 0.004457
# 5 -0.001127 0.002445 -0.008512 0.000000 0.027406 0.000000
# 6 0.000000 0.000000 0.000000 0.004457 0.000000 0.028132
#
#
# Mechanical properties :
#
#
# Convention : Reuss Voigt Hill
#
# Bulk Modulus (GPa) = 46.64509 62.21894 54.43201
# Shear Modulus (GPa) = 35.16715 40.56686 37.86700
#
# Velocity S-wave (km/s) = 4.01334 4.31045 4.16455
# Velocity P-wave (km/s) = 6.54521 7.29864 6.93217
#
# Compressibility (1/GPa) = 0.02143848
#
# Stress axis : x y z
#
# Youngs Moduli (GPa) = 81.30176 145.43477 54.03120
#
# Poissons Ratio (x) = 0.28494 0.09997
# Poissons Ratio (y) = 0.15929 0.23304
# Poissons Ratio (z) = 0.15043 0.62726
#
# Static dielectric constant tensor:
#      x y z
#    x 3.536470 0.000000 0.263950 
#    y 0.000000 4.984370 0.000000 
#    z 0.263950 0.000000 3.975900 
# 
# 
# High freq. dielectric constant tensor:
#      x y z
#    x 1.848900 0.000000 0.016900 
#    y 0.000000 1.872520 0.000000 
#    z 0.016900 0.000000 1.868070 
# 
# From -- ./inp_files/94364.got.cif
#   From: 2010.06.25/outbox.cif.g09.slc.cpg/sg15_48_cif.got.tgz:94364.got - 2010.06.28 07:06:18.
