data_PCOD8153348
_publ_section_title
;
Structure prediction by ZEFSAII (Michael W. Deem and Ramdas Pophale) SiO2 
 PCOD8153348
Probable space group: C 2/C
;
_chemical_formula_sum "Si O2"
_cell_formula_units_Z 40
_cell_length_a 6.193340
_cell_length_b 22.302560
_cell_length_c 14.050011
_cell_angle_alpha 90.000000
_cell_angle_beta 68.706921
_cell_angle_gamma 90.000000
_cell_volume 1808.209552
_symmetry_space_group_name_H-M "C 2/C"
_symmetry_group_IT_number 15
_symmetry_cell_setting 'monoclinic'
loop_
_space_group_symop_operation_xyz
x,y,z
-x,y,1/2-z
-x,-y,-z
x,-y,1/2+z
1/2+x,1/2+y,z
1/2-x,1/2+y,1/2-z
1/2-x,1/2-y,-z
1/2+x,1/2-y,1/2+z
loop_
_atom_site_type_symbol
_atom_site_label
_atom_site_fract_x
_atom_site_fract_y
_atom_site_fract_z
Si Si1 0.156139 0.056131 0.951755
Si Si2 0.152495 0.591845 0.372832
Si Si3 0.722111 0.350971 0.011910
Si Si4 0.000000 0.808952 0.750000
Si Si5 0.518729 0.243609 0.932098
Si Si6 0.500000 0.999418 0.750000
O O1 0.350639 0.041292 0.843153
O O2 0.003611 0.109311 0.927831
O O3 0.267152 0.073268 0.035103
O O4 0.000000 0.000000 0.000000
O O5 0.290071 0.650188 0.318510
O O6 0.173135 0.540085 0.289232
O O7 0.880167 0.607837 0.418333
O O8 0.885115 0.325265 0.072054
O O9 0.651391 0.289943 0.975749
O O10 0.917322 0.763242 0.683602
O O11 0.250000 0.250000 0.000000
#
# Coordination Sequence:
#
# PCOD8153348 Si02
#       6
#     8   8   8   4   8   4
#     4  12  25  47  72 107 151 190 247 311 359 445
#     4  12  24  48  73 105 142 192 255 298 358 457
#     4  11  23  46  73  99 147 188 232 316 359 420
#     4  12  22  42  79 100 138 193 250 296 368 452
#     4  11  23  45  71 104 142 181 250 306 364 432
#     4  12  26  42  77 108 146 203 240 302 390 426
#
# _framework density 22.121328999999999
#
# number of rings (size 3 to 8) (size 9 to 14) (size 15 to 20)
#    0.000    0.400    6.000    3.000    0.000    0.000 
#    0.000    6.000    0.000    0.000    0.000    0.000 
#    0.000    0.000    0.000    0.000    0.000    0.000 
#
# Total GULP energy -247873.159006 kJ/mol
# GULP energy per Si atom -12393.657950 kJ/mol
# Density = 2.207098 g / cm^3
# Si number density = 22.121329 Si / 1000 Ang^3
#
#
#
# Elastic Constant Matrix: (Units=GPa)
#
#
# Indices 1 2 3 4 5 6 
#
# 1 111.4366 51.8621 56.1969 0.0000 8.4455 0.0000
# 2 51.8621 113.5216 63.8127 0.0000 18.7862 0.0000
# 3 56.1969 63.8127 148.9981 0.0000 5.8721 0.0000
# 4 0.0000 0.0000 0.0000 49.2591 0.0000 5.5711
# 5 8.4455 18.7862 5.8721 0.0000 21.3480 0.0000
# 6 0.0000 0.0000 0.0000 5.5711 0.0000 99.0925
#
#
#
# Elastic Compliance Matrix: (Units=1/GPa)
#
#
# Indices 1 2 3 4 5 6 
#
# 1 0.012312 -0.003843 -0.002971 0.000000 -0.000671 0.000000
# 2 -0.003843 0.014777 -0.004475 0.000000 -0.010252 0.000000
# 3 -0.002971 -0.004475 0.009652 0.000000 0.002458 0.000000
# 4 0.000000 0.000000 0.000000 0.020431 0.000000 -0.001149
# 5 -0.000671 -0.010252 0.002458 0.000000 0.055454 0.000000
# 6 0.000000 0.000000 0.000000 -0.001149 0.000000 0.010156
#
#
# Mechanical properties :
#
#
# Convention : Reuss Voigt Hill
#
# Bulk Modulus (GPa) = 70.61468 79.74442 75.17955
# Shear Modulus (GPa) = 33.31559 47.41224 40.36392
#
# Velocity S-wave (km/s) = 3.88498 4.63458 4.27624
# Velocity P-wave (km/s) = 7.21907 8.04774 7.64464
#
# Compressibility (1/GPa) = 0.01416136
#
# Stress axis : x y z
#
# Youngs Moduli (GPa) = 81.22477 67.67381 103.60886
#
# Poissons Ratio (x) = 0.26010 0.30782
# Poissons Ratio (y) = 0.31218 0.46364
# Poissons Ratio (z) = 0.24132 0.30284
#
# Static dielectric constant tensor:
#      x y z
#    x 4.834590 0.000000 0.276700 
#    y 0.000000 4.371470 0.000000 
#    z 0.276700 0.000000 4.138850 
# 
# 
# High freq. dielectric constant tensor:
#      x y z
#    x 1.887300 0.000000 0.000810 
#    y 0.000000 1.886200 0.000000 
#    z 0.000810 0.000000 1.858440 
# 
# From -- ./inp_files/129303.got.cif
#   From: 2010.06.25/outbox.cif.g09.slc.cpg/sg15_65_cif.got.tgz:129303.got - 2010.06.28 07:06:18.
