data_PCOD8153674
_publ_section_title
;
Structure prediction by ZEFSAII (Michael W. Deem and Ramdas Pophale) SiO2 
 PCOD8153674
Probable space group: C 2/C
;
_chemical_formula_sum "Si O2"
_cell_formula_units_Z 28
_cell_length_a 13.580977
_cell_length_b 13.513299
_cell_length_c 7.264172
_cell_angle_alpha 90.000000
_cell_angle_beta 55.719538
_cell_angle_gamma 90.000000
_cell_volume 1101.567797
_symmetry_space_group_name_H-M "C 2/C"
_symmetry_group_IT_number 15
_symmetry_cell_setting 'monoclinic'
loop_
_space_group_symop_operation_xyz
x,y,z
-x,y,1/2-z
-x,-y,-z
x,-y,1/2+z
1/2+x,1/2+y,z
1/2-x,1/2+y,1/2-z
1/2-x,1/2-y,-z
1/2+x,1/2-y,1/2+z
loop_
_atom_site_type_symbol
_atom_site_label
_atom_site_fract_x
_atom_site_fract_y
_atom_site_fract_z
Si Si1 0.349737 0.382351 0.294410
Si Si2 0.745731 0.414511 0.480317
Si Si3 0.416882 0.697258 0.076036
Si Si4 0.000000 0.359188 0.250000
O O1 0.320581 0.480792 0.442844
O O2 0.253709 0.371698 0.230696
O O3 0.351961 0.292324 0.443269
O O4 0.480302 0.386554 0.060365
O O5 0.679599 0.333951 0.672571
O O6 0.882557 0.426297 0.403029
O O7 0.481382 0.795097 0.083802
#
# Coordination Sequence:
#
# PCOD8153674 Si02
#       4
#     8   8   8   4
#     4  11  24  43  77 100 134 183 248 271 346 412
#     4  12  24  46  71 105 139 186 230 293 336 425
#     4  11  24  44  72 106 134 184 232 292 337 419
#     4  12  28  46  68 104 156 172 226 296 366 388
#
# _framework density 25.418316999999998
#
# number of rings (size 3 to 8) (size 9 to 14) (size 15 to 20)
#    0.000    0.571    5.714    1.714    4.000    2.286 
#    5.143    0.000    0.000    0.000    0.000    0.000 
#    0.000    0.000    0.000    0.000    0.000    0.000 
#
# Total GULP energy -173520.713287 kJ/mol
# GULP energy per Si atom -12394.336663 kJ/mol
# Density = 2.536046 g / cm^3
# Si number density = 25.418317 Si / 1000 Ang^3
#
#
#
# Elastic Constant Matrix: (Units=GPa)
#
#
# Indices 1 2 3 4 5 6 
#
# 1 160.8725 20.5723 57.7149 0.0000 12.8569 0.0000
# 2 20.5723 36.4257 23.6637 0.0000 -1.7637 0.0000
# 3 57.7149 23.6637 111.0477 0.0000 25.2545 0.0000
# 4 0.0000 0.0000 0.0000 -49.3732 0.0000 94.8046
# 5 12.8569 -1.7637 25.2545 0.0000 51.2106 0.0000
# 6 0.0000 0.0000 0.0000 94.8046 0.0000 -96.4796
#
#
#
# Elastic Compliance Matrix: (Units=1/GPa)
#
#
# Indices 1 2 3 4 5 6 
#
# 1 0.007774 -0.002115 -0.003525 0.000000 -0.000286 0.000000
# 2 -0.002115 0.033622 -0.007264 0.000000 0.005271 0.000000
# 3 -0.003525 -0.007264 0.013787 0.000000 -0.006164 0.000000
# 4 0.000000 0.000000 0.000000 0.022839 0.000000 0.022442
# 5 -0.000286 0.005271 -0.006164 0.000000 0.022821 0.000000
# 6 0.000000 0.000000 0.000000 0.022442 0.000000 0.011688
#
#
# Mechanical properties :
#
#
# Convention : Reuss Voigt Hill
#
# Bulk Modulus (GPa) = 34.04207 56.91642 45.47925
# Shear Modulus (GPa) = 33.75441 -5.16879 14.29281
#
# Velocity S-wave (km/s) = 3.64807 -1.42755 2.37387
# Velocity P-wave (km/s) = 5.58268 4.44109 5.04428
#
# Compressibility (1/GPa) = 0.02937542
#
# Stress axis : x y z
#
# Youngs Moduli (GPa) = 128.63562 29.74245 72.53271
#
# Poissons Ratio (x) = 0.06289 0.25565
# Poissons Ratio (y) = 0.27202 0.52691
# Poissons Ratio (z) = 0.45339 0.21606
#
# Static dielectric constant tensor:
#      x y z
#    x 4.909320 0.000000 0.148980 
#    y 0.000000 4.059370 0.000000 
#    z 0.148980 0.000000 4.698040 
# 
# 
# High freq. dielectric constant tensor:
#      x y z
#    x 2.039020 0.000000 0.007770 
#    y 0.000000 1.969950 0.000000 
#    z 0.007770 0.000000 2.022720 
# 
# From -- ./inp_files/36471.got.cif
#   From: 2010.06.25/outbox.cif.g09.slc.cpg/sg15_19_cif.got.tgz:36471.got - 2010.06.28 07:06:18.
