data_PCOD8153242
_publ_section_title
;
Structure prediction by ZEFSAII (Michael W. Deem and Ramdas Pophale) SiO2 
 PCOD8153242
Probable space group: C 2/C
;
_chemical_formula_sum "Si O2"
_cell_formula_units_Z 48
_cell_length_a 15.193084
_cell_length_b 28.888695
_cell_length_c 8.867396
_cell_angle_alpha 90.000000
_cell_angle_beta 37.297018
_cell_angle_gamma 90.000000
_cell_volume 2358.330159
_symmetry_space_group_name_H-M "C 2/C"
_symmetry_group_IT_number 15
_symmetry_cell_setting 'monoclinic'
loop_
_space_group_symop_operation_xyz
x,y,z
-x,y,1/2-z
-x,-y,-z
x,-y,1/2+z
1/2+x,1/2+y,z
1/2-x,1/2+y,1/2-z
1/2-x,1/2-y,-z
1/2+x,1/2-y,1/2+z
loop_
_atom_site_type_symbol
_atom_site_label
_atom_site_fract_x
_atom_site_fract_y
_atom_site_fract_z
Si Si1 0.390573 0.989229 0.517502
Si Si2 0.656341 0.250608 0.978054
Si Si3 0.664299 0.908791 0.501156
Si Si4 0.292388 0.332322 0.130832
Si Si5 0.393253 0.335009 0.665807
Si Si6 0.350138 0.577907 0.025180
O O1 0.500000 0.963718 0.250000
O O2 0.250549 0.960287 0.757650
O O3 0.500000 0.000000 0.500000
O O4 0.325112 0.036335 0.538947
O O5 0.692514 0.210435 0.811237
O O6 0.666282 0.299248 0.876875
O O7 0.500000 0.239363 0.250000
O O8 0.750000 0.250000 0.000000
O O9 0.500000 0.892367 0.750000
O O10 0.728579 0.881251 0.272331
O O11 0.757581 0.896521 0.522082
O O12 0.291561 0.335076 0.951238
O O13 0.446576 0.322042 0.997562
O O14 0.395611 0.385542 0.589580
O O15 0.500000 0.556680 0.750000
#
# Coordination Sequence:
#
# PCOD8153242 Si02
#       6
#     8   8   8   8   8   8
#     4  11  24  46  68  97 138 177 222 280 333 392
#     4  12  23  44  71  96 131 176 219 266 331 398
#     4  11  23  44  68  96 133 178 221 271 335 399
#     4  11  24  44  66 100 134 170 222 273 332 393
#     4  11  25  43  66  98 140 169 215 282 330 388
#     4  12  24  44  70  99 135 178 226 273 336 401
#
# _framework density 20.353383999999998
#
# number of rings (size 3 to 8) (size 9 to 14) (size 15 to 20)
#    0.000    0.667    6.667    2.500    2.333    0.667 
#    3.000    1.667    0.000    0.000    0.000    0.000 
#    0.000    0.000    0.000    0.000    0.000    0.000 
#
# Total GULP energy -297582.560349 kJ/mol
# GULP energy per Si atom -12399.273348 kJ/mol
# Density = 2.030706 g / cm^3
# Si number density = 20.353384 Si / 1000 Ang^3
#
#
#
# Elastic Constant Matrix: (Units=GPa)
#
#
# Indices 1 2 3 4 5 6 
#
# 1 108.5869 17.8722 53.8364 0.0000 2.6008 0.0000
# 2 17.8722 96.0656 65.7263 0.0000 8.1658 0.0000
# 3 53.8364 65.7263 193.2002 0.0000 9.0074 0.0000
# 4 0.0000 0.0000 0.0000 38.2348 0.0000 10.4428
# 5 2.6008 8.1658 9.0074 0.0000 31.8509 0.0000
# 6 0.0000 0.0000 0.0000 10.4428 0.0000 17.1512
#
#
#
# Elastic Compliance Matrix: (Units=1/GPa)
#
#
# Indices 1 2 3 4 5 6 
#
# 1 0.010686 0.000067 -0.002999 0.000000 -0.000042 0.000000
# 2 0.000067 0.013722 -0.004583 0.000000 -0.002227 0.000000
# 3 -0.002999 -0.004583 0.007605 0.000000 -0.000731 0.000000
# 4 0.000000 0.000000 0.000000 0.031371 0.000000 -0.019101
# 5 -0.000042 -0.002227 -0.000731 0.000000 0.032177 0.000000
# 6 0.000000 0.000000 0.000000 -0.019101 0.000000 0.069935
#
#
# Mechanical properties :
#
#
# Convention : Reuss Voigt Hill
#
# Bulk Modulus (GPa) = 58.88034 74.74693 66.81363
# Shear Modulus (GPa) = 26.85489 34.80858 30.83173
#
# Velocity S-wave (km/s) = 3.63634 4.13996 3.89629
# Velocity P-wave (km/s) = 6.82806 7.72377 7.28969
#
# Compressibility (1/GPa) = 0.01698360
#
# Stress axis : x y z
#
# Youngs Moduli (GPa) = 93.58192 72.87546 131.49672
#
# Poissons Ratio (x) = -0.00489 0.39430
# Poissons Ratio (y) = -0.00628 0.60266
# Poissons Ratio (z) = 0.28061 0.33399
#
# Static dielectric constant tensor:
#      x y z
#    x 3.691010 0.000000 0.025170 
#    y 0.000000 4.496340 0.000000 
#    z 0.025170 0.000000 3.837500 
# 
# 
# High freq. dielectric constant tensor:
#      x y z
#    x 1.805940 0.000000 0.005660 
#    y 0.000000 1.785970 0.000000 
#    z 0.005660 0.000000 1.816590 
# 
# From -- ./inp_files/44419.got.cif
#   From: 2010.06.25/outbox.cif.g09.slc.cpg/sg15_23_cif.got.tgz:44419.got - 2010.06.28 07:06:18.
