data_PCOD8153692
_publ_section_title
;
Structure prediction by ZEFSAII (Michael W. Deem and Ramdas Pophale) SiO2 
 PCOD8153692
Probable space group: C 2/C
;
_chemical_formula_sum "Si O2"
_cell_formula_units_Z 36
_cell_length_a 24.646654
_cell_length_b 6.587615
_cell_length_c 18.373446
_cell_angle_alpha 90.000000
_cell_angle_beta 146.171941
_cell_angle_gamma 90.000000
_cell_volume 1660.733580
_symmetry_space_group_name_H-M "C 2/C"
_symmetry_group_IT_number 15
_symmetry_cell_setting 'monoclinic'
loop_
_space_group_symop_operation_xyz
x,y,z
-x,y,1/2-z
-x,-y,-z
x,-y,1/2+z
1/2+x,1/2+y,z
1/2-x,1/2+y,1/2-z
1/2-x,1/2-y,-z
1/2+x,1/2-y,1/2+z
loop_
_atom_site_type_symbol
_atom_site_label
_atom_site_fract_x
_atom_site_fract_y
_atom_site_fract_z
Si Si1 0.756322 0.305676 0.620281
Si Si2 0.446326 0.503860 0.555834
Si Si3 0.694463 0.949227 0.462024
Si Si4 0.060822 0.700905 0.083144
Si Si5 0.500000 0.729245 0.250000
O O1 0.655794 0.419963 0.525429
O O2 0.809709 0.399338 0.610142
O O3 0.828133 0.338467 0.768335
O O4 0.738376 0.066730 0.581614
O O5 0.428812 0.328334 0.478255
O O6 0.504663 0.686749 0.585159
O O7 0.514140 0.415806 0.695829
O O8 0.750000 0.750000 0.500000
O O9 0.587629 0.879926 0.364493
O O10 0.000000 0.500000 0.000000
#
# Coordination Sequence:
#
# PCOD8153692 Si02
#       5
#     8   8   8   8   4
#     4  11  26  43  72 103 138 179 237 284 347 418
#     4  11  27  45  69 105 138 180 234 290 339 425
#     4  11  24  44  68 107 138 180 228 291 346 413
#     4  11  27  48  69 100 141 188 229 285 350 417
#     4  12  24  46  76 100 144 180 232 290 360 406
#
# _framework density 21.677167000000001
#
# number of rings (size 3 to 8) (size 9 to 14) (size 15 to 20)
#    0.000    0.889    2.222    2.667   12.444    1.778 
#    0.000    0.000    0.000    0.000    0.000    0.000 
#    0.000    0.000    0.000    0.000    0.000    0.000 
#
# Total GULP energy -223242.447481 kJ/mol
# GULP energy per Si atom -12402.358193 kJ/mol
# Density = 2.162783 g / cm^3
# Si number density = 21.677167 Si / 1000 Ang^3
#
#
#
# Elastic Constant Matrix: (Units=GPa)
#
#
# Indices 1 2 3 4 5 6 
#
# 1 89.7498 38.5679 21.4491 0.0000 -8.5590 0.0000
# 2 38.5679 145.5200 55.1336 -0.0006 -2.8539 -0.0002
# 3 21.4491 55.1336 122.3247 -0.0001 -11.3655 -0.0001
# 4 0.0000 -0.0006 -0.0001 41.1440 -0.0001 2.3497
# 5 -8.5590 -2.8539 -11.3655 -0.0001 38.6073 -0.0001
# 6 0.0000 -0.0002 -0.0001 2.3497 -0.0001 31.9359
#
#
#
# Elastic Compliance Matrix: (Units=1/GPa)
#
#
# Indices 1 2 3 4 5 6 
#
# 1 0.012867 -0.003127 -0.000620 0.000000 0.002439 0.000000
# 2 -0.003127 0.009057 -0.003635 0.000000 -0.001094 0.000000
# 3 -0.000620 -0.003635 0.010162 0.000000 0.002585 0.000000
# 4 0.000000 0.000000 0.000000 0.024407 0.000000 -0.001796
# 5 0.002439 -0.001094 0.002585 0.000000 0.027123 0.000000
# 6 0.000000 0.000000 0.000000 -0.001796 0.000000 0.031445
#
#
# Mechanical properties :
#
#
# Convention : Reuss Voigt Hill
#
# Bulk Modulus (GPa) = 57.73503 65.32173 61.52838
# Shear Modulus (GPa) = 36.87332 38.50039 37.68686
#
# Velocity S-wave (km/s) = 4.12882 4.21893 4.17412
# Velocity P-wave (km/s) = 7.03003 7.34383 7.18864
#
# Compressibility (1/GPa) = 0.01732051
#
# Stress axis : x y z
#
# Youngs Moduli (GPa) = 77.71970 110.41656 98.40252
#
# Poissons Ratio (x) = 0.34532 0.06101
# Poissons Ratio (y) = 0.24306 0.35771
# Poissons Ratio (z) = 0.04818 0.40139
#
# Static dielectric constant tensor:
#      x y z
#    x 3.943650 0.000000 -0.170120 
#    y 0.000000 4.253150 0.000000 
#    z -0.170120 0.000000 3.758010 
# 
# 
# High freq. dielectric constant tensor:
#      x y z
#    x 1.861080 0.000000 0.000830 
#    y 0.000000 1.867530 0.000000 
#    z 0.000830 0.000000 1.856340 
# 
# From -- ./inp_files/170435.got.cif
#   From: 2010.06.25/outbox.cif.g09.slc.cpg/sg15_86_cif.got.tgz:170435.got - 2010.06.28 07:06:18.
