data_PCOD8153566
_publ_section_title
;
Structure prediction by ZEFSAII (Michael W. Deem and Ramdas Pophale) SiO2 
 PCOD8153566
Probable space group: C 2/C
;
_chemical_formula_sum "Si O2"
_cell_formula_units_Z 44
_cell_length_a 26.874078
_cell_length_b 12.782792
_cell_length_c 8.640374
_cell_angle_alpha 90.000000
_cell_angle_beta 134.978505
_cell_angle_gamma 90.000000
_cell_volume 2099.615196
_symmetry_space_group_name_H-M "C 2/C"
_symmetry_group_IT_number 15
_symmetry_cell_setting 'monoclinic'
loop_
_space_group_symop_operation_xyz
x,y,z
-x,y,1/2-z
-x,-y,-z
x,-y,1/2+z
1/2+x,1/2+y,z
1/2-x,1/2+y,1/2-z
1/2-x,1/2-y,-z
1/2+x,1/2-y,1/2+z
loop_
_atom_site_type_symbol
_atom_site_label
_atom_site_fract_x
_atom_site_fract_y
_atom_site_fract_z
Si Si1 0.500000 0.963391 0.750000
Si Si2 0.925237 0.722855 0.243606
Si Si3 0.853910 0.810478 0.785308
Si Si4 0.206091 0.605777 0.996609
Si Si5 0.136190 0.419890 0.667160
Si Si6 0.480092 0.389704 0.885687
O O1 0.537971 0.887912 0.711865
O O2 0.441884 0.035921 0.539810
O O3 0.866074 0.687181 0.236411
O O4 0.980221 0.795849 0.446965
O O5 0.898126 0.787612 0.037305
O O6 0.825130 0.699746 0.670059
O O7 0.790598 0.888919 0.687519
O O8 0.898457 0.866360 0.746384
O O9 0.184020 0.499985 0.865677
O O10 0.176145 0.611818 0.101424
O O11 0.500000 0.390063 0.750000
O O12 0.500000 0.500000 0.000000
#
# Coordination Sequence:
#
# PCOD8153566 Si02
#       6
#     4   8   8   8   8   8
#     4  12  22  38  72 100 140 164 212 290 342 398
#     4  12  23  42  71 101 138 171 226 285 342 401
#     4  11  24  45  64  93 136 182 219 276 336 405
#     4  11  24  42  65  93 138 176 220 271 342 415
#     4  12  24  40  67 106 131 177 224 280 350 403
#     4  12  26  45  70  98 129 176 231 281 335 394
#
# _framework density 20.956222
#
# number of rings (size 3 to 8) (size 9 to 14) (size 15 to 20)
#    0.000    0.364    5.455    2.727    3.818    3.636 
#    0.000    0.000    0.000    0.000    0.000    0.000 
#    0.000    0.000    0.000    0.000    0.000    0.000 
#
# Total GULP energy -272805.917354 kJ/mol
# GULP energy per Si atom -12400.268971 kJ/mol
# Density = 2.090852 g / cm^3
# Si number density = 20.956222 Si / 1000 Ang^3
#
#
#
# Elastic Constant Matrix: (Units=GPa)
#
#
# Indices 1 2 3 4 5 6 
#
# 1 -8.7460 -78.7383 90.9445 0.0000 32.0440 0.0000
# 2 -78.7383 -7.3740 31.3122 0.0000 30.3835 0.0000
# 3 90.9445 31.3122 79.5764 0.0000 -10.4811 0.0000
# 4 0.0000 0.0000 0.0000 6.3507 0.0000 -13.6170
# 5 32.0440 30.3835 -10.4811 0.0000 31.5901 0.0000
# 6 0.0000 0.0000 0.0000 -13.6170 0.0000 38.5000
#
#
#
# Elastic Compliance Matrix: (Units=1/GPa)
#
#
# Indices 1 2 3 4 5 6 
#
# 1 0.003538 -0.009863 0.000643 0.000000 0.006111 0.000000
# 2 -0.009863 0.010583 0.007409 0.000000 0.002285 0.000000
# 3 0.000643 0.007409 0.008252 0.000000 -0.005040 0.000000
# 4 0.000000 0.000000 0.000000 0.651678 0.000000 0.230491
# 5 0.006111 0.002285 -0.005040 0.000000 0.021587 0.000000
# 6 0.000000 0.000000 0.000000 0.230491 0.000000 0.107496
#
#
# Mechanical properties :
#
#
# Convention : Reuss Voigt Hill
#
# Bulk Modulus (GPa) = 53.33175 16.72147 35.02661
# Shear Modulus (GPa) = 6.15001 16.61736 11.38369
#
# Velocity S-wave (km/s) = 1.71495 2.81900 2.33322
# Velocity P-wave (km/s) = 5.42455 4.31187 4.89990
#
# Compressibility (1/GPa) = 0.01875056
#
# Stress axis : x y z
#
# Youngs Moduli (GPa) = 282.66762 94.49061 121.17579
#
# Poissons Ratio (x) = 0.93200 -0.07791
# Poissons Ratio (y) = 2.78808 -0.89781
# Poissons Ratio (z) = -0.18174 -0.70009
#
# Static dielectric constant tensor:
#      x y z
#    x 4.410530 0.000000 -0.146530 
#    y 0.000000 3.657980 0.000000 
#    z -0.146530 0.000000 3.979740 
# 
# 
# High freq. dielectric constant tensor:
#      x y z
#    x 1.841300 0.000000 -0.010470 
#    y 0.000000 1.825390 0.000000 
#    z -0.010470 0.000000 1.820970 
# 
# From -- ./inp_files/60936.got.cif
#   From: 2010.06.25/outbox.cif.g09.slc.cpg/sg15_31_cif.got.tgz:60936.got - 2010.06.28 07:06:18.
