data_PCOD8153901
_publ_section_title
;
Structure prediction by ZEFSAII (Michael W. Deem and Ramdas Pophale) SiO2 
 PCOD8153901
Probable space group: C 2/C
;
_chemical_formula_sum "Si O2"
_cell_formula_units_Z 48
_cell_length_a 26.727292
_cell_length_b 5.444740
_cell_length_c 20.448625
_cell_angle_alpha 90.000000
_cell_angle_beta 136.768264
_cell_angle_gamma 90.000000
_cell_volume 2038.241202
_symmetry_space_group_name_H-M "C 2/C"
_symmetry_group_IT_number 15
_symmetry_cell_setting 'monoclinic'
loop_
_space_group_symop_operation_xyz
x,y,z
-x,y,1/2-z
-x,-y,-z
x,-y,1/2+z
1/2+x,1/2+y,z
1/2-x,1/2+y,1/2-z
1/2-x,1/2-y,-z
1/2+x,1/2-y,1/2+z
loop_
_atom_site_type_symbol
_atom_site_label
_atom_site_fract_x
_atom_site_fract_y
_atom_site_fract_z
Si Si1 0.732876 0.155011 0.137305
Si Si2 0.915916 0.649262 0.155638
Si Si3 0.344665 0.049297 0.822849
Si Si4 0.108773 0.842484 0.945382
Si Si5 0.024083 0.138594 0.087790
Si Si6 0.856119 0.836953 0.227482
O O1 0.787182 0.248119 0.245156
O O2 0.670116 0.996194 0.114513
O O3 0.785639 0.999974 0.139413
O O4 0.689072 0.363183 0.055309
O O5 0.886809 0.401594 0.094761
O O6 0.873151 0.660148 0.183304
O O7 0.000000 0.610936 0.250000
O O8 0.904444 0.902666 0.104759
O O9 0.428720 0.129483 0.892053
O O10 0.331290 0.806449 0.768223
O O11 0.047989 0.784328 0.942006
O O12 0.071511 0.988120 0.185479
O O13 0.000000 0.000000 0.000000
#
# Coordination Sequence:
#
# PCOD8153901 Si02
#       6
#     8   8   8   8   8   8
#     4  11  26  43  73 107 146 189 246 304 375 438
#     4  12  27  49  75 103 151 196 249 303 365 436
#     4  11  24  46  72 105 149 190 239 309 380 439
#     4  12  29  47  76 111 145 194 252 304 358 450
#     4  11  26  44  75 111 144 188 250 312 372 438
#     4  11  25  46  72 103 146 198 239 301 377 440
#
# _framework density 23.549717000000001
#
# number of rings (size 3 to 8) (size 9 to 14) (size 15 to 20)
#    0.000    0.667    3.333    2.500   11.667    2.667 
#    0.000    0.000    0.000    0.000    0.000    0.000 
#    0.000    0.000    0.000    0.000    0.000    0.000 
#
# Total GULP energy -297556.128926 kJ/mol
# GULP energy per Si atom -12398.172039 kJ/mol
# Density = 2.349612 g / cm^3
# Si number density = 23.549717 Si / 1000 Ang^3
#
#
#
# Elastic Constant Matrix: (Units=GPa)
#
#
# Indices 1 2 3 4 5 6 
#
# 1 92.3946 0.1206 22.6887 -0.0088 5.1471 -0.0037
# 2 0.1206 80.8769 13.4958 -0.0228 3.4523 -0.0314
# 3 22.6887 13.4958 88.5340 -0.0081 8.5014 -0.0028
# 4 -0.0088 -0.0228 -0.0081 20.8803 -0.0061 -1.2503
# 5 5.1471 3.4523 8.5014 -0.0061 28.0278 -0.0060
# 6 -0.0037 -0.0314 -0.0028 -1.2503 -0.0060 39.3902
#
#
#
# Elastic Compliance Matrix: (Units=1/GPa)
#
#
# Indices 1 2 3 4 5 6 
#
# 1 0.011615 0.000528 -0.002931 0.000004 -0.001309 0.000001
# 2 0.000528 0.012739 -0.001975 0.000014 -0.001067 0.000010
# 3 -0.002931 -0.001975 0.012640 0.000001 -0.003053 -0.000001
# 4 0.000004 0.000014 0.000001 0.047983 0.000008 0.001523
# 5 -0.001309 -0.001067 -0.003053 0.000008 0.036977 0.000005
# 6 0.000001 0.000010 -0.000001 0.001523 0.000005 0.025435
#
#
# Mechanical properties :
#
#
# Convention : Reuss Voigt Hill
#
# Bulk Modulus (GPa) = 35.41355 37.15731 36.28543
# Shear Modulus (GPa) = 30.20073 32.69300 31.44686
#
# Velocity S-wave (km/s) = 3.58498 3.72997 3.65819
# Velocity P-wave (km/s) = 5.67508 5.86197 5.76928
#
# Compressibility (1/GPa) = 0.02823778
#
# Stress axis : x y z
#
# Youngs Moduli (GPa) = 86.09403 78.50066 79.11109
#
# Poissons Ratio (x) = -0.04143 0.23191
# Poissons Ratio (y) = -0.04543 0.15621
# Poissons Ratio (z) = 0.25238 0.15501
#
# Static dielectric constant tensor:
#      x y z
#    x 4.382240 0.000000 0.163530 
#    y 0.000000 4.193450 0.000010 
#    z 0.163530 0.000010 4.320350 
# 
# 
# High freq. dielectric constant tensor:
#      x y z
#    x 1.947350 0.000000 0.011690 
#    y 0.000000 1.929030 0.000000 
#    z 0.011690 0.000000 1.937140 
# 
# From -- ./inp_files/254476.got.cif
#   From: 2010.06.25/outbox.cif.g09.slc.cpg/sg15_128_cif.got.tgz:254476.got - 2010.06.28 07:06:18.
