data_PCOD8153069
_publ_section_title
;
Structure prediction by ZEFSAII (Michael W. Deem and Ramdas Pophale) SiO2 
 PCOD8153069
Probable space group: C 2/C
;
_chemical_formula_sum "Si O2"
_cell_formula_units_Z 56
_cell_length_a 10.574592
_cell_length_b 15.303256
_cell_length_c 16.246747
_cell_angle_alpha 90.000000
_cell_angle_beta 92.044886
_cell_angle_gamma 90.000000
_cell_volume 2627.466729
_symmetry_space_group_name_H-M "C 2/C"
_symmetry_group_IT_number 15
_symmetry_cell_setting 'monoclinic'
loop_
_space_group_symop_operation_xyz
x,y,z
-x,y,1/2-z
-x,-y,-z
x,-y,1/2+z
1/2+x,1/2+y,z
1/2-x,1/2+y,1/2-z
1/2-x,1/2-y,-z
1/2+x,1/2-y,1/2+z
loop_
_atom_site_type_symbol
_atom_site_label
_atom_site_fract_x
_atom_site_fract_y
_atom_site_fract_z
Si Si1 0.859939 0.492520 0.029913
Si Si2 0.355644 0.364930 0.730163
Si Si3 0.227760 0.035210 0.688215
Si Si4 0.756015 0.342067 0.454199
Si Si5 0.362850 0.179571 0.787892
Si Si6 0.007838 0.080398 0.562205
Si Si7 0.698562 0.662281 0.460304
O O1 0.793927 0.586400 0.021882
O O2 0.791615 0.419349 0.973944
O O3 0.843700 0.469763 0.125657
O O4 0.000000 0.500000 0.000000
O O5 0.500000 0.390779 0.750000
O O6 0.272146 0.447903 0.755648
O O7 0.316956 0.279798 0.781207
O O8 0.334193 0.335084 0.636113
O O9 0.258000 0.118301 0.744488
O O10 0.091314 0.050390 0.642422
O O11 0.750000 0.250000 0.500000
O O12 0.862853 0.340669 0.385324
O O13 0.623772 0.376732 0.411388
O O14 0.500000 0.166091 0.750000
O O15 0.072022 0.155342 0.510297
O O16 0.000000 0.000000 0.500000
O O17 0.750000 0.750000 0.500000
#
# Coordination Sequence:
#
# PCOD8153069 Si02
#       7
#     8   8   8   8   8   8   8
#     4  11  24  43  66  96 133 181 223 273 344 416
#     4  11  24  40  70  97 132 175 228 284 347 399
#     4  11  23  42  70 100 135 172 228 287 344 395
#     4  12  26  43  69 100 136 179 230 280 336 412
#     4  11  26  44  65  98 138 178 224 277 348 409
#     4  11  23  43  69  99 131 174 233 282 338 406
#     4  11  24  43  69  97 134 182 229 278 345 417
#
# _framework density 21.313305
#
# number of rings (size 3 to 8) (size 9 to 14) (size 15 to 20)
#    0.000    0.857    2.857    5.143    8.000    0.000 
#    0.000    0.000    3.143    0.000    0.000    0.000 
#    0.000    0.000    0.000    0.000    0.000    0.000 
#
# Total GULP energy -347095.284666 kJ/mol
# GULP energy per Si atom -12396.260167 kJ/mol
# Density = 2.126479 g / cm^3
# Si number density = 21.313305 Si / 1000 Ang^3
#
#
#
# Elastic Constant Matrix: (Units=GPa)
#
#
# Indices 1 2 3 4 5 6 
#
# 1 98.3423 39.2611 25.0921 0.0000 -12.1209 0.0000
# 2 39.2611 136.3467 18.1023 0.0000 2.3143 0.0000
# 3 25.0921 18.1023 100.4662 0.0000 -5.7247 0.0000
# 4 0.0000 0.0000 0.0000 35.4666 0.0000 -1.8758
# 5 -12.1209 2.3143 -5.7247 0.0000 35.5586 0.0000
# 6 0.0000 0.0000 0.0000 -1.8758 0.0000 37.7509
#
#
#
# Elastic Compliance Matrix: (Units=1/GPa)
#
#
# Indices 1 2 3 4 5 6 
#
# 1 0.012626 -0.003400 -0.002304 0.000000 0.004154 0.000000
# 2 -0.003400 0.008448 -0.000777 0.000000 -0.001834 0.000000
# 3 -0.002304 -0.000777 0.010726 0.000000 0.000992 0.000000
# 4 0.000000 0.000000 0.000000 0.028270 0.000000 0.001405
# 5 0.004154 -0.001834 0.000992 0.000000 0.029818 0.000000
# 6 0.000000 0.000000 0.000000 0.001405 0.000000 0.026559
#
#
# Mechanical properties :
#
#
# Convention : Reuss Voigt Hill
#
# Bulk Modulus (GPa) = 53.09012 55.56290 54.32651
# Shear Modulus (GPa) = 36.84923 38.60187 37.72555
#
# Velocity S-wave (km/s) = 4.16255 4.26039 4.21176
# Velocity P-wave (km/s) = 6.93296 7.09418 7.01403
#
# Compressibility (1/GPa) = 0.01883590
#
# Stress axis : x y z
#
# Youngs Moduli (GPa) = 79.20211 118.37554 93.23453
#
# Poissons Ratio (x) = 0.40251 0.21481
# Poissons Ratio (y) = 0.26931 0.07248
# Poissons Ratio (z) = 0.18248 0.09203
#
# Static dielectric constant tensor:
#      x y z
#    x 3.752640 0.000000 -0.012620 
#    y 0.000000 4.030020 0.000000 
#    z -0.012620 0.000000 3.850990 
# 
# 
# High freq. dielectric constant tensor:
#      x y z
#    x 1.828010 0.000000 -0.006980 
#    y 0.000000 1.857230 0.000000 
#    z -0.006980 0.000000 1.841870 
# 
# From -- ./inp_files/144259.got.cif
#   From: 2010.06.25/outbox.cif.g09.slc.cpg/sg15_73_cif.got.tgz:144259.got - 2010.06.28 07:06:18.
