data_PCOD8153376
_publ_section_title
;
Structure prediction by ZEFSAII (Michael W. Deem and Ramdas Pophale) SiO2 
 PCOD8153376
Probable space group: C 2/C
;
_chemical_formula_sum "Si O2"
_cell_formula_units_Z 56
_cell_length_a 17.937814
_cell_length_b 14.638785
_cell_length_c 19.379179
_cell_angle_alpha 90.000000
_cell_angle_beta 151.430235
_cell_angle_gamma 90.000000
_cell_volume 2433.578493
_symmetry_space_group_name_H-M "C 2/C"
_symmetry_group_IT_number 15
_symmetry_cell_setting 'monoclinic'
loop_
_space_group_symop_operation_xyz
x,y,z
-x,y,1/2-z
-x,-y,-z
x,-y,1/2+z
1/2+x,1/2+y,z
1/2-x,1/2+y,1/2-z
1/2-x,1/2-y,-z
1/2+x,1/2-y,1/2+z
loop_
_atom_site_type_symbol
_atom_site_label
_atom_site_fract_x
_atom_site_fract_y
_atom_site_fract_z
Si Si1 0.000000 0.552012 0.750000
Si Si2 0.087372 0.765966 0.055947
Si Si3 0.679689 0.481808 0.453767
Si Si4 0.500000 0.356171 0.750000
Si Si5 0.733453 0.812879 0.052525
Si Si6 0.585089 0.201313 0.715549
Si Si7 0.585640 0.570508 0.019892
Si Si8 0.630290 0.177196 0.224599
O O1 0.853290 0.485566 0.625402
O O2 0.996468 0.616143 0.814624
O O3 0.229361 0.819988 0.134752
O O4 0.164580 0.694807 0.171642
O O5 0.983022 0.712399 0.916166
O O6 0.984937 0.830410 0.021913
O O7 0.639823 0.580291 0.390086
O O8 0.670818 0.406010 0.386031
O O9 0.560736 0.457629 0.419865
O O10 0.561647 0.295240 0.737684
O O11 0.808213 0.762142 0.178817
O O12 0.750000 0.750000 0.000000
O O13 0.552936 0.840048 0.915060
O O14 0.772609 0.583744 0.182241
O O15 0.500000 0.500000 0.000000
#
# Coordination Sequence:
#
# PCOD8153376 Si02
#       8
#     4   8   8   4   8   8   8   8
#     4  11  24  46  69 102 132 178 229 298 346 413
#     4  12  23  43  69  99 134 183 226 278 344 431
#     4  12  26  43  70 101 141 175 231 294 348 408
#     4  11  26  44  69 106 134 176 231 294 348 423
#     4  12  25  43  72 101 140 188 236 290 351 420
#     4  11  23  45  74  97 136 180 231 282 359 422
#     4  12  25  43  68 101 141 185 231 286 349 420
#     4  12  24  45  68 106 141 187 237 284 358 428
#
# _framework density 23.011379000000002
#
# number of rings (size 3 to 8) (size 9 to 14) (size 15 to 20)
#    0.000    0.286    4.286    4.714    4.000    2.286 
#    0.000    0.000    0.000    5.143    0.000    0.000 
#    0.000    0.000    0.000    0.000    0.000    0.000 
#
# Total GULP energy -347230.026387 kJ/mol
# GULP energy per Si atom -12401.072371 kJ/mol
# Density = 2.295900 g / cm^3
# Si number density = 23.011379 Si / 1000 Ang^3
#
#
#
# Elastic Constant Matrix: (Units=GPa)
#
#
# Indices 1 2 3 4 5 6 
#
# 1 121.3636 37.9730 42.0508 0.0034 -5.5955 0.0033
# 2 37.9730 65.0066 -3.1270 0.0064 -13.5935 0.0051
# 3 42.0508 -3.1270 85.1635 0.0044 -7.7959 0.0049
# 4 0.0034 0.0064 0.0044 28.5736 -0.0001 10.1651
# 5 -5.5955 -13.5935 -7.7959 -0.0001 44.7272 -0.0001
# 6 0.0033 0.0051 0.0049 10.1651 -0.0001 42.5540
#
#
#
# Elastic Compliance Matrix: (Units=1/GPa)
#
#
# Indices 1 2 3 4 5 6 
#
# 1 0.013256 -0.008535 -0.007057 0.000001 -0.002166 0.000001
# 2 -0.008535 0.022021 0.005628 -0.000004 0.006606 -0.000002
# 3 -0.007057 0.005628 0.015760 -0.000002 0.003575 -0.000001
# 4 0.000001 -0.000004 -0.000002 0.038248 -0.000001 -0.009136
# 5 -0.002166 0.006606 0.003575 -0.000001 0.024717 -0.000001
# 6 0.000001 -0.000002 -0.000001 -0.009136 -0.000001 0.025682
#
#
# Mechanical properties :
#
#
# Convention : Reuss Voigt Hill
#
# Bulk Modulus (GPa) = 32.14614 47.25860 39.70237
# Shear Modulus (GPa) = 29.41481 36.14673 32.78077
#
# Velocity S-wave (km/s) = 3.57917 3.96766 3.77841
# Velocity P-wave (km/s) = 5.57500 6.44759 6.02711
#
# Compressibility (1/GPa) = 0.03110794
#
# Stress axis : x y z
#
# Youngs Moduli (GPa) = 75.44010 45.41124 63.45030
#
# Poissons Ratio (x) = 0.38760 0.44775
# Poissons Ratio (y) = 0.64391 -0.35708
# Poissons Ratio (z) = 0.53236 -0.25556
#
# Static dielectric constant tensor:
#      x y z
#    x 4.559060 -0.000040 0.146530 
#    y -0.000040 4.227220 -0.000010 
#    z 0.146530 -0.000010 4.265190 
# 
# 
# High freq. dielectric constant tensor:
#      x y z
#    x 1.929660 0.000000 0.007340 
#    y 0.000000 1.897930 0.000000 
#    z 0.007340 0.000000 1.915200 
# 
# From -- ./inp_files/249308.got.cif
#   From: 2010.06.25/outbox.cif.g09.slc.cpg/sg15_125_cif.got.tgz:249308.got - 2010.06.28 07:06:18.
