data_PCOD8153895
_publ_section_title
;
Structure prediction by ZEFSAII (Michael W. Deem and Ramdas Pophale) SiO2 
 PCOD8153895
Probable space group: C 2/C
;
_chemical_formula_sum "Si O2"
_cell_formula_units_Z 44
_cell_length_a 12.878329
_cell_length_b 14.366165
_cell_length_c 11.642113
_cell_angle_alpha 90.000000
_cell_angle_beta 65.634441
_cell_angle_gamma 90.000000
_cell_volume 1962.086039
_symmetry_space_group_name_H-M "C 2/C"
_symmetry_group_IT_number 15
_symmetry_cell_setting 'monoclinic'
loop_
_space_group_symop_operation_xyz
x,y,z
-x,y,1/2-z
-x,-y,-z
x,-y,1/2+z
1/2+x,1/2+y,z
1/2-x,1/2+y,1/2-z
1/2-x,1/2-y,-z
1/2+x,1/2-y,1/2+z
loop_
_atom_site_type_symbol
_atom_site_label
_atom_site_fract_x
_atom_site_fract_y
_atom_site_fract_z
Si Si1 0.379786 0.686823 0.561258
Si Si2 0.771170 0.168089 0.836298
Si Si3 0.864034 0.151508 0.044055
Si Si4 0.500000 0.989948 0.250000
Si Si5 0.172133 0.374157 0.027518
Si Si6 0.212788 0.467369 0.775893
O O1 0.359499 0.714034 0.704579
O O2 0.501882 0.637951 0.495777
O O3 0.275849 0.619405 0.570973
O O4 0.375812 0.771776 0.474196
O O5 0.672775 0.244026 0.903374
O O6 0.719203 0.076923 0.800077
O O7 0.834374 0.137771 0.923765
O O8 0.807544 0.069844 0.144435
O O9 0.434206 0.930342 0.375358
O O10 0.410547 0.054724 0.223698
O O11 0.225213 0.412579 0.887154
#
# Coordination Sequence:
#
# PCOD8153895 Si02
#       6
#     8   8   8   4   8   8
#     4  11  24  46  72 101 142 180 233 287 346 414
#     4  11  24  48  70 105 140 186 235 278 355 411
#     4  11  26  47  74 102 143 186 231 289 347 414
#     4  12  24  44  70  98 144 176 236 288 338 420
#     4  11  25  44  72 105 134 184 232 285 353 409
#     4  12  25  46  71 106 135 187 231 289 349 415
#
# _framework density 22.425111999999999
#
# number of rings (size 3 to 8) (size 9 to 14) (size 15 to 20)
#    0.000    0.727    3.636    3.273    0.000    4.364 
#    3.273    0.000    0.000    0.000    0.000    0.000 
#    0.000    0.000    0.000    0.000    0.000    0.000 
#
# Total GULP energy -272803.767853 kJ/mol
# GULP energy per Si atom -12400.171266 kJ/mol
# Density = 2.237407 g / cm^3
# Si number density = 22.425112 Si / 1000 Ang^3
#
#
#
# Elastic Constant Matrix: (Units=GPa)
#
#
# Indices 1 2 3 4 5 6 
#
# 1 139.4542 27.4529 72.3689 0.0000 -8.9332 0.0000
# 2 27.4529 60.7969 16.2098 0.0000 7.2411 0.0000
# 3 72.3689 16.2098 149.3702 0.0000 6.2542 0.0000
# 4 0.0000 0.0000 0.0000 35.7779 0.0000 -4.1612
# 5 -8.9332 7.2411 6.2542 0.0000 40.6278 0.0000
# 6 0.0000 0.0000 0.0000 -4.1612 0.0000 29.7436
#
#
#
# Elastic Compliance Matrix: (Units=1/GPa)
#
#
# Indices 1 2 3 4 5 6 
#
# 1 0.010771 -0.004003 -0.004945 0.000000 0.003843 0.000000
# 2 -0.004003 0.018738 0.000083 0.000000 -0.004233 0.000000
# 3 -0.004945 0.000083 0.009187 0.000000 -0.002516 0.000000
# 4 0.000000 0.000000 0.000000 0.028413 0.000000 0.003975
# 5 0.003843 -0.004233 -0.002516 0.000000 0.026600 0.000000
# 6 0.000000 0.000000 0.000000 0.003975 0.000000 0.034177
#
#
# Mechanical properties :
#
#
# Convention : Reuss Voigt Hill
#
# Bulk Modulus (GPa) = 47.69594 64.63160 56.16377
# Shear Modulus (GPa) = 32.76451 36.80252 34.78352
#
# Velocity S-wave (km/s) = 3.82653 4.05548 3.94267
# Velocity P-wave (km/s) = 6.39048 7.12832 6.76946
#
# Compressibility (1/GPa) = 0.02096614
#
# Stress axis : x y z
#
# Youngs Moduli (GPa) = 92.83972 53.36837 108.84965
#
# Poissons Ratio (x) = 0.21363 0.53827
# Poissons Ratio (y) = 0.37164 -0.00906
# Poissons Ratio (z) = 0.45910 -0.00444
#
# Static dielectric constant tensor:
#      x y z
#    x 4.020290 0.000000 0.176880 
#    y 0.000000 3.926840 0.000000 
#    z 0.176880 0.000000 4.231650 
# 
# 
# High freq. dielectric constant tensor:
#      x y z
#    x 1.885360 0.000000 0.013460 
#    y 0.000000 1.877090 0.000000 
#    z 0.013460 0.000000 1.905800 
# 
# From -- ./inp_files/87722.got.cif
#   From: 2010.06.25/outbox.cif.g09.slc.cpg/sg15_44_cif.got.tgz:87722.got - 2010.06.28 07:06:18.
