data_PCOD8153358
_publ_section_title
;
Structure prediction by ZEFSAII (Michael W. Deem and Ramdas Pophale) SiO2 
 PCOD8153358
Probable space group: C 2/C
;
_chemical_formula_sum "Si O2"
_cell_formula_units_Z 56
_cell_length_a 23.507822
_cell_length_b 14.079653
_cell_length_c 14.696603
_cell_angle_alpha 90.000000
_cell_angle_beta 32.150474
_cell_angle_gamma 90.000000
_cell_volume 2588.516845
_symmetry_space_group_name_H-M "C 2/C"
_symmetry_group_IT_number 15
_symmetry_cell_setting 'monoclinic'
loop_
_space_group_symop_operation_xyz
x,y,z
-x,y,1/2-z
-x,-y,-z
x,-y,1/2+z
1/2+x,1/2+y,z
1/2-x,1/2+y,1/2-z
1/2-x,1/2-y,-z
1/2+x,1/2-y,1/2+z
loop_
_atom_site_type_symbol
_atom_site_label
_atom_site_fract_x
_atom_site_fract_y
_atom_site_fract_z
Si Si1 0.638729 0.539496 0.735772
Si Si2 0.983769 0.476271 0.668549
Si Si3 0.026759 0.310560 0.114743
Si Si4 0.255717 0.713456 0.240284
Si Si5 0.262435 0.076285 0.387999
Si Si6 0.458002 0.352245 0.574399
Si Si7 0.713182 0.066395 0.802592
O O1 0.676822 0.565433 0.583670
O O2 0.572066 0.441580 0.821184
O O3 0.739355 0.525607 0.667308
O O4 0.563037 0.624138 0.873496
O O5 0.881798 0.424694 0.765217
O O6 0.000000 0.443296 0.750000
O O7 0.966573 0.589274 0.684211
O O8 0.085414 0.441907 0.473175
O O9 0.000000 0.268590 0.250000
O O10 0.980975 0.239051 0.103325
O O11 0.153438 0.328845 0.932238
O O12 0.251973 0.678896 0.140390
O O13 0.362424 0.671021 0.136873
O O14 0.249835 0.825862 0.257328
O O15 0.239952 0.993096 0.345199
#
# Coordination Sequence:
#
# PCOD8153358 Si02
#       7
#     8   8   8   8   8   8   8
#     4  11  25  46  70  99 145 185 233 290 354 422
#     4  11  23  45  73 103 141 185 234 297 349 412
#     4  11  25  44  73 108 140 180 239 291 350 418
#     4  12  27  45  70 103 142 184 240 288 349 427
#     4  12  26  46  74 102 143 190 234 291 363 408
#     4  11  25  48  68 102 143 183 235 295 344 429
#     4  12  24  47  70 103 143 185 235 294 345 423
#
# _framework density 21.634011000000001
#
# number of rings (size 3 to 8) (size 9 to 14) (size 15 to 20)
#    0.000    0.571    5.714    1.286    6.000    1.714 
#    2.571    0.000    0.000    0.000    0.000    0.000 
#    0.000    0.000    0.000    0.000    0.000    0.000 
#
# Total GULP energy -347395.454237 kJ/mol
# GULP energy per Si atom -12406.980508 kJ/mol
# Density = 2.158477 g / cm^3
# Si number density = 21.634011 Si / 1000 Ang^3
#
#
#
# Elastic Constant Matrix: (Units=GPa)
#
#
# Indices 1 2 3 4 5 6 
#
# 1 122.6615 31.2632 48.9537 0.0000 5.6031 0.0000
# 2 31.2632 52.7067 0.7841 0.0000 1.9193 0.0000
# 3 48.9537 0.7841 127.7931 0.0000 15.7531 0.0000
# 4 0.0000 0.0000 0.0000 24.7150 0.0000 -1.1047
# 5 5.6031 1.9193 15.7531 0.0000 43.9216 0.0000
# 6 0.0000 0.0000 0.0000 -1.1047 0.0000 35.2057
#
#
#
# Elastic Compliance Matrix: (Units=1/GPa)
#
#
# Indices 1 2 3 4 5 6 
#
# 1 0.011674 -0.006873 -0.004481 0.000000 0.000418 0.000000
# 2 -0.006873 0.023050 0.002623 0.000000 -0.001071 0.000000
# 3 -0.004481 0.002623 0.009907 0.000000 -0.003096 0.000000
# 4 0.000000 0.000000 0.000000 0.040518 0.000000 0.001271
# 5 0.000418 -0.001071 -0.003096 0.000000 0.023872 0.000000
# 6 0.000000 0.000000 0.000000 0.001271 0.000000 0.028444
#
#
# Mechanical properties :
#
#
# Convention : Reuss Voigt Hill
#
# Bulk Modulus (GPa) = 36.80627 51.68483 44.24555
# Shear Modulus (GPa) = 30.49110 35.57914 33.03512
#
# Velocity S-wave (km/s) = 3.75828 4.05976 3.91192
# Velocity P-wave (km/s) = 5.99024 6.77628 6.39535
#
# Compressibility (1/GPa) = 0.02716929
#
# Stress axis : x y z
#
# Youngs Moduli (GPa) = 85.66398 43.38482 100.93514
#
# Poissons Ratio (x) = 0.29817 0.45231
# Poissons Ratio (y) = 0.58875 -0.26479
# Poissons Ratio (z) = 0.38388 -0.11382
#
# Static dielectric constant tensor:
#      x y z
#    x 3.974730 0.000000 -0.015240 
#    y 0.000000 3.940150 0.000000 
#    z -0.015240 0.000000 3.995500 
# 
# 
# High freq. dielectric constant tensor:
#      x y z
#    x 1.855890 0.000000 -0.005880 
#    y 0.000000 1.854510 0.000000 
#    z -0.005880 0.000000 1.854840 
# 
# From -- ./inp_files/173770.got.cif
#   From: 2010.06.25/outbox.cif.g09.slc.cpg/sg15_87_cif.got.tgz:173770.got - 2010.06.28 07:06:18.
