data_PCOD8153765
_publ_section_title
;
Structure prediction by ZEFSAII (Michael W. Deem and Ramdas Pophale) SiO2 
 PCOD8153765
Probable space group: C 2/C
;
_chemical_formula_sum "Si O2"
_cell_formula_units_Z 40
_cell_length_a 11.263490
_cell_length_b 10.548209
_cell_length_c 21.419434
_cell_angle_alpha 90.000000
_cell_angle_beta 41.999308
_cell_angle_gamma 90.000000
_cell_volume 1702.804402
_symmetry_space_group_name_H-M "C 2/C"
_symmetry_group_IT_number 15
_symmetry_cell_setting 'monoclinic'
loop_
_space_group_symop_operation_xyz
x,y,z
-x,y,1/2-z
-x,-y,-z
x,-y,1/2+z
1/2+x,1/2+y,z
1/2-x,1/2+y,1/2-z
1/2-x,1/2-y,-z
1/2+x,1/2-y,1/2+z
loop_
_atom_site_type_symbol
_atom_site_label
_atom_site_fract_x
_atom_site_fract_y
_atom_site_fract_z
Si Si1 0.734698 0.763998 0.823166
Si Si2 0.528096 0.693287 0.383109
Si Si3 0.874383 0.633942 0.440619
Si Si4 0.296081 0.009568 0.346425
Si Si5 0.677266 0.900603 0.968496
O O1 0.905416 0.758855 0.711345
O O2 0.563275 0.803099 0.849041
O O3 0.713512 0.628842 0.865976
O O4 0.744987 0.871459 0.872363
O O5 0.682684 0.610430 0.352531
O O6 0.485127 0.812290 0.444477
O O7 0.349007 0.613868 0.445780
O O8 0.750000 0.750000 0.500000
O O9 0.789863 0.542459 0.421706
O O10 0.888364 0.547039 0.498241
O O11 0.500000 0.016636 0.250000
#
# Coordination Sequence:
#
# PCOD8153765 Si02
#       5
#     8   8   8   8   8
#     4  12  25  45  75 106 148 196 245 307 378 442
#     4  11  24  44  76 108 142 200 246 303 377 445
#     4  12  26  46  70 108 143 192 251 307 376 449
#     4  12  24  47  73 104 148 192 248 305 368 448
#     4  11  24  45  71 109 147 189 251 308 368 445
#
# _framework density 23.490659000000001
#
# number of rings (size 3 to 8) (size 9 to 14) (size 15 to 20)
#    0.000    0.400    2.000    8.400    0.000    2.400 
#    0.000    0.000    0.000    0.000    0.000    0.000 
#    0.000    0.000    0.000    0.000    0.000    0.000 
#
# Total GULP energy -248012.243298 kJ/mol
# GULP energy per Si atom -12400.612165 kJ/mol
# Density = 2.343719 g / cm^3
# Si number density = 23.490659 Si / 1000 Ang^3
#
#
#
# Elastic Constant Matrix: (Units=GPa)
#
#
# Indices 1 2 3 4 5 6 
#
# 1 80.4335 44.4527 21.7998 0.0000 -3.2802 0.0000
# 2 44.4527 134.5404 40.7226 0.0000 -7.3679 0.0000
# 3 21.7998 40.7226 113.4057 0.0001 6.4591 0.0000
# 4 0.0000 0.0000 0.0001 37.1522 0.0000 -1.6761
# 5 -3.2802 -7.3679 6.4591 0.0000 43.9449 0.0000
# 6 0.0000 0.0000 0.0000 -1.6761 0.0000 39.3464
#
#
#
# Elastic Compliance Matrix: (Units=1/GPa)
#
#
# Indices 1 2 3 4 5 6 
#
# 1 0.015385 -0.004653 -0.001318 0.000000 0.000562 0.000000
# 2 -0.004653 0.009899 -0.002758 0.000000 0.001718 0.000000
# 3 -0.001318 -0.002758 0.010179 0.000000 -0.002057 0.000000
# 4 0.000000 0.000000 0.000000 0.026968 0.000000 0.001149
# 5 0.000562 0.001718 -0.002057 0.000000 0.023388 0.000000
# 6 0.000000 0.000000 0.000000 0.001149 0.000000 0.025464
#
#
# Mechanical properties :
#
#
# Convention : Reuss Voigt Hill
#
# Bulk Modulus (GPa) = 55.54600 60.25889 57.90244
# Shear Modulus (GPa) = 37.10761 38.84900 37.97830
#
# Velocity S-wave (km/s) = 3.97882 4.07111 4.02523
# Velocity P-wave (km/s) = 6.69368 6.91423 6.80485
#
# Compressibility (1/GPa) = 0.01800310
#
# Stress axis : x y z
#
# Youngs Moduli (GPa) = 65.00006 101.02002 98.24302
#
# Poissons Ratio (x) = 0.47008 0.12953
# Poissons Ratio (y) = 0.30247 0.27095
# Poissons Ratio (z) = 0.08570 0.27861
#
# Static dielectric constant tensor:
#      x y z
#    x 4.237450 0.000000 -0.240830 
#    y 0.000000 4.645290 0.000000 
#    z -0.240830 0.000000 4.372340 
# 
# 
# High freq. dielectric constant tensor:
#      x y z
#    x 1.947200 0.000000 -0.006320 
#    y 0.000000 1.931050 0.000000 
#    z -0.006320 0.000000 1.935480 
# 
# From -- ./inp_files/237365.got.cif
#   From: 2010.06.25/outbox.cif.g09.slc.cpg/sg15_119_cif.got.tgz:237365.got - 2010.06.28 07:06:18.
