data_PCOD8153077
_publ_section_title
;
Structure prediction by ZEFSAII (Michael W. Deem and Ramdas Pophale) SiO2 
 PCOD8153077
Probable space group: C 2/C
;
_chemical_formula_sum "Si O2"
_cell_formula_units_Z 48
_cell_length_a 18.596433
_cell_length_b 5.442165
_cell_length_c 25.847645
_cell_angle_alpha 90.000000
_cell_angle_beta 123.442016
_cell_angle_gamma 90.000000
_cell_volume 2182.827976
_symmetry_space_group_name_H-M "C 2/C"
_symmetry_group_IT_number 15
_symmetry_cell_setting 'monoclinic'
loop_
_space_group_symop_operation_xyz
x,y,z
-x,y,1/2-z
-x,-y,-z
x,-y,1/2+z
1/2+x,1/2+y,z
1/2-x,1/2+y,1/2-z
1/2-x,1/2-y,-z
1/2+x,1/2-y,1/2+z
loop_
_atom_site_type_symbol
_atom_site_label
_atom_site_fract_x
_atom_site_fract_y
_atom_site_fract_z
Si Si1 0.851676 0.115478 0.305868
Si Si2 0.382469 0.007649 0.902575
Si Si3 0.431718 0.932300 0.177180
Si Si4 0.773533 0.680497 0.678427
Si Si5 0.047151 0.198464 0.984887
Si Si6 0.033703 0.930750 0.370632
O O1 0.875800 0.368796 0.343625
O O2 0.832937 0.144645 0.237560
O O3 0.765024 0.023706 0.298892
O O4 0.930733 0.924345 0.341826
O O5 0.305237 0.817260 0.880906
O O6 0.478631 0.904440 0.941398
O O7 0.375533 0.194616 0.948887
O O8 0.500000 0.912668 0.250000
O O9 0.334043 0.939886 0.159298
O O10 0.442238 0.690071 0.145988
O O11 0.443507 0.191724 0.153502
O O12 0.083566 0.083935 0.945687
O O13 0.000000 0.000000 0.000000
#
# Coordination Sequence:
#
# PCOD8153077 Si02
#       6
#     8   8   8   8   8   8
#     4  12  24  41  75 105 140 185 251 302 358 429
#     4  11  23  42  70 109 138 182 244 310 354 414
#     4  12  29  45  70 103 157 189 234 289 386 440
#     4  12  26  42  70 109 147 188 234 314 365 436
#     4  11  23  42  75 103 139 186 252 304 347 425
#     4  12  26  48  70 108 139 199 238 294 358 443
#
# _framework density 21.989822
#
# number of rings (size 3 to 8) (size 9 to 14) (size 15 to 20)
#    0.000    0.333    6.667    1.500    7.000    0.000 
#    0.000    1.667    0.000    0.000    0.000    0.000 
#    0.000    0.000    0.000    0.000    0.000    0.000 
#
# Total GULP energy -297587.396927 kJ/mol
# GULP energy per Si atom -12399.474872 kJ/mol
# Density = 2.193977 g / cm^3
# Si number density = 21.989822 Si / 1000 Ang^3
#
#
#
# Elastic Constant Matrix: (Units=GPa)
#
#
# Indices 1 2 3 4 5 6 
#
# 1 118.2835 30.6228 9.8228 -0.0004 -13.5025 -0.0024
# 2 30.6228 108.3559 15.6957 -0.0009 -15.8157 -0.0065
# 3 9.8228 15.6957 76.7674 -0.0001 -12.5006 -0.0010
# 4 -0.0004 -0.0009 -0.0001 35.7684 0.0003 -10.4690
# 5 -13.5025 -15.8157 -12.5006 0.0003 34.1125 -0.0003
# 6 -0.0024 -0.0065 -0.0010 -10.4690 -0.0003 39.8296
#
#
#
# Elastic Compliance Matrix: (Units=1/GPa)
#
#
# Indices 1 2 3 4 5 6 
#
# 1 0.009348 -0.002222 -0.000326 0.000000 0.002550 0.000000
# 2 -0.002222 0.010562 -0.001298 0.000001 0.003541 0.000002
# 3 -0.000326 -0.001298 0.014053 0.000000 0.004419 0.000000
# 4 0.000000 0.000001 0.000000 0.030288 0.000000 0.007961
# 5 0.002550 0.003541 0.004419 0.000000 0.033585 0.000001
# 6 0.000000 0.000002 0.000000 0.007961 0.000001 0.027199
#
#
# Mechanical properties :
#
#
# Convention : Reuss Voigt Hill
#
# Bulk Modulus (GPa) = 38.06859 46.18773 42.12816
# Shear Modulus (GPa) = 35.33920 38.42646 36.88283
#
# Velocity S-wave (km/s) = 4.01318 4.18480 4.09989
# Velocity P-wave (km/s) = 6.23086 6.66332 6.45072
#
# Compressibility (1/GPa) = 0.02626837
#
# Stress axis : x y z
#
# Youngs Moduli (GPa) = 106.97675 94.68008 71.15856
#
# Poissons Ratio (x) = 0.21041 0.02323
# Poissons Ratio (y) = 0.23774 0.09239
# Poissons Ratio (z) = 0.03493 0.12294
#
# Static dielectric constant tensor:
#      x y z
#    x 3.902970 0.000030 -0.422310 
#    y 0.000030 3.879860 0.000330 
#    z -0.422310 0.000330 0.621300 
# 
# 
# High freq. dielectric constant tensor:
#      x y z
#    x 1.842900 0.000000 -0.004710 
#    y 0.000000 1.877030 0.000000 
#    z -0.004710 0.000000 1.878530 
# 
# From -- ./inp_files/275888.got.cif
#   From: 2010.06.25/outbox.cif.g09.slc.cpg/sg15_138_cif.got.tgz:275888.got - 2010.06.28 07:06:18.
