data_PCOD8153964
_publ_section_title
;
Structure prediction by ZEFSAII (Michael W. Deem and Ramdas Pophale) SiO2 
 PCOD8153964
Probable space group: C 2/C
;
_chemical_formula_sum "Si O2"
_cell_formula_units_Z 40
_cell_length_a 9.950114
_cell_length_b 9.719619
_cell_length_c 18.924130
_cell_angle_alpha 90.000000
_cell_angle_beta 95.337605
_cell_angle_gamma 90.000000
_cell_volume 1822.241627
_symmetry_space_group_name_H-M "C 2/C"
_symmetry_group_IT_number 15
_symmetry_cell_setting 'monoclinic'
loop_
_space_group_symop_operation_xyz
x,y,z
-x,y,1/2-z
-x,-y,-z
x,-y,1/2+z
1/2+x,1/2+y,z
1/2-x,1/2+y,1/2-z
1/2-x,1/2-y,-z
1/2+x,1/2-y,1/2+z
loop_
_atom_site_type_symbol
_atom_site_label
_atom_site_fract_x
_atom_site_fract_y
_atom_site_fract_z
Si Si1 0.334340 0.528874 0.416484
Si Si2 0.912696 0.847329 0.060329
Si Si3 0.852392 0.181903 0.271647
Si Si4 0.221684 0.457509 0.169437
Si Si5 0.957497 0.467354 0.576870
O O1 0.436319 0.405580 0.435779
O O2 0.346170 0.643811 0.479230
O O3 0.368116 0.603148 0.345741
O O4 0.184858 0.460240 0.410629
O O5 0.822393 0.936129 0.109243
O O6 0.927092 0.692885 0.087603
O O7 0.774392 0.325937 0.278596
O O8 0.000000 0.211684 0.250000
O O9 0.765404 0.092960 0.213105
O O10 0.069189 0.477962 0.135777
O O11 0.000000 0.500000 0.500000
#
# Coordination Sequence:
#
# PCOD8153964 Si02
#       5
#     8   8   8   8   8
#     4  11  24  47  72 104 144 186 232 300 350 425
#     4  11  24  48  75 102 144 190 236 294 361 420
#     4  12  28  46  71 104 147 187 239 293 362 430
#     4  12  28  47  73 105 142 193 238 294 363 427
#     4  12  25  44  76 109 140 183 245 300 354 420
#
# _framework density 21.950986
#
# number of rings (size 3 to 8) (size 9 to 14) (size 15 to 20)
#    0.000    0.400    6.000    1.800    5.600    0.800 
#    0.000    0.000    0.000    0.000    0.000    0.000 
#    0.000    0.000    0.000    0.000    0.000    0.000 
#
# Total GULP energy -248144.302391 kJ/mol
# GULP energy per Si atom -12407.215120 kJ/mol
# Density = 2.190102 g / cm^3
# Si number density = 21.950986 Si / 1000 Ang^3
#
#
#
# Elastic Constant Matrix: (Units=GPa)
#
#
# Indices 1 2 3 4 5 6 
#
# 1 140.1032 20.4956 37.4806 0.0000 -1.7497 0.0000
# 2 20.4956 53.8720 17.5801 0.0000 16.5839 0.0000
# 3 37.4806 17.5801 109.5844 0.0000 -3.5405 0.0000
# 4 0.0000 0.0000 0.0000 36.7810 0.0000 -5.9954
# 5 -1.7497 16.5839 -3.5405 0.0000 37.4746 0.0000
# 6 0.0000 0.0000 0.0000 -5.9954 0.0000 28.1979
#
#
#
# Elastic Compliance Matrix: (Units=1/GPa)
#
#
# Indices 1 2 3 4 5 6 
#
# 1 0.008180 -0.002791 -0.002305 0.000000 0.001399 0.000000
# 2 -0.002791 0.024112 -0.003273 0.000000 -0.011110 0.000000
# 3 -0.002305 -0.003273 0.010514 0.000000 0.002334 0.000000
# 4 0.000000 0.000000 0.000000 0.028164 0.000000 0.005988
# 5 0.001399 -0.011110 0.002334 0.000000 0.031887 0.000000
# 6 0.000000 0.000000 0.000000 0.005988 0.000000 0.036737
#
#
# Mechanical properties :
#
#
# Convention : Reuss Voigt Hill
#
# Bulk Modulus (GPa) = 38.35822 50.51913 44.43868
# Shear Modulus (GPa) = 30.29921 35.69091 32.99506
#
# Velocity S-wave (km/s) = 3.71929 4.03666 3.88122
# Velocity P-wave (km/s) = 5.99638 6.69259 6.35402
#
# Compressibility (1/GPa) = 0.02607003
#
# Stress axis : x y z
#
# Youngs Moduli (GPa) = 122.25084 41.47256 95.11004
#
# Poissons Ratio (x) = 0.11573 0.21921
# Poissons Ratio (y) = 0.34115 0.31127
# Poissons Ratio (z) = 0.28177 0.13573
#
# Static dielectric constant tensor:
#      x y z
#    x 4.361460 0.000000 -0.096770 
#    y 0.000000 3.880450 0.000000 
#    z -0.096770 0.000000 4.044150 
# 
# 
# High freq. dielectric constant tensor:
#      x y z
#    x 1.886780 0.000000 -0.006420 
#    y 0.000000 1.856850 0.000000 
#    z -0.006420 0.000000 1.873560 
# 
# From -- ./inp_files/187911.got.cif
#   From: 2010.06.25/outbox.cif.g09.slc.cpg/sg15_94_cif.got.tgz:187911.got - 2010.06.28 07:06:18.
