data_PCOD8153420
_publ_section_title
;
Structure prediction by ZEFSAII (Michael W. Deem and Ramdas Pophale) SiO2 
 PCOD8153420
Probable space group: C 2/C
;
_chemical_formula_sum "Si O2"
_cell_formula_units_Z 56
_cell_length_a 28.474642
_cell_length_b 8.521607
_cell_length_c 10.985334
_cell_angle_alpha 90.000000
_cell_angle_beta 65.895541
_cell_angle_gamma 90.000000
_cell_volume 2433.155200
_symmetry_space_group_name_H-M "C 2/C"
_symmetry_group_IT_number 15
_symmetry_cell_setting 'monoclinic'
loop_
_space_group_symop_operation_xyz
x,y,z
-x,y,1/2-z
-x,-y,-z
x,-y,1/2+z
1/2+x,1/2+y,z
1/2-x,1/2+y,1/2-z
1/2-x,1/2-y,-z
1/2+x,1/2-y,1/2+z
loop_
_atom_site_type_symbol
_atom_site_label
_atom_site_fract_x
_atom_site_fract_y
_atom_site_fract_z
Si Si1 0.303482 0.829538 0.770575
Si Si2 0.569055 0.216612 0.000281
Si Si3 0.601711 0.873087 0.998906
Si Si4 0.734829 0.832810 0.143941
Si Si5 0.126283 0.878218 0.150247
Si Si6 0.129962 0.222800 0.208124
Si Si7 0.966985 0.848225 0.068746
O O1 0.353620 0.889606 0.647525
O O2 0.272353 0.715942 0.712999
O O3 0.324516 0.725776 0.861247
O O4 0.268766 0.975423 0.856644
O O5 0.607070 0.323513 0.039684
O O6 0.508658 0.238521 0.090227
O O7 0.580593 0.269267 0.848583
O O8 0.573578 0.036783 0.026611
O O9 0.559762 0.735638 0.019022
O O10 0.624741 0.851801 0.108265
O O11 0.678587 0.769842 0.239244
O O12 0.750000 0.750000 0.000000
O O13 0.078836 0.879289 0.291689
O O14 0.142582 0.059522 0.126587
O O15 0.000000 0.000000 0.000000
#
# Coordination Sequence:
#
# PCOD8153420 Si02
#       7
#     8   8   8   8   8   8   8
#     4  11  25  47  72 105 140 186 235 296 359 423
#     4  12  25  45  71 102 146 190 238 293 357 419
#     4  11  25  44  71 101 146 183 239 293 351 424
#     4  12  25  46  76 104 143 185 241 295 359 432
#     4  11  26  45  72 104 147 187 238 295 356 421
#     4  12  25  45  74 104 141 188 237 298 356 423
#     4  11  23  46  71 102 143 192 240 291 351 422
#
# _framework density 23.015384000000001
#
# number of rings (size 3 to 8) (size 9 to 14) (size 15 to 20)
#    0.000    0.571    4.286    3.429    4.000    1.714 
#    2.571    2.143    0.000    0.000    0.000    0.000 
#    0.000    0.000    0.000    0.000    0.000    0.000 
#
# Total GULP energy -347163.370047 kJ/mol
# GULP energy per Si atom -12398.691787 kJ/mol
# Density = 2.296300 g / cm^3
# Si number density = 23.015384 Si / 1000 Ang^3
#
#
#
# Elastic Constant Matrix: (Units=GPa)
#
#
# Indices 1 2 3 4 5 6 
#
# 1 113.0242 31.0341 4.0066 0.0000 2.3966 0.0000
# 2 31.0341 141.4323 26.7102 0.0000 -7.6812 0.0000
# 3 4.0066 26.7102 49.8204 0.0000 14.2508 0.0000
# 4 0.0000 0.0000 0.0000 34.6146 0.0000 -0.4996
# 5 2.3966 -7.6812 14.2508 0.0000 23.6435 0.0000
# 6 0.0000 0.0000 0.0000 -0.4996 0.0000 46.9691
#
#
#
# Elastic Compliance Matrix: (Units=1/GPa)
#
#
# Indices 1 2 3 4 5 6 
#
# 1 0.009535 -0.002474 0.001288 0.000000 -0.002546 0.000000
# 2 -0.002474 0.009329 -0.006937 0.000000 0.007463 0.000000
# 3 0.001288 -0.006937 0.029447 0.000000 -0.020133 0.000000
# 4 0.000000 0.000000 0.000000 0.028894 0.000000 0.000307
# 5 -0.002546 0.007463 -0.020133 0.000000 0.057112 0.000000
# 6 0.000000 0.000000 0.000000 0.000307 0.000000 0.021294
#
#
# Mechanical properties :
#
#
# Convention : Reuss Voigt Hill
#
# Bulk Modulus (GPa) = 31.18721 47.53097 39.35909
# Shear Modulus (GPa) = 27.39048 37.21385 32.30216
#
# Velocity S-wave (km/s) = 3.45352 4.02545 3.75040
# Velocity P-wave (km/s) = 5.42977 6.50402 5.99102
#
# Compressibility (1/GPa) = 0.03206443
#
# Stress axis : x y z
#
# Youngs Moduli (GPa) = 104.87389 107.19529 33.95970
#
# Poissons Ratio (x) = 0.26518 -0.04373
# Poissons Ratio (y) = 0.25944 0.23558
# Poissons Ratio (z) = -0.13506 0.74363
#
# Static dielectric constant tensor:
#      x y z
#    x 4.731320 0.000000 -0.080720 
#    y 0.000000 4.467470 0.000000 
#    z -0.080720 0.000000 3.932290 
# 
# 
# High freq. dielectric constant tensor:
#      x y z
#    x 1.927510 0.000000 -0.001440 
#    y 0.000000 1.924150 0.000000 
#    z -0.001440 0.000000 1.894500 
# 
# From -- ./inp_files/121873.got.cif
#   From: 2010.06.25/outbox.cif.g09.slc.cpg/sg15_61_cif.got.tgz:121873.got - 2010.06.28 07:06:18.
