data_PCOD8153800
_publ_section_title
;
Structure prediction by ZEFSAII (Michael W. Deem and Ramdas Pophale) SiO2 
 PCOD8153800
Probable space group: C 2/C
;
_chemical_formula_sum "Si O2"
_cell_formula_units_Z 56
_cell_length_a 16.464766
_cell_length_b 17.544896
_cell_length_c 9.789294
_cell_angle_alpha 90.000000
_cell_angle_beta 70.718350
_cell_angle_gamma 90.000000
_cell_volume 2669.235103
_symmetry_space_group_name_H-M "C 2/C"
_symmetry_group_IT_number 15
_symmetry_cell_setting 'monoclinic'
loop_
_space_group_symop_operation_xyz
x,y,z
-x,y,1/2-z
-x,-y,-z
x,-y,1/2+z
1/2+x,1/2+y,z
1/2-x,1/2+y,1/2-z
1/2-x,1/2-y,-z
1/2+x,1/2-y,1/2+z
loop_
_atom_site_type_symbol
_atom_site_label
_atom_site_fract_x
_atom_site_fract_y
_atom_site_fract_z
Si Si1 0.155846 0.651042 0.893339
Si Si2 0.106873 0.806104 0.038918
Si Si3 0.823095 0.351815 0.603624
Si Si4 0.011703 0.428900 0.087889
Si Si5 0.250318 0.921890 0.912865
Si Si6 0.089954 0.803363 0.371230
Si Si7 0.727035 0.601652 0.911329
O O1 0.206098 0.645082 0.724055
O O2 0.055748 0.634807 0.922952
O O3 0.162944 0.736572 0.947461
O O4 0.197775 0.592010 0.976437
O O5 0.103262 0.799800 0.202805
O O6 0.010390 0.804401 0.032345
O O7 0.155960 0.883245 0.969154
O O8 0.892718 0.399708 0.481945
O O9 0.807754 0.387465 0.760157
O O10 0.857282 0.266248 0.593212
O O11 0.738164 0.362177 0.556889
O O12 0.000000 0.454526 0.250000
O O13 0.000000 0.500000 0.000000
O O14 0.238987 0.011382 0.899500
O O15 0.130813 0.879970 0.412202
#
# Coordination Sequence:
#
# PCOD8153800 Si02
#       7
#     8   8   8   8   8   8   8
#     4  12  23  44  69  96 139 176 225 271 334 412
#     4  11  24  45  72  98 131 184 227 277 331 412
#     4  12  25  43  65 102 138 175 224 276 341 402
#     4  12  26  41  65 101 143 181 219 281 343 405
#     4  12  25  44  71  99 134 180 229 273 344 397
#     4  11  24  45  70 100 134 177 231 275 338 405
#     4  12  25  43  68 102 135 175 220 287 335 398
#
# _framework density 20.979793999999998
#
# number of rings (size 3 to 8) (size 9 to 14) (size 15 to 20)
#    0.000    0.286    5.714    4.286    2.000    0.571 
#    0.000    2.143    0.000    0.000    0.000    0.000 
#    0.000    0.000    0.000    0.000    0.000    0.000 
#
# Total GULP energy -347328.264558 kJ/mol
# GULP energy per Si atom -12404.580877 kJ/mol
# Density = 2.093204 g / cm^3
# Si number density = 20.979794 Si / 1000 Ang^3
#
#
#
# Elastic Constant Matrix: (Units=GPa)
#
#
# Indices 1 2 3 4 5 6 
#
# 1 103.4190 53.3893 23.3154 0.0000 6.3706 0.0000
# 2 53.3893 84.1515 19.9898 0.0000 -2.3092 0.0000
# 3 23.3154 19.9898 86.8429 0.0000 0.6194 0.0000
# 4 0.0000 0.0000 0.0000 24.5275 0.0000 8.6066
# 5 6.3706 -2.3092 0.6194 0.0000 33.6492 0.0000
# 6 0.0000 0.0000 0.0000 8.6066 0.0000 29.3414
#
#
#
# Elastic Compliance Matrix: (Units=1/GPa)
#
#
# Indices 1 2 3 4 5 6 
#
# 1 0.015058 -0.009196 -0.001901 0.000000 -0.003447 0.000000
# 2 -0.009196 0.018215 -0.001745 0.000000 0.003023 0.000000
# 3 -0.001901 -0.001745 0.012427 0.000000 0.000011 0.000000
# 4 0.000000 0.000000 0.000000 0.045448 0.000000 -0.013331
# 5 -0.003447 0.003023 0.000011 0.000000 0.030578 0.000000
# 6 0.000000 0.000000 0.000000 -0.013331 0.000000 0.037992
#
#
# Mechanical properties :
#
#
# Convention : Reuss Voigt Hill
#
# Bulk Modulus (GPa) = 49.96396 51.97805 50.97100
# Shear Modulus (GPa) = 26.03126 29.35155 27.69141
#
# Velocity S-wave (km/s) = 3.52629 3.74443 3.63700
# Velocity P-wave (km/s) = 6.35976 6.59723 6.47958
#
# Compressibility (1/GPa) = 0.02001443
#
# Stress axis : x y z
#
# Youngs Moduli (GPa) = 66.41031 54.89842 80.46872
#
# Poissons Ratio (x) = 0.50486 0.15299
# Poissons Ratio (y) = 0.61073 0.14045
# Poissons Ratio (z) = 0.12627 0.09582
#
# Static dielectric constant tensor:
#      x y z
#    x 3.860560 0.000000 0.037040 
#    y 0.000000 4.298990 0.000000 
#    z 0.037040 0.000000 3.868140 
# 
# 
# High freq. dielectric constant tensor:
#      x y z
#    x 1.831720 0.000000 0.007570 
#    y 0.000000 1.821560 0.000000 
#    z 0.007570 0.000000 1.828230 
# 
# From -- ./inp_files/48989.got.cif
#   From: 2010.06.25/outbox.cif.g09.slc.cpg/sg15_25_cif.got.tgz:48989.got - 2010.06.28 07:06:18.
