data_PCOD8153966
_publ_section_title
;
Structure prediction by ZEFSAII (Michael W. Deem and Ramdas Pophale) SiO2 
 PCOD8153966
Probable space group: C 2/C
;
_chemical_formula_sum "Si O2"
_cell_formula_units_Z 40
_cell_length_a 8.881823
_cell_length_b 16.469145
_cell_length_c 11.834431
_cell_angle_alpha 90.000000
_cell_angle_beta 105.805052
_cell_angle_gamma 90.000000
_cell_volume 1665.647838
_symmetry_space_group_name_H-M "C 2/C"
_symmetry_group_IT_number 15
_symmetry_cell_setting 'monoclinic'
loop_
_space_group_symop_operation_xyz
x,y,z
-x,y,1/2-z
-x,-y,-z
x,-y,1/2+z
1/2+x,1/2+y,z
1/2-x,1/2+y,1/2-z
1/2-x,1/2-y,-z
1/2+x,1/2-y,1/2+z
loop_
_atom_site_type_symbol
_atom_site_label
_atom_site_fract_x
_atom_site_fract_y
_atom_site_fract_z
Si Si1 0.266341 0.346268 0.019052
Si Si2 0.127662 0.120341 0.554203
Si Si3 0.836300 0.696989 0.764724
Si Si4 0.163102 0.528409 0.324768
Si Si5 0.837061 0.873004 0.695757
O O1 0.440861 0.381030 0.033095
O O2 0.208889 0.357438 0.136121
O O3 0.250000 0.250000 0.000000
O O4 0.151080 0.399251 0.915832
O O5 0.195810 0.190283 0.646704
O O6 0.182208 0.145489 0.440124
O O7 0.209453 0.035927 0.606275
O O8 0.846710 0.794217 0.782357
O O9 0.000000 0.662824 0.750000
O O10 0.205892 0.567447 0.212910
O O11 0.000000 0.488538 0.250000
O O12 0.000000 0.919850 0.750000
#
# Coordination Sequence:
#
# PCOD8153966 Si02
#       5
#     8   8   8   8   8
#     4  12  25  48  77 112 150 202 264 316 381 460
#     4  12  27  47  76 109 157 206 249 323 394 455
#     4  11  25  45  73 114 149 202 259 319 385 458
#     4  12  29  47  75 115 156 203 255 322 388 463
#     4  11  24  47  72 106 156 198 257 314 387 454
#
# _framework density 24.014679999999998
#
# number of rings (size 3 to 8) (size 9 to 14) (size 15 to 20)
#    0.000    0.400    4.000    3.600    8.400    0.800 
#    0.000    0.000    0.000    0.000    0.000    0.000 
#    0.000    0.000    0.000    0.000    0.000    0.000 
#
# Total GULP energy -247830.216996 kJ/mol
# GULP energy per Si atom -12391.510850 kJ/mol
# Density = 2.396002 g / cm^3
# Si number density = 24.014680 Si / 1000 Ang^3
#
#
#
# Elastic Constant Matrix: (Units=GPa)
#
#
# Indices 1 2 3 4 5 6 
#
# 1 115.5404 43.9777 57.2706 0.0000 -3.6855 0.0000
# 2 43.9777 107.6875 28.1855 0.0000 2.0781 0.0000
# 3 57.2706 28.1855 131.4132 0.0000 -9.3907 0.0000
# 4 0.0000 0.0000 0.0000 32.3914 0.0000 6.3806
# 5 -3.6855 2.0781 -9.3907 0.0000 50.9785 0.0000
# 6 0.0000 0.0000 0.0000 6.3806 0.0000 25.1194
#
#
#
# Elastic Compliance Matrix: (Units=1/GPa)
#
#
# Indices 1 2 3 4 5 6 
#
# 1 0.012394 -0.003873 -0.004555 0.000000 0.000215 0.000000
# 2 -0.003873 0.011081 -0.000751 0.000000 -0.000870 0.000000
# 3 -0.004555 -0.000751 0.009864 0.000000 0.001518 0.000000
# 4 0.000000 0.000000 0.000000 0.032499 0.000000 -0.008255
# 5 0.000215 -0.000870 0.001518 0.000000 0.019947 0.000000
# 6 0.000000 0.000000 0.000000 -0.008255 0.000000 0.041907
#
#
# Mechanical properties :
#
#
# Convention : Reuss Voigt Hill
#
# Bulk Modulus (GPa) = 66.75278 68.16763 67.46020
# Shear Modulus (GPa) = 33.10285 36.71168 34.90726
#
# Velocity S-wave (km/s) = 3.71677 3.91412 3.81672
# Velocity P-wave (km/s) = 6.80266 6.99104 6.89749
#
# Compressibility (1/GPa) = 0.01498065
#
# Stress axis : x y z
#
# Youngs Moduli (GPa) = 80.68351 90.24239 101.37504
#
# Poissons Ratio (x) = 0.34954 0.46179
# Poissons Ratio (y) = 0.31252 0.07612
# Poissons Ratio (z) = 0.36754 0.06776
#
# Static dielectric constant tensor:
#      x y z
#    x 4.461540 0.000000 -0.129820 
#    y 0.000000 4.192550 0.000000 
#    z -0.129820 0.000000 4.624850 
# 
# 
# High freq. dielectric constant tensor:
#      x y z
#    x 1.954540 0.000000 -0.003250 
#    y 0.000000 1.953670 0.000000 
#    z -0.003250 0.000000 1.967230 
# 
# From -- ./inp_files/76913.got.cif
#   From: 2010.06.25/outbox.cif.g09.slc.cpg/sg15_39_cif.got.tgz:76913.got - 2010.06.28 07:06:18.
