data_PCOD8153296
_publ_section_title
;
Structure prediction by ZEFSAII (Michael W. Deem and Ramdas Pophale) SiO2 
 PCOD8153296
Probable space group: C 2/C
;
_chemical_formula_sum "Si O2"
_cell_formula_units_Z 48
_cell_length_a 13.961003
_cell_length_b 8.724540
_cell_length_c 17.003202
_cell_angle_alpha 90.000000
_cell_angle_beta 91.237557
_cell_angle_gamma 90.000000
_cell_volume 2070.563519
_symmetry_space_group_name_H-M "C 2/C"
_symmetry_group_IT_number 15
_symmetry_cell_setting 'monoclinic'
loop_
_space_group_symop_operation_xyz
x,y,z
-x,y,1/2-z
-x,-y,-z
x,-y,1/2+z
1/2+x,1/2+y,z
1/2-x,1/2+y,1/2-z
1/2-x,1/2-y,-z
1/2+x,1/2-y,1/2+z
loop_
_atom_site_type_symbol
_atom_site_label
_atom_site_fract_x
_atom_site_fract_y
_atom_site_fract_z
Si Si1 0.409829 0.204031 0.350072
Si Si2 0.716270 0.275791 0.625926
Si Si3 0.898147 0.573436 0.176499
Si Si4 0.900701 0.983421 0.453488
Si Si5 0.276361 0.443616 0.591943
Si Si6 0.101937 0.770409 0.778750
O O1 0.391558 0.170236 0.257886
O O2 0.514288 0.137953 0.374257
O O3 0.409298 0.384074 0.373100
O O4 0.329011 0.125441 0.401905
O O5 0.797779 0.406867 0.630970
O O6 0.632380 0.345239 0.570386
O O7 0.674271 0.235298 0.709797
O O8 0.766264 0.126737 0.591839
O O9 0.919377 0.394291 0.183993
O O10 0.823700 0.900900 0.509355
O O11 0.000000 0.000000 0.500000
O O12 0.348300 0.388672 0.661469
O O13 0.000000 0.842209 0.750000
#
# Coordination Sequence:
#
# PCOD8153296 Si02
#       6
#     8   8   8   8   8   8
#     4  11  23  45  71 100 143 184 242 302 364 434
#     4  12  24  45  72 102 144 189 246 301 359 436
#     4  11  23  44  73 107 137 180 251 308 368 417
#     4  12  28  48  67 108 150 196 240 296 377 447
#     4  12  25  45  70 106 144 192 240 295 374 438
#     4  12  22  42  70 105 140 185 246 305 353 432
#
# _framework density 23.182096000000001
#
# number of rings (size 3 to 8) (size 9 to 14) (size 15 to 20)
#    0.000    0.333    5.000    4.000    2.333    0.000 
#    0.000    2.500    0.000    0.000    0.000    0.000 
#    0.000    0.000    0.000    0.000    0.000    0.000 
#
# Total GULP energy -297645.556340 kJ/mol
# GULP energy per Si atom -12401.898181 kJ/mol
# Density = 2.312933 g / cm^3
# Si number density = 23.182096 Si / 1000 Ang^3
#
#
#
# Elastic Constant Matrix: (Units=GPa)
#
#
# Indices 1 2 3 4 5 6 
#
# 1 149.7050 59.4520 28.6666 0.0000 -4.4454 0.0000
# 2 59.4520 120.2393 47.5518 0.0000 12.7135 0.0000
# 3 28.6666 47.5518 69.6376 0.0000 -2.4698 0.0000
# 4 0.0000 0.0000 0.0000 22.1564 0.0000 2.7074
# 5 -4.4454 12.7135 -2.4698 0.0000 44.4044 0.0000
# 6 0.0000 0.0000 0.0000 2.7074 0.0000 40.1732
#
#
#
# Elastic Compliance Matrix: (Units=1/GPa)
#
#
# Indices 1 2 3 4 5 6 
#
# 1 0.008517 -0.004202 -0.000565 0.000000 0.002024 0.000000
# 2 -0.004202 0.014108 -0.008078 0.000000 -0.004909 0.000000
# 3 -0.000565 -0.008078 0.020229 0.000000 0.003381 0.000000
# 4 0.000000 0.000000 0.000000 0.045508 0.000000 -0.003067
# 5 0.002024 -0.004909 0.003381 0.000000 0.024317 0.000000
# 6 0.000000 0.000000 0.000000 -0.003067 0.000000 0.025099
#
#
# Mechanical properties :
#
#
# Convention : Reuss Voigt Hill
#
# Bulk Modulus (GPa) = 58.26212 67.88029 63.07120
# Shear Modulus (GPa) = 29.55289 34.94089 32.24689
#
# Velocity S-wave (km/s) = 3.57433 3.88653 3.73369
# Velocity P-wave (km/s) = 6.49780 7.03456 6.77150
#
# Compressibility (1/GPa) = 0.01716381
#
# Stress axis : x y z
#
# Youngs Moduli (GPa) = 117.41654 70.88182 49.43465
#
# Poissons Ratio (x) = 0.29782 0.02794
# Poissons Ratio (y) = 0.49334 0.39934
# Poissons Ratio (z) = 0.06635 0.57259
#
# Static dielectric constant tensor:
#      x y z
#    x 4.570420 0.000000 -0.157980 
#    y 0.000000 4.007220 0.000000 
#    z -0.157980 0.000000 4.102010 
# 
# 
# High freq. dielectric constant tensor:
#      x y z
#    x 1.944610 0.000000 -0.010810 
#    y 0.000000 1.913410 0.000000 
#    z -0.010810 0.000000 1.899920 
# 
# From -- ./inp_files/203028.got.cif
#   From: 2010.06.25/outbox.cif.g09.slc.cpg/sg15_102_cif.got.tgz:203028.got - 2010.06.28 07:06:18.
