data_PCOD8153108
_publ_section_title
;
Structure prediction by ZEFSAII (Michael W. Deem and Ramdas Pophale) SiO2 
 PCOD8153108
Probable space group: C 2/C
;
_chemical_formula_sum "Si O2"
_cell_formula_units_Z 40
_cell_length_a 21.028057
_cell_length_b 6.738134
_cell_length_c 23.522847
_cell_angle_alpha 90.000000
_cell_angle_beta 143.417161
_cell_angle_gamma 90.000000
_cell_volume 1986.385603
_symmetry_space_group_name_H-M "C 2/C"
_symmetry_group_IT_number 15
_symmetry_cell_setting 'monoclinic'
loop_
_space_group_symop_operation_xyz
x,y,z
-x,y,1/2-z
-x,-y,-z
x,-y,1/2+z
1/2+x,1/2+y,z
1/2-x,1/2+y,1/2-z
1/2-x,1/2-y,-z
1/2+x,1/2-y,1/2+z
loop_
_atom_site_type_symbol
_atom_site_label
_atom_site_fract_x
_atom_site_fract_y
_atom_site_fract_z
Si Si1 0.869869 0.614227 0.855149
Si Si2 0.246112 0.559149 0.331284
Si Si3 0.781666 0.447856 0.990559
Si Si4 0.877506 0.717776 0.149466
Si Si5 0.396199 0.213379 0.464506
O O1 0.828691 0.575142 0.762172
O O2 0.782795 0.743856 0.825497
O O3 0.886624 0.404906 0.898549
O O4 0.980148 0.735561 0.929534
O O5 0.179677 0.617374 0.338438
O O6 0.349287 0.433498 0.424499
O O7 0.674110 0.572000 0.903470
O O8 0.834115 0.407881 0.967783
O O9 0.750000 0.250000 0.000000
O O10 0.867297 0.570678 0.088692
O O11 0.000000 0.759028 0.250000
#
# Coordination Sequence:
#
# PCOD8153108 Si02
#       5
#     8   8   8   8   8
#     4  11  24  40  66  95 125 168 207 257 320 371
#     4  12  22  44  64  93 132 159 216 260 307 383
#     4  11  23  45  65  93 130 167 213 263 317 382
#     4  11  25  43  66  95 127 168 215 267 316 376
#     4  11  23  43  64  91 129 168 208 257 314 378
#
# _framework density 20.137077000000001
#
# number of rings (size 3 to 8) (size 9 to 14) (size 15 to 20)
#    0.000    0.800    6.000    1.800    0.000    0.800 
#    7.200    0.000    0.000    0.000    0.000    0.000 
#    0.000    0.000    0.000    0.000    0.000    0.000 
#
# Total GULP energy -248147.826444 kJ/mol
# GULP energy per Si atom -12407.391322 kJ/mol
# Density = 2.009124 g / cm^3
# Si number density = 20.137077 Si / 1000 Ang^3
#
#
#
# Elastic Constant Matrix: (Units=GPa)
#
#
# Indices 1 2 3 4 5 6 
#
# 1 53.3366 27.1595 20.7937 0.0001 -1.5518 0.0003
# 2 27.1595 74.5467 30.8863 0.0006 -1.3451 0.0020
# 3 20.7937 30.8863 121.0515 -0.0002 8.7519 0.0007
# 4 0.0001 0.0006 -0.0002 26.6121 0.0001 -6.7421
# 5 -1.5518 -1.3451 8.7519 0.0001 32.2192 0.0000
# 6 0.0003 0.0020 0.0007 -6.7421 0.0000 35.3297
#
#
#
# Elastic Compliance Matrix: (Units=1/GPa)
#
#
# Indices 1 2 3 4 5 6 
#
# 1 0.023536 -0.007640 -0.002196 0.000000 0.001411 0.000000
# 2 -0.007640 0.017572 -0.003262 -0.000001 0.001252 -0.000001
# 3 -0.002196 -0.003262 0.009678 0.000000 -0.002871 0.000000
# 4 0.000000 -0.000001 0.000000 0.039486 0.000000 0.007535
# 5 0.001411 0.001252 -0.002871 0.000000 0.031937 0.000000
# 6 0.000000 -0.000001 0.000000 0.007535 0.000000 0.029743
#
#
# Mechanical properties :
#
#
# Convention : Reuss Voigt Hill
#
# Bulk Modulus (GPa) = 40.66406 45.17930 42.92168
# Shear Modulus (GPa) = 26.83223 30.17188 28.50206
#
# Velocity S-wave (km/s) = 3.65427 3.87502 3.76626
# Velocity P-wave (km/s) = 6.16785 6.51963 6.34618
#
# Compressibility (1/GPa) = 0.02459174
#
# Stress axis : x y z
#
# Youngs Moduli (GPa) = 42.48789 56.90972 103.32863
#
# Poissons Ratio (x) = 0.43477 0.22688
# Poissons Ratio (y) = 0.32459 0.33702
# Poissons Ratio (z) = 0.09329 0.18562
#
# Static dielectric constant tensor:
#      x y z
#    x 3.806500 0.000000 -0.030620 
#    y 0.000000 3.618830 0.000000 
#    z -0.030620 0.000000 3.885320 
# 
# 
# High freq. dielectric constant tensor:
#      x y z
#    x 1.794050 0.000000 -0.007840 
#    y 0.000000 1.790990 0.000000 
#    z -0.007840 0.000000 1.795460 
# 
# From -- ./inp_files/170497.got.cif
#   From: 2010.06.25/outbox.cif.g09.slc.cpg/sg15_86_cif.got.tgz:170497.got - 2010.06.28 07:06:18.
