data_PCOD8153047
_publ_section_title
;
Structure prediction by ZEFSAII (Michael W. Deem and Ramdas Pophale) SiO2 
 PCOD8153047
Probable space group: C 2/C
;
_chemical_formula_sum "Si O2"
_cell_formula_units_Z 36
_cell_length_a 18.299619
_cell_length_b 6.773291
_cell_length_c 16.127342
_cell_angle_alpha 90.000000
_cell_angle_beta 125.258735
_cell_angle_gamma 90.000000
_cell_volume 1632.259682
_symmetry_space_group_name_H-M "C 2/C"
_symmetry_group_IT_number 15
_symmetry_cell_setting 'monoclinic'
loop_
_space_group_symop_operation_xyz
x,y,z
-x,y,1/2-z
-x,-y,-z
x,-y,1/2+z
1/2+x,1/2+y,z
1/2-x,1/2+y,1/2-z
1/2-x,1/2-y,-z
1/2+x,1/2-y,1/2+z
loop_
_atom_site_type_symbol
_atom_site_label
_atom_site_fract_x
_atom_site_fract_y
_atom_site_fract_z
Si Si1 0.067354 0.958955 0.969607
Si Si2 0.500000 0.314074 0.750000
Si Si3 0.842942 0.580165 0.737027
Si Si4 0.773018 0.237799 0.423030
Si Si5 0.817237 0.367526 0.875745
O O1 0.028389 0.945796 0.849441
O O2 0.119614 0.754543 0.020980
O O3 0.128901 0.148201 0.021647
O O4 0.000000 0.000000 0.000000
O O5 0.419537 0.178316 0.731318
O O6 0.803678 0.397180 0.663454
O O7 0.877820 0.475330 0.844516
O O8 0.763987 0.732028 0.712790
O O9 0.750000 0.250000 0.500000
O O10 0.765513 0.461601 0.389028
#
# Coordination Sequence:
#
# PCOD8153047 Si02
#       5
#     8   4   8   8   8
#     4  11  27  45  68 102 145 184 229 292 351 412
#     4  12  26  44  68 106 144 180 242 294 340 418
#     4  11  24  42  71 100 137 184 229 289 348 413
#     4  11  23  42  68  97 133 180 230 283 347 411
#     4  11  23  45  70  99 134 185 234 277 352 424
#
# _framework density 22.055313999999999
#
# number of rings (size 3 to 8) (size 9 to 14) (size 15 to 20)
#    0.000    0.889    2.222    4.000    3.111   10.667 
#    0.000    2.222    0.000    0.000    0.000    0.000 
#    0.000    0.000    0.000    0.000    0.000    0.000 
#
# Total GULP energy -222985.969384 kJ/mol
# GULP energy per Si atom -12388.109410 kJ/mol
# Density = 2.200512 g / cm^3
# Si number density = 22.055314 Si / 1000 Ang^3
#
#
#
# Elastic Constant Matrix: (Units=GPa)
#
#
# Indices 1 2 3 4 5 6 
#
# 1 75.1691 -12.8713 -1.4821 0.0000 -12.0153 0.0000
# 2 -12.8713 91.5089 15.5622 0.0000 3.1364 0.0000
# 3 -1.4821 15.5622 105.4077 0.0000 -11.0011 0.0000
# 4 0.0000 0.0000 0.0000 22.8046 0.0000 -16.0826
# 5 -12.0153 3.1364 -11.0011 0.0000 41.9842 0.0000
# 6 0.0000 0.0000 0.0000 -16.0826 0.0000 16.8700
#
#
#
# Elastic Compliance Matrix: (Units=1/GPa)
#
#
# Indices 1 2 3 4 5 6 
#
# 1 0.014266 0.001808 0.000355 0.000000 0.004041 0.000000
# 2 0.001808 0.011509 -0.001757 0.000000 -0.000803 0.000000
# 3 0.000355 -0.001757 0.010051 0.000000 0.002867 0.000000
# 4 0.000000 0.000000 0.000000 0.133823 0.000000 0.127577
# 5 0.004041 -0.000803 0.002867 0.000000 0.025786 0.000000
# 6 0.000000 0.000000 0.000000 0.127577 0.000000 0.180900
#
#
# Mechanical properties :
#
#
# Convention : Reuss Voigt Hill
#
# Bulk Modulus (GPa) = 27.29548 30.50035 28.89792
# Shear Modulus (GPa) = 12.89542 34.39022 23.64282
#
# Velocity S-wave (km/s) = 2.42065 3.95304 3.27766
# Velocity P-wave (km/s) = 4.49617 5.89020 5.23975
#
# Compressibility (1/GPa) = 0.03663610
#
# Stress axis : x y z
#
# Youngs Moduli (GPa) = 70.09788 86.89188 99.49631
#
# Poissons Ratio (x) = -0.15707 -0.03536
# Poissons Ratio (y) = -0.12671 0.17486
# Poissons Ratio (z) = -0.02491 0.15271
#
# Static dielectric constant tensor:
#      x y z
#    x 4.000460 0.000000 -0.207590 
#    y 0.000000 4.172200 0.000000 
#    z -0.207590 0.000000 4.247110 
# 
# 
# High freq. dielectric constant tensor:
#      x y z
#    x 1.870800 0.000000 -0.018940 
#    y 0.000000 1.884440 0.000000 
#    z -0.018940 0.000000 1.877640 
# 
# From -- ./inp_files/208166.got.cif
#   From: 2010.06.25/outbox.cif.g09.slc.cpg/sg15_105_cif.got.tgz:208166.got - 2010.06.28 07:06:18.
