data_PCOD8153467
_publ_section_title
;
Structure prediction by ZEFSAII (Michael W. Deem and Ramdas Pophale) SiO2 
 PCOD8153467
Probable space group: C 2/C
;
_chemical_formula_sum "Si O2"
_cell_formula_units_Z 36
_cell_length_a 13.537375
_cell_length_b 7.638202
_cell_length_c 13.809594
_cell_angle_alpha 90.000000
_cell_angle_beta 97.282109
_cell_angle_gamma 90.000000
_cell_volume 1416.411086
_symmetry_space_group_name_H-M "C 2/C"
_symmetry_group_IT_number 15
_symmetry_cell_setting 'monoclinic'
loop_
_space_group_symop_operation_xyz
x,y,z
-x,y,1/2-z
-x,-y,-z
x,-y,1/2+z
1/2+x,1/2+y,z
1/2-x,1/2+y,1/2-z
1/2-x,1/2-y,-z
1/2+x,1/2-y,1/2+z
loop_
_atom_site_type_symbol
_atom_site_label
_atom_site_fract_x
_atom_site_fract_y
_atom_site_fract_z
Si Si1 0.372787 0.161057 0.514995
Si Si2 0.860772 0.540274 0.717662
Si Si3 0.500000 0.729530 0.750000
Si Si4 0.151103 0.048249 0.632389
Si Si5 0.593558 0.177437 0.571980
O O1 0.366873 0.176554 0.629785
O O2 0.314780 0.312129 0.447389
O O3 0.489010 0.185129 0.502576
O O4 0.337917 0.968514 0.472888
O O5 0.741447 0.519064 0.720277
O O6 0.917809 0.618626 0.816901
O O7 0.911116 0.352814 0.697276
O O8 0.549994 0.606711 0.674132
O O9 0.139073 0.869367 0.572168
#
# Coordination Sequence:
#
# PCOD8153467 Si02
#       5
#     8   8   4   8   8
#     4  11  23  47  73 106 150 191 249 310 370 447
#     4  12  24  49  76 107 153 198 245 315 377 438
#     4  12  24  48  76 106 156 198 246 314 368 446
#     4  12  27  45  75 113 141 200 259 295 379 457
#     4  11  24  46  71 106 150 195 242 309 381 434
#
# _framework density 25.416349
#
# number of rings (size 3 to 8) (size 9 to 14) (size 15 to 20)
#    0.000    0.444    4.444    4.000    3.111    0.889 
#    0.000    0.000    0.000    0.000    0.000    0.000 
#    0.000    0.000    0.000    0.000    0.000    0.000 
#
# Total GULP energy -223150.015029 kJ/mol
# GULP energy per Si atom -12397.223057 kJ/mol
# Density = 2.535850 g / cm^3
# Si number density = 25.416349 Si / 1000 Ang^3
#
#
#
# Elastic Constant Matrix: (Units=GPa)
#
#
# Indices 1 2 3 4 5 6 
#
# 1 74.7023 29.4414 13.7764 0.0000 19.2984 0.0000
# 2 29.4414 163.6986 30.7794 0.0000 15.9940 0.0000
# 3 13.7764 30.7794 99.1365 0.0000 8.7467 0.0000
# 4 0.0000 0.0000 0.0000 35.9844 0.0000 7.1778
# 5 19.2984 15.9940 8.7467 0.0000 44.9027 0.0000
# 6 0.0000 0.0000 0.0000 7.1778 0.0000 21.0097
#
#
#
# Elastic Compliance Matrix: (Units=1/GPa)
#
#
# Indices 1 2 3 4 5 6 
#
# 1 0.015927 -0.002092 -0.001043 0.000000 -0.005897 0.000000
# 2 -0.002092 0.006935 -0.001754 0.000000 -0.001229 0.000000
# 3 -0.001043 -0.001754 0.010869 0.000000 -0.001044 0.000000
# 4 0.000000 0.000000 0.000000 0.029822 0.000000 -0.010188
# 5 -0.005897 -0.001229 -0.001044 0.000000 0.025446 0.000000
# 6 0.000000 0.000000 0.000000 -0.010188 0.000000 0.051078
#
#
# Mechanical properties :
#
#
# Convention : Reuss Voigt Hill
#
# Bulk Modulus (GPa) = 41.75113 53.94800 47.84957
# Shear Modulus (GPa) = 31.67782 37.94871 34.81327
#
# Velocity S-wave (km/s) = 3.53421 3.86823 3.70499
# Velocity P-wave (km/s) = 5.75471 6.42050 6.09670
#
# Compressibility (1/GPa) = 0.02395145
#
# Stress axis : x y z
#
# Youngs Moduli (GPa) = 62.78743 144.19700 92.00681
#
# Poissons Ratio (x) = 0.30168 0.09600
# Poissons Ratio (y) = 0.13136 0.16137
# Poissons Ratio (z) = 0.06551 0.25291
#
# Static dielectric constant tensor:
#      x y z
#    x 4.652990 0.000000 0.264150 
#    y 0.000000 4.603470 0.000000 
#    z 0.264150 0.000000 4.350430 
# 
# 
# High freq. dielectric constant tensor:
#      x y z
#    x 2.019920 0.000000 0.012430 
#    y 0.000000 2.008480 0.000000 
#    z 0.012430 0.000000 2.012780 
# 
# From -- ./inp_files/150389.got.cif
#   From: 2010.06.25/outbox.cif.g09.slc.cpg/sg15_76_cif.got.tgz:150389.got - 2010.06.28 07:06:18.
