data_PCOD8153179
_publ_section_title
;
Structure prediction by ZEFSAII (Michael W. Deem and Ramdas Pophale) SiO2 
 PCOD8153179
Probable space group: C 2/C
;
_chemical_formula_sum "Si O2"
_cell_formula_units_Z 60
_cell_length_a 23.801401
_cell_length_b 8.180765
_cell_length_c 25.940442
_cell_angle_alpha 90.000000
_cell_angle_beta 146.990307
_cell_angle_gamma 90.000000
_cell_volume 2751.665828
_symmetry_space_group_name_H-M "C 2/C"
_symmetry_group_IT_number 15
_symmetry_cell_setting 'monoclinic'
loop_
_space_group_symop_operation_xyz
x,y,z
-x,y,1/2-z
-x,-y,-z
x,-y,1/2+z
1/2+x,1/2+y,z
1/2-x,1/2+y,1/2-z
1/2-x,1/2-y,-z
1/2+x,1/2-y,1/2+z
loop_
_atom_site_type_symbol
_atom_site_label
_atom_site_fract_x
_atom_site_fract_y
_atom_site_fract_z
Si Si1 0.491682 0.362424 0.587853
Si Si2 0.373605 0.797391 0.388167
Si Si3 0.707986 0.806094 0.522530
Si Si4 0.684404 0.941174 0.732230
Si Si5 0.479578 0.266401 0.071975
Si Si6 0.127018 0.703541 0.770245
Si Si7 0.000000 0.504426 0.750000
Si Si8 0.349528 0.849730 0.561049
O O1 0.523205 0.243020 0.565212
O O2 0.382805 0.309929 0.527643
O O3 0.491083 0.544982 0.565382
O O4 0.578133 0.347201 0.698576
O O5 0.292107 0.651486 0.318789
O O6 0.409683 0.822271 0.474756
O O7 0.323482 0.965601 0.328773
O O8 0.750000 0.750000 0.500000
O O9 0.798189 0.793242 0.633169
O O10 0.674648 0.993314 0.492610
O O11 0.590218 0.815951 0.663961
O O12 0.684577 0.071540 0.778797
O O13 0.423169 0.263589 0.083607
O O14 0.034126 0.614297 0.728338
O O15 0.095141 0.394860 0.842616
O O16 0.250000 0.750000 0.500000
#
# Coordination Sequence:
#
# PCOD8153179 Si02
#       8
#     8   8   8   8   8   8   4   8
#     4  11  24  43  66 103 130 180 231 281 347 406
#     4  11  25  43  68  96 136 181 226 283 342 408
#     4  12  23  43  70  96 133 179 233 277 345 418
#     4  11  24  44  66  99 132 183 226 279 349 409
#     4  12  25  43  68  99 140 172 229 286 342 409
#     4  11  23  43  71  93 133 182 224 287 340 409
#     4  12  22  48  70  92 146 176 222 282 344 410
#     4  12  27  42  70 106 136 181 226 286 347 409
#
# _framework density 21.804973
#
# number of rings (size 3 to 8) (size 9 to 14) (size 15 to 20)
#    0.000    0.533    4.000    4.000    1.867    6.400 
#    0.000    0.000    0.000    0.000    0.000    0.000 
#    0.000    0.000    0.000    0.000    0.000    0.000 
#
# Total GULP energy -372186.612905 kJ/mol
# GULP energy per Si atom -12406.220430 kJ/mol
# Density = 2.175534 g / cm^3
# Si number density = 21.804973 Si / 1000 Ang^3
#
#
#
# Elastic Constant Matrix: (Units=GPa)
#
#
# Indices 1 2 3 4 5 6 
#
# 1 91.4877 6.5538 26.2772 -0.0001 3.5958 0.0000
# 2 6.5538 66.7200 25.7396 0.0006 0.7992 0.0008
# 3 26.2772 25.7396 108.8287 -0.0001 -4.3393 0.0000
# 4 -0.0001 0.0006 -0.0001 30.2134 0.0000 2.2323
# 5 3.5958 0.7992 -4.3393 0.0000 37.5156 0.0000
# 6 0.0000 0.0008 0.0000 2.2323 0.0000 32.1652
#
#
#
# Elastic Compliance Matrix: (Units=1/GPa)
#
#
# Indices 1 2 3 4 5 6 
#
# 1 0.011825 -0.000022 -0.002909 0.000000 -0.001469 0.000000
# 2 -0.000022 0.016517 -0.003933 0.000000 -0.000805 0.000000
# 3 -0.002909 -0.003933 0.010886 0.000000 0.001622 0.000000
# 4 0.000000 0.000000 0.000000 0.033268 0.000000 -0.002309
# 5 -0.001469 -0.000805 0.001622 0.000000 0.027001 0.000000
# 6 0.000000 0.000000 0.000000 -0.002309 0.000000 0.031250
#
#
# Mechanical properties :
#
#
# Convention : Reuss Voigt Hill
#
# Bulk Modulus (GPa) = 39.21468 42.68641 40.95055
# Shear Modulus (GPa) = 32.68490 33.87656 33.28073
#
# Velocity S-wave (km/s) = 3.87585 3.94587 3.91102
# Velocity P-wave (km/s) = 6.16870 6.35443 6.26226
#
# Compressibility (1/GPa) = 0.02550065
#
# Stress axis : x y z
#
# Youngs Moduli (GPa) = 84.56534 60.54277 91.86086
#
# Poissons Ratio (x) = 0.00132 0.26719
# Poissons Ratio (y) = 0.00185 0.36132
# Poissons Ratio (z) = 0.24597 0.23814
#
# Static dielectric constant tensor:
#      x y z
#    x 4.105390 0.000000 -0.003190 
#    y 0.000000 3.981040 0.000000 
#    z -0.003190 0.000000 4.018310 
# 
# 
# High freq. dielectric constant tensor:
#      x y z
#    x 1.869610 0.000000 -0.000030 
#    y 0.000000 1.855210 0.000000 
#    z -0.000030 0.000000 1.868750 
# 
# From -- ./inp_files/302072.got.cif
#   From: 2010.06.25/outbox.cif.g09.slc.cpg/sg15_152_cif.got.tgz:302072.got - 2010.06.28 07:06:18.
