data_PCOD8153926
_publ_section_title
;
Structure prediction by ZEFSAII (Michael W. Deem and Ramdas Pophale) SiO2 
 PCOD8153926
Probable space group: C 2/C
;
_chemical_formula_sum "Si O2"
_cell_formula_units_Z 32
_cell_length_a 7.125013
_cell_length_b 18.582443
_cell_length_c 11.164054
_cell_angle_alpha 90.000000
_cell_angle_beta 62.555426
_cell_angle_gamma 90.000000
_cell_volume 1311.770217
_symmetry_space_group_name_H-M "C 2/C"
_symmetry_group_IT_number 15
_symmetry_cell_setting 'monoclinic'
loop_
_space_group_symop_operation_xyz
x,y,z
-x,y,1/2-z
-x,-y,-z
x,-y,1/2+z
1/2+x,1/2+y,z
1/2-x,1/2+y,1/2-z
1/2-x,1/2-y,-z
1/2+x,1/2-y,1/2+z
loop_
_atom_site_type_symbol
_atom_site_label
_atom_site_fract_x
_atom_site_fract_y
_atom_site_fract_z
Si Si1 0.811549 0.865775 0.875771
Si Si2 0.598733 0.398645 0.379171
Si Si3 0.218776 0.517084 0.870950
Si Si4 0.514875 0.239456 0.115206
O O1 0.786965 0.938159 0.804979
O O2 0.609179 0.812896 0.940404
O O3 0.000000 0.823108 0.750000
O O4 0.860248 0.896956 0.992426
O O5 0.617041 0.557350 0.587127
O O6 0.792001 0.434902 0.247199
O O7 0.592682 0.316453 0.339021
O O8 0.000000 0.500000 0.000000
O O9 0.500000 0.201735 0.250000
O O10 0.750000 0.250000 0.000000
#
# Coordination Sequence:
#
# PCOD8153926 Si02
#       4
#     8   8   8   8
#     4  12  26  46  77 117 159 206 270 336 402 491
#     4  11  24  50  75 111 161 205 272 328 405 481
#     4  11  24  46  76 110 154 211 261 335 400 476
#     4  12  26  50  78 113 163 212 269 337 409 483
#
# _framework density 24.394515999999999
#
# number of rings (size 3 to 8) (size 9 to 14) (size 15 to 20)
#    0.000    0.500    5.000    4.500    0.000    1.000 
#    0.000    0.000    0.000    0.000    0.000    0.000 
#    0.000    0.000    0.000    0.000    0.000    0.000 
#
# Total GULP energy -198233.465629 kJ/mol
# GULP energy per Si atom -12389.591602 kJ/mol
# Density = 2.433899 g / cm^3
# Si number density = 24.394516 Si / 1000 Ang^3
#
#
#
# Elastic Constant Matrix: (Units=GPa)
#
#
# Indices 1 2 3 4 5 6 
#
# 1 116.3998 65.8012 82.8757 0.0000 -12.0900 0.0000
# 2 65.8012 160.2261 45.4067 0.0000 0.2355 0.0000
# 3 82.8757 45.4067 207.4340 0.0000 -13.9909 0.0000
# 4 0.0000 0.0000 0.0000 25.1483 0.0000 -2.0696
# 5 -12.0900 0.2355 -13.9909 0.0000 40.2012 0.0000
# 6 0.0000 0.0000 0.0000 -2.0696 0.0000 50.1233
#
#
#
# Elastic Compliance Matrix: (Units=1/GPa)
#
#
# Indices 1 2 3 4 5 6 
#
# 1 0.014988 -0.004816 -0.004739 0.000000 0.002886 0.000000
# 2 -0.004816 0.008214 0.000026 0.000000 -0.001488 0.000000
# 3 -0.004739 0.000026 0.006771 0.000000 0.000931 0.000000
# 4 0.000000 0.000000 0.000000 0.039900 0.000000 0.001647
# 5 0.002886 -0.001488 0.000931 0.000000 0.026076 0.000000
# 6 0.000000 0.000000 0.000000 0.001647 0.000000 0.020019
#
#
# Mechanical properties :
#
#
# Convention : Reuss Voigt Hill
#
# Bulk Modulus (GPa) = 91.62490 96.91411 94.26951
# Shear Modulus (GPa) = 36.05831 42.42631 39.24231
#
# Velocity S-wave (km/s) = 3.84882 4.17486 4.01515
# Velocity P-wave (km/s) = 7.57578 7.94062 7.76034
#
# Compressibility (1/GPa) = 0.01091406
#
# Stress axis : x y z
#
# Youngs Moduli (GPa) = 66.72114 121.74351 147.68131
#
# Poissons Ratio (x) = 0.58636 0.69987
# Poissons Ratio (y) = 0.32135 -0.00383
# Poissons Ratio (z) = 0.31620 -0.00316
#
# Static dielectric constant tensor:
#      x y z
#    x 4.694960 0.000000 -0.032540 
#    y 0.000000 4.839890 0.000000 
#    z -0.032540 0.000000 4.395460 
# 
# 
# High freq. dielectric constant tensor:
#      x y z
#    x 1.955880 0.000000 -0.005070 
#    y 0.000000 1.988890 0.000000 
#    z -0.005070 0.000000 1.981040 
# 
# From -- ./inp_files/76261.got.cif
#   From: 2010.06.25/outbox.cif.g09.slc.cpg/sg15_39_cif.got.tgz:76261.got - 2010.06.28 07:06:18.
