data_PCOD8153080
_publ_section_title
;
Structure prediction by ZEFSAII (Michael W. Deem and Ramdas Pophale) SiO2 
 PCOD8153080
Probable space group: C 2/C
;
_chemical_formula_sum "Si O2"
_cell_formula_units_Z 40
_cell_length_a 15.364073
_cell_length_b 21.628692
_cell_length_c 9.212554
_cell_angle_alpha 90.000000
_cell_angle_beta 144.665399
_cell_angle_gamma 90.000000
_cell_volume 1770.547955
_symmetry_space_group_name_H-M "C 2/C"
_symmetry_group_IT_number 15
_symmetry_cell_setting 'monoclinic'
loop_
_space_group_symop_operation_xyz
x,y,z
-x,y,1/2-z
-x,-y,-z
x,-y,1/2+z
1/2+x,1/2+y,z
1/2-x,1/2+y,1/2-z
1/2-x,1/2-y,-z
1/2+x,1/2-y,1/2+z
loop_
_atom_site_type_symbol
_atom_site_label
_atom_site_fract_x
_atom_site_fract_y
_atom_site_fract_z
Si Si1 0.646724 0.637979 0.037443
Si Si2 0.955501 0.317447 0.854820
Si Si3 0.609989 0.503087 0.519335
Si Si4 0.400856 0.715716 0.253489
Si Si5 0.572359 0.946427 0.006184
O O1 0.777690 0.672656 0.128142
O O2 0.673932 0.564424 0.063825
O O3 0.638723 0.657559 0.196470
O O4 0.500000 0.658015 0.750000
O O5 0.000000 0.302350 0.750000
O O6 0.998793 0.261976 0.016902
O O7 0.039081 0.379137 0.026861
O O8 0.500000 0.500000 0.500000
O O9 0.747500 0.547644 0.747575
O O10 0.500000 0.532556 0.250000
O O11 0.500000 0.693714 0.250000
O O12 0.250000 0.750000 0.000000
O O13 0.500000 0.950851 0.750000
O O14 0.500000 0.000000 0.000000
#
# Coordination Sequence:
#
# PCOD8153080 Si02
#       5
#     8   8   8   8   8
#     4  11  26  47  71  99 141 185 231 281 345 421
#     4  11  26  46  72  99 137 188 233 275 345 425
#     4  11  25  44  67 104 141 180 229 285 346 409
#     4  12  27  46  70 104 138 175 233 294 348 401
#     4  11  23  42  71 100 135 182 231 277 338 410
#
# _framework density 22.591875999999999
#
# number of rings (size 3 to 8) (size 9 to 14) (size 15 to 20)
#    0.000    0.800    4.000    1.800   11.200    6.400 
#    0.000    0.000    0.000    0.000    0.000    0.000 
#    0.000    0.000    0.000    0.000    0.000    0.000 
#
# Total GULP energy -248031.585974 kJ/mol
# GULP energy per Si atom -12401.579299 kJ/mol
# Density = 2.254046 g / cm^3
# Si number density = 22.591876 Si / 1000 Ang^3
#
#
#
# Elastic Constant Matrix: (Units=GPa)
#
#
# Indices 1 2 3 4 5 6 
#
# 1 144.9576 -0.2726 39.8814 0.0000 5.2033 0.0000
# 2 -0.2726 57.0363 16.4133 0.0000 -0.2269 0.0000
# 3 39.8814 16.4133 153.8405 0.0000 17.3975 0.0000
# 4 0.0000 0.0000 0.0000 -69.2441 0.0000 32.2541
# 5 5.2033 -0.2269 17.3975 0.0000 47.5024 0.0000
# 6 0.0000 0.0000 0.0000 32.2541 0.0000 28.3823
#
#
#
# Elastic Compliance Matrix: (Units=1/GPa)
#
#
# Indices 1 2 3 4 5 6 
#
# 1 0.007449 0.000607 -0.001986 0.000000 -0.000086 0.000000
# 2 0.000607 0.018169 -0.002189 0.000000 0.000822 0.000000
# 3 -0.001986 -0.002189 0.007537 0.000000 -0.002553 0.000000
# 4 0.000000 0.000000 0.000000 -0.009443 0.000000 0.010731
# 5 -0.000086 0.000822 -0.002553 0.000000 0.022000 0.000000
# 6 0.000000 0.000000 0.000000 0.010731 0.000000 0.023038
#
#
# Mechanical properties :
#
#
# Convention : Reuss Voigt Hill
#
# Bulk Modulus (GPa) = 38.43308 51.98652 45.20980
# Shear Modulus (GPa) = 59.12981 21.31559 40.22270
#
# Velocity S-wave (km/s) = 5.12151 3.07499 4.22406
# Velocity P-wave (km/s) = 7.21263 5.97231 6.62157
#
# Compressibility (1/GPa) = 0.02601925
#
# Stress axis : x y z
#
# Youngs Moduli (GPa) = 134.24204 55.03967 132.67154
#
# Poissons Ratio (x) = -0.03340 0.26351
# Poissons Ratio (y) = -0.08146 0.29038
# Poissons Ratio (z) = 0.26663 0.12047
#
# Static dielectric constant tensor:
#      x y z
#    x 4.227410 0.000000 -0.009560 
#    y 0.000000 4.024950 0.000000 
#    z -0.009560 0.000000 4.389160 
# 
# 
# High freq. dielectric constant tensor:
#      x y z
#    x 1.906120 0.000000 0.006980 
#    y 0.000000 1.891450 0.000000 
#    z 0.006980 0.000000 1.903060 
# 
# From -- ./inp_files/42434.got.cif
#   From: 2010.06.25/outbox.cif.g09.slc.cpg/sg15_22_cif.got.tgz:42434.got - 2010.06.28 07:06:18.
