data_PCOD8153527
_publ_section_title
;
Structure prediction by ZEFSAII (Michael W. Deem and Ramdas Pophale) SiO2 
 PCOD8153527
Probable space group: C 2/C
;
_chemical_formula_sum "Si O2"
_cell_formula_units_Z 56
_cell_length_a 13.937957
_cell_length_b 20.195802
_cell_length_c 13.136468
_cell_angle_alpha 90.000000
_cell_angle_beta 45.259492
_cell_angle_gamma 90.000000
_cell_volume 2626.527020
_symmetry_space_group_name_H-M "C 2/C"
_symmetry_group_IT_number 15
_symmetry_cell_setting 'monoclinic'
loop_
_space_group_symop_operation_xyz
x,y,z
-x,y,1/2-z
-x,-y,-z
x,-y,1/2+z
1/2+x,1/2+y,z
1/2-x,1/2+y,1/2-z
1/2-x,1/2-y,-z
1/2+x,1/2-y,1/2+z
loop_
_atom_site_type_symbol
_atom_site_label
_atom_site_fract_x
_atom_site_fract_y
_atom_site_fract_z
Si Si1 0.289816 0.996018 0.389249
Si Si2 0.569849 0.818424 0.930584
Si Si3 0.601735 0.727482 0.087468
Si Si4 0.526053 0.045390 0.574922
Si Si5 0.467789 0.579034 0.384357
Si Si6 0.809579 0.125028 0.130703
Si Si7 0.098133 0.765099 0.082514
O O1 0.341822 0.983903 0.465883
O O2 0.394001 0.955468 0.242791
O O3 0.140639 0.968165 0.481041
O O4 0.284023 0.073707 0.363378
O O5 0.712619 0.826231 0.766885
O O6 0.454875 0.801897 0.933332
O O7 0.564387 0.753748 0.004648
O O8 0.544781 0.880564 0.021651
O O9 0.500000 0.754627 0.250000
O O10 0.601667 0.648941 0.084741
O O11 0.750000 0.750000 0.000000
O O12 0.500000 0.000000 0.500000
O O13 0.500000 0.547180 0.250000
O O14 0.598553 0.584487 0.358306
O O15 0.902327 0.169248 0.987599
O O16 0.000000 0.781380 0.250000
O O17 0.250000 0.750000 0.000000
#
# Coordination Sequence:
#
# PCOD8153527 Si02
#       7
#     8   8   8   8   8   8   8
#     4  11  26  44  71 104 146 183 247 293 358 436
#     4  12  25  45  74 104 143 182 247 292 361 429
#     4  11  24  40  68 103 142 182 225 292 356 426
#     4  11  25  44  71 104 135 195 236 299 357 422
#     4  11  24  45  69 103 144 183 232 293 368 426
#     4  12  25  48  73 104 144 194 236 301 364 436
#     4  12  28  47  73 105 143 192 243 300 365 431
#
# _framework density 21.320930000000001
#
# number of rings (size 3 to 8) (size 9 to 14) (size 15 to 20)
#    0.000    0.571    4.286    3.857    6.000    1.714 
#    0.000    0.000    0.000    0.000    0.000    0.000 
#    0.000    0.000    0.000    0.000    0.000    0.000 
#
# Total GULP energy -347252.346423 kJ/mol
# GULP energy per Si atom -12401.869515 kJ/mol
# Density = 2.127240 g / cm^3
# Si number density = 21.320930 Si / 1000 Ang^3
#
#
#
# Elastic Constant Matrix: (Units=GPa)
#
#
# Indices 1 2 3 4 5 6 
#
# 1 134.2996 22.3008 49.0340 -0.0001 -1.4026 0.0000
# 2 22.3008 60.9789 38.3065 0.0001 9.5522 -0.0002
# 3 49.0340 38.3065 143.9009 -0.0003 -1.2768 0.0000
# 4 -0.0001 0.0001 -0.0003 32.3593 0.0000 1.2099
# 5 -1.4026 9.5522 -1.2768 0.0000 38.6320 0.0001
# 6 0.0000 -0.0002 0.0000 1.2099 0.0001 43.8645
#
#
#
# Elastic Compliance Matrix: (Units=1/GPa)
#
#
# Indices 1 2 3 4 5 6 
#
# 1 0.008643 -0.001701 -0.002487 0.000000 0.000652 0.000000
# 2 -0.001701 0.021061 -0.005075 0.000000 -0.005437 0.000000
# 3 -0.002487 -0.005075 0.009161 0.000000 0.001467 0.000000
# 4 0.000000 0.000000 0.000000 0.030935 0.000000 -0.000853
# 5 0.000652 -0.005437 0.001467 0.000000 0.027302 0.000000
# 6 0.000000 0.000000 0.000000 -0.000853 0.000000 0.022821
#
#
# Mechanical properties :
#
#
# Convention : Reuss Voigt Hill
#
# Bulk Modulus (GPa) = 49.16570 62.05134 55.60852
# Shear Modulus (GPa) = 34.42870 38.27369 36.35120
#
# Velocity S-wave (km/s) = 4.02280 4.24149 4.13359
# Velocity P-wave (km/s) = 6.68484 7.29065 6.99431
#
# Compressibility (1/GPa) = 0.02033938
#
# Stress axis : x y z
#
# Youngs Moduli (GPa) = 115.69820 47.48101 109.16409
#
# Poissons Ratio (x) = 0.08077 0.27144
# Poissons Ratio (y) = 0.19681 0.55402
# Poissons Ratio (z) = 0.28769 0.24097
#
# Static dielectric constant tensor:
#      x y z
#    x 3.446630 -0.000040 -0.119450 
#    y -0.000040 2.865880 -0.000010 
#    z -0.119450 -0.000010 3.950850 
# 
# 
# High freq. dielectric constant tensor:
#      x y z
#    x 1.852350 0.000000 0.004550 
#    y 0.000000 1.830480 0.000000 
#    z 0.004550 0.000000 1.848220 
# 
# From -- ./inp_files/156160.got.cif
#   From: 2010.06.25/outbox.cif.g09.slc.cpg/sg15_79_cif.got.tgz:156160.got - 2010.06.28 07:06:18.
