data_PCOD8153089
_publ_section_title
;
Structure prediction by ZEFSAII (Michael W. Deem and Ramdas Pophale) SiO2 
 PCOD8153089
Probable space group: C 2/C
;
_chemical_formula_sum "Si O2"
_cell_formula_units_Z 44
_cell_length_a 18.363649
_cell_length_b 8.837715
_cell_length_c 12.896796
_cell_angle_alpha 90.000000
_cell_angle_beta 108.778595
_cell_angle_gamma 90.000000
_cell_volume 1981.641574
_symmetry_space_group_name_H-M "C 2/C"
_symmetry_group_IT_number 15
_symmetry_cell_setting 'monoclinic'
loop_
_space_group_symop_operation_xyz
x,y,z
-x,y,1/2-z
-x,-y,-z
x,-y,1/2+z
1/2+x,1/2+y,z
1/2-x,1/2+y,1/2-z
1/2-x,1/2-y,-z
1/2+x,1/2-y,1/2+z
loop_
_atom_site_type_symbol
_atom_site_label
_atom_site_fract_x
_atom_site_fract_y
_atom_site_fract_z
Si Si1 0.070167 0.925892 0.592070
Si Si2 0.860293 0.389502 0.072415
Si Si3 0.825524 0.903915 0.223504
Si Si4 0.500000 0.745129 0.250000
Si Si5 0.657780 0.760894 0.962607
Si Si6 0.259680 0.787228 0.853671
O O1 0.118034 0.805246 0.547114
O O2 0.048252 0.854746 0.692457
O O3 0.124837 0.062652 0.651352
O O4 0.000000 0.000000 0.500000
O O5 0.867158 0.567548 0.059816
O O6 0.792958 0.343337 0.120474
O O7 0.943227 0.343341 0.153411
O O8 0.839755 0.306656 0.954246
O O9 0.873925 0.838392 0.148834
O O10 0.771370 0.767102 0.240462
O O11 0.779623 0.049128 0.162245
O O12 0.750000 0.750000 0.000000
#
# Coordination Sequence:
#
# PCOD8153089 Si02
#       6
#     8   8   8   4   8   8
#     4  12  27  46  71 104 149 189 241 294 371 442
#     4  11  25  43  71 102 148 182 245 291 367 426
#     4  12  24  42  74 100 140 185 240 296 359 422
#     4  12  26  46  70 104 146 194 226 298 368 438
#     4  12  26  47  72 107 140 188 248 307 353 435
#     4  11  23  42  71 106 137 192 241 303 353 434
#
# _framework density 22.203813
#
# number of rings (size 3 to 8) (size 9 to 14) (size 15 to 20)
#    0.000    0.364    3.636    5.455    2.545    3.636 
#    0.000    0.000    0.000    0.000    0.000    0.000 
#    0.000    0.000    0.000    0.000    0.000    0.000 
#
# Total GULP energy -272757.742115 kJ/mol
# GULP energy per Si atom -12398.079187 kJ/mol
# Density = 2.215328 g / cm^3
# Si number density = 22.203813 Si / 1000 Ang^3
#
#
#
# Elastic Constant Matrix: (Units=GPa)
#
#
# Indices 1 2 3 4 5 6 
#
# 1 83.5897 37.1578 43.4449 0.0000 1.2662 0.0000
# 2 37.1578 117.7775 45.7359 0.0000 -15.8749 0.0000
# 3 43.4449 45.7359 116.9707 0.0000 -8.8440 0.0000
# 4 0.0000 0.0000 0.0000 54.2135 0.0000 -5.0922
# 5 1.2662 -15.8749 -8.8440 0.0000 64.0124 0.0000
# 6 0.0000 0.0000 0.0000 -5.0922 0.0000 28.2574
#
#
#
# Elastic Compliance Matrix: (Units=1/GPa)
#
#
# Indices 1 2 3 4 5 6 
#
# 1 0.015981 -0.003454 -0.004723 0.000000 -0.001825 0.000000
# 2 -0.003454 0.011007 -0.002839 0.000000 0.002406 0.000000
# 3 -0.004723 -0.002839 0.011487 0.000000 0.000976 0.000000
# 4 0.000000 0.000000 0.000000 0.018763 0.000000 0.003381
# 5 -0.001825 0.002406 0.000976 0.000000 0.016390 0.000000
# 6 0.000000 0.000000 0.000000 0.003381 0.000000 0.035998
#
#
# Mechanical properties :
#
#
# Convention : Reuss Voigt Hill
#
# Bulk Modulus (GPa) = 60.81520 63.44611 62.13066
# Shear Modulus (GPa) = 36.45927 42.09661 39.27794
#
# Velocity S-wave (km/s) = 4.05659 4.35894 4.21048
# Velocity P-wave (km/s) = 7.02782 7.34644 7.18890
#
# Compressibility (1/GPa) = 0.01644326
#
# Stress axis : x y z
#
# Youngs Moduli (GPa) = 62.57451 90.85157 87.05239
#
# Poissons Ratio (x) = 0.31378 0.41116
# Poissons Ratio (y) = 0.21612 0.24715
# Poissons Ratio (z) = 0.29555 0.25794
#
# Static dielectric constant tensor:
#      x y z
#    x 4.046170 0.000000 0.042090 
#    y 0.000000 4.204010 0.000000 
#    z 0.042090 0.000000 4.388360 
# 
# 
# High freq. dielectric constant tensor:
#      x y z
#    x 1.859390 0.000000 0.002260 
#    y 0.000000 1.887800 0.000000 
#    z 0.002260 0.000000 1.901080 
# 
# From -- ./inp_files/110089.got.cif
#   From: 2010.06.25/outbox.cif.g09.slc.cpg/sg15_56_cif.got.tgz:110089.got - 2010.06.28 07:06:18.
