data_PCOD8153511
_publ_section_title
;
Structure prediction by ZEFSAII (Michael W. Deem and Ramdas Pophale) SiO2 
 PCOD8153511
Probable space group: C 2/C
;
_chemical_formula_sum "Si O2"
_cell_formula_units_Z 52
_cell_length_a 6.499361
_cell_length_b 18.285945
_cell_length_c 28.358175
_cell_angle_alpha 90.000000
_cell_angle_beta 124.957661
_cell_angle_gamma 90.000000
_cell_volume 2762.201798
_symmetry_space_group_name_H-M "C 2/C"
_symmetry_group_IT_number 15
_symmetry_cell_setting 'monoclinic'
loop_
_space_group_symop_operation_xyz
x,y,z
-x,y,1/2-z
-x,-y,-z
x,-y,1/2+z
1/2+x,1/2+y,z
1/2-x,1/2+y,1/2-z
1/2-x,1/2-y,-z
1/2+x,1/2-y,1/2+z
loop_
_atom_site_type_symbol
_atom_site_label
_atom_site_fract_x
_atom_site_fract_y
_atom_site_fract_z
Si Si1 0.500000 0.375000 0.250000
Si Si2 0.450231 0.796935 0.587764
Si Si3 0.678051 0.047678 0.992218
Si Si4 0.761411 0.953065 0.912236
Si Si5 0.522052 0.945547 0.306772
Si Si6 0.466959 0.797678 0.007782
Si Si7 0.238189 0.195547 0.693227
O O1 0.457993 0.324673 0.290854
O O2 0.746280 0.425327 0.290854
O O3 0.360562 0.875000 0.594225
O O4 0.578465 0.808208 0.553934
O O5 0.644792 0.763554 0.650340
O O6 0.230358 0.738420 0.553869
O O7 0.542410 0.125000 0.966964
O O8 0.711012 0.011580 0.946131
O O9 0.941207 0.058208 0.053934
O O10 0.500000 0.000000 0.000000
O O11 0.643090 0.986445 0.849659
O O12 0.500000 0.971338 0.250000
O O13 0.707826 0.875000 0.333130
O O14 0.250000 0.750000 0.000000
O O15 0.500000 0.221337 0.750000
#
# Coordination Sequence:
#
# PCOD8153511 Si02
#       7
#     4   8   8   8   8   8   8
#     4   8  18  40  60  86 108 160 208 236 308 362
#     4  11  24  40  60  93 125 155 205 254 297 366
#     4  11  24  41  61  89 123 164 200 245 306 363
#     4  11  24  40  60  93 125 155 205 254 297 366
#     4   9  21  40  62  87 117 157 206 252 292 364
#     4  11  24  41  61  89 123 164 200 245 306 363
#     4   9  21  40  62  87 117 157 206 252 292 364
#
# _framework density 18.825561
#
# number of rings (size 3 to 8) (size 9 to 14) (size 15 to 20)
#    0.000    2.154    3.077    0.000    6.462    2.462 
#    2.769    0.000    0.000    0.000    0.000    0.000 
#    0.000    0.000    0.000    0.000    0.000    0.000 
#
# Total GULP energy -322403.559099 kJ/mol
# GULP energy per Si atom -12400.136888 kJ/mol
# Density = 1.878271 g / cm^3
# Si number density = 18.825561 Si / 1000 Ang^3
#
#
#
# Elastic Constant Matrix: (Units=GPa)
#
#
# Indices 1 2 3 4 5 6 
#
# 1 120.8317 52.5638 39.4079 0.0000 -1.5993 0.0000
# 2 52.5638 153.8266 63.4929 0.0000 0.3660 0.0000
# 3 39.4079 63.4929 107.1738 0.0001 1.1414 0.0000
# 4 0.0000 0.0000 0.0001 39.5001 0.0000 0.1556
# 5 -1.5993 0.3660 1.1414 0.0000 16.9318 0.0000
# 6 0.0000 0.0000 0.0000 0.1556 0.0000 34.8559
#
#
#
# Elastic Compliance Matrix: (Units=1/GPa)
#
#
# Indices 1 2 3 4 5 6 
#
# 1 0.010124 -0.002542 -0.002229 0.000000 0.001162 0.000000
# 2 -0.002542 0.009244 -0.004540 0.000000 -0.000134 0.000000
# 3 -0.002229 -0.004540 0.012850 0.000000 -0.000979 0.000000
# 4 0.000000 0.000000 0.000000 0.025317 0.000000 -0.000113
# 5 0.001162 -0.000134 -0.000979 0.000000 0.059239 0.000000
# 6 0.000000 0.000000 0.000000 -0.000113 0.000000 0.028690
#
#
# Mechanical properties :
#
#
# Convention : Reuss Voigt Hill
#
# Bulk Modulus (GPa) = 73.55233 76.97346 75.26290
# Shear Modulus (GPa) = 29.65271 33.34874 31.50073
#
# Velocity S-wave (km/s) = 3.97310 4.21344 4.09503
# Velocity P-wave (km/s) = 7.75903 8.04035 7.90094
#
# Compressibility (1/GPa) = 0.01359576
#
# Stress axis : x y z
#
# Youngs Moduli (GPa) = 98.77298 108.18049 77.81918
#
# Poissons Ratio (x) = 0.27503 0.17345
# Poissons Ratio (y) = 0.25111 0.35330
# Poissons Ratio (z) = 0.22016 0.49115
#
# Static dielectric constant tensor:
#      x y z
#    x 3.660690 0.000000 -0.008630 
#    y 0.000000 3.391880 0.000000 
#    z -0.008630 0.000000 3.403030 
# 
# 
# High freq. dielectric constant tensor:
#      x y z
#    x 1.748400 0.000000 -0.000880 
#    y 0.000000 1.732000 0.000000 
#    z -0.000880 0.000000 1.722060 
# 
# From -- ./inp_files/286156.got.cif
#   From: 2010.06.25/outbox.cif.g09.slc.cpg/sg15_144_cif.got.tgz:286156.got - 2010.06.28 07:06:18.
