data_PCOD8153009
_publ_section_title
;
Structure prediction by ZEFSAII (Michael W. Deem and Ramdas Pophale) SiO2 
 PCOD8153009
Probable space group: C 2/C
;
_chemical_formula_sum "Si O2"
_cell_formula_units_Z 64
_cell_length_a 12.570630
_cell_length_b 25.628139
_cell_length_c 15.183907
_cell_angle_alpha 90.000000
_cell_angle_beta 38.880299
_cell_angle_gamma 90.000000
_cell_volume 3070.482397
_symmetry_space_group_name_H-M "C 2/C"
_symmetry_group_IT_number 15
_symmetry_cell_setting 'monoclinic'
loop_
_space_group_symop_operation_xyz
x,y,z
-x,y,1/2-z
-x,-y,-z
x,-y,1/2+z
1/2+x,1/2+y,z
1/2-x,1/2+y,1/2-z
1/2-x,1/2-y,-z
1/2+x,1/2-y,1/2+z
loop_
_atom_site_type_symbol
_atom_site_label
_atom_site_fract_x
_atom_site_fract_y
_atom_site_fract_z
Si Si1 0.074903 0.942413 0.448922
Si Si2 0.611848 0.733691 0.254841
Si Si3 0.430933 0.925658 0.565598
Si Si4 0.710525 0.156303 0.929730
Si Si5 0.001580 0.746041 0.492417
Si Si6 0.940764 0.478514 0.186192
Si Si7 0.066469 0.883844 0.798013
Si Si8 0.478868 0.651402 0.899503
O O1 0.272666 0.944119 0.300427
O O2 0.044564 0.914496 0.560395
O O3 0.988956 0.907326 0.429300
O O4 0.000000 0.000000 0.500000
O O5 0.500000 0.760806 0.250000
O O6 0.598784 0.765962 0.352974
O O7 0.527037 0.677419 0.327798
O O8 0.807728 0.731849 0.104404
O O9 0.604079 0.894780 0.472830
O O10 0.433482 0.949138 0.464021
O O11 0.268106 0.889168 0.678183
O O12 0.405788 0.966638 0.661203
O O13 0.583308 0.205620 0.020878
O O14 0.797958 0.151028 0.967961
O O15 0.861325 0.165391 0.763592
O O16 0.975374 0.805408 0.478432
O O17 0.000000 0.485972 0.250000
O O18 0.000000 0.908023 0.750000
#
# Coordination Sequence:
#
# PCOD8153009 Si02
#       8
#     8   8   8   8   8   8   8   8
#     4  12  24  44  65  96 132 170 216 273 327 392
#     4  11  24  40  66  98 132 174 216 264 324 393
#     4  11  23  44  65  97 131 168 220 274 322 391
#     4  11  24  43  69  97 133 175 216 275 335 391
#     4  12  22  45  68  97 136 169 221 273 326 396
#     4  11  25  43  66  95 131 171 220 270 329 392
#     4  11  23  42  65  94 131 169 216 265 326 391
#     4  11  25  44  66  98 132 176 219 269 337 395
#
# _framework density 20.843630999999998
#
# number of rings (size 3 to 8) (size 9 to 14) (size 15 to 20)
#    0.000    0.750    6.250    1.500    1.750    0.000 
#    2.250    2.500    0.000    0.000    0.000    0.000 
#    0.000    0.000    0.000    0.000    0.000    0.000 
#
# Total GULP energy -396721.688297 kJ/mol
# GULP energy per Si atom -12397.552759 kJ/mol
# Density = 2.079619 g / cm^3
# Si number density = 20.843631 Si / 1000 Ang^3
#
#
#
# Elastic Constant Matrix: (Units=GPa)
#
#
# Indices 1 2 3 4 5 6 
#
# 1 151.6838 38.0823 41.7308 0.0005 0.0550 -0.0002
# 2 38.0823 75.3817 2.7871 0.0002 -1.1515 -0.0001
# 3 41.7308 2.7871 76.0920 0.0010 0.2801 -0.0006
# 4 0.0005 0.0002 0.0010 26.9959 -0.0006 -1.9845
# 5 0.0550 -1.1515 0.2801 -0.0006 39.2099 0.0003
# 6 -0.0002 -0.0001 -0.0006 -1.9845 0.0003 27.8323
#
#
#
# Elastic Compliance Matrix: (Units=1/GPa)
#
#
# Indices 1 2 3 4 5 6 
#
# 1 0.009006 -0.004375 -0.004778 0.000000 -0.000107 0.000000
# 2 -0.004375 0.015415 0.001833 0.000000 0.000446 0.000000
# 3 -0.004778 0.001833 0.015696 -0.000001 -0.000052 0.000000
# 4 0.000000 0.000000 -0.000001 0.037238 0.000001 0.002655
# 5 -0.000107 0.000446 -0.000052 0.000001 0.025517 0.000000
# 6 0.000000 0.000000 0.000000 0.002655 0.000000 0.036119
#
#
# Mechanical properties :
#
#
# Convention : Reuss Voigt Hill
#
# Bulk Modulus (GPa) = 39.25247 52.03975 45.64611
# Shear Modulus (GPa) = 30.84101 33.51145 32.17623
#
# Velocity S-wave (km/s) = 3.85078 4.01403 3.93325
# Velocity P-wave (km/s) = 6.21644 6.81940 6.52489
#
# Compressibility (1/GPa) = 0.02547610
#
# Stress axis : x y z
#
# Youngs Moduli (GPa) = 111.04251 64.87258 63.71228
#
# Poissons Ratio (x) = 0.28379 0.30443
# Poissons Ratio (y) = 0.48576 -0.11677
# Poissons Ratio (z) = 0.53059 -0.11890
#
# Static dielectric constant tensor:
#      x y z
#    x 3.877940 0.000000 0.080850 
#    y 0.000000 3.708620 0.000000 
#    z 0.080850 0.000000 3.779510 
# 
# 
# High freq. dielectric constant tensor:
#      x y z
#    x 1.823890 0.000000 0.001120 
#    y 0.000000 1.814390 0.000000 
#    z 0.001120 0.000000 1.825060 
# 
# From -- ./inp_files/148739.got.cif
#   From: 2010.06.25/outbox.cif.g09.slc.cpg/sg15_75_cif.got.tgz:148739.got - 2010.06.28 07:06:18.
