data_PCOD8153012
_publ_section_title
;
Structure prediction by ZEFSAII (Michael W. Deem and Ramdas Pophale) SiO2 
 PCOD8153012
Probable space group: C 2/C
;
_chemical_formula_sum "Si O2"
_cell_formula_units_Z 32
_cell_length_a 21.995224
_cell_length_b 8.309234
_cell_length_c 10.236933
_cell_angle_alpha 90.000000
_cell_angle_beta 134.397165
_cell_angle_gamma 90.000000
_cell_volume 1336.798374
_symmetry_space_group_name_H-M "C 2/C"
_symmetry_group_IT_number 15
_symmetry_cell_setting 'monoclinic'
loop_
_space_group_symop_operation_xyz
x,y,z
-x,y,1/2-z
-x,-y,-z
x,-y,1/2+z
1/2+x,1/2+y,z
1/2-x,1/2+y,1/2-z
1/2-x,1/2-y,-z
1/2+x,1/2-y,1/2+z
loop_
_atom_site_type_symbol
_atom_site_label
_atom_site_fract_x
_atom_site_fract_y
_atom_site_fract_z
Si Si1 0.627003 0.454507 0.663125
Si Si2 0.909670 0.849488 0.152425
Si Si3 0.589396 0.911781 0.149502
Si Si4 0.679023 0.031323 0.528512
O O1 0.611833 0.492263 0.485813
O O2 0.578040 0.577088 0.684722
O O3 0.587540 0.277527 0.620273
O O4 0.725572 0.470826 0.848171
O O5 0.000000 0.766488 0.250000
O O6 0.834194 0.718450 0.032416
O O7 0.652215 0.996568 0.138627
O O8 0.621438 0.927860 0.345029
O O9 0.500000 0.000000 0.000000
#
# Coordination Sequence:
#
# PCOD8153012 Si02
#       4
#     8   8   8   8
#     4  11  24  42  67  99 131 175 223 273 333 396
#     4  11  24  43  66  99 136 176 223 275 329 394
#     4  11  24  43  66  98 134 175 222 275 333 396
#     4  11  23  42  65  96 134 174 221 275 330 394
#
# _framework density 23.937791000000001
#
# number of rings (size 3 to 8) (size 9 to 14) (size 15 to 20)
#    0.000    1.000    0.000    7.500    0.000    8.000 
#    0.000    0.000    0.000    0.000    0.000    0.000 
#    0.000    0.000    0.000    0.000    0.000    0.000 
#
# Total GULP energy -198341.066396 kJ/mol
# GULP energy per Si atom -12396.316650 kJ/mol
# Density = 2.388331 g / cm^3
# Si number density = 23.937791 Si / 1000 Ang^3
#
#
#
# Elastic Constant Matrix: (Units=GPa)
#
#
# Indices 1 2 3 4 5 6 
#
# 1 90.4626 50.2067 11.0381 0.0000 4.5296 0.0000
# 2 50.2067 86.8159 30.8018 0.0000 9.0858 0.0000
# 3 11.0381 30.8018 93.2182 0.0000 -0.1000 0.0000
# 4 0.0000 0.0000 0.0000 44.7145 0.0000 0.0306
# 5 4.5296 9.0858 -0.1000 0.0000 56.3911 0.0000
# 6 0.0000 0.0000 0.0000 0.0306 0.0000 39.4043
#
#
#
# Elastic Compliance Matrix: (Units=1/GPa)
#
#
# Indices 1 2 3 4 5 6 
#
# 1 0.016433 -0.010019 0.001365 0.000000 0.000297 0.000000
# 2 -0.010019 0.019413 -0.005231 0.000000 -0.002332 0.000000
# 3 0.001365 -0.005231 0.012295 0.000000 0.000755 0.000000
# 4 0.000000 0.000000 0.000000 0.022364 0.000000 -0.000017
# 5 0.000297 -0.002332 0.000755 0.000000 0.018087 0.000000
# 6 0.000000 0.000000 0.000000 -0.000017 0.000000 0.025378
#
#
# Mechanical properties :
#
#
# Convention : Reuss Voigt Hill
#
# Bulk Modulus (GPa) = 49.08741 50.50999 49.79870
# Shear Modulus (GPa) = 33.66337 39.99866 36.83101
#
# Velocity S-wave (km/s) = 3.75412 4.09215 3.92677
# Velocity P-wave (km/s) = 6.27231 6.59348 6.43490
#
# Compressibility (1/GPa) = 0.02037182
#
# Stress axis : x y z
#
# Youngs Moduli (GPa) = 60.85170 51.51302 81.33377
#
# Poissons Ratio (x) = 0.51611 -0.11102
# Poissons Ratio (y) = 0.60967 0.42542
# Poissons Ratio (z) = -0.08306 0.26944
#
# Static dielectric constant tensor:
#      x y z
#    x 4.875080 0.000000 -0.508110 
#    y 0.000000 4.021990 0.000000 
#    z -0.508110 0.000000 4.666040 
# 
# 
# High freq. dielectric constant tensor:
#      x y z
#    x 1.963340 0.000000 -0.010580 
#    y 0.000000 1.919700 0.000000 
#    z -0.010580 0.000000 1.974230 
# 
# From -- ./inp_files/93435.got.cif
#   From: 2010.06.25/outbox.cif.g09.slc.cpg/sg15_47_cif.got.tgz:93435.got - 2010.06.28 07:06:18.
