data_PCOD8153513
_publ_section_title
;
Structure prediction by ZEFSAII (Michael W. Deem and Ramdas Pophale) SiO2 
 PCOD8153513
Probable space group: C 2/C
;
_chemical_formula_sum "Si O2"
_cell_formula_units_Z 40
_cell_length_a 12.426786
_cell_length_b 24.214660
_cell_length_c 9.578721
_cell_angle_alpha 90.000000
_cell_angle_beta 142.488184
_cell_angle_gamma 90.000000
_cell_volume 1755.126984
_symmetry_space_group_name_H-M "C 2/C"
_symmetry_group_IT_number 15
_symmetry_cell_setting 'monoclinic'
loop_
_space_group_symop_operation_xyz
x,y,z
-x,y,1/2-z
-x,-y,-z
x,-y,1/2+z
1/2+x,1/2+y,z
1/2-x,1/2+y,1/2-z
1/2-x,1/2-y,-z
1/2+x,1/2-y,1/2+z
loop_
_atom_site_type_symbol
_atom_site_label
_atom_site_fract_x
_atom_site_fract_y
_atom_site_fract_z
Si Si1 0.079660 0.439626 0.094952
Si Si2 0.500000 0.864004 0.250000
Si Si3 0.318852 0.303482 0.989090
Si Si4 0.500000 0.122440 0.250000
Si Si5 0.859192 0.167185 0.220739
Si Si6 0.029920 0.949707 0.929902
O O1 0.964180 0.401691 0.076863
O O2 0.268490 0.432948 0.358534
O O3 0.097534 0.415898 0.959867
O O4 0.000000 0.500000 0.000000
O O5 0.676729 0.827052 0.443646
O O6 0.155432 0.344837 0.833488
O O7 0.354474 0.295439 0.858349
O O8 0.500000 0.324149 0.250000
O O9 0.250000 0.250000 0.000000
O O10 0.000000 0.188405 0.250000
O O11 0.907520 0.104641 0.322484
O O12 0.000000 0.976968 0.750000
O O13 0.000000 0.000000 0.000000
#
# Coordination Sequence:
#
# PCOD8153513 Si02
#       6
#     8   4   8   4   8   8
#     4  12  25  41  69 104 150 199 248 296 366 447
#     4  12  21  44  68 100 146 188 248 293 364 438
#     4  12  27  50  81 107 147 190 254 318 381 446
#     4  12  27  48  76 110 148 200 246 313 376 438
#     4  11  24  47  74 104 143 195 241 310 371 444
#     4  11  24  40  63 101 151 197 248 296 360 443
#
# _framework density 22.790372000000001
#
# number of rings (size 3 to 8) (size 9 to 14) (size 15 to 20)
#    0.000    0.400    7.000    3.000    2.800    0.800 
#    0.000    1.000    2.200    0.000    0.000    0.000 
#    0.000    0.000    0.000    0.000    0.000    0.000 
#
# Total GULP energy -247810.052331 kJ/mol
# GULP energy per Si atom -12390.502617 kJ/mol
# Density = 2.273850 g / cm^3
# Si number density = 22.790372 Si / 1000 Ang^3
#
#
#
# Elastic Constant Matrix: (Units=GPa)
#
#
# Indices 1 2 3 4 5 6 
#
# 1 160.0004 39.0106 66.6844 0.0000 -20.5141 0.0000
# 2 39.0106 59.7631 25.0057 0.0000 -13.0891 0.0000
# 3 66.6844 25.0057 178.5402 0.0000 3.7291 0.0000
# 4 0.0000 0.0000 0.0000 21.8104 0.0000 -17.7254
# 5 -20.5141 -13.0891 3.7291 0.0000 64.0361 0.0000
# 6 0.0000 0.0000 0.0000 -17.7254 0.0000 29.7993
#
#
#
# Elastic Compliance Matrix: (Units=1/GPa)
#
#
# Indices 1 2 3 4 5 6 
#
# 1 0.008630 -0.004045 -0.002701 0.000000 0.002095 0.000000
# 2 -0.004045 0.020635 -0.001442 0.000000 0.003006 0.000000
# 3 -0.002701 -0.001442 0.006844 0.000000 -0.001559 0.000000
# 4 0.000000 0.000000 0.000000 0.088756 0.000000 0.052794
# 5 0.002095 0.003006 -0.001559 0.000000 0.016993 0.000000
# 6 0.000000 0.000000 0.000000 0.052794 0.000000 0.064961
#
#
# Mechanical properties :
#
#
# Convention : Reuss Voigt Hill
#
# Bulk Modulus (GPa) = 50.67316 73.30060 61.98688
# Shear Modulus (GPa) = 21.76067 40.96935 31.36501
#
# Velocity S-wave (km/s) = 3.09337 4.24448 3.71379
# Velocity P-wave (km/s) = 5.91957 7.50024 6.75629
#
# Compressibility (1/GPa) = 0.01973431
#
# Stress axis : x y z
#
# Youngs Moduli (GPa) = 115.87002 48.46221 146.10853
#
# Poissons Ratio (x) = 0.19601 0.39460
# Poissons Ratio (y) = 0.46865 0.21071
# Poissons Ratio (z) = 0.31293 0.06989
#
# Static dielectric constant tensor:
#      x y z
#    x 4.084380 0.000000 -0.264340 
#    y 0.000000 3.886980 0.000000 
#    z -0.264340 0.000000 4.133800 
# 
# 
# High freq. dielectric constant tensor:
#      x y z
#    x 1.916470 0.000000 0.002370 
#    y 0.000000 1.870720 0.000000 
#    z 0.002370 0.000000 1.929340 
# 
# From -- ./inp_files/35474.got.cif
#   From: 2010.06.25/outbox.cif.g09.slc.cpg/sg15_18_cif.got.tgz:35474.got - 2010.06.28 07:06:18.
