data_PCOD8153683
_publ_section_title
;
Structure prediction by ZEFSAII (Michael W. Deem and Ramdas Pophale) SiO2 
 PCOD8153683
Probable space group: C 2/C
;
_chemical_formula_sum "Si O2"
_cell_formula_units_Z 40
_cell_length_a 21.950606
_cell_length_b 8.970398
_cell_length_c 9.545306
_cell_angle_alpha 90.000000
_cell_angle_beta 80.001143
_cell_angle_gamma 90.000000
_cell_volume 1850.977198
_symmetry_space_group_name_H-M "C 2/C"
_symmetry_group_IT_number 15
_symmetry_cell_setting 'monoclinic'
loop_
_space_group_symop_operation_xyz
x,y,z
-x,y,1/2-z
-x,-y,-z
x,-y,1/2+z
1/2+x,1/2+y,z
1/2-x,1/2+y,1/2-z
1/2-x,1/2-y,-z
1/2+x,1/2-y,1/2+z
loop_
_atom_site_type_symbol
_atom_site_label
_atom_site_fract_x
_atom_site_fract_y
_atom_site_fract_z
Si Si1 0.540198 0.571587 0.364906
Si Si2 0.866883 0.591297 0.007290
Si Si3 0.060884 0.408682 0.301222
Si Si4 0.334827 0.414342 0.128974
Si Si5 0.759191 0.912072 0.434295
O O1 0.500000 0.525668 0.250000
O O2 0.500000 0.500000 0.500000
O O3 0.546363 0.749314 0.376819
O O4 0.608019 0.502082 0.327456
O O5 0.920135 0.517291 0.080573
O O6 0.856426 0.754167 0.070703
O O7 0.805340 0.495864 0.041549
O O8 0.885712 0.602914 0.837275
O O9 0.000000 0.473977 0.250000
O O10 0.281769 0.398709 0.266012
O O11 0.309467 0.501100 0.005033
O O12 0.750000 0.750000 0.500000
#
# Coordination Sequence:
#
# PCOD8153683 Si02
#       5
#     8   8   8   8   8
#     4  11  24  44  67  95 129 169 214 264 322 389
#     4  12  25  43  67  98 132 171 218 272 325 384
#     4  11  24  44  66  96 131 170 215 268 326 390
#     4  12  24  42  66  95 129 170 217 270 322 384
#     4  12  25  43  65  94 130 174 218 266 325 387
#
# _framework density 21.610208
#
# number of rings (size 3 to 8) (size 9 to 14) (size 15 to 20)
#    0.000    0.400    0.000   10.800    0.000    2.400 
#    0.000    0.000    0.000    0.000    0.000    0.000 
#    0.000    0.000    0.000    0.000    0.000    0.000 
#
# Total GULP energy -248121.414720 kJ/mol
# GULP energy per Si atom -12406.070736 kJ/mol
# Density = 2.156102 g / cm^3
# Si number density = 21.610208 Si / 1000 Ang^3
#
#
#
# Elastic Constant Matrix: (Units=GPa)
#
#
# Indices 1 2 3 4 5 6 
#
# 1 104.3589 41.0631 -4.0524 0.0000 18.9886 0.0000
# 2 41.0631 122.5484 39.8089 0.0000 27.3772 0.0000
# 3 -4.0524 39.8089 107.8253 0.0000 -7.6588 0.0000
# 4 0.0000 0.0000 0.0000 32.9574 0.0000 -3.0530
# 5 18.9886 27.3772 -7.6588 0.0000 44.8021 0.0000
# 6 0.0000 0.0000 0.0000 -3.0530 0.0000 50.8163
#
#
#
# Elastic Compliance Matrix: (Units=1/GPa)
#
#
# Indices 1 2 3 4 5 6 
#
# 1 0.011611 -0.003966 0.001744 0.000000 -0.002199 0.000000
# 2 -0.003966 0.012818 -0.005384 0.000000 -0.007072 0.000000
# 3 0.001744 -0.005384 0.011650 0.000000 0.004542 0.000000
# 4 0.000000 0.000000 0.000000 0.030512 0.000000 0.001833
# 5 -0.002199 -0.007072 0.004542 0.000000 0.028350 0.000000
# 6 0.000000 0.000000 0.000000 0.001833 0.000000 0.019789
#
#
# Mechanical properties :
#
#
# Convention : Reuss Voigt Hill
#
# Bulk Modulus (GPa) = 47.91976 54.26355 51.09166
# Shear Modulus (GPa) = 36.52417 42.90936 39.71676
#
# Velocity S-wave (km/s) = 4.11558 4.46085 4.29169
# Velocity P-wave (km/s) = 6.69379 7.19005 6.94635
#
# Compressibility (1/GPa) = 0.02086822
#
# Stress axis : x y z
#
# Youngs Moduli (GPa) = 86.12758 78.01818 85.83669
#
# Poissons Ratio (x) = 0.30940 -0.14972
# Poissons Ratio (y) = 0.34156 0.46211
# Poissons Ratio (z) = -0.15023 0.42002
#
# Static dielectric constant tensor:
#      x y z
#    x 4.034200 0.000000 -0.028320 
#    y 0.000000 3.638950 0.000000 
#    z -0.028320 0.000000 4.090680 
# 
# 
# High freq. dielectric constant tensor:
#      x y z
#    x 1.870590 0.000000 -0.001450 
#    y 0.000000 1.861050 0.000000 
#    z -0.001450 0.000000 1.866250 
# 
# From -- ./inp_files/59935.got.cif
#   From: 2010.06.25/outbox.cif.g09.slc.cpg/sg15_30_cif.got.tgz:59935.got - 2010.06.28 07:06:18.
