data_PCOD8153630
_publ_section_title
;
Structure prediction by ZEFSAII (Michael W. Deem and Ramdas Pophale) SiO2 
 PCOD8153630
Probable space group: C 2/C
;
_chemical_formula_sum "Si O2"
_cell_formula_units_Z 52
_cell_length_a 27.989707
_cell_length_b 14.164838
_cell_length_c 15.997515
_cell_angle_alpha 90.000000
_cell_angle_beta 22.954773
_cell_angle_gamma 90.000000
_cell_volume 2473.614362
_symmetry_space_group_name_H-M "C 2/C"
_symmetry_group_IT_number 15
_symmetry_cell_setting 'monoclinic'
loop_
_space_group_symop_operation_xyz
x,y,z
-x,y,1/2-z
-x,-y,-z
x,-y,1/2+z
1/2+x,1/2+y,z
1/2-x,1/2+y,1/2-z
1/2-x,1/2-y,-z
1/2+x,1/2-y,1/2+z
loop_
_atom_site_type_symbol
_atom_site_label
_atom_site_fract_x
_atom_site_fract_y
_atom_site_fract_z
Si Si1 0.787391 0.491839 0.187938
Si Si2 0.416664 0.238316 0.633886
Si Si3 0.131282 0.953604 0.779772
Si Si4 0.500000 0.300742 0.750000
Si Si5 0.794150 0.911371 0.008840
Si Si6 0.361414 0.806532 0.608276
Si Si7 0.107906 0.293512 0.513937
O O1 0.700128 0.517378 0.252135
O O2 0.712906 0.465546 0.391513
O O3 0.868166 0.581458 0.083130
O O4 0.869863 0.405750 0.023206
O O5 0.368229 0.341349 0.733950
O O6 0.318893 0.160231 0.820709
O O7 0.546890 0.218390 0.465611
O O8 0.440364 0.237989 0.497676
O O9 0.198774 0.982986 0.583001
O O10 0.000000 0.000000 0.000000
O O11 0.574292 0.359051 0.699767
O O12 0.601447 0.239154 0.539471
O O13 0.228062 0.765869 0.846906
O O14 0.000000 0.267150 0.750000
#
# Coordination Sequence:
#
# PCOD8153630 Si02
#       7
#     8   8   8   4   8   8   8
#     4  11  25  44  66 105 137 178 238 279 354 409
#     4  11  24  45  69 101 138 179 237 280 352 410
#     4  12  23  40  69 104 136 180 237 284 346 411
#     4  12  20  42  72  98 134 176 228 296 340 400
#     4  11  24  43  69 100 142 180 226 298 342 410
#     4  12  25  42  72 102 135 186 229 287 346 412
#     4  11  26  48  65  98 147 183 226 289 348 418
#
# _framework density 21.021871000000001
#
# number of rings (size 3 to 8) (size 9 to 14) (size 15 to 20)
#    0.000    0.615    6.154    2.308    3.231    5.538 
#    1.385    0.000    0.000    0.000    0.000    0.000 
#    0.000    0.000    0.000    0.000    0.000    0.000 
#
# Total GULP energy -322381.210676 kJ/mol
# GULP energy per Si atom -12399.277334 kJ/mol
# Density = 2.097402 g / cm^3
# Si number density = 21.021871 Si / 1000 Ang^3
#
#
#
# Elastic Constant Matrix: (Units=GPa)
#
#
# Indices 1 2 3 4 5 6 
#
# 1 154.3359 31.2844 65.7722 0.0000 -0.6951 0.0000
# 2 31.2844 65.4097 14.4118 0.0001 -4.5382 0.0000
# 3 65.7722 14.4118 121.7918 0.0001 9.5979 0.0000
# 4 0.0000 0.0001 0.0001 17.0922 0.0000 -11.4245
# 5 -0.6951 -4.5382 9.5979 0.0000 40.8704 0.0000
# 6 0.0000 0.0000 0.0000 -11.4245 0.0000 31.9821
#
#
#
# Elastic Compliance Matrix: (Units=1/GPa)
#
#
# Indices 1 2 3 4 5 6 
#
# 1 0.009109 -0.003283 -0.004599 0.000000 0.000870 0.000000
# 2 -0.003283 0.017081 -0.000401 0.000000 0.001935 0.000000
# 3 -0.004599 -0.000401 0.010954 0.000000 -0.002695 0.000000
# 4 0.000000 0.000000 0.000000 0.076857 0.000000 0.027454
# 5 0.000870 0.001935 -0.002695 0.000000 0.025330 0.000000
# 6 0.000000 0.000000 0.000000 0.027454 0.000000 0.041075
#
#
# Mechanical properties :
#
#
# Convention : Reuss Voigt Hill
#
# Bulk Modulus (GPa) = 48.59498 62.71934 55.65716
# Shear Modulus (GPa) = 24.53015 33.32688 28.92851
#
# Velocity S-wave (km/s) = 3.41968 3.98596 3.71363
# Velocity P-wave (km/s) = 6.22566 7.14730 6.70234
#
# Compressibility (1/GPa) = 0.02057826
#
# Stress axis : x y z
#
# Youngs Moduli (GPa) = 109.78464 58.54473 91.28835
#
# Poissons Ratio (x) = 0.19219 0.41985
# Poissons Ratio (y) = 0.36040 0.03659
# Poissons Ratio (z) = 0.50492 0.02347
#
# Static dielectric constant tensor:
#      x y z
#    x 4.818490 0.000000 0.015800 
#    y 0.000000 4.036560 0.000000 
#    z 0.015800 0.000000 3.636360 
# 
# 
# High freq. dielectric constant tensor:
#      x y z
#    x 1.851220 0.000000 0.000960 
#    y 0.000000 1.819590 0.000000 
#    z 0.000960 0.000000 1.818480 
# 
# From -- ./inp_files/225469.got.cif
#   From: 2010.06.25/outbox.cif.g09.slc.cpg/sg15_113_cif.got.tgz:225469.got - 2010.06.28 07:06:18.
