data_PCOD8153628
_publ_section_title
;
Structure prediction by ZEFSAII (Michael W. Deem and Ramdas Pophale) SiO2 
 PCOD8153628
Probable space group: C 2/C
;
_chemical_formula_sum "Si O2"
_cell_formula_units_Z 64
_cell_length_a 13.828349
_cell_length_b 24.542804
_cell_length_c 12.502904
_cell_angle_alpha 90.000000
_cell_angle_beta 139.083443
_cell_angle_gamma 90.000000
_cell_volume 2779.199097
_symmetry_space_group_name_H-M "C 2/C"
_symmetry_group_IT_number 15
_symmetry_cell_setting 'monoclinic'
loop_
_space_group_symop_operation_xyz
x,y,z
-x,y,1/2-z
-x,-y,-z
x,-y,1/2+z
1/2+x,1/2+y,z
1/2-x,1/2+y,1/2-z
1/2-x,1/2-y,-z
1/2+x,1/2-y,1/2+z
loop_
_atom_site_type_symbol
_atom_site_label
_atom_site_fract_x
_atom_site_fract_y
_atom_site_fract_z
Si Si1 0.162805 0.416690 0.391926
Si Si2 0.718486 0.549941 0.284436
Si Si3 0.009337 0.421394 0.634614
Si Si4 0.495044 0.356358 0.972851
Si Si5 0.804088 0.753178 0.825854
Si Si6 0.718526 0.568521 0.746029
Si Si7 0.490254 0.202702 0.358794
Si Si8 0.241502 0.302011 0.420394
O O1 0.241071 0.444785 0.557357
O O2 0.239880 0.429418 0.344316
O O3 0.152898 0.351106 0.402902
O O4 0.000000 0.441368 0.250000
O O5 0.863744 0.549386 0.329012
O O6 0.646041 0.490238 0.209413
O O7 0.598632 0.595349 0.158508
O O8 0.060888 0.359323 0.685865
O O9 0.000000 0.444603 0.750000
O O10 0.854030 0.424006 0.441746
O O11 0.594811 0.383123 0.152546
O O12 0.597337 0.326838 0.970588
O O13 0.382018 0.310568 0.918488
O O14 0.628660 0.761965 0.674144
O O15 0.848789 0.720677 0.756814
O O16 0.849293 0.710777 0.955657
O O17 0.500000 0.227525 0.250000
O O18 0.250000 0.250000 0.500000
#
# Coordination Sequence:
#
# PCOD8153628 Si02
#       8
#     8   8   8   8   8   8   8   8
#     4  11  25  42  71 108 140 182 246 296 350 434
#     4  12  25  45  75  98 144 189 241 302 361 416
#     4  11  25  44  73 103 138 182 246 294 351 429
#     4  11  25  47  66 106 145 183 236 289 354 434
#     4  12  23  43  69  99 140 182 225 281 351 429
#     4  11  26  46  71 101 143 186 240 300 358 417
#     4  11  24  43  68  98 135 178 229 283 342 414
#     4  11  26  41  70 103 145 184 225 282 366 430
#
# _framework density 23.028217000000001
#
# number of rings (size 3 to 8) (size 9 to 14) (size 15 to 20)
#    0.000    0.750    3.750    3.375    3.500    4.000 
#    0.000    0.625    0.000    0.000    0.000    0.000 
#    0.000    0.000    0.000    0.000    0.000    0.000 
#
# Total GULP energy -396601.292360 kJ/mol
# GULP energy per Si atom -12393.790386 kJ/mol
# Density = 2.297580 g / cm^3
# Si number density = 23.028217 Si / 1000 Ang^3
#
#
#
# Elastic Constant Matrix: (Units=GPa)
#
#
# Indices 1 2 3 4 5 6 
#
# 1 56.3967 26.7348 37.3223 0.0000 -13.1427 0.0000
# 2 26.7348 114.6276 31.7857 0.0000 -4.5785 0.0000
# 3 37.3223 31.7857 143.6640 0.0000 -17.1090 0.0000
# 4 0.0000 0.0000 0.0000 38.1791 0.0000 -0.3741
# 5 -13.1427 -4.5785 -17.1090 0.0000 47.3725 0.0000
# 6 0.0000 0.0000 0.0000 -0.3741 0.0000 27.1125
#
#
#
# Elastic Compliance Matrix: (Units=1/GPa)
#
#
# Indices 1 2 3 4 5 6 
#
# 1 0.023860 -0.004064 -0.004763 0.000000 0.004507 0.000000
# 2 -0.004064 0.009988 -0.001226 0.000000 -0.000605 0.000000
# 3 -0.004763 -0.001226 0.008671 0.000000 0.001692 0.000000
# 4 0.000000 0.000000 0.000000 0.026196 0.000000 0.000361
# 5 0.004507 -0.000605 0.001692 0.000000 0.022912 0.000000
# 6 0.000000 0.000000 0.000000 0.000361 0.000000 0.036888
#
#
# Mechanical properties :
#
#
# Convention : Reuss Voigt Hill
#
# Bulk Modulus (GPa) = 44.61754 56.26376 50.44065
# Shear Modulus (GPa) = 32.03243 37.12252 34.57748
#
# Velocity S-wave (km/s) = 3.73367 4.01938 3.87916
# Velocity P-wave (km/s) = 6.16476 6.78426 6.48191
#
# Compressibility (1/GPa) = 0.02241271
#
# Stress axis : x y z
#
# Youngs Moduli (GPa) = 41.91058 100.12402 115.33105
#
# Poissons Ratio (x) = 0.40693 0.54929
# Poissons Ratio (y) = 0.17034 0.14139
# Poissons Ratio (z) = 0.19961 0.12275
#
# Static dielectric constant tensor:
#      x y z
#    x 4.027100 0.000000 0.209530 
#    y 0.000000 4.533640 0.000000 
#    z 0.209530 0.000000 4.191000 
# 
# 
# High freq. dielectric constant tensor:
#      x y z
#    x 1.884380 0.000000 0.002750 
#    y 0.000000 1.932270 0.000000 
#    z 0.002750 0.000000 1.921100 
# 
# From -- ./inp_files/101347.got.cif
#   From: 2010.06.25/outbox.cif.g09.slc.cpg/sg15_51_cif.got.tgz:101347.got - 2010.06.28 07:06:18.
