data_PCOD8153377
_publ_section_title
;
Structure prediction by ZEFSAII (Michael W. Deem and Ramdas Pophale) SiO2 
 PCOD8153377
Probable space group: C 2/C
;
_chemical_formula_sum "Si O2"
_cell_formula_units_Z 40
_cell_length_a 18.998122
_cell_length_b 15.823386
_cell_length_c 13.248962
_cell_angle_alpha 90.000000
_cell_angle_beta 154.231502
_cell_angle_gamma 90.000000
_cell_volume 1731.480402
_symmetry_space_group_name_H-M "C 2/C"
_symmetry_group_IT_number 15
_symmetry_cell_setting 'monoclinic'
loop_
_space_group_symop_operation_xyz
x,y,z
-x,y,1/2-z
-x,-y,-z
x,-y,1/2+z
1/2+x,1/2+y,z
1/2-x,1/2+y,1/2-z
1/2-x,1/2-y,-z
1/2+x,1/2-y,1/2+z
loop_
_atom_site_type_symbol
_atom_site_label
_atom_site_fract_x
_atom_site_fract_y
_atom_site_fract_z
Si Si1 0.148914 0.488856 0.367311
Si Si2 0.124382 0.075916 0.181507
Si Si3 0.434918 0.122262 0.471676
Si Si4 0.871701 0.673414 0.172712
Si Si5 0.070848 0.778796 0.742748
O O1 0.291059 0.435479 0.599893
O O2 0.221011 0.583412 0.449415
O O3 0.000000 0.493620 0.250000
O O4 0.077416 0.449337 0.170464
O O5 0.254428 0.083207 0.258081
O O6 0.042023 0.165773 0.102200
O O7 0.000000 0.000000 0.000000
O O8 0.457194 0.168450 0.392611
O O9 0.463212 0.194203 0.591234
O O10 0.000000 0.683371 0.250000
O O11 0.750000 0.750000 0.000000
O O12 0.000000 0.826498 0.750000
O O13 0.250000 0.750000 0.000000
#
# Coordination Sequence:
#
# PCOD8153377 Si02
#       5
#     8   8   8   8   8
#     4   9  20  45  68  97 137 185 239 292 368 448
#     4  11  25  43  73 113 146 185 242 310 373 446
#     4  11  23  45  74  99 149 197 246 305 375 448
#     4  11  27  43  66  99 142 192 246 304 371 437
#     4  12  23  44  74 109 145 188 250 306 367 450
#
# _framework density 23.101618999999999
#
# number of rings (size 3 to 8) (size 9 to 14) (size 15 to 20)
#    0.000    1.200    4.000    1.200    5.600    1.600 
#    7.200    0.000    0.000    0.000    0.000    0.000 
#    0.000    0.000    0.000    0.000    0.000    0.000 
#
# Total GULP energy -247765.329701 kJ/mol
# GULP energy per Si atom -12388.266485 kJ/mol
# Density = 2.304904 g / cm^3
# Si number density = 23.101619 Si / 1000 Ang^3
#
#
#
# Elastic Constant Matrix: (Units=GPa)
#
#
# Indices 1 2 3 4 5 6 
#
# 1 133.7227 40.7640 56.6100 0.0000 -8.3987 0.0000
# 2 40.7640 144.9466 53.2616 0.0000 3.0379 0.0000
# 3 56.6100 53.2616 105.4797 0.0000 -9.2583 0.0000
# 4 0.0000 0.0000 0.0000 59.0028 0.0000 -5.7783
# 5 -8.3987 3.0379 -9.2583 0.0000 35.5245 0.0000
# 6 0.0000 0.0000 0.0000 -5.7783 0.0000 32.5347
#
#
#
# Elastic Compliance Matrix: (Units=1/GPa)
#
#
# Indices 1 2 3 4 5 6 
#
# 1 0.009846 -0.001095 -0.004625 0.000000 0.001216 0.000000
# 2 -0.001095 0.008717 -0.003994 0.000000 -0.002045 0.000000
# 3 -0.004625 -0.003994 0.014239 0.000000 0.002959 0.000000
# 4 0.000000 0.000000 0.000000 0.017248 0.000000 0.003063
# 5 0.001216 -0.002045 0.002959 0.000000 0.029383 0.000000
# 6 0.000000 0.000000 0.000000 0.003063 0.000000 0.031280
#
#
# Mechanical properties :
#
#
# Convention : Reuss Voigt Hill
#
# Bulk Modulus (GPa) = 74.76291 76.15780 75.46036
# Shear Modulus (GPa) = 37.14723 40.97997 39.06360
#
# Velocity S-wave (km/s) = 4.01433 4.21634 4.11657
# Velocity P-wave (km/s) = 7.34298 7.53269 7.43844
#
# Compressibility (1/GPa) = 0.01337562
#
# Stress axis : x y z
#
# Youngs Moduli (GPa) = 101.56222 114.71270 70.23113
#
# Poissons Ratio (x) = 0.12564 0.32479
# Poissons Ratio (y) = 0.11124 0.28047
# Poissons Ratio (z) = 0.46968 0.45811
#
# Static dielectric constant tensor:
#      x y z
#    x 4.218710 0.000000 -0.138540 
#    y 0.000000 4.630780 0.000000 
#    z -0.138540 0.000000 3.998440 
# 
# 
# High freq. dielectric constant tensor:
#      x y z
#    x 1.907350 0.000000 -0.011960 
#    y 0.000000 1.935590 0.000000 
#    z -0.011960 0.000000 1.893740 
# 
# From -- ./inp_files/106895.got.cif
#   From: 2010.06.25/outbox.cif.g09.slc.cpg/sg15_54_cif.got.tgz:106895.got - 2010.06.28 07:06:18.
