data_PCOD8153367
_publ_section_title
;
Structure prediction by ZEFSAII (Michael W. Deem and Ramdas Pophale) SiO2 
 PCOD8153367
Probable space group: C 2/C
;
_chemical_formula_sum "Si O2"
_cell_formula_units_Z 44
_cell_length_a 17.761671
_cell_length_b 6.723418
_cell_length_c 23.192301
_cell_angle_alpha 90.000000
_cell_angle_beta 132.577400
_cell_angle_gamma 90.000000
_cell_volume 2039.437181
_symmetry_space_group_name_H-M "C 2/C"
_symmetry_group_IT_number 15
_symmetry_cell_setting 'monoclinic'
loop_
_space_group_symop_operation_xyz
x,y,z
-x,y,1/2-z
-x,-y,-z
x,-y,1/2+z
1/2+x,1/2+y,z
1/2-x,1/2+y,1/2-z
1/2-x,1/2-y,-z
1/2+x,1/2-y,1/2+z
loop_
_atom_site_type_symbol
_atom_site_label
_atom_site_fract_x
_atom_site_fract_y
_atom_site_fract_z
Si Si1 0.000000 0.159038 0.750000
Si Si2 0.002705 0.935736 0.936665
Si Si3 0.534323 0.834269 0.884403
Si Si4 0.817279 0.362569 0.988738
Si Si5 0.195337 0.929369 0.808942
Si Si6 0.647898 0.861373 0.191286
O O1 0.048297 0.303315 0.823266
O O2 0.084476 0.020708 0.763777
O O3 0.089604 0.774091 0.978788
O O4 0.897051 0.833237 0.863517
O O5 0.025326 0.119886 0.907877
O O6 0.000000 0.000000 0.000000
O O7 0.637891 0.934922 0.961080
O O8 0.433287 0.961240 0.845918
O O9 0.750000 0.250000 0.000000
O O10 0.754044 0.412141 0.899223
O O11 0.182699 0.711308 0.773126
O O12 0.255339 0.071388 0.795806
#
# Coordination Sequence:
#
# PCOD8153367 Si02
#       6
#     4   8   8   8   8   8
#     4  12  26  44  76 100 144 188 234 286 360 424
#     4  11  23  45  73  99 136 183 233 288 347 417
#     4  11  25  48  69 105 139 190 232 290 349 419
#     4  11  27  44  71 104 146 185 235 289 354 418
#     4  12  26  46  72 107 140 185 237 290 354 422
#     4  11  26  45  71 104 141 184 236 291 349 417
#
# _framework density 21.574579
#
# number of rings (size 3 to 8) (size 9 to 14) (size 15 to 20)
#    0.000    0.727    1.818    4.364    7.636    7.273 
#    0.000    0.000    0.000    0.000    0.000    0.000 
#    0.000    0.000    0.000    0.000    0.000    0.000 
#
# Total GULP energy -272895.349649 kJ/mol
# GULP energy per Si atom -12404.334075 kJ/mol
# Density = 2.152547 g / cm^3
# Si number density = 21.574579 Si / 1000 Ang^3
#
#
#
# Elastic Constant Matrix: (Units=GPa)
#
#
# Indices 1 2 3 4 5 6 
#
# 1 99.7537 -1.4636 18.0216 0.0000 -1.3970 0.0001
# 2 -1.4636 59.2776 18.5141 0.0001 1.4800 0.0002
# 3 18.0216 18.5141 140.0976 0.0000 -16.8844 0.0001
# 4 0.0000 0.0001 0.0000 45.0178 0.0000 -13.4357
# 5 -1.3970 1.4800 -16.8844 0.0000 41.4156 0.0000
# 6 0.0001 0.0002 0.0001 -13.4357 0.0000 23.1130
#
#
#
# Elastic Compliance Matrix: (Units=1/GPa)
#
#
# Indices 1 2 3 4 5 6 
#
# 1 0.010294 0.000714 -0.001451 0.000000 -0.000270 0.000000
# 2 0.000714 0.017755 -0.002641 0.000000 -0.001687 0.000000
# 3 -0.001451 -0.002641 0.008076 0.000000 0.003338 0.000000
# 4 0.000000 0.000000 0.000000 0.026876 0.000000 0.015623
# 5 -0.000270 -0.001687 0.003338 0.000000 0.025557 0.000000
# 6 0.000000 0.000000 0.000000 0.015623 0.000000 0.052348
#
#
# Mechanical properties :
#
#
# Convention : Reuss Voigt Hill
#
# Bulk Modulus (GPa) = 34.05171 41.03036 37.54103
# Shear Modulus (GPa) = 31.75588 39.51308 35.63448
#
# Velocity S-wave (km/s) = 3.84071 4.28420 4.06851
# Velocity P-wave (km/s) = 5.95698 6.59786 6.28559
#
# Compressibility (1/GPa) = 0.02936710
#
# Stress axis : x y z
#
# Youngs Moduli (GPa) = 97.14845 56.32361 123.82543
#
# Poissons Ratio (x) = -0.04022 0.17967
# Poissons Ratio (y) = -0.06937 0.32708
# Poissons Ratio (z) = 0.14096 0.14878
#
# Static dielectric constant tensor:
#      x y z
#    x 4.006280 0.000000 0.005540 
#    y 0.000000 4.002070 0.000000 
#    z 0.005540 0.000000 4.437210 
# 
# 
# High freq. dielectric constant tensor:
#      x y z
#    x 1.854960 0.000000 -0.001800 
#    y 0.000000 1.859330 0.000000 
#    z -0.001800 0.000000 1.870750 
# 
# From -- ./inp_files/246468.got.cif
#   From: 2010.06.25/outbox.cif.g09.slc.cpg/sg15_124_cif.got.tgz:246468.got - 2010.06.28 07:06:18.
