data_PCOD8153163
_publ_section_title
;
Structure prediction by ZEFSAII (Michael W. Deem and Ramdas Pophale) SiO2 
 PCOD8153163
Probable space group: C 2/C
;
_chemical_formula_sum "Si O2"
_cell_formula_units_Z 48
_cell_length_a 23.630589
_cell_length_b 8.513884
_cell_length_c 11.608848
_cell_angle_alpha 90.000000
_cell_angle_beta 65.928710
_cell_angle_gamma 90.000000
_cell_volume 2132.458422
_symmetry_space_group_name_H-M "C 2/C"
_symmetry_group_IT_number 15
_symmetry_cell_setting 'monoclinic'
loop_
_space_group_symop_operation_xyz
x,y,z
-x,y,1/2-z
-x,-y,-z
x,-y,1/2+z
1/2+x,1/2+y,z
1/2-x,1/2+y,1/2-z
1/2-x,1/2-y,-z
1/2+x,1/2-y,1/2+z
loop_
_atom_site_type_symbol
_atom_site_label
_atom_site_fract_x
_atom_site_fract_y
_atom_site_fract_z
Si Si1 0.066754 0.697025 0.691564
Si Si2 0.244006 0.960129 0.678683
Si Si3 0.133630 0.783930 0.857065
Si Si4 0.065433 0.926450 0.486695
Si Si5 0.836672 0.744020 0.228078
Si Si6 0.839729 0.569017 0.455225
O O1 0.079677 0.744001 0.812273
O O2 0.061890 0.853723 0.617243
O O3 0.115209 0.574633 0.603508
O O4 0.000000 0.613033 0.750000
O O5 0.193951 0.820668 0.727496
O O6 0.306549 0.911336 0.696685
O O7 0.211972 0.116597 0.753762
O O8 0.269550 0.997292 0.527479
O O9 0.114140 0.931554 0.951236
O O10 0.145760 0.641536 0.932040
O O11 0.095085 0.792038 0.377390
O O12 0.000000 0.000000 0.500000
O O13 0.844730 0.703859 0.355901
#
# Coordination Sequence:
#
# PCOD8153163 Si02
#       6
#     8   8   8   8   8   8
#     4  12  27  47  72 104 140 192 248 305 357 428
#     4  11  23  43  69 106 141 184 238 288 366 435
#     4  11  27  44  72 106 142 191 240 298 366 437
#     4  11  25  48  74  99 142 189 250 294 360 427
#     4  11  25  45  72 109 143 194 236 298 367 435
#     4  12  26  45  71 105 152 186 238 298 371 433
#
# _framework density 22.509232999999998
#
# number of rings (size 3 to 8) (size 9 to 14) (size 15 to 20)
#    0.000    0.667    5.000    1.500    4.667    4.000 
#    0.000    0.000    0.000    0.000    0.000    0.000 
#    0.000    0.000    0.000    0.000    0.000    0.000 
#
# Total GULP energy -297428.805003 kJ/mol
# GULP energy per Si atom -12392.866875 kJ/mol
# Density = 2.245800 g / cm^3
# Si number density = 22.509233 Si / 1000 Ang^3
#
#
#
# Elastic Constant Matrix: (Units=GPa)
#
#
# Indices 1 2 3 4 5 6 
#
# 1 102.0720 39.4713 34.9137 0.0000 -5.3896 0.0000
# 2 39.4713 103.1804 34.3355 0.0000 5.5157 0.0000
# 3 34.9137 34.3355 90.3751 0.0000 -2.4860 0.0000
# 4 0.0000 0.0000 0.0000 42.2516 0.0000 -1.4500
# 5 -5.3896 5.5157 -2.4860 0.0000 39.3935 0.0000
# 6 0.0000 0.0000 0.0000 -1.4500 0.0000 30.2773
#
#
#
# Elastic Compliance Matrix: (Units=1/GPa)
#
#
# Indices 1 2 3 4 5 6 
#
# 1 0.012509 -0.003783 -0.003340 0.000000 0.002030 0.000000
# 2 -0.003783 0.012370 -0.003306 0.000000 -0.002458 0.000000
# 3 -0.003340 -0.003306 0.013635 0.000000 0.000866 0.000000
# 4 0.000000 0.000000 0.000000 0.023707 0.000000 0.001135
# 5 0.002030 -0.002458 0.000866 0.000000 0.026062 0.000000
# 6 0.000000 0.000000 0.000000 0.001135 0.000000 0.033082
#
#
# Mechanical properties :
#
#
# Convention : Reuss Voigt Hill
#
# Bulk Modulus (GPa) = 56.63144 57.00760 56.81952
# Shear Modulus (GPa) = 33.75916 34.84495 34.30206
#
# Velocity S-wave (km/s) = 3.87692 3.93877 3.90796
# Velocity P-wave (km/s) = 6.72714 6.78723 6.75725
#
# Compressibility (1/GPa) = 0.01765804
#
# Stress axis : x y z
#
# Youngs Moduli (GPa) = 79.94087 80.83842 73.34029
#
# Poissons Ratio (x) = 0.30578 0.24493
# Poissons Ratio (y) = 0.30238 0.24247
# Poissons Ratio (z) = 0.26697 0.26726
#
# Static dielectric constant tensor:
#      x y z
#    x 4.038070 0.000000 -0.338680 
#    y 0.000000 4.088540 0.000000 
#    z -0.338680 0.000000 4.300290 
# 
# 
# High freq. dielectric constant tensor:
#      x y z
#    x 1.878360 0.000000 -0.023250 
#    y 0.000000 1.898720 0.000000 
#    z -0.023250 0.000000 1.894710 
# 
# From -- ./inp_files/116712.got.cif
#   From: 2010.06.25/outbox.cif.g09.slc.cpg/sg15_59_cif.got.tgz:116712.got - 2010.06.28 07:06:18.
