data_PCOD8153706
_publ_section_title
;
Structure prediction by ZEFSAII (Michael W. Deem and Ramdas Pophale) SiO2 
 PCOD8153706
Probable space group: C 2/C
;
_chemical_formula_sum "Si O2"
_cell_formula_units_Z 32
_cell_length_a 4.927419
_cell_length_b 18.395537
_cell_length_c 13.812345
_cell_angle_alpha 90.000000
_cell_angle_beta 101.650623
_cell_angle_gamma 90.000000
_cell_volume 1226.191335
_symmetry_space_group_name_H-M "C 2/C"
_symmetry_group_IT_number 15
_symmetry_cell_setting 'monoclinic'
loop_
_space_group_symop_operation_xyz
x,y,z
-x,y,1/2-z
-x,-y,-z
x,-y,1/2+z
1/2+x,1/2+y,z
1/2-x,1/2+y,1/2-z
1/2-x,1/2-y,-z
1/2+x,1/2-y,1/2+z
loop_
_atom_site_type_symbol
_atom_site_label
_atom_site_fract_x
_atom_site_fract_y
_atom_site_fract_z
Si Si1 0.172954 0.336000 0.948694
Si Si2 0.288173 0.531226 0.317549
Si Si3 0.612051 0.259997 0.864055
Si Si4 0.536499 0.624601 0.639252
O O1 0.258170 0.403763 0.889303
O O2 0.365979 0.268082 0.925948
O O3 0.852174 0.317266 0.910150
O O4 0.248907 0.357455 0.064054
O O5 0.500000 0.556276 0.250000
O O6 0.390501 0.458552 0.379195
O O7 0.000000 0.508926 0.250000
O O8 0.500000 0.279698 0.750000
O O9 0.719828 0.177721 0.879937
O O10 0.500000 0.639531 0.750000
#
# Coordination Sequence:
#
# PCOD8153706 Si02
#       4
#     8   8   8   8
#     4  12  25  45  72 101 134 179 227 276 334 400
#     4  11  24  44  69  99 136 178 224 277 335 398
#     4  12  25  45  71 101 135 175 225 282 336 398
#     4  11  26  46  68 101 140 180 223 277 336 400
#
# _framework density 26.097068
#
# number of rings (size 3 to 8) (size 9 to 14) (size 15 to 20)
#    0.000    0.500    0.000    9.000    0.000    8.000 
#    0.000    8.750    0.000    0.000    0.000    0.000 
#    0.000    0.000    0.000    0.000    0.000    0.000 
#
# Total GULP energy -198507.586225 kJ/mol
# GULP energy per Si atom -12406.724139 kJ/mol
# Density = 2.603767 g / cm^3
# Si number density = 26.097068 Si / 1000 Ang^3
#
#
#
# Elastic Constant Matrix: (Units=GPa)
#
#
# Indices 1 2 3 4 5 6 
#
# 1 124.5158 9.3189 26.1174 0.0000 9.9977 0.0000
# 2 9.3189 148.0910 17.1219 0.0000 7.7217 0.0000
# 3 26.1174 17.1219 139.6183 0.0000 24.8533 0.0000
# 4 0.0000 0.0000 0.0000 -0.2800 0.0000 5.7569
# 5 9.9977 7.7217 24.8533 0.0000 48.1629 0.0000
# 6 0.0000 0.0000 0.0000 5.7569 0.0000 35.0821
#
#
#
# Elastic Compliance Matrix: (Units=1/GPa)
#
#
# Indices 1 2 3 4 5 6 
#
# 1 0.008420 -0.000321 -0.001359 0.000000 -0.000995 0.000000
# 2 -0.000321 0.006885 -0.000660 0.000000 -0.000697 0.000000
# 3 -0.001359 -0.000660 0.008180 0.000000 -0.003833 0.000000
# 4 0.000000 0.000000 0.000000 -0.816541 0.000000 0.133993
# 5 -0.000995 -0.000697 -0.003833 0.000000 0.023059 0.000000
# 6 0.000000 0.000000 0.000000 0.133993 0.000000 0.006516
#
#
# Mechanical properties :
#
#
# Convention : Reuss Voigt Hill
#
# Bulk Modulus (GPa) = 53.17532 57.48238 55.32885
# Shear Modulus (GPa) = -6.64423 40.57081 16.96329
#
# Velocity S-wave (km/s) = -1.59734 3.94713 2.55229
# Velocity P-wave (km/s) = 4.12531 6.54579 5.47109
#
# Compressibility (1/GPa) = 0.01880572
#
# Stress axis : x y z
#
# Youngs Moduli (GPa) = 118.76483 145.23344 122.25195
#
# Poissons Ratio (x) = 0.04660 0.16608
# Poissons Ratio (y) = 0.03811 0.08073
# Poissons Ratio (z) = 0.16135 0.09591
#
# Static dielectric constant tensor:
#      x y z
#    x 4.753500 0.000000 0.137400 
#    y 0.000000 4.988640 0.000000 
#    z 0.137400 0.000000 5.011210 
# 
# 
# High freq. dielectric constant tensor:
#      x y z
#    x 2.052450 0.000000 0.005380 
#    y 0.000000 2.070890 0.000000 
#    z 0.005380 0.000000 2.061880 
# 
# From -- ./inp_files/128376.got.cif
#   From: 2010.06.25/outbox.cif.g09.slc.cpg/sg15_65_cif.got.tgz:128376.got - 2010.06.28 07:06:18.
