data_PCOD8153773
_publ_section_title
;
Structure prediction by ZEFSAII (Michael W. Deem and Ramdas Pophale) SiO2 
 PCOD8153773
Probable space group: C 2/C
;
_chemical_formula_sum "Si O2"
_cell_formula_units_Z 32
_cell_length_a 12.671067
_cell_length_b 12.801921
_cell_length_c 9.486999
_cell_angle_alpha 90.000000
_cell_angle_beta 109.974098
_cell_angle_gamma 90.000000
_cell_volume 1446.353367
_symmetry_space_group_name_H-M "C 2/C"
_symmetry_group_IT_number 15
_symmetry_cell_setting 'monoclinic'
loop_
_space_group_symop_operation_xyz
x,y,z
-x,y,1/2-z
-x,-y,-z
x,-y,1/2+z
1/2+x,1/2+y,z
1/2-x,1/2+y,1/2-z
1/2-x,1/2-y,-z
1/2+x,1/2-y,1/2+z
loop_
_atom_site_type_symbol
_atom_site_label
_atom_site_fract_x
_atom_site_fract_y
_atom_site_fract_z
Si Si1 0.076069 0.191598 0.411078
Si Si2 0.788249 0.397986 0.404182
Si Si3 0.190375 0.598505 0.917610
Si Si4 0.425611 0.289587 0.090607
O O1 0.195241 0.135861 0.457125
O O2 0.000000 0.149609 0.250000
O O3 0.906358 0.317109 0.093578
O O4 0.014130 0.157710 0.525552
O O5 0.842055 0.491518 0.519183
O O6 0.796133 0.421552 0.242311
O O7 0.658744 0.377634 0.388399
O O8 0.859329 0.295812 0.471155
O O9 0.500000 0.239501 0.250000
#
# Coordination Sequence:
#
# PCOD8153773 Si02
#       4
#     8   8   8   8
#     4  11  24  45  66  91 130 172 213 259 316 376
#     4  11  26  42  65  98 130 165 213 264 315 377
#     4  11  26  42  65  98 130 165 213 264 315 377
#     4  11  24  45  66  91 130 172 213 259 316 376
#
# _framework density 22.124604999999999
#
# number of rings (size 3 to 8) (size 9 to 14) (size 15 to 20)
#    0.000    1.000    5.000    0.000    7.000    4.000 
#    0.000    0.000    0.000    0.000    0.000    0.000 
#    0.000    0.000    0.000    0.000    0.000    0.000 
#
# Total GULP energy -198458.172038 kJ/mol
# GULP energy per Si atom -12403.635752 kJ/mol
# Density = 2.207425 g / cm^3
# Si number density = 22.124605 Si / 1000 Ang^3
#
#
#
# Elastic Constant Matrix: (Units=GPa)
#
#
# Indices 1 2 3 4 5 6 
#
# 1 68.9255 -20.4377 14.2145 0.0000 -13.4565 0.0000
# 2 -20.4377 45.9918 1.9621 0.0000 -13.5821 0.0000
# 3 14.2145 1.9621 149.0374 0.0000 -16.9674 0.0000
# 4 0.0000 0.0000 0.0000 24.1596 0.0000 -8.1673
# 5 -13.4565 -13.5821 -16.9674 0.0000 40.0239 0.0000
# 6 0.0000 0.0000 0.0000 -8.1673 0.0000 15.1036
#
#
#
# Elastic Compliance Matrix: (Units=1/GPa)
#
#
# Indices 1 2 3 4 5 6 
#
# 1 0.020400 0.012244 -0.000896 0.000000 0.010634 0.000000
# 2 0.012244 0.031573 0.000110 0.000000 0.014877 0.000000
# 3 -0.000896 0.000110 0.007107 0.000000 0.002749 0.000000
# 4 0.000000 0.000000 0.000000 0.050651 0.000000 0.027390
# 5 0.010634 0.014877 0.002749 0.000000 0.034774 0.000000
# 6 0.000000 0.000000 0.000000 0.027390 0.000000 0.081020
#
#
# Mechanical properties :
#
#
# Convention : Reuss Voigt Hill
#
# Bulk Modulus (GPa) = 12.19592 28.38138 20.28865
# Shear Modulus (GPa) = 21.74478 33.73848 27.74163
#
# Velocity S-wave (km/s) = 3.13842 3.90927 3.54486
# Velocity P-wave (km/s) = 4.31940 5.76475 5.09360
#
# Compressibility (1/GPa) = 0.08199465
#
# Stress axis : x y z
#
# Youngs Moduli (GPa) = 49.02026 31.67299 140.71231
#
# Poissons Ratio (x) = -0.38779 0.12611
# Poissons Ratio (y) = -0.60019 -0.01553
# Poissons Ratio (z) = 0.04393 -0.00349
#
# Static dielectric constant tensor:
#      x y z
#    x 4.125100 0.000000 0.064970 
#    y 0.000000 3.712770 0.000000 
#    z 0.064970 0.000000 4.139250 
# 
# 
# High freq. dielectric constant tensor:
#      x y z
#    x 1.881480 0.000000 0.001120 
#    y 0.000000 1.846340 0.000000 
#    z 0.001120 0.000000 1.890730 
# 
# From -- ./inp_files/94808.got.cif
#   From: 2010.06.25/outbox.cif.g09.slc.cpg/sg15_48_cif.got.tgz:94808.got - 2010.06.28 07:06:18.
