data_PCOD8153701
_publ_section_title
;
Structure prediction by ZEFSAII (Michael W. Deem and Ramdas Pophale) SiO2 
 PCOD8153701
Probable space group: C 2/C
;
_chemical_formula_sum "Si O2"
_cell_formula_units_Z 44
_cell_length_a 17.243017
_cell_length_b 17.611919
_cell_length_c 10.594155
_cell_angle_alpha 90.000000
_cell_angle_beta 37.924253
_cell_angle_gamma 90.000000
_cell_volume 1977.390090
_symmetry_space_group_name_H-M "C 2/C"
_symmetry_group_IT_number 15
_symmetry_cell_setting 'monoclinic'
loop_
_space_group_symop_operation_xyz
x,y,z
-x,y,1/2-z
-x,-y,-z
x,-y,1/2+z
1/2+x,1/2+y,z
1/2-x,1/2+y,1/2-z
1/2-x,1/2-y,-z
1/2+x,1/2-y,1/2+z
loop_
_atom_site_type_symbol
_atom_site_label
_atom_site_fract_x
_atom_site_fract_y
_atom_site_fract_z
Si Si1 0.150203 0.951088 0.650942
Si Si2 0.200653 0.608306 0.763588
Si Si3 0.500000 0.585208 0.750000
Si Si4 0.445729 0.355543 0.060893
Si Si5 0.990046 0.691415 0.913140
Si Si6 0.606968 0.034930 0.503756
O O1 0.211996 0.896727 0.470761
O O2 0.250472 0.967196 0.630340
O O3 0.024026 0.910555 0.866509
O O4 0.119093 0.030859 0.623314
O O5 0.297708 0.619508 0.755459
O O6 0.118218 0.681379 0.830011
O O7 0.105486 0.536485 0.907971
O O8 0.512801 0.638912 0.611139
O O9 0.432427 0.268927 0.035888
O O10 0.000000 0.697061 0.750000
O O11 0.907631 0.615834 0.047931
O O12 0.500000 0.024762 0.750000
#
# Coordination Sequence:
#
# PCOD8153701 Si02
#       6
#     8   8   4   8   8   8
#     4  12  22  42  75 101 135 182 237 290 336 414
#     4  12  23  45  73 102 137 185 236 287 349 413
#     4  12  24  48  66 104 144 182 238 282 348 414
#     4  12  27  44  71 107 140 183 234 293 350 414
#     4  11  25  44  68 104 142 181 233 291 349 411
#     4  11  24  44  69 105 138 186 235 284 344 419
#
# _framework density 22.251553000000001
#
# number of rings (size 3 to 8) (size 9 to 14) (size 15 to 20)
#    0.000    0.364    7.273    3.273    2.545    1.455 
#    1.636    0.909    0.000    0.000    0.000    0.000 
#    0.000    0.000    0.000    0.000    0.000    0.000 
#
# Total GULP energy -272585.252278 kJ/mol
# GULP energy per Si atom -12390.238740 kJ/mol
# Density = 2.220091 g / cm^3
# Si number density = 22.251553 Si / 1000 Ang^3
#
#
#
# Elastic Constant Matrix: (Units=GPa)
#
#
# Indices 1 2 3 4 5 6 
#
# 1 109.3332 53.6404 26.4203 0.0000 -2.2034 0.0000
# 2 53.6404 147.8539 45.1826 0.0000 1.3811 0.0000
# 3 26.4203 45.1826 63.4525 0.0000 -7.6497 0.0000
# 4 0.0000 0.0000 0.0000 30.5485 0.0000 -0.7404
# 5 -2.2034 1.3811 -7.6497 0.0000 37.9508 0.0000
# 6 0.0000 0.0000 0.0000 -0.7404 0.0000 25.5608
#
#
#
# Elastic Compliance Matrix: (Units=1/GPa)
#
#
# Indices 1 2 3 4 5 6 
#
# 1 0.011388 -0.003448 -0.002246 0.000000 0.000334 0.000000
# 2 -0.003448 0.009784 -0.005737 0.000000 -0.001713 0.000000
# 3 -0.002246 -0.005737 0.021308 0.000000 0.004373 0.000000
# 4 0.000000 0.000000 0.000000 0.032758 0.000000 0.000949
# 5 0.000334 -0.001713 0.004373 0.000000 0.027313 0.000000
# 6 0.000000 0.000000 0.000000 0.000949 0.000000 0.039150
#
#
# Mechanical properties :
#
#
# Convention : Reuss Voigt Hill
#
# Bulk Modulus (GPa) = 50.97911 63.45847 57.21879
# Shear Modulus (GPa) = 29.22243 31.83843 30.53043
#
# Velocity S-wave (km/s) = 3.62785 3.78675 3.70815
# Velocity P-wave (km/s) = 6.36463 6.90651 6.64110
#
# Compressibility (1/GPa) = 0.01961588
#
# Stress axis : x y z
#
# Youngs Moduli (GPa) = 87.81555 102.21120 46.93137
#
# Poissons Ratio (x) = 0.35243 0.10541
# Poissons Ratio (y) = 0.30279 0.26927
# Poissons Ratio (z) = 0.19723 0.58643
#
# Static dielectric constant tensor:
#      x y z
#    x 4.551210 0.000000 -0.226130 
#    y 0.000000 4.015200 0.000000 
#    z -0.226130 0.000000 3.781370 
# 
# 
# High freq. dielectric constant tensor:
#      x y z
#    x 1.906520 0.000000 -0.018520 
#    y 0.000000 1.874830 0.000000 
#    z -0.018520 0.000000 1.845080 
# 
# From -- ./inp_files/106607.got.cif
#   From: 2010.06.25/outbox.cif.g09.slc.cpg/sg15_54_cif.got.tgz:106607.got - 2010.06.28 07:06:18.
