data_PCOD8153763
_publ_section_title
;
Structure prediction by ZEFSAII (Michael W. Deem and Ramdas Pophale) SiO2 
 PCOD8153763
Probable space group: C 2/C
;
_chemical_formula_sum "Si O2"
_cell_formula_units_Z 48
_cell_length_a 24.315990
_cell_length_b 12.507772
_cell_length_c 18.200246
_cell_angle_alpha 90.000000
_cell_angle_beta 158.339946
_cell_angle_gamma 90.000000
_cell_volume 2043.110731
_symmetry_space_group_name_H-M "C 2/C"
_symmetry_group_IT_number 15
_symmetry_cell_setting 'monoclinic'
loop_
_space_group_symop_operation_xyz
x,y,z
-x,y,1/2-z
-x,-y,-z
x,-y,1/2+z
1/2+x,1/2+y,z
1/2-x,1/2+y,1/2-z
1/2-x,1/2-y,-z
1/2+x,1/2-y,1/2+z
loop_
_atom_site_type_symbol
_atom_site_label
_atom_site_fract_x
_atom_site_fract_y
_atom_site_fract_z
Si Si1 0.153295 0.180629 0.825451
Si Si2 0.522190 0.947678 0.177594
Si Si3 0.717254 0.838483 0.548538
Si Si4 0.527176 0.455933 0.700558
Si Si5 0.275436 0.118212 0.693649
Si Si6 0.610608 0.832751 0.005143
O O1 0.237726 0.179982 0.852640
O O2 0.986636 0.225805 0.614998
O O3 0.129935 0.061081 0.826502
O O4 0.250000 0.250000 0.000000
O O5 0.621079 0.880820 0.358908
O O6 0.593203 0.942355 0.185642
O O7 0.354850 0.897506 0.970149
O O8 0.495363 0.073654 0.160276
O O9 0.887925 0.866783 0.742688
O O10 0.714395 0.713442 0.564738
O O11 0.500000 0.419118 0.750000
O O12 0.361548 0.463449 0.460351
O O13 0.342605 0.153252 0.853282
#
# Coordination Sequence:
#
# PCOD8153763 Si02
#       6
#     8   8   8   8   8   8
#     4  12  28  52  78 105 141 198 262 312 364 457
#     4  11  24  47  72 104 153 197 244 302 372 450
#     4  11  24  44  75 105 150 196 252 300 364 451
#     4  12  25  46  76 109 145 195 255 303 370 451
#     4  12  28  44  73 114 154 193 238 315 382 449
#     4  12  29  48  76 110 150 194 251 313 388 433
#
# _framework density 23.493586000000001
#
# number of rings (size 3 to 8) (size 9 to 14) (size 15 to 20)
#    0.000    0.333    3.333    4.500   11.667    2.000 
#    0.000    0.000    0.000    0.000    0.000    0.000 
#    0.000    0.000    0.000    0.000    0.000    0.000 
#
# Total GULP energy -297426.077165 kJ/mol
# GULP energy per Si atom -12392.753215 kJ/mol
# Density = 2.344011 g / cm^3
# Si number density = 23.493586 Si / 1000 Ang^3
#
#
#
# Elastic Constant Matrix: (Units=GPa)
#
#
# Indices 1 2 3 4 5 6 
#
# 1 123.4231 23.6002 55.5323 0.0002 41.5939 0.0001
# 2 23.6002 85.9066 14.1420 0.0000 6.2291 0.0000
# 3 55.5323 14.1420 88.9587 0.0002 16.5343 0.0002
# 4 0.0002 0.0000 0.0002 41.4720 0.0002 11.8230
# 5 41.5939 6.2291 16.5343 0.0002 60.0805 0.0001
# 6 0.0001 0.0000 0.0002 11.8230 0.0001 34.2548
#
#
#
# Elastic Compliance Matrix: (Units=1/GPa)
#
#
# Indices 1 2 3 4 5 6 
#
# 1 0.014360 -0.002203 -0.007176 0.000000 -0.007738 0.000000
# 2 -0.002203 0.012324 -0.000664 0.000000 0.000430 0.000000
# 3 -0.007176 -0.000664 0.015693 0.000000 0.000718 0.000000
# 4 0.000000 0.000000 0.000000 0.026744 0.000000 -0.009231
# 5 -0.007738 0.000430 0.000718 0.000000 0.021759 0.000000
# 6 0.000000 0.000000 0.000000 -0.009231 0.000000 0.032379
#
#
# Mechanical properties :
#
#
# Convention : Reuss Voigt Hill
#
# Bulk Modulus (GPa) = 44.85987 53.87081 49.36534
# Shear Modulus (GPa) = 33.16224 40.82905 36.99564
#
# Velocity S-wave (km/s) = 3.76113 4.17331 3.97257
# Velocity P-wave (km/s) = 6.16420 6.79719 6.48842
#
# Compressibility (1/GPa) = 0.02229164
#
# Stress axis : x y z
#
# Youngs Moduli (GPa) = 69.63918 81.14388 63.72391
#
# Poissons Ratio (x) = 0.17872 0.45726
# Poissons Ratio (y) = 0.15338 0.04232
# Poissons Ratio (z) = 0.49971 0.05389
#
# Static dielectric constant tensor:
#      x y z
#    x 4.720870 0.000000 0.878640 
#    y 0.000000 4.332330 0.000000 
#    z 0.878640 0.000000 4.911890 
# 
# 
# High freq. dielectric constant tensor:
#      x y z
#    x 1.943350 0.000000 0.035480 
#    y 0.000000 1.931120 0.000000 
#    z 0.035480 0.000000 1.928010 
# 
# From -- ./inp_files/257636.got.cif
#   From: 2010.06.25/outbox.cif.g09.slc.cpg/sg15_129_cif.got.tgz:257636.got - 2010.06.28 07:06:18.
