data_PCOD8153756
_publ_section_title
;
Structure prediction by ZEFSAII (Michael W. Deem and Ramdas Pophale) SiO2 
 PCOD8153756
Probable space group: C 2/C
;
_chemical_formula_sum "Si O2"
_cell_formula_units_Z 40
_cell_length_a 26.616595
_cell_length_b 10.278354
_cell_length_c 13.527563
_cell_angle_alpha 90.000000
_cell_angle_beta 151.155384
_cell_angle_gamma 90.000000
_cell_volume 1785.398867
_symmetry_space_group_name_H-M "C 2/C"
_symmetry_group_IT_number 15
_symmetry_cell_setting 'monoclinic'
loop_
_space_group_symop_operation_xyz
x,y,z
-x,y,1/2-z
-x,-y,-z
x,-y,1/2+z
1/2+x,1/2+y,z
1/2-x,1/2+y,1/2-z
1/2-x,1/2-y,-z
1/2+x,1/2-y,1/2+z
loop_
_atom_site_type_symbol
_atom_site_label
_atom_site_fract_x
_atom_site_fract_y
_atom_site_fract_z
Si Si1 0.455922 0.631371 0.962119
Si Si2 0.900716 0.185277 0.650256
Si Si3 0.808977 0.939398 0.386865
Si Si4 0.849700 0.274110 0.106865
Si Si5 0.377747 0.039939 0.057076
O O1 0.541861 0.724230 0.160454
O O2 0.500000 0.500000 0.000000
O O3 0.416166 0.700309 0.794432
O O4 0.369871 0.577703 0.889438
O O5 0.836773 0.318104 0.521575
O O6 0.000000 0.192041 0.750000
O O7 0.845373 0.051245 0.525325
O O8 0.825325 0.799398 0.463549
O O9 0.689339 0.980499 0.158637
O O10 0.854885 0.428125 0.097383
O O11 0.750000 0.250000 0.000000
O O12 0.500000 0.037370 0.250000
#
# Coordination Sequence:
#
# PCOD8153756 Si02
#       5
#     8   8   8   8   8
#     4  12  23  44  77 105 138 186 248 288 356 432
#     4  11  24  44  74 105 141 185 237 299 354 429
#     4  12  24  47  75 102 140 193 245 290 356 447
#     4  12  27  47  73 105 143 194 238 297 356 432
#     4  11  27  46  69 106 148 182 228 305 372 415
#
# _framework density 22.403956000000001
#
# number of rings (size 3 to 8) (size 9 to 14) (size 15 to 20)
#    0.000    0.400    4.000    4.200    5.600    1.600 
#    3.600    0.000    0.000    0.000    0.000    0.000 
#    0.000    0.000    0.000    0.000    0.000    0.000 
#
# Total GULP energy -247782.403754 kJ/mol
# GULP energy per Si atom -12389.120188 kJ/mol
# Density = 2.235296 g / cm^3
# Si number density = 22.403956 Si / 1000 Ang^3
#
#
#
# Elastic Constant Matrix: (Units=GPa)
#
#
# Indices 1 2 3 4 5 6 
#
# 1 102.3188 25.5628 42.2218 0.0000 -11.2076 0.0000
# 2 25.5628 133.1162 23.9030 0.0000 -5.8741 0.0000
# 3 42.2218 23.9030 152.6014 0.0000 -5.9335 0.0000
# 4 0.0000 0.0000 0.0000 14.2040 0.0000 2.9448
# 5 -11.2076 -5.8741 -5.9335 0.0000 36.5389 0.0000
# 6 0.0000 0.0000 0.0000 2.9448 0.0000 18.6562
#
#
#
# Elastic Compliance Matrix: (Units=1/GPa)
#
#
# Indices 1 2 3 4 5 6 
#
# 1 0.011669 -0.001600 -0.002867 0.000000 0.002856 0.000000
# 2 -0.001600 0.007989 -0.000783 0.000000 0.000667 0.000000
# 3 -0.002867 -0.000783 0.007477 0.000000 0.000209 0.000000
# 4 0.000000 0.000000 0.000000 0.072785 0.000000 -0.011489
# 5 0.002856 0.000667 0.000209 0.000000 0.028385 0.000000
# 6 0.000000 0.000000 0.000000 -0.011489 0.000000 0.055415
#
#
# Mechanical properties :
#
#
# Convention : Reuss Voigt Hill
#
# Bulk Modulus (GPa) = 60.11064 63.49017 61.80041
# Shear Modulus (GPa) = 25.02938 33.63640 29.33289
#
# Velocity S-wave (km/s) = 3.34606 3.87894 3.62231
# Velocity P-wave (km/s) = 6.46659 6.96146 6.71858
#
# Compressibility (1/GPa) = 0.01663599
#
# Stress axis : x y z
#
# Youngs Moduli (GPa) = 85.69701 125.16470 133.74381
#
# Poissons Ratio (x) = 0.20026 0.38343
# Poissons Ratio (y) = 0.13712 0.10470
# Poissons Ratio (z) = 0.24569 0.09798
#
# Static dielectric constant tensor:
#      x y z
#    x 3.775640 0.000000 0.072720 
#    y 0.000000 4.791530 0.000000 
#    z 0.072720 0.000000 4.233810 
# 
# 
# High freq. dielectric constant tensor:
#      x y z
#    x 1.877720 0.000000 -0.004260 
#    y 0.000000 1.906970 0.000000 
#    z -0.004260 0.000000 1.895920 
# 
# From -- ./inp_files/122848.got.cif
#   From: 2010.06.25/outbox.cif.g09.slc.cpg/sg15_62_cif.got.tgz:122848.got - 2010.06.28 07:06:18.
