data_PCOD8153044
_publ_section_title
;
Structure prediction by ZEFSAII (Michael W. Deem and Ramdas Pophale) SiO2 
 PCOD8153044
Probable space group: C 2/C
;
_chemical_formula_sum "Si O2"
_cell_formula_units_Z 40
_cell_length_a 9.606439
_cell_length_b 27.859739
_cell_length_c 12.262655
_cell_angle_alpha 90.000000
_cell_angle_beta 141.891705
_cell_angle_gamma 90.000000
_cell_volume 2025.417572
_symmetry_space_group_name_H-M "C 2/C"
_symmetry_group_IT_number 15
_symmetry_cell_setting 'monoclinic'
loop_
_space_group_symop_operation_xyz
x,y,z
-x,y,1/2-z
-x,-y,-z
x,-y,1/2+z
1/2+x,1/2+y,z
1/2-x,1/2+y,1/2-z
1/2-x,1/2-y,-z
1/2+x,1/2-y,1/2+z
loop_
_atom_site_type_symbol
_atom_site_label
_atom_site_fract_x
_atom_site_fract_y
_atom_site_fract_z
Si Si1 0.512894 0.725628 0.872355
Si Si2 0.909024 0.442310 0.069112
Si Si3 0.000000 0.126159 0.250000
Si Si4 0.000000 0.609537 0.250000
Si Si5 0.237517 0.450994 0.073639
Si Si6 0.203666 0.816848 0.684957
O O1 0.500000 0.696405 0.750000
O O2 0.320927 0.765357 0.776358
O O3 0.750000 0.750000 0.000000
O O4 0.516481 0.688692 0.974153
O O5 0.000000 0.437799 0.250000
O O6 0.108883 0.433403 0.104301
O O7 0.705291 0.405165 0.923769
O O8 0.807553 0.493966 0.981842
O O9 0.923673 0.164643 0.290151
O O10 0.880169 0.642531 0.263992
O O11 0.169424 0.577183 0.423085
O O12 0.500000 0.442117 0.250000
#
# Coordination Sequence:
#
# PCOD8153044 Si02
#       6
#     8   8   4   4   8   8
#     4   9  18  40  67  92 124 163 216 277 335 384
#     4  11  25  45  65  97 140 181 215 275 340 382
#     4  12  26  46  64 100 144 174 222 276 332 406
#     4  12  22  42  66 104 126 172 240 268 314 404
#     4  11  25  42  70  97 132 182 227 271 326 390
#     4  11  23  42  68  94 133 173 216 287 333 396
#
# _framework density 19.749013999999999
#
# number of rings (size 3 to 8) (size 9 to 14) (size 15 to 20)
#    0.000    1.200    7.000    0.000    2.800    2.400 
#    7.200    0.000    0.000    0.000    0.000    0.000 
#    0.000    0.000    0.000    0.000    0.000    0.000 
#
# Total GULP energy -247801.601164 kJ/mol
# GULP energy per Si atom -12390.080058 kJ/mol
# Density = 1.970406 g / cm^3
# Si number density = 19.749014 Si / 1000 Ang^3
#
#
#
# Elastic Constant Matrix: (Units=GPa)
#
#
# Indices 1 2 3 4 5 6 
#
# 1 142.6014 41.9237 64.4099 0.0000 -6.0867 0.0000
# 2 41.9237 70.9632 38.7730 0.0000 -3.1290 0.0000
# 3 64.4099 38.7730 150.8211 0.0000 -9.9851 0.0000
# 4 0.0000 0.0000 0.0000 39.7877 0.0000 -10.0995
# 5 -6.0867 -3.1290 -9.9851 0.0000 35.6993 0.0000
# 6 0.0000 0.0000 0.0000 -10.0995 0.0000 29.9238
#
#
#
# Elastic Compliance Matrix: (Units=1/GPa)
#
#
# Indices 1 2 3 4 5 6 
#
# 1 0.009572 -0.003976 -0.003037 0.000000 0.000434 0.000000
# 2 -0.003976 0.018049 -0.002936 0.000000 0.000083 0.000000
# 3 -0.003037 -0.002936 0.008794 0.000000 0.001684 0.000000
# 4 0.000000 0.000000 0.000000 0.027488 0.000000 0.009278
# 5 0.000434 0.000083 0.001684 0.000000 0.028564 0.000000
# 6 0.000000 0.000000 0.000000 0.009278 0.000000 0.036549
#
#
# Mechanical properties :
#
#
# Convention : Reuss Voigt Hill
#
# Bulk Modulus (GPa) = 60.54976 72.73320 66.64148
# Shear Modulus (GPa) = 32.37910 35.70076 34.03993
#
# Velocity S-wave (km/s) = 4.05350 4.25635 4.15616
# Velocity P-wave (km/s) = 7.25493 7.81435 7.53983
#
# Compressibility (1/GPa) = 0.01651534
#
# Stress axis : x y z
#
# Youngs Moduli (GPa) = 104.47404 55.40456 113.71858
#
# Poissons Ratio (x) = 0.22031 0.34533
# Poissons Ratio (y) = 0.41544 0.33392
# Poissons Ratio (z) = 0.31726 0.16269
#
# Static dielectric constant tensor:
#      x y z
#    x 3.550750 0.000000 -0.241370 
#    y 0.000000 3.488460 0.000000 
#    z -0.241370 0.000000 4.331430 
# 
# 
# High freq. dielectric constant tensor:
#      x y z
#    x 1.773430 0.000000 -0.011400 
#    y 0.000000 1.768130 0.000000 
#    z -0.011400 0.000000 1.786910 
# 
# From -- ./inp_files/23563.got.cif
#   From: 2010.06.25/outbox.cif.g09.slc.cpg/sg15_12_cif.got.tgz:23563.got - 2010.06.28 07:06:18.
