data_PCOD8153934
_publ_section_title
;
Structure prediction by ZEFSAII (Michael W. Deem and Ramdas Pophale) SiO2 
 PCOD8153934
Probable space group: C 2/C
;
_chemical_formula_sum "Si O2"
_cell_formula_units_Z 48
_cell_length_a 10.914931
_cell_length_b 9.726222
_cell_length_c 23.880062
_cell_angle_alpha 90.000000
_cell_angle_beta 66.287527
_cell_angle_gamma 90.000000
_cell_volume 2321.103901
_symmetry_space_group_name_H-M "C 2/C"
_symmetry_group_IT_number 15
_symmetry_cell_setting 'monoclinic'
loop_
_space_group_symop_operation_xyz
x,y,z
-x,y,1/2-z
-x,-y,-z
x,-y,1/2+z
1/2+x,1/2+y,z
1/2-x,1/2+y,1/2-z
1/2-x,1/2-y,-z
1/2+x,1/2-y,1/2+z
loop_
_atom_site_type_symbol
_atom_site_label
_atom_site_fract_x
_atom_site_fract_y
_atom_site_fract_z
Si Si1 0.296262 0.870017 0.951015
Si Si2 0.133279 0.350139 0.007284
Si Si3 0.889823 0.789277 0.611051
Si Si4 0.287429 0.445077 0.312991
Si Si5 0.446248 0.452713 0.170314
Si Si6 0.089991 0.680341 0.384622
O O1 0.185998 0.877515 0.922591
O O2 0.438336 0.851552 0.894039
O O3 0.306215 0.002921 0.988237
O O4 0.250000 0.750000 0.000000
O O5 0.000652 0.313500 0.065963
O O6 0.250000 0.250000 0.000000
O O7 0.096872 0.340594 0.949416
O O8 0.795617 0.694447 0.666197
O O9 0.955303 0.900249 0.639316
O O10 0.346863 0.456159 0.240603
O O11 0.401675 0.429249 0.338769
O O12 0.196947 0.580739 0.336294
O O13 0.387496 0.337577 0.138829
#
# Coordination Sequence:
#
# PCOD8153934 Si02
#       6
#     8   8   8   8   8   8
#     4  12  24  41  67 101 132 176 214 268 337 397
#     4  12  26  40  66 101 135 172 215 275 336 395
#     4  12  24  44  69  98 136 171 223 272 330 398
#     4  11  24  47  67  94 134 174 223 276 325 381
#     4  11  26  43  70  97 127 180 225 268 326 394
#     4  12  23  43  68  97 134 172 219 271 334 391
#
# _framework density 20.679815000000001
#
# number of rings (size 3 to 8) (size 9 to 14) (size 15 to 20)
#    0.000    0.333    5.000    4.500    2.333    1.333 
#    0.000    0.000    0.000    0.000    0.000    0.000 
#    0.000    0.000    0.000    0.000    0.000    0.000 
#
# Total GULP energy -297629.324567 kJ/mol
# GULP energy per Si atom -12401.221857 kJ/mol
# Density = 2.063275 g / cm^3
# Si number density = 20.679815 Si / 1000 Ang^3
#
#
#
# Elastic Constant Matrix: (Units=GPa)
#
#
# Indices 1 2 3 4 5 6 
#
# 1 74.7044 35.0200 25.0247 0.0000 -11.1698 0.0000
# 2 35.0200 153.1342 40.9232 0.0000 -1.0440 0.0000
# 3 25.0247 40.9232 77.4690 0.0000 -6.7844 0.0000
# 4 0.0000 0.0000 0.0000 46.0541 0.0000 2.5133
# 5 -11.1698 -1.0440 -6.7844 0.0000 36.6863 0.0000
# 6 0.0000 0.0000 0.0000 2.5133 0.0000 48.7818
#
#
#
# Elastic Compliance Matrix: (Units=1/GPa)
#
#
# Indices 1 2 3 4 5 6 
#
# 1 0.016514 -0.002821 -0.003467 0.000000 0.004306 0.000000
# 2 -0.002821 0.008096 -0.003477 0.000000 -0.001271 0.000000
# 3 -0.003467 -0.003477 0.016023 0.000000 0.001809 0.000000
# 4 0.000000 0.000000 0.000000 0.021775 0.000000 -0.001122
# 5 0.004306 -0.001271 0.001809 0.000000 0.028868 0.000000
# 6 0.000000 0.000000 0.000000 -0.001122 0.000000 0.020557
#
#
# Mechanical properties :
#
#
# Convention : Reuss Voigt Hill
#
# Bulk Modulus (GPa) = 47.38536 56.36037 51.87287
# Shear Modulus (GPa) = 36.12814 39.92708 38.02761
#
# Velocity S-wave (km/s) = 4.18428 4.39877 4.29286
# Velocity P-wave (km/s) = 6.80498 7.28779 7.05052
#
# Compressibility (1/GPa) = 0.02110357
#
# Stress axis : x y z
#
# Youngs Moduli (GPa) = 60.55582 123.52224 62.40858
#
# Poissons Ratio (x) = 0.34840 0.21639
# Poissons Ratio (y) = 0.17080 0.21698
# Poissons Ratio (z) = 0.20996 0.42946
#
# Static dielectric constant tensor:
#      x y z
#    x 4.066620 0.000000 -0.074890 
#    y 0.000000 3.775010 0.000000 
#    z -0.074890 0.000000 3.819660 
# 
# 
# High freq. dielectric constant tensor:
#      x y z
#    x 1.822010 0.000000 -0.008550 
#    y 0.000000 1.824390 0.000000 
#    z -0.008550 0.000000 1.816280 
# 
# From -- ./inp_files/291044.got.cif
#   From: 2010.06.25/outbox.cif.g09.slc.cpg/sg15_146_cif.got.tgz:291044.got - 2010.06.28 07:06:18.
