data_PCOD8153107
_publ_section_title
;
Structure prediction by ZEFSAII (Michael W. Deem and Ramdas Pophale) SiO2 
 PCOD8153107
Probable space group: C 2/C
;
_chemical_formula_sum "Si O2"
_cell_formula_units_Z 52
_cell_length_a 8.564933
_cell_length_b 12.978171
_cell_length_c 25.759124
_cell_angle_alpha 90.000000
_cell_angle_beta 120.679883
_cell_angle_gamma 90.000000
_cell_volume 2462.537751
_symmetry_space_group_name_H-M "C 2/C"
_symmetry_group_IT_number 15
_symmetry_cell_setting 'monoclinic'
loop_
_space_group_symop_operation_xyz
x,y,z
-x,y,1/2-z
-x,-y,-z
x,-y,1/2+z
1/2+x,1/2+y,z
1/2-x,1/2+y,1/2-z
1/2-x,1/2-y,-z
1/2+x,1/2-y,1/2+z
loop_
_atom_site_type_symbol
_atom_site_label
_atom_site_fract_x
_atom_site_fract_y
_atom_site_fract_z
Si Si1 0.066314 0.699379 0.054251
Si Si2 0.781490 0.404749 0.066002
Si Si3 0.007355 0.243247 0.656947
Si Si4 0.806048 0.960070 0.339410
Si Si5 0.605363 0.208426 0.578471
Si Si6 0.889350 0.914386 0.566869
Si Si7 0.500000 0.895546 0.750000
O O1 0.174628 0.802109 0.060947
O O2 0.208701 0.608178 0.068900
O O3 0.994828 0.693794 0.100772
O O4 0.900444 0.693051 0.985103
O O5 0.786544 0.469912 0.119402
O O6 0.987545 0.381553 0.084817
O O7 0.674745 0.459758 0.000160
O O8 0.809262 0.195096 0.633539
O O9 0.164848 0.154458 0.680407
O O10 0.048347 0.323161 0.709535
O O11 0.677377 0.031276 0.282720
O O12 0.009536 0.001605 0.381148
O O13 0.522705 0.317725 0.581639
#
# Coordination Sequence:
#
# PCOD8153107 Si02
#       7
#     8   8   8   8   8   8   4
#     4   8  17  34  62  99 126 163 196 252 334 382
#     4   8  17  33  65  96 128 161 196 255 324 392
#     4  11  23  43  64  89 123 168 219 261 314 377
#     4  11  23  43  64  89 122 170 218 255 325 378
#     4   9  16  35  66  94 133 158 194 261 323 387
#     4   9  16  36  63  97 129 158 196 255 329 389
#     4  12  28  48  62  86 130 176 222 276 308 366
#
# _framework density 21.116426000000001
#
# number of rings (size 3 to 8) (size 9 to 14) (size 15 to 20)
#    0.000    2.462    1.538    2.769    0.000    1.231 
#   11.077    1.538    0.000    0.000    0.000    0.000 
#    0.000    0.000    0.000    0.000    0.000    0.000 
#
# Total GULP energy -322220.315614 kJ/mol
# GULP energy per Si atom -12393.089062 kJ/mol
# Density = 2.106836 g / cm^3
# Si number density = 21.116426 Si / 1000 Ang^3
#
#
#
# Elastic Constant Matrix: (Units=GPa)
#
#
# Indices 1 2 3 4 5 6 
#
# 1 58.8168 18.6812 32.8188 0.0000 16.2746 0.0000
# 2 18.6812 61.5328 39.7944 0.0000 4.3145 0.0000
# 3 32.8188 39.7944 104.0673 0.0000 14.2354 0.0000
# 4 0.0000 0.0000 0.0000 24.1809 0.0000 -8.5725
# 5 16.2746 4.3145 14.2354 0.0000 15.6493 0.0000
# 6 0.0000 0.0000 0.0000 -8.5725 0.0000 21.9707
#
#
#
# Elastic Compliance Matrix: (Units=1/GPa)
#
#
# Indices 1 2 3 4 5 6 
#
# 1 0.026854 -0.004126 -0.003685 0.000000 -0.023437 0.000000
# 2 -0.004126 0.022268 -0.007950 0.000000 0.005384 0.000000
# 3 -0.003685 -0.007950 0.014833 0.000000 -0.007469 0.000000
# 4 0.000000 0.000000 0.000000 0.047994 0.000000 0.018726
# 5 -0.023437 0.005384 -0.007469 0.000000 0.093584 0.000000
# 6 0.000000 0.000000 0.000000 0.018726 0.000000 0.052822
#
#
# Mechanical properties :
#
#
# Convention : Reuss Voigt Hill
#
# Bulk Modulus (GPa) = 30.83369 45.22286 38.02828
# Shear Modulus (GPa) = 16.62851 21.23500 18.93176
#
# Velocity S-wave (km/s) = 2.80923 3.17458 2.99748
# Velocity P-wave (km/s) = 5.01556 5.90760 5.47976
#
# Compressibility (1/GPa) = 0.03243206
#
# Stress axis : x y z
#
# Youngs Moduli (GPa) = 37.23895 44.90664 67.41700
#
# Poissons Ratio (x) = 0.18530 0.24841
# Poissons Ratio (y) = 0.15366 0.53599
# Poissons Ratio (z) = 0.13722 0.35703
#
# Static dielectric constant tensor:
#      x y z
#    x 4.002800 0.000000 -0.354100 
#    y 0.000000 3.738050 0.000000 
#    z -0.354100 0.000000 3.976540 
# 
# 
# High freq. dielectric constant tensor:
#      x y z
#    x 1.828690 0.000000 -0.000140 
#    y 0.000000 1.813770 0.000000 
#    z -0.000140 0.000000 1.810720 
# 
# From -- ./inp_files/307298.got.cif
#   From: 2010.06.25/outbox.cif.g09.slc.cpg/sg15_154_cif.got.tgz:307298.got - 2010.06.28 07:06:18.
