data_PCOD8153456
_publ_section_title
;
Structure prediction by ZEFSAII (Michael W. Deem and Ramdas Pophale) SiO2 
 PCOD8153456
Probable space group: C 2/C
;
_chemical_formula_sum "Si O2"
_cell_formula_units_Z 36
_cell_length_a 8.700655
_cell_length_b 13.990409
_cell_length_c 13.179544
_cell_angle_alpha 90.000000
_cell_angle_beta 118.139672
_cell_angle_gamma 90.000000
_cell_volume 1414.663328
_symmetry_space_group_name_H-M "C 2/C"
_symmetry_group_IT_number 15
_symmetry_cell_setting 'monoclinic'
loop_
_space_group_symop_operation_xyz
x,y,z
-x,y,1/2-z
-x,-y,-z
x,-y,1/2+z
1/2+x,1/2+y,z
1/2-x,1/2+y,1/2-z
1/2-x,1/2-y,-z
1/2+x,1/2-y,1/2+z
loop_
_atom_site_type_symbol
_atom_site_label
_atom_site_fract_x
_atom_site_fract_y
_atom_site_fract_z
Si Si1 0.666222 0.073789 0.157032
Si Si2 0.500000 0.439774 0.250000
Si Si3 0.435757 0.902710 0.099087
Si Si4 0.940109 0.104417 0.948019
Si Si5 0.601221 0.712568 0.181721
O O1 0.705895 0.164921 0.243808
O O2 0.502445 0.010104 0.142832
O O3 0.622383 0.115279 0.033590
O O4 0.830775 0.004851 0.203308
O O5 0.491502 0.374861 0.145223
O O6 0.590393 0.827789 0.175514
O O7 0.269115 0.885868 0.118397
O O8 0.018887 0.179750 0.050372
O O9 0.000000 0.000000 0.000000
O O10 0.500000 0.673600 0.250000
#
# Coordination Sequence:
#
# PCOD8153456 Si02
#       5
#     8   4   8   8   8
#     4  11  23  47  70 113 149 191 253 311 369 444
#     4  12  24  44  72 104 160 206 232 304 384 436
#     4  11  26  43  80 110 146 203 254 301 377 456
#     4  12  23  45  75 110 154 198 240 309 375 446
#     4  12  24  44  76 114 145 196 254 306 367 455
#
# _framework density 25.447751
#
# number of rings (size 3 to 8) (size 9 to 14) (size 15 to 20)
#    0.000    0.444    7.778    0.667    3.111    0.000 
#    0.000    1.111    4.889    0.000    0.000    0.000 
#    0.000    0.000    0.000    0.000    0.000    0.000 
#
# Total GULP energy -223099.908413 kJ/mol
# GULP energy per Si atom -12394.439356 kJ/mol
# Density = 2.538983 g / cm^3
# Si number density = 25.447751 Si / 1000 Ang^3
#
#
#
# Elastic Constant Matrix: (Units=GPa)
#
#
# Indices 1 2 3 4 5 6 
#
# 1 39.4667 -2.8180 40.4521 0.0000 -15.1707 0.0000
# 2 -2.8180 78.4750 37.9711 0.0000 -0.7780 0.0000
# 3 40.4521 37.9711 176.1114 0.0000 -25.3145 0.0000
# 4 0.0000 0.0000 0.0000 33.7609 0.0000 5.3327
# 5 -15.1707 -0.7780 -25.3145 0.0000 51.4254 0.0000
# 6 0.0000 0.0000 0.0000 5.3327 0.0000 22.7923
#
#
#
# Elastic Compliance Matrix: (Units=1/GPa)
#
#
# Indices 1 2 3 4 5 6 
#
# 1 0.037415 0.005692 -0.008849 0.000000 0.006768 0.000000
# 2 0.005692 0.015187 -0.004635 0.000000 -0.000373 0.000000
# 3 -0.008849 -0.004635 0.008959 0.000000 0.001730 0.000000
# 4 0.000000 0.000000 0.000000 0.030757 0.000000 -0.007196
# 5 0.006768 -0.000373 0.001730 0.000000 0.022288 0.000000
# 6 0.000000 0.000000 0.000000 -0.007196 0.000000 0.045558
#
#
# Mechanical properties :
#
#
# Convention : Reuss Voigt Hill
#
# Bulk Modulus (GPa) = 21.75005 49.47374 35.61189
# Shear Modulus (GPa) = 26.16804 36.15891 31.16347
#
# Velocity S-wave (km/s) = 3.21020 3.77358 3.50323
# Velocity P-wave (km/s) = 4.72292 6.20242 5.51253
#
# Compressibility (1/GPa) = 0.04597691
#
# Stress axis : x y z
#
# Youngs Moduli (GPa) = 26.72703 65.84792 111.62276
#
# Poissons Ratio (x) = -0.37482 0.98770
# Poissons Ratio (y) = -0.15213 0.51742
# Poissons Ratio (z) = 0.23650 0.30523
#
# Static dielectric constant tensor:
#      x y z
#    x 4.605810 0.000000 -0.150280 
#    y 0.000000 4.514220 0.000000 
#    z -0.150280 0.000000 5.385980 
# 
# 
# High freq. dielectric constant tensor:
#      x y z
#    x 1.980670 0.000000 -0.003400 
#    y 0.000000 2.004650 0.000000 
#    z -0.003400 0.000000 2.053740 
# 
# From -- ./inp_files/188572.got.cif
#   From: 2010.06.25/outbox.cif.g09.slc.cpg/sg15_95_cif.got.tgz:188572.got - 2010.06.28 07:06:18.
