data_PCOD8153450
_publ_section_title
;
Structure prediction by ZEFSAII (Michael W. Deem and Ramdas Pophale) SiO2 
 PCOD8153450
Probable space group: C 2/C
;
_chemical_formula_sum "Si O2"
_cell_formula_units_Z 60
_cell_length_a 22.812234
_cell_length_b 8.644595
_cell_length_c 14.357952
_cell_angle_alpha 90.000000
_cell_angle_beta 70.487134
_cell_angle_gamma 90.000000
_cell_volume 2668.805789
_symmetry_space_group_name_H-M "C 2/C"
_symmetry_group_IT_number 15
_symmetry_cell_setting 'monoclinic'
loop_
_space_group_symop_operation_xyz
x,y,z
-x,y,1/2-z
-x,-y,-z
x,-y,1/2+z
1/2+x,1/2+y,z
1/2-x,1/2+y,1/2-z
1/2-x,1/2-y,-z
1/2+x,1/2-y,1/2+z
loop_
_atom_site_type_symbol
_atom_site_label
_atom_site_fract_x
_atom_site_fract_y
_atom_site_fract_z
Si Si1 0.710532 0.142548 0.456141
Si Si2 0.836487 0.708372 0.203896
Si Si3 0.260342 0.808223 0.098767
Si Si4 0.458854 0.361492 0.130509
Si Si5 0.000000 0.372408 0.750000
Si Si6 0.873628 0.356304 0.164666
Si Si7 0.900126 0.379209 0.349009
Si Si8 0.499729 0.305485 0.905791
O O1 0.750000 0.250000 0.500000
O O2 0.696630 0.253143 0.375491
O O3 0.648436 0.082730 0.543176
O O4 0.749252 0.993299 0.400102
O O5 0.789707 0.714326 0.314730
O O6 0.888337 0.834506 0.200032
O O7 0.864980 0.540261 0.166523
O O8 0.326672 0.774619 0.115698
O O9 0.250000 0.750000 0.000000
O O10 0.502185 0.236209 0.158013
O O11 0.475777 0.534865 0.150775
O O12 0.461638 0.338315 0.018860
O O13 0.935845 0.468474 0.791716
O O14 0.864094 0.305117 0.278575
O O15 0.944113 0.311814 0.099805
O O16 0.953358 0.263804 0.354708
#
# Coordination Sequence:
#
# PCOD8153450 Si02
#       8
#     8   8   8   8   4   8   8   8
#     4  11  26  46  75 103 139 187 237 296 358 429
#     4  11  23  47  69 101 140 186 239 291 352 422
#     4  11  27  47  72 104 138 184 243 301 356 419
#     4  11  26  43  67 109 143 187 234 303 346 427
#     4  12  26  40  76 106 148 184 244 290 352 432
#     4  11  24  43  74 103 139 192 234 291 353 434
#     4  12  22  45  73 107 140 192 233 286 360 432
#     4  11  25  45  70 105 152 187 235 286 372 419
#
# _framework density 22.481967000000001
#
# number of rings (size 3 to 8) (size 9 to 14) (size 15 to 20)
#    0.000    0.800    4.000    1.600    5.600    6.400 
#    0.000    0.000    0.000    0.000    0.000    0.000 
#    0.000    0.000    0.000    0.000    0.000    0.000 
#
# Total GULP energy -371900.670835 kJ/mol
# GULP energy per Si atom -12396.689028 kJ/mol
# Density = 2.243080 g / cm^3
# Si number density = 22.481967 Si / 1000 Ang^3
#
#
#
# Elastic Constant Matrix: (Units=GPa)
#
#
# Indices 1 2 3 4 5 6 
#
# 1 130.5159 51.7754 53.3825 0.0000 24.8569 0.0000
# 2 51.7754 107.3519 29.1259 0.0000 3.5759 0.0000
# 3 53.3825 29.1259 118.1414 0.0000 13.8850 0.0000
# 4 0.0000 0.0000 0.0000 34.8108 0.0000 6.0363
# 5 24.8569 3.5759 13.8850 0.0000 53.0533 0.0000
# 6 0.0000 0.0000 0.0000 6.0363 0.0000 24.9845
#
#
#
# Elastic Compliance Matrix: (Units=1/GPa)
#
#
# Indices 1 2 3 4 5 6 
#
# 1 0.011787 -0.004537 -0.003708 0.000000 -0.004246 0.000000
# 2 -0.004537 0.011730 -0.001030 0.000000 0.001605 0.000000
# 3 -0.003708 -0.001030 0.010505 0.000000 -0.000942 0.000000
# 4 0.000000 0.000000 0.000000 0.029983 0.000000 -0.007244
# 5 -0.004246 0.001605 -0.000942 0.000000 0.020977 0.000000
# 6 0.000000 0.000000 0.000000 -0.007244 0.000000 0.041775
#
#
# Mechanical properties :
#
#
# Convention : Reuss Voigt Hill
#
# Bulk Modulus (GPa) = 64.64216 69.39741 67.01979
# Shear Modulus (GPa) = 33.23030 37.35143 35.29086
#
# Velocity S-wave (km/s) = 3.84876 4.08044 3.96629
# Velocity P-wave (km/s) = 6.96893 7.28938 7.13095
#
# Compressibility (1/GPa) = 0.01546978
#
# Stress axis : x y z
#
# Youngs Moduli (GPa) = 84.83628 85.25464 95.19432
#
# Poissons Ratio (x) = 0.38684 0.35303
# Poissons Ratio (y) = 0.38494 0.09806
# Poissons Ratio (z) = 0.31461 0.08782
#
# Static dielectric constant tensor:
#      x y z
#    x 4.298180 0.000000 0.311570 
#    y 0.000000 3.957900 0.000000 
#    z 0.311570 0.000000 4.337830 
# 
# 
# High freq. dielectric constant tensor:
#      x y z
#    x 1.895670 0.000000 0.019990 
#    y 0.000000 1.874440 0.000000 
#    z 0.019990 0.000000 1.898820 
# 
# From -- ./inp_files/172335.got.cif
#   From: 2010.06.25/outbox.cif.g09.slc.cpg/sg15_87_cif.got.tgz:172335.got - 2010.06.28 07:06:18.
