data_PCOD8153721
_publ_section_title
;
Structure prediction by ZEFSAII (Michael W. Deem and Ramdas Pophale) SiO2 
 PCOD8153721
Probable space group: C 2/C
;
_chemical_formula_sum "Si O2"
_cell_formula_units_Z 64
_cell_length_a 14.550224
_cell_length_b 12.414888
_cell_length_c 25.817645
_cell_angle_alpha 90.000000
_cell_angle_beta 139.665269
_cell_angle_gamma 90.000000
_cell_volume 3018.578604
_symmetry_space_group_name_H-M "C 2/C"
_symmetry_group_IT_number 15
_symmetry_cell_setting 'monoclinic'
loop_
_space_group_symop_operation_xyz
x,y,z
-x,y,1/2-z
-x,-y,-z
x,-y,1/2+z
1/2+x,1/2+y,z
1/2-x,1/2+y,1/2-z
1/2-x,1/2-y,-z
1/2+x,1/2-y,1/2+z
loop_
_atom_site_type_symbol
_atom_site_label
_atom_site_fract_x
_atom_site_fract_y
_atom_site_fract_z
Si Si1 0.697097 0.562127 0.218559
Si Si2 0.362814 0.710232 0.217478
Si Si3 0.886589 0.736003 0.156362
Si Si4 0.627450 0.337676 0.066000
Si Si5 0.714995 0.985966 0.926535
Si Si6 0.938791 0.395764 0.327884
Si Si7 0.875956 0.755031 0.891629
Si Si8 0.038545 0.896157 0.402936
O O1 0.715899 0.623338 0.280903
O O2 0.837353 0.493746 0.269007
O O3 0.689342 0.645997 0.168382
O O4 0.555688 0.490215 0.162405
O O5 0.500000 0.655371 0.250000
O O6 0.254643 0.753025 0.127694
O O7 0.423109 0.808539 0.276677
O O8 0.871938 0.610346 0.136999
O O9 0.732736 0.777709 0.109517
O O10 0.935969 0.801805 0.127342
O O11 0.000000 0.753334 0.250000
O O12 0.685457 0.454822 0.073264
O O13 0.544739 0.347388 0.084219
O O14 0.526914 0.290758 0.978612
O O15 0.602234 0.069188 0.901434
O O16 0.810407 0.942799 0.014612
O O17 0.895359 0.349636 0.364816
#
# Coordination Sequence:
#
# PCOD8153721 Si02
#       8
#     8   8   8   8   8   8   8   8
#     4  11  24  44  70  95 139 180 217 273 347 396
#     4  11  25  42  68 102 134 171 227 280 327 400
#     4  12  27  42  70 101 137 173 225 278 329 403
#     4  12  24  44  71  97 136 177 226 280 330 394
#     4  12  25  43  73 101 131 177 230 276 332 395
#     4  11  25  42  68 100 134 172 225 277 329 403
#     4  11  25  45  66  99 136 178 222 275 340 400
#     4  12  25  45  69 101 135 178 223 275 339 397
#
# _framework density 21.202031999999999
#
# number of rings (size 3 to 8) (size 9 to 14) (size 15 to 20)
#    0.000    0.500    5.000    3.000    5.250    3.000 
#    0.000    1.250    0.000    0.000    0.000    0.000 
#    0.000    0.000    0.000    0.000    0.000    0.000 
#
# Total GULP energy -397008.820914 kJ/mol
# GULP energy per Si atom -12406.525654 kJ/mol
# Density = 2.115378 g / cm^3
# Si number density = 21.202032 Si / 1000 Ang^3
#
#
#
# Elastic Constant Matrix: (Units=GPa)
#
#
# Indices 1 2 3 4 5 6 
#
# 1 108.3463 39.3136 25.6701 0.0000 2.8926 0.0000
# 2 39.3136 57.6323 36.5573 0.0000 -2.9921 0.0000
# 3 25.6701 36.5573 86.1938 0.0000 -4.5943 0.0000
# 4 0.0000 0.0000 0.0000 14.6714 0.0000 -8.4240
# 5 2.8926 -2.9921 -4.5943 0.0000 32.3409 0.0000
# 6 0.0000 0.0000 0.0000 -8.4240 0.0000 12.8465
#
#
#
# Elastic Compliance Matrix: (Units=1/GPa)
#
#
# Indices 1 2 3 4 5 6 
#
# 1 0.012384 -0.008404 -0.000226 0.000000 -0.001917 0.000000
# 2 -0.008404 0.029459 -0.009881 0.000000 0.002073 0.000000
# 3 -0.000226 -0.009881 0.015933 0.000000 0.001369 0.000000
# 4 0.000000 0.000000 0.000000 0.109321 0.000000 0.071687
# 5 -0.001917 0.002073 0.001369 0.000000 0.031478 0.000000
# 6 0.000000 0.000000 0.000000 0.071687 0.000000 0.124851
#
#
# Mechanical properties :
#
#
# Convention : Reuss Voigt Hill
#
# Bulk Modulus (GPa) = 48.18315 50.58383 49.38349
# Shear Modulus (GPa) = 13.61039 22.01385 17.81212
#
# Velocity S-wave (km/s) = 2.53640 3.22575 2.90162
# Velocity P-wave (km/s) = 5.59936 6.14685 5.87948
#
# Compressibility (1/GPa) = 0.02075414
#
# Stress axis : x y z
#
# Youngs Moduli (GPa) = 80.75155 33.94497 62.76259
#
# Poissons Ratio (x) = 0.28526 0.01419
# Poissons Ratio (y) = 0.67860 0.62018
# Poissons Ratio (z) = 0.01826 0.33542
#
# Static dielectric constant tensor:
#      x y z
#    x 3.863890 0.000000 0.092320 
#    y 0.000000 3.840480 0.000000 
#    z 0.092320 0.000000 4.031810 
# 
# 
# High freq. dielectric constant tensor:
#      x y z
#    x 1.839340 0.000000 0.008540 
#    y 0.000000 1.827020 0.000000 
#    z 0.008540 0.000000 1.842460 
# 
# From -- ./inp_files/296165.got.cif
#   From: 2010.06.25/outbox.cif.g09.slc.cpg/sg15_149_cif.got.tgz:296165.got - 2010.06.28 07:06:18.
