data_PCOD8153423
_publ_section_title
;
Structure prediction by ZEFSAII (Michael W. Deem and Ramdas Pophale) SiO2 
 PCOD8153423
Probable space group: C 2/C
;
_chemical_formula_sum "Si O2"
_cell_formula_units_Z 64
_cell_length_a 15.737571
_cell_length_b 9.346977
_cell_length_c 27.127847
_cell_angle_alpha 90.000000
_cell_angle_beta 52.468030
_cell_angle_gamma 90.000000
_cell_volume 3164.497857
_symmetry_space_group_name_H-M "C 2/C"
_symmetry_group_IT_number 15
_symmetry_cell_setting 'monoclinic'
loop_
_space_group_symop_operation_xyz
x,y,z
-x,y,1/2-z
-x,-y,-z
x,-y,1/2+z
1/2+x,1/2+y,z
1/2-x,1/2+y,1/2-z
1/2-x,1/2-y,-z
1/2+x,1/2-y,1/2+z
loop_
_atom_site_type_symbol
_atom_site_label
_atom_site_fract_x
_atom_site_fract_y
_atom_site_fract_z
Si Si1 0.245431 0.975982 0.114315
Si Si2 0.429072 0.615713 0.552861
Si Si3 0.860206 0.875030 0.184598
Si Si4 0.065536 0.604753 0.010975
Si Si5 0.550948 0.720875 0.681665
Si Si6 0.229785 0.268941 0.064823
Si Si7 0.941555 0.503429 0.378438
Si Si8 0.317109 0.047550 0.195605
O O1 0.141961 0.888295 0.165846
O O2 0.211078 0.117520 0.097210
O O3 0.310761 0.012891 0.140282
O O4 0.318407 0.873207 0.054583
O O5 0.500000 0.500000 0.500000
O O6 0.382574 0.562965 0.621833
O O7 0.504564 0.748088 0.539694
O O8 0.333784 0.655001 0.550074
O O9 0.808492 0.718069 0.202803
O O10 0.970351 0.868508 0.175813
O O11 0.778320 0.983316 0.238825
O O12 0.084868 0.528733 0.055616
O O13 0.000000 0.500000 0.000000
O O14 0.500000 0.778208 0.750000
O O15 0.599648 0.859094 0.637319
O O16 0.123781 0.362599 0.114446
O O17 0.250000 0.250000 0.000000
O O18 0.069471 0.486533 0.324421
#
# Coordination Sequence:
#
# PCOD8153423 Si02
#       8
#     8   8   8   8   8   8   8   8
#     4  12  24  42  72  97 135 179 228 270 341 401
#     4  12  27  44  68 101 140 173 223 282 333 402
#     4  11  24  47  69  97 135 174 231 271 333 404
#     4  12  20  44  70  93 135 184 215 265 340 403
#     4  11  25  45  68  98 132 176 224 281 333 399
#     4  12  25  43  65 106 136 169 224 282 334 396
#     4  11  24  43  68  97 138 174 222 277 338 392
#     4  11  23  46  71  95 131 188 223 271 331 410
#
# _framework density 20.224378999999999
#
# number of rings (size 3 to 8) (size 9 to 14) (size 15 to 20)
#    0.000    0.500    8.750    0.000    3.500    4.500 
#    0.000    0.000    0.000    0.000    0.000    0.000 
#    0.000    0.000    0.000    0.000    0.000    0.000 
#
# Total GULP energy -396907.652368 kJ/mol
# GULP energy per Si atom -12403.364137 kJ/mol
# Density = 2.017835 g / cm^3
# Si number density = 20.224379 Si / 1000 Ang^3
#
#
#
# Elastic Constant Matrix: (Units=GPa)
#
#
# Indices 1 2 3 4 5 6 
#
# 1 84.5196 25.7191 17.3504 0.0000 5.7342 -0.0001
# 2 25.7191 75.2151 37.6651 0.0000 -8.2086 0.0001
# 3 17.3504 37.6651 112.2948 0.0000 8.5250 -0.0001
# 4 0.0000 0.0000 0.0000 41.8429 0.0000 -2.4454
# 5 5.7342 -8.2086 8.5250 0.0000 35.2341 0.0000
# 6 -0.0001 0.0001 -0.0001 -2.4454 0.0000 27.4914
#
#
#
# Elastic Compliance Matrix: (Units=1/GPa)
#
#
# Indices 1 2 3 4 5 6 
#
# 1 0.013590 -0.004906 -0.000203 0.000000 -0.003306 0.000000
# 2 -0.004906 0.018709 -0.006019 0.000000 0.006613 0.000000
# 3 -0.000203 -0.006019 0.011266 0.000000 -0.004095 0.000000
# 4 0.000000 0.000000 0.000000 0.024024 0.000000 0.002137
# 5 -0.003306 0.006613 -0.004095 0.000000 0.031451 0.000000
# 6 0.000000 0.000000 0.000000 0.002137 0.000000 0.036565
#
#
# Mechanical properties :
#
#
# Convention : Reuss Voigt Hill
#
# Bulk Modulus (GPa) = 46.92987 48.16652 47.54819
# Shear Modulus (GPa) = 30.30935 33.66667 31.98801
#
# Velocity S-wave (km/s) = 3.87545 4.08445 3.98132
# Velocity P-wave (km/s) = 6.57878 6.79054 6.68550
#
# Compressibility (1/GPa) = 0.02130839
#
# Stress axis : x y z
#
# Youngs Moduli (GPa) = 73.58087 53.45096 88.75994
#
# Poissons Ratio (x) = 0.26223 0.01805
# Poissons Ratio (y) = 0.36099 0.53426
# Poissons Ratio (z) = 0.01496 0.32173
#
# Static dielectric constant tensor:
#      x y z
#    x 3.888900 0.000000 0.079640 
#    y 0.000000 3.973880 0.000000 
#    z 0.079640 0.000000 4.151610 
# 
# 
# High freq. dielectric constant tensor:
#      x y z
#    x 1.803160 0.000000 0.005080 
#    y 0.000000 1.782470 0.000000 
#    z 0.005080 0.000000 1.803300 
# 
# From -- ./inp_files/313147.got.cif
#   From: 2010.06.25/outbox.cif.g09.slc.cpg/sg15_157_cif.got.tgz:313147.got - 2010.06.28 07:06:18.
