data_PCOD8153819
_publ_section_title
;
Structure prediction by ZEFSAII (Michael W. Deem and Ramdas Pophale) SiO2 
 PCOD8153819
Probable space group: C 2/C
;
_chemical_formula_sum "Si O2"
_cell_formula_units_Z 40
_cell_length_a 22.990510
_cell_length_b 7.625499
_cell_length_c 17.016528
_cell_angle_alpha 90.000000
_cell_angle_beta 32.342890
_cell_angle_gamma 90.000000
_cell_volume 1595.987120
_symmetry_space_group_name_H-M "C 2/C"
_symmetry_group_IT_number 15
_symmetry_cell_setting 'monoclinic'
loop_
_space_group_symop_operation_xyz
x,y,z
-x,y,1/2-z
-x,-y,-z
x,-y,1/2+z
1/2+x,1/2+y,z
1/2-x,1/2+y,1/2-z
1/2-x,1/2-y,-z
1/2+x,1/2-y,1/2+z
loop_
_atom_site_type_symbol
_atom_site_label
_atom_site_fract_x
_atom_site_fract_y
_atom_site_fract_z
Si Si1 0.901297 0.394046 0.315549
Si Si2 0.477170 0.502838 0.191547
Si Si3 0.883078 0.560024 0.660459
Si Si4 0.253767 0.380200 0.423339
Si Si5 0.327052 0.645474 0.119540
O O1 0.936330 0.196540 0.258961
O O2 0.875117 0.480774 0.261749
O O3 0.796452 0.430798 0.490850
O O4 0.000000 0.488521 0.250000
O O5 0.500000 0.410324 0.250000
O O6 0.380013 0.405956 0.256126
O O7 0.584519 0.494176 0.014456
O O8 0.785211 0.451387 0.732155
O O9 0.869029 0.765015 0.652558
O O10 0.000000 0.500000 0.500000
O O11 0.250000 0.250000 0.500000
O O12 0.188258 0.303885 0.424637
#
# Coordination Sequence:
#
# PCOD8153819 Si02
#       5
#     8   8   8   8   8
#     4  11  26  46  77 105 147 188 253 310 374 435
#     4  11  24  45  71 109 144 189 252 310 369 439
#     4  12  28  49  71 111 153 201 251 303 380 450
#     4  12  23  44  75 104 142 187 251 311 365 435
#     4  12  28  46  77 108 154 200 247 304 380 446
#
# _framework density 25.062859
#
# number of rings (size 3 to 8) (size 9 to 14) (size 15 to 20)
#    0.000    0.400    4.000    3.000    8.400    2.400 
#    0.000    0.000    0.000    0.000    0.000    0.000 
#    0.000    0.000    0.000    0.000    0.000    0.000 
#
# Total GULP energy -247940.298816 kJ/mol
# GULP energy per Si atom -12397.014941 kJ/mol
# Density = 2.500581 g / cm^3
# Si number density = 25.062859 Si / 1000 Ang^3
#
#
#
# Elastic Constant Matrix: (Units=GPa)
#
#
# Indices 1 2 3 4 5 6 
#
# 1 71.1787 9.2601 23.8633 0.0016 -10.8629 -0.0008
# 2 9.2601 92.2080 46.2632 0.0010 -10.8946 -0.0015
# 3 23.8633 46.2632 178.4758 0.0030 -31.8872 -0.0007
# 4 0.0016 0.0010 0.0030 48.7550 -0.0008 -2.8183
# 5 -10.8629 -10.8946 -31.8872 -0.0008 45.5486 -0.0001
# 6 -0.0008 -0.0015 -0.0007 -2.8183 -0.0001 40.9720
#
#
#
# Elastic Compliance Matrix: (Units=1/GPa)
#
#
# Indices 1 2 3 4 5 6 
#
# 1 0.014968 -0.000494 -0.001436 0.000000 0.002446 0.000000
# 2 -0.000494 0.012510 -0.003044 0.000000 0.000744 0.000000
# 3 -0.001436 -0.003044 0.007307 0.000000 0.004045 0.000000
# 4 0.000000 0.000000 0.000000 0.020593 0.000000 0.001417
# 5 0.002446 0.000744 0.004045 0.000000 0.025547 0.000000
# 6 0.000000 0.000000 0.000000 0.001417 0.000000 0.024504
#
#
# Mechanical properties :
#
#
# Convention : Reuss Voigt Hill
#
# Bulk Modulus (GPa) = 40.26237 55.62620 47.94429
# Shear Modulus (GPa) = 40.43499 44.55350 42.49424
#
# Velocity S-wave (km/s) = 4.02100 4.22082 4.12212
# Velocity P-wave (km/s) = 6.13656 6.78208 6.46738
#
# Compressibility (1/GPa) = 0.02483709
#
# Stress axis : x y z
#
# Youngs Moduli (GPa) = 66.80815 79.93844 136.86120
#
# Poissons Ratio (x) = 0.03945 0.19658
# Poissons Ratio (y) = 0.03297 0.41658
# Poissons Ratio (z) = 0.09596 0.24332
#
# Static dielectric constant tensor:
#      x y z
#    x 5.522520 0.000000 -0.221810 
#    y 0.000000 4.369200 0.000010 
#    z -0.221810 0.000010 4.621270 
# 
# 
# High freq. dielectric constant tensor:
#      x y z
#    x 2.016370 0.000000 -0.014210 
#    y 0.000000 1.987540 0.000000 
#    z -0.014210 0.000000 2.000390 
# 
# From -- ./inp_files/218757.got.cif
#   From: 2010.06.25/outbox.cif.g09.slc.cpg/sg15_110_cif.got.tgz:218757.got - 2010.06.28 07:06:18.
