data_PCOD8153892
_publ_section_title
;
Structure prediction by ZEFSAII (Michael W. Deem and Ramdas Pophale) SiO2 
 PCOD8153892
Probable space group: C 2/C
;
_chemical_formula_sum "Si O2"
_cell_formula_units_Z 64
_cell_length_a 23.083808
_cell_length_b 18.070435
_cell_length_c 14.381370
_cell_angle_alpha 90.000000
_cell_angle_beta 29.661177
_cell_angle_gamma 90.000000
_cell_volume 2968.707634
_symmetry_space_group_name_H-M "C 2/C"
_symmetry_group_IT_number 15
_symmetry_cell_setting 'monoclinic'
loop_
_space_group_symop_operation_xyz
x,y,z
-x,y,1/2-z
-x,-y,-z
x,-y,1/2+z
1/2+x,1/2+y,z
1/2-x,1/2+y,1/2-z
1/2-x,1/2-y,-z
1/2+x,1/2-y,1/2+z
loop_
_atom_site_type_symbol
_atom_site_label
_atom_site_fract_x
_atom_site_fract_y
_atom_site_fract_z
Si Si1 0.738155 0.682749 0.279968
Si Si2 0.102059 0.463739 0.298270
Si Si3 0.020257 0.037834 0.327699
Si Si4 0.775455 0.019836 0.194143
Si Si5 0.002637 0.681978 0.639061
Si Si6 0.760576 0.532447 0.553835
Si Si7 0.780151 0.204243 0.867110
Si Si8 0.971026 0.815714 0.568575
O O1 0.749676 0.601722 0.311940
O O2 0.706592 0.750505 0.392166
O O3 0.643091 0.676977 0.333402
O O4 0.863119 0.699115 0.064457
O O5 0.217209 0.461002 0.204073
O O6 0.059535 0.382453 0.332076
O O7 0.000000 0.500000 0.500000
O O8 0.131832 0.509098 0.162668
O O9 0.007491 0.107304 0.411782
O O10 0.000000 0.062505 0.250000
O O11 0.139964 0.992705 0.173032
O O12 0.914917 0.985357 0.506359
O O13 0.721340 0.008522 0.372660
O O14 0.939205 0.756405 0.692992
O O15 0.000000 0.663998 0.750000
O O16 0.764691 0.620486 0.562950
O O17 0.918455 0.206144 0.650275
O O18 0.750000 0.250000 0.000000
#
# Coordination Sequence:
#
# PCOD8153892 Si02
#       8
#     8   8   8   8   8   8   8   8
#     4  11  24  46  71  99 144 186 228 296 357 418
#     4  12  27  44  70 102 142 192 242 291 359 430
#     4  12  24  43  76 113 139 183 238 307 367 424
#     4  12  23  45  73 105 146 182 241 300 356 436
#     4  11  26  45  68 102 142 183 237 289 359 430
#     4  12  25  46  74 107 142 189 245 298 357 433
#     4  11  26  45  68 101 145 187 238 288 357 429
#     4  11  25  46  71 105 141 182 237 295 363 431
#
# _framework density 21.558202000000001
#
# number of rings (size 3 to 8) (size 9 to 14) (size 15 to 20)
#    0.000    0.500    5.000    3.000    3.500    1.000 
#    0.000    1.250    0.000    0.000    0.000    0.000 
#    0.000    0.000    0.000    0.000    0.000    0.000 
#
# Total GULP energy -396750.186181 kJ/mol
# GULP energy per Si atom -12398.443318 kJ/mol
# Density = 2.150913 g / cm^3
# Si number density = 21.558202 Si / 1000 Ang^3
#
#
#
# Elastic Constant Matrix: (Units=GPa)
#
#
# Indices 1 2 3 4 5 6 
#
# 1 101.4897 24.9585 29.2965 0.0000 13.6144 0.0000
# 2 24.9585 109.2284 40.1802 0.0000 8.3806 0.0000
# 3 29.2965 40.1802 99.1007 0.0000 18.9561 0.0000
# 4 0.0000 0.0000 0.0000 28.1137 0.0000 1.5862
# 5 13.6144 8.3806 18.9561 0.0000 26.4959 0.0000
# 6 0.0000 0.0000 0.0000 1.5862 0.0000 41.1924
#
#
#
# Elastic Compliance Matrix: (Units=1/GPa)
#
#
# Indices 1 2 3 4 5 6 
#
# 1 0.011331 -0.001566 -0.001965 0.000000 -0.003921 0.000000
# 2 -0.001566 0.010979 -0.004030 0.000000 0.000215 0.000000
# 3 -0.001965 -0.004030 0.013750 0.000000 -0.007553 0.000000
# 4 0.000000 0.000000 0.000000 0.035647 0.000000 -0.001373
# 5 -0.003921 0.000215 -0.007553 0.000000 0.045092 0.000000
# 6 0.000000 0.000000 0.000000 -0.001373 0.000000 0.024329
#
#
# Mechanical properties :
#
#
# Convention : Reuss Voigt Hill
#
# Bulk Modulus (GPa) = 47.75509 55.40991 51.58250
# Shear Modulus (GPa) = 30.63170 33.51929 32.07550
#
# Velocity S-wave (km/s) = 3.77355 3.94741 3.86146
# Velocity P-wave (km/s) = 6.41763 6.82161 6.62270
#
# Compressibility (1/GPa) = 0.02094018
#
# Stress axis : x y z
#
# Youngs Moduli (GPa) = 88.24964 91.08583 72.72621
#
# Poissons Ratio (x) = 0.14260 0.14291
# Poissons Ratio (y) = 0.13816 0.29305
# Poissons Ratio (z) = 0.17341 0.36703
#
# Static dielectric constant tensor:
#      x y z
#    x 15.050700 0.000020 0.808940 
#    y 0.000020 4.876220 0.000000 
#    z 0.808940 0.000000 4.033240 
# 
# 
# High freq. dielectric constant tensor:
#      x y z
#    x 1.857150 0.000000 0.005930 
#    y 0.000000 1.855850 0.000000 
#    z 0.005930 0.000000 1.851620 
# 
# From -- ./inp_files/174228.got.cif
#   From: 2010.06.25/outbox.cif.g09.slc.cpg/sg15_88_cif.got.tgz:174228.got - 2010.06.28 07:06:18.
