data_PCOD8153597
_publ_section_title
;
Structure prediction by ZEFSAII (Michael W. Deem and Ramdas Pophale) SiO2 
 PCOD8153597
Probable space group: C 2/C
;
_chemical_formula_sum "Si O2"
_cell_formula_units_Z 60
_cell_length_a 20.488566
_cell_length_b 8.641935
_cell_length_c 20.812591
_cell_angle_alpha 90.000000
_cell_angle_beta 46.308307
_cell_angle_gamma 90.000000
_cell_volume 2664.571835
_symmetry_space_group_name_H-M "C 2/C"
_symmetry_group_IT_number 15
_symmetry_cell_setting 'monoclinic'
loop_
_space_group_symop_operation_xyz
x,y,z
-x,y,1/2-z
-x,-y,-z
x,-y,1/2+z
1/2+x,1/2+y,z
1/2-x,1/2+y,1/2-z
1/2-x,1/2-y,-z
1/2+x,1/2-y,1/2+z
loop_
_atom_site_type_symbol
_atom_site_label
_atom_site_fract_x
_atom_site_fract_y
_atom_site_fract_z
Si Si1 0.771228 0.483161 0.296620
Si Si2 0.490957 0.180742 0.011442
Si Si3 0.368442 0.317465 0.673773
Si Si4 0.000000 0.583175 0.750000
Si Si5 0.558953 0.499331 0.767915
Si Si6 0.337688 0.675090 0.525943
Si Si7 0.657154 0.321332 0.616473
Si Si8 0.447126 0.163643 0.186956
O O1 0.702468 0.545155 0.289728
O O2 0.819411 0.325579 0.241746
O O3 0.713758 0.459738 0.400644
O O4 0.842136 0.620214 0.258200
O O5 0.407213 0.240794 0.026158
O O6 0.479855 0.212409 0.093985
O O7 0.582965 0.260722 0.924310
O O8 0.500000 0.000000 0.000000
O O9 0.447536 0.397741 0.662552
O O10 0.905311 0.675960 0.816624
O O11 0.001533 0.474980 0.684486
O O12 0.500000 0.421259 0.750000
O O13 0.656059 0.460463 0.670126
O O14 0.539193 0.679157 0.783677
O O15 0.379788 0.616870 0.428899
O O16 0.263699 0.790699 0.546558
#
# Coordination Sequence:
#
# PCOD8153597 Si02
#       8
#     8   8   8   4   8   8   8   8
#     4  12  25  48  73 105 142 190 240 298 365 421
#     4  12  26  45  72 106 141 187 242 295 358 426
#     4  12  26  46  74 104 147 188 238 302 356 430
#     4  12  22  50  72 100 140 190 240 290 370 418
#     4  12  24  42  69 106 142 189 238 290 357 425
#     4  11  24  43  69 105 140 183 244 285 352 423
#     4  11  24  42  74  99 142 192 234 293 353 430
#     4  12  26  45  73 106 143 186 238 298 355 433
#
# _framework density 22.517689000000001
#
# number of rings (size 3 to 8) (size 9 to 14) (size 15 to 20)
#    0.000    0.267    5.333    4.000    0.000    4.267 
#    0.000    0.667    0.000    0.000    0.000    0.000 
#    0.000    0.000    0.000    0.000    0.000    0.000 
#
# Total GULP energy -371682.230105 kJ/mol
# GULP energy per Si atom -12389.407670 kJ/mol
# Density = 2.246644 g / cm^3
# Si number density = 22.517689 Si / 1000 Ang^3
#
#
#
# Elastic Constant Matrix: (Units=GPa)
#
#
# Indices 1 2 3 4 5 6 
#
# 1 99.2422 25.4863 19.2225 -0.0001 11.2924 0.0001
# 2 25.4863 103.2319 37.3795 -0.0005 6.2153 0.0006
# 3 19.2225 37.3795 90.3248 0.0000 30.9786 0.0001
# 4 -0.0001 -0.0005 0.0000 30.6070 0.0001 6.9689
# 5 11.2924 6.2153 30.9786 0.0001 40.7489 -0.0002
# 6 0.0001 0.0006 0.0001 6.9689 -0.0002 34.5817
#
#
#
# Elastic Compliance Matrix: (Units=1/GPa)
#
#
# Indices 1 2 3 4 5 6 
#
# 1 0.011059 -0.002378 -0.000599 0.000000 -0.002247 0.000000
# 2 -0.002378 0.012097 -0.005537 0.000000 0.003023 0.000000
# 3 -0.000599 -0.005537 0.017779 0.000000 -0.012506 0.000000
# 4 0.000000 0.000000 0.000000 0.034244 0.000000 -0.006901
# 5 -0.002247 0.003023 -0.012506 0.000000 0.034209 0.000000
# 6 0.000000 0.000000 0.000000 -0.006901 0.000000 0.030308
#
#
# Mechanical properties :
#
#
# Convention : Reuss Voigt Hill
#
# Bulk Modulus (GPa) = 41.82876 50.77505 46.30190
# Shear Modulus (GPa) = 30.35978 35.23489 32.79734
#
# Velocity S-wave (km/s) = 3.67585 3.96000 3.82057
# Velocity P-wave (km/s) = 6.05245 6.59596 6.33004
#
# Compressibility (1/GPa) = 0.02390700
#
# Stress axis : x y z
#
# Youngs Moduli (GPa) = 90.42651 82.66582 56.24618
#
# Poissons Ratio (x) = 0.19659 0.03368
# Poissons Ratio (y) = 0.21505 0.31143
# Poissons Ratio (z) = 0.05415 0.45771
#
# Static dielectric constant tensor:
#      x y z
#    x 4.217250 0.000000 0.031160 
#    y 0.000000 3.878720 0.000000 
#    z 0.031160 0.000000 4.436590 
# 
# 
# High freq. dielectric constant tensor:
#      x y z
#    x 1.905470 0.000000 0.010410 
#    y 0.000000 1.875890 0.000000 
#    z 0.010410 0.000000 1.901780 
# 
# From -- ./inp_files/214313.got.cif
#   From: 2010.06.25/outbox.cif.g09.slc.cpg/sg15_108_cif.got.tgz:214313.got - 2010.06.28 07:06:18.
