data_PCOD8153255
_publ_section_title
;
Structure prediction by ZEFSAII (Michael W. Deem and Ramdas Pophale) SiO2 
 PCOD8153255
Probable space group: C 2/C
;
_chemical_formula_sum "Si O2"
_cell_formula_units_Z 52
_cell_length_a 6.581259
_cell_length_b 17.926368
_cell_length_c 20.552775
_cell_angle_alpha 90.000000
_cell_angle_beta 99.213420
_cell_angle_gamma 90.000000
_cell_volume 2393.494189
_symmetry_space_group_name_H-M "C 2/C"
_symmetry_group_IT_number 15
_symmetry_cell_setting 'monoclinic'
loop_
_space_group_symop_operation_xyz
x,y,z
-x,y,1/2-z
-x,-y,-z
x,-y,1/2+z
1/2+x,1/2+y,z
1/2-x,1/2+y,1/2-z
1/2-x,1/2-y,-z
1/2+x,1/2-y,1/2+z
loop_
_atom_site_type_symbol
_atom_site_label
_atom_site_fract_x
_atom_site_fract_y
_atom_site_fract_z
Si Si1 0.121359 0.527102 0.191250
Si Si2 0.307685 0.125000 0.865376
Si Si3 0.500000 0.625000 0.250000
Si Si4 0.319889 0.777102 0.691249
Si Si5 0.668138 0.170406 0.974640
Si Si6 0.556498 0.420406 0.474639
Si Si7 0.584780 0.875000 0.919560
O O1 0.136251 0.438209 0.184080
O O2 0.339429 0.571209 0.203655
O O3 0.000000 0.546618 0.250000
O O4 0.976262 0.552612 0.124609
O O5 0.202167 0.188209 0.815920
O O6 0.491898 0.169518 0.910681
O O7 0.168772 0.080482 0.910679
O O8 0.385777 0.678792 0.296345
O O9 0.500000 0.796619 0.750000
O O10 0.398345 0.802613 0.624610
O O11 0.851100 0.124999 0.952206
O O12 0.750000 0.250000 0.000000
O O13 0.591833 0.131469 0.036095
O O14 0.500000 0.500000 0.500000
O O15 0.694264 0.381469 0.536093
#
# Coordination Sequence:
#
# PCOD8153255 Si02
#       7
#     8   8   4   8   8   8   8
#     4  12  26  47  67 102 138 181 237 288 341 415
#     4  11  28  44  69 106 144 174 234 292 340 412
#     4  12  26  44  72  94 126 198 228 276 364 404
#     4  12  26  47  67 102 138 181 237 288 341 415
#     4  11  24  43  71 103 137 183 224 282 352 406
#     4  11  24  43  71 103 137 183 224 282 352 406
#     4  11  23  44  69  98 138 176 233 284 334 421
#
# _framework density 21.725559000000001
#
# number of rings (size 3 to 8) (size 9 to 14) (size 15 to 20)
#    0.000    0.615    3.077    3.692    8.615    7.385 
#    0.000    0.000    0.000    0.000    0.000    0.000 
#    0.000    0.000    0.000    0.000    0.000    0.000 
#
# Total GULP energy -322421.136942 kJ/mol
# GULP energy per Si atom -12400.812959 kJ/mol
# Density = 2.167611 g / cm^3
# Si number density = 21.725559 Si / 1000 Ang^3
#
#
#
# Elastic Constant Matrix: (Units=GPa)
#
#
# Indices 1 2 3 4 5 6 
#
# 1 105.8039 24.3449 28.4646 0.0000 0.8715 0.0000
# 2 24.3449 123.2714 10.1111 0.0000 0.2349 0.0000
# 3 28.4646 10.1111 84.4723 0.0000 -0.5208 0.0000
# 4 0.0000 0.0000 0.0000 38.9693 0.0000 0.0516
# 5 0.8715 0.2349 -0.5208 0.0000 12.2663 0.0000
# 6 0.0000 0.0000 0.0000 0.0516 0.0000 42.0847
#
#
#
# Elastic Compliance Matrix: (Units=1/GPa)
#
#
# Indices 1 2 3 4 5 6 
#
# 1 0.010806 -0.001851 -0.003425 0.000000 -0.000878 0.000000
# 2 -0.001851 0.008510 -0.000395 0.000000 -0.000048 0.000000
# 3 -0.003425 -0.000395 0.013045 0.000000 0.000805 0.000000
# 4 0.000000 0.000000 0.000000 0.025661 0.000000 -0.000031
# 5 -0.000878 -0.000048 0.000805 0.000000 0.081622 0.000000
# 6 0.000000 0.000000 0.000000 -0.000031 0.000000 0.023762
#
#
# Mechanical properties :
#
#
# Convention : Reuss Voigt Hill
#
# Bulk Modulus (GPa) = 47.57891 48.82097 48.19994
# Shear Modulus (GPa) = 27.50957 35.37252 31.44104
#
# Velocity S-wave (km/s) = 3.56227 4.03941 3.80832
# Velocity P-wave (km/s) = 6.23436 6.65404 6.44762
#
# Compressibility (1/GPa) = 0.02101771
#
# Stress axis : x y z
#
# Youngs Moduli (GPa) = 92.53971 117.50426 76.65995
#
# Poissons Ratio (x) = 0.21756 0.26257
# Poissons Ratio (y) = 0.17134 0.03029
# Poissons Ratio (z) = 0.31696 0.04642
#
# Static dielectric constant tensor:
#      x y z
#    x 3.997000 0.000000 0.001570 
#    y 0.000000 4.374480 0.000000 
#    z 0.001570 0.000000 3.901610 
# 
# 
# High freq. dielectric constant tensor:
#      x y z
#    x 1.863480 0.000000 0.000070 
#    y 0.000000 1.863840 0.000000 
#    z 0.000070 0.000000 1.859080 
# 
# From -- ./inp_files/227597.got.cif
#   From: 2010.06.25/outbox.cif.g09.slc.cpg/sg15_114_cif.got.tgz:227597.got - 2010.06.28 07:06:18.
