data_PCOD8153466
_publ_section_title
;
Structure prediction by ZEFSAII (Michael W. Deem and Ramdas Pophale) SiO2 
 PCOD8153466
Probable space group: C 2/C
;
_chemical_formula_sum "Si O2"
_cell_formula_units_Z 36
_cell_length_a 16.469187
_cell_length_b 20.656532
_cell_length_c 9.371799
_cell_angle_alpha 90.000000
_cell_angle_beta 151.722824
_cell_angle_gamma 90.000000
_cell_volume 1510.393945
_symmetry_space_group_name_H-M "C 2/C"
_symmetry_group_IT_number 15
_symmetry_cell_setting 'monoclinic'
loop_
_space_group_symop_operation_xyz
x,y,z
-x,y,1/2-z
-x,-y,-z
x,-y,1/2+z
1/2+x,1/2+y,z
1/2-x,1/2+y,1/2-z
1/2-x,1/2-y,-z
1/2+x,1/2-y,1/2+z
loop_
_atom_site_type_symbol
_atom_site_label
_atom_site_fract_x
_atom_site_fract_y
_atom_site_fract_z
Si Si1 0.736057 0.862180 0.112586
Si Si2 0.778906 0.449443 0.672821
Si Si3 0.112338 0.858128 0.626128
Si Si4 0.851465 0.410787 0.227916
Si Si5 0.500000 0.752165 0.750000
O O1 0.638503 0.869855 0.111457
O O2 0.939384 0.860205 0.450369
O O3 0.703387 0.921812 0.958071
O O4 0.651687 0.796776 0.916097
O O5 0.629604 0.416151 0.536176
O O6 0.738364 0.525396 0.590749
O O7 0.960939 0.434722 0.032757
O O8 0.102864 0.790933 0.525084
O O9 0.268776 0.864663 0.979171
#
# Coordination Sequence:
#
# PCOD8153466 Si02
#       5
#     8   8   8   8   4
#     4  12  24  46  71  98 141 190 229 291 355 415
#     4  11  23  47  73 105 142 181 218 290 374 423
#     4  12  26  43  72 105 136 184 239 291 340 420
#     4  11  25  44  74 108 140 174 232 291 360 428
#     4  12  26  48  70  92 148 198 240 284 358 406
#
# _framework density 23.834841000000001
#
# number of rings (size 3 to 8) (size 9 to 14) (size 15 to 20)
#    0.000    0.444    4.444    3.333    0.000    9.778 
#    0.000    2.222    0.000    0.000    0.000    0.000 
#    0.000    0.000    0.000    0.000    0.000    0.000 
#
# Total GULP energy -223096.418630 kJ/mol
# GULP energy per Si atom -12394.245479 kJ/mol
# Density = 2.378059 g / cm^3
# Si number density = 23.834841 Si / 1000 Ang^3
#
#
#
# Elastic Constant Matrix: (Units=GPa)
#
#
# Indices 1 2 3 4 5 6 
#
# 1 75.9625 17.6499 10.9217 0.0000 -0.4613 0.0000
# 2 17.6499 105.7969 15.9036 0.0000 -6.4225 0.0000
# 3 10.9217 15.9036 85.0170 0.0000 -11.4869 0.0000
# 4 0.0000 0.0000 0.0000 44.0289 0.0000 3.1275
# 5 -0.4613 -6.4225 -11.4869 0.0000 47.1109 0.0000
# 6 0.0000 0.0000 0.0000 3.1275 0.0000 27.9521
#
#
#
# Elastic Compliance Matrix: (Units=1/GPa)
#
#
# Indices 1 2 3 4 5 6 
#
# 1 0.013864 -0.002125 -0.001452 0.000000 -0.000508 0.000000
# 2 -0.002125 0.010089 -0.001480 0.000000 0.000994 0.000000
# 3 -0.001452 -0.001480 0.012612 0.000000 0.002859 0.000000
# 4 0.000000 0.000000 0.000000 0.022894 0.000000 -0.002562
# 5 -0.000508 0.000994 0.002859 0.000000 0.022054 0.000000
# 6 0.000000 0.000000 0.000000 -0.002562 0.000000 0.036062
#
#
# Mechanical properties :
#
#
# Convention : Reuss Voigt Hill
#
# Bulk Modulus (GPa) = 37.80676 39.52520 38.66598
# Shear Modulus (GPa) = 36.62791 38.63847 37.63319
#
# Velocity S-wave (km/s) = 3.92438 4.03065 3.97787
# Velocity P-wave (km/s) = 6.03579 6.18712 6.11192
#
# Compressibility (1/GPa) = 0.02645030
#
# Stress axis : x y z
#
# Youngs Moduli (GPa) = 72.12961 99.11320 79.28912
#
# Poissons Ratio (x) = 0.21066 0.11513
# Poissons Ratio (y) = 0.15331 0.11735
# Poissons Ratio (z) = 0.10474 0.14669
#
# Static dielectric constant tensor:
#      x y z
#    x 4.198380 0.000000 0.208300 
#    y 0.000000 4.230530 0.000000 
#    z 0.208300 0.000000 4.364370 
# 
# 
# High freq. dielectric constant tensor:
#      x y z
#    x 1.941720 0.000000 0.008200 
#    y 0.000000 1.939180 0.000000 
#    z 0.008200 0.000000 1.949580 
# 
# From -- ./inp_files/50759.got.cif
#   From: 2010.06.25/outbox.cif.g09.slc.cpg/sg15_26_cif.got.tgz:50759.got - 2010.06.28 07:06:18.
