data_PCOD8153817
_publ_section_title
;
Structure prediction by ZEFSAII (Michael W. Deem and Ramdas Pophale) SiO2 
 PCOD8153817
Probable space group: C 2/C
;
_chemical_formula_sum "Si O2"
_cell_formula_units_Z 32
_cell_length_a 12.701114
_cell_length_b 9.788159
_cell_length_c 9.182102
_cell_angle_alpha 90.000000
_cell_angle_beta 91.469656
_cell_angle_gamma 90.000000
_cell_volume 1141.148219
_symmetry_space_group_name_H-M "C 2/C"
_symmetry_group_IT_number 15
_symmetry_cell_setting 'monoclinic'
loop_
_space_group_symop_operation_xyz
x,y,z
-x,y,1/2-z
-x,-y,-z
x,-y,1/2+z
1/2+x,1/2+y,z
1/2-x,1/2+y,1/2-z
1/2-x,1/2-y,-z
1/2+x,1/2-y,1/2+z
loop_
_atom_site_type_symbol
_atom_site_label
_atom_site_fract_x
_atom_site_fract_y
_atom_site_fract_z
Si Si1 0.381257 0.707373 0.190459
Si Si2 0.428528 0.427084 0.116245
Si Si3 0.114653 0.436976 0.536704
Si Si4 0.313872 0.162954 0.150100
O O1 0.500000 0.725242 0.250000
O O2 0.349737 0.548498 0.160909
O O3 0.367689 0.793290 0.043587
O O4 0.294426 0.740914 0.309700
O O5 0.500000 0.377585 0.250000
O O6 0.374765 0.285596 0.067626
O O7 0.500000 0.500000 0.000000
O O8 0.199582 0.544023 0.471347
O O9 0.127675 0.406374 0.708358
O O10 0.000000 0.500000 0.500000
#
# Coordination Sequence:
#
# PCOD8153817 Si02
#       4
#     8   8   8   8
#     4  11  25  45  71 107 149 196 248 304 364 437
#     4  11  24  45  71 104 144 187 237 299 366 437
#     4  12  25  47  76 109 148 194 246 307 373 444
#     4  12  26  47  74 108 149 197 246 304 372 442
#
# _framework density 28.041931999999999
#
# number of rings (size 3 to 8) (size 9 to 14) (size 15 to 20)
#    0.000    0.500    0.000    9.000    0.000    6.000 
#    0.000   11.250    0.000    0.000    0.000    0.000 
#    0.000    0.000    0.000    0.000    0.000    0.000 
#
# Total GULP energy -198274.566789 kJ/mol
# GULP energy per Si atom -12392.160424 kJ/mol
# Density = 2.797811 g / cm^3
# Si number density = 28.041932 Si / 1000 Ang^3
#
#
#
# Elastic Constant Matrix: (Units=GPa)
#
#
# Indices 1 2 3 4 5 6 
#
# 1 110.0939 25.4000 34.5983 0.0000 -23.7195 0.0000
# 2 25.4000 166.8194 50.9910 0.0000 8.7528 0.0000
# 3 34.5983 50.9910 124.2506 0.0000 3.2179 0.0000
# 4 0.0000 0.0000 0.0000 58.1172 0.0000 -15.0122
# 5 -23.7195 8.7528 3.2179 0.0000 36.7394 0.0000
# 6 0.0000 0.0000 0.0000 -15.0122 0.0000 46.9976
#
#
#
# Elastic Compliance Matrix: (Units=1/GPa)
#
#
# Indices 1 2 3 4 5 6 
#
# 1 0.012178 -0.001366 -0.003050 0.000000 0.008455 0.000000
# 2 -0.001366 0.007079 -0.002464 0.000000 -0.002352 0.000000
# 3 -0.003050 -0.002464 0.009967 0.000000 -0.002255 0.000000
# 4 0.000000 0.000000 0.000000 0.018754 0.000000 0.005990
# 5 0.008455 -0.002352 -0.002255 0.000000 0.033435 0.000000
# 6 0.000000 0.000000 0.000000 0.005990 0.000000 0.023191
#
#
# Mechanical properties :
#
#
# Convention : Reuss Voigt Hill
#
# Bulk Modulus (GPa) = 64.65903 69.23805 66.94854
# Shear Modulus (GPa) = 40.47977 47.71580 44.09778
#
# Velocity S-wave (km/s) = 3.80352 4.12951 3.96986
# Velocity P-wave (km/s) = 6.51130 6.89069 6.70368
#
# Compressibility (1/GPa) = 0.01546574
#
# Stress axis : x y z
#
# Youngs Moduli (GPa) = 82.11386 141.26248 100.33115
#
# Poissons Ratio (x) = 0.19293 0.30597
# Poissons Ratio (y) = 0.11214 0.24721
# Poissons Ratio (z) = 0.25041 0.34806
#
# Static dielectric constant tensor:
#      x y z
#    x 5.877720 0.000000 -0.670890 
#    y 0.000000 6.234490 0.000000 
#    z -0.670890 0.000000 5.701230 
# 
# 
# High freq. dielectric constant tensor:
#      x y z
#    x 2.138770 0.000000 -0.004630 
#    y 0.000000 2.155540 0.000000 
#    z -0.004630 0.000000 2.147770 
# 
# From -- ./inp_files/36574.got.cif
#   From: 2010.06.25/outbox.cif.g09.slc.cpg/sg15_19_cif.got.tgz:36574.got - 2010.06.28 07:06:18.
