data_PCOD8153670
_publ_section_title
;
Structure prediction by ZEFSAII (Michael W. Deem and Ramdas Pophale) SiO2 
 PCOD8153670
Probable space group: C 2/C
;
_chemical_formula_sum "Si O2"
_cell_formula_units_Z 40
_cell_length_a 11.596572
_cell_length_b 12.150213
_cell_length_c 18.063944
_cell_angle_alpha 90.000000
_cell_angle_beta 44.825529
_cell_angle_gamma 90.000000
_cell_volume 1794.256789
_symmetry_space_group_name_H-M "C 2/C"
_symmetry_group_IT_number 15
_symmetry_cell_setting 'monoclinic'
loop_
_space_group_symop_operation_xyz
x,y,z
-x,y,1/2-z
-x,-y,-z
x,-y,1/2+z
1/2+x,1/2+y,z
1/2-x,1/2+y,1/2-z
1/2-x,1/2-y,-z
1/2+x,1/2-y,1/2+z
loop_
_atom_site_type_symbol
_atom_site_label
_atom_site_fract_x
_atom_site_fract_y
_atom_site_fract_z
Si Si1 0.934672 0.725192 0.938240
Si Si2 0.553780 0.534407 0.394332
Si Si3 0.072967 0.478974 0.295783
Si Si4 0.586916 0.356290 0.133299
Si Si5 0.962772 0.332261 0.952072
O O1 0.044536 0.835048 0.888678
O O2 0.018821 0.644642 0.840514
O O3 0.750000 0.750000 0.000000
O O4 0.929774 0.673257 0.022586
O O5 0.500000 0.500000 0.500000
O O6 0.733174 0.489342 0.295424
O O7 0.430947 0.478890 0.391407
O O8 0.000000 0.514138 0.250000
O O9 0.002001 0.556391 0.391621
O O10 0.500000 0.343569 0.250000
O O11 0.499695 0.272341 0.116411
O O12 0.774533 0.328817 0.061706
#
# Coordination Sequence:
#
# PCOD8153670 Si02
#       5
#     8   8   8   8   8
#     4  12  27  48  77 106 152 198 249 310 381 444
#     4  12  26  47  72 106 154 195 245 307 372 444
#     4  12  28  45  75 111 152 196 250 305 376 446
#     4  11  24  43  76 105 137 190 249 298 363 436
#     4  11  25  46  73 105 148 187 248 302 366 442
#
# _framework density 22.293353
#
# number of rings (size 3 to 8) (size 9 to 14) (size 15 to 20)
#    0.000    0.400    2.000    6.000    8.400    2.400 
#    0.000    0.000    0.000    0.000    0.000    0.000 
#    0.000    0.000    0.000    0.000    0.000    0.000 
#
# Total GULP energy -248176.312832 kJ/mol
# GULP energy per Si atom -12408.815642 kJ/mol
# Density = 2.224261 g / cm^3
# Si number density = 22.293353 Si / 1000 Ang^3
#
#
#
# Elastic Constant Matrix: (Units=GPa)
#
#
# Indices 1 2 3 4 5 6 
#
# 1 152.3073 39.3352 55.4807 0.0000 13.5546 0.0000
# 2 39.3352 134.6860 56.4366 0.0000 0.1447 0.0000
# 3 55.4807 56.4366 149.0758 0.0000 14.0100 0.0000
# 4 0.0000 0.0000 0.0000 39.4445 0.0000 4.0755
# 5 13.5546 0.1447 14.0100 0.0000 34.8256 0.0000
# 6 0.0000 0.0000 0.0000 4.0755 0.0000 32.8771
#
#
#
# Elastic Compliance Matrix: (Units=1/GPa)
#
#
# Indices 1 2 3 4 5 6 
#
# 1 0.007926 -0.001382 -0.002221 0.000000 -0.002186 0.000000
# 2 -0.001382 0.009128 -0.003106 0.000000 0.001749 0.000000
# 3 -0.002221 -0.003106 0.008967 0.000000 -0.002730 0.000000
# 4 0.000000 0.000000 0.000000 0.025681 0.000000 -0.003183
# 5 -0.002186 0.001749 -0.002730 0.000000 0.030656 0.000000
# 6 0.000000 0.000000 0.000000 -0.003183 0.000000 0.030811
#
#
# Mechanical properties :
#
#
# Convention : Reuss Voigt Hill
#
# Bulk Modulus (GPa) = 79.34399 82.06379 80.70389
# Shear Modulus (GPa) = 38.22995 40.41722 39.32358
#
# Velocity S-wave (km/s) = 4.14558 4.26252 4.20446
# Velocity P-wave (km/s) = 7.65392 7.81769 7.73624
#
# Compressibility (1/GPa) = 0.01260335
#
# Stress axis : x y z
#
# Youngs Moduli (GPa) = 126.16393 109.55685 111.52001
#
# Poissons Ratio (x) = 0.15137 0.24773
# Poissons Ratio (y) = 0.17432 0.34635
# Poissons Ratio (z) = 0.28026 0.34025
#
# Static dielectric constant tensor:
#      x y z
#    x 4.112580 0.000000 0.114420 
#    y 0.000000 4.069080 0.000000 
#    z 0.114420 0.000000 3.959910 
# 
# 
# High freq. dielectric constant tensor:
#      x y z
#    x 1.889460 0.000000 0.005430 
#    y 0.000000 1.892610 0.000000 
#    z 0.005430 0.000000 1.887510 
# 
# From -- ./inp_files/237355.got.cif
#   From: 2010.06.25/outbox.cif.g09.slc.cpg/sg15_119_cif.got.tgz:237355.got - 2010.06.28 07:06:18.
