data_PCOD8153753
_publ_section_title
;
Structure prediction by ZEFSAII (Michael W. Deem and Ramdas Pophale) SiO2 
 PCOD8153753
Probable space group: C 2/C
;
_chemical_formula_sum "Si O2"
_cell_formula_units_Z 52
_cell_length_a 6.547000
_cell_length_b 26.032753
_cell_length_c 17.452084
_cell_angle_alpha 90.000000
_cell_angle_beta 124.378927
_cell_angle_gamma 90.000000
_cell_volume 2454.894043
_symmetry_space_group_name_H-M "C 2/C"
_symmetry_group_IT_number 15
_symmetry_cell_setting 'monoclinic'
loop_
_space_group_symop_operation_xyz
x,y,z
-x,y,1/2-z
-x,-y,-z
x,-y,1/2+z
1/2+x,1/2+y,z
1/2-x,1/2+y,1/2-z
1/2-x,1/2-y,-z
1/2+x,1/2-y,1/2+z
loop_
_atom_site_type_symbol
_atom_site_label
_atom_site_fract_x
_atom_site_fract_y
_atom_site_fract_z
Si Si1 0.089143 0.064644 0.584740
Si Si2 0.276741 0.154900 0.007795
Si Si3 0.275216 0.188156 0.834321
Si Si4 0.990055 0.215799 0.065817
Si Si5 0.500000 0.874854 0.250000
Si Si6 0.682075 0.369687 0.859038
Si Si7 0.256860 0.527851 0.041176
O O1 0.259150 0.090241 0.685776
O O2 0.254272 0.053037 0.545289
O O3 0.862554 0.101030 0.513057
O O4 0.982585 0.012006 0.596735
O O5 0.322951 0.166520 0.928780
O O6 0.543766 0.150172 0.105317
O O7 0.120515 0.200885 0.013196
O O8 0.325864 0.249273 0.844155
O O9 0.465078 0.160570 0.817098
O O10 0.000000 0.176297 0.750000
O O11 0.927989 0.163261 0.094836
O O12 0.750000 0.250000 0.000000
O O13 0.500000 0.362944 0.750000
O O14 0.696962 0.428999 0.885621
O O15 0.000000 0.500000 0.000000
#
# Coordination Sequence:
#
# PCOD8153753 Si02
#       7
#     8   8   8   8   4   8   8
#     4  11  24  44  74 101 138 181 233 296 357 421
#     4  12  24  49  71 103 144 190 237 295 360 421
#     4  12  27  42  74 106 142 188 235 295 355 428
#     4  12  27  45  73 101 149 191 243 290 361 428
#     4  12  26  44  72 114 142 172 244 296 352 428
#     4  12  28  45  70 105 144 190 243 302 359 435
#     4  11  24  48  72  98 140 191 235 294 365 425
#
# _framework density 21.182178
#
# number of rings (size 3 to 8) (size 9 to 14) (size 15 to 20)
#    0.000    0.308    6.154    2.308    3.231    1.231 
#    0.000    0.000    0.000    0.000    0.000    0.000 
#    0.000    0.000    0.000    0.000    0.000    0.000 
#
# Total GULP energy -322568.169941 kJ/mol
# GULP energy per Si atom -12406.468075 kJ/mol
# Density = 2.113397 g / cm^3
# Si number density = 21.182178 Si / 1000 Ang^3
#
#
#
# Elastic Constant Matrix: (Units=GPa)
#
#
# Indices 1 2 3 4 5 6 
#
# 1 133.1742 54.6632 60.6910 0.0000 -6.7432 0.0000
# 2 54.6632 122.6308 46.1827 0.0000 -7.1438 0.0000
# 3 60.6910 46.1827 124.5696 0.0000 9.2119 0.0000
# 4 0.0000 0.0000 0.0000 38.2685 0.0000 2.8820
# 5 -6.7432 -7.1438 9.2119 0.0000 37.4410 0.0000
# 6 0.0000 0.0000 0.0000 2.8820 0.0000 51.6711
#
#
#
# Elastic Compliance Matrix: (Units=1/GPa)
#
#
# Indices 1 2 3 4 5 6 
#
# 1 0.010869 -0.003069 -0.004338 0.000000 0.002439 0.000000
# 2 -0.003069 0.010625 -0.002600 0.000000 0.002114 0.000000
# 3 -0.004338 -0.002600 0.011407 0.000000 -0.004084 0.000000
# 4 0.000000 0.000000 0.000000 0.026241 0.000000 -0.001464
# 5 0.002439 0.002114 -0.004084 0.000000 0.028556 0.000000
# 6 0.000000 0.000000 0.000000 -0.001464 0.000000 0.019435
#
#
# Mechanical properties :
#
#
# Convention : Reuss Voigt Hill
#
# Bulk Modulus (GPa) = 77.59971 78.16092 77.88032
# Shear Modulus (GPa) = 38.03898 40.06532 39.05215
#
# Velocity S-wave (km/s) = 4.24229 4.35381 4.29841
# Velocity P-wave (km/s) = 7.79166 7.89010 7.84104
#
# Compressibility (1/GPa) = 0.01288665
#
# Stress axis : x y z
#
# Youngs Moduli (GPa) = 92.00281 94.11741 87.66431
#
# Poissons Ratio (x) = 0.28886 0.38029
# Poissons Ratio (y) = 0.28237 0.22794
# Poissons Ratio (z) = 0.39911 0.24472
#
# Static dielectric constant tensor:
#      x y z
#    x 4.116710 0.000000 0.117760 
#    y 0.000000 4.171080 0.000000 
#    z 0.117760 0.000000 3.735970 
# 
# 
# High freq. dielectric constant tensor:
#      x y z
#    x 1.848060 0.000000 0.006790 
#    y 0.000000 1.848880 0.000000 
#    z 0.006790 0.000000 1.816780 
# 
# From -- ./inp_files/186301.got.cif
#   From: 2010.06.25/outbox.cif.g09.slc.cpg/sg15_94_cif.got.tgz:186301.got - 2010.06.28 07:06:18.
