data_PCOD8153870
_publ_section_title
;
Structure prediction by ZEFSAII (Michael W. Deem and Ramdas Pophale) SiO2 
 PCOD8153870
Probable space group: C 2/C
;
_chemical_formula_sum "Si O2"
_cell_formula_units_Z 56
_cell_length_a 23.276751
_cell_length_b 6.496315
_cell_length_c 23.908920
_cell_angle_alpha 90.000000
_cell_angle_beta 135.376769
_cell_angle_gamma 90.000000
_cell_volume 2539.566999
_symmetry_space_group_name_H-M "C 2/C"
_symmetry_group_IT_number 15
_symmetry_cell_setting 'monoclinic'
loop_
_space_group_symop_operation_xyz
x,y,z
-x,y,1/2-z
-x,-y,-z
x,-y,1/2+z
1/2+x,1/2+y,z
1/2-x,1/2+y,1/2-z
1/2-x,1/2-y,-z
1/2+x,1/2-y,1/2+z
loop_
_atom_site_type_symbol
_atom_site_label
_atom_site_fract_x
_atom_site_fract_y
_atom_site_fract_z
Si Si1 0.486194 0.153708 0.633989
Si Si2 0.373395 0.229290 0.033901
Si Si3 0.195449 0.306868 0.656679
Si Si4 0.581060 0.515861 0.333797
Si Si5 0.162719 0.479888 0.750661
Si Si6 0.562129 0.569699 0.497165
Si Si7 0.723192 0.381885 0.364873
O O1 0.443223 0.261320 0.657869
O O2 0.489325 0.320823 0.586995
O O3 0.434469 0.959957 0.579331
O O4 0.578706 0.088437 0.710883
O O5 0.394378 0.365569 0.994655
O O6 0.281431 0.150852 0.959250
O O7 0.380336 0.360928 0.094735
O O8 0.152118 0.348873 0.686208
O O9 0.128614 0.224054 0.567566
O O10 0.229437 0.517358 0.654113
O O11 0.267939 0.145437 0.714271
O O12 0.500000 0.415957 0.250000
O O13 0.650432 0.536442 0.334054
O O14 0.186885 0.335011 0.819198
O O15 0.500000 0.500000 0.500000
#
# Coordination Sequence:
#
# PCOD8153870 Si02
#       7
#     8   8   8   8   8   8   8
#     4  11  26  45  70 100 138 185 235 290 351 416
#     4  11  24  46  69 105 137 184 239 287 352 421
#     4  12  25  43  69 107 145 184 236 289 357 425
#     4  11  26  47  69 101 137 184 241 290 349 422
#     4  12  26  43  72 107 145 186 234 296 356 421
#     4  11  25  42  69 101 142 184 235 283 350 426
#     4  12  25  46  73 102 143 187 234 294 356 423
#
# _framework density 22.051003000000001
#
# number of rings (size 3 to 8) (size 9 to 14) (size 15 to 20)
#    0.000    0.571    4.286    3.000    4.000    6.857 
#    0.000    0.000    0.000    0.000    0.000    0.000 
#    0.000    0.000    0.000    0.000    0.000    0.000 
#
# Total GULP energy -347352.783693 kJ/mol
# GULP energy per Si atom -12405.456560 kJ/mol
# Density = 2.200081 g / cm^3
# Si number density = 22.051003 Si / 1000 Ang^3
#
#
#
# Elastic Constant Matrix: (Units=GPa)
#
#
# Indices 1 2 3 4 5 6 
#
# 1 82.6378 16.6847 23.6872 0.0031 12.5810 0.0027
# 2 16.6847 79.0544 14.4870 -0.0150 8.0947 -0.0145
# 3 23.6872 14.4870 101.4993 0.0008 10.2282 -0.0012
# 4 0.0031 -0.0150 0.0008 35.5594 -0.0006 9.8235
# 5 12.5810 8.0947 10.2282 -0.0006 36.0307 -0.0011
# 6 0.0027 -0.0145 -0.0012 9.8235 -0.0011 30.4770
#
#
#
# Elastic Compliance Matrix: (Units=1/GPa)
#
#
# Indices 1 2 3 4 5 6 
#
# 1 0.013806 -0.002073 -0.002560 -0.000002 -0.003628 -0.000002
# 2 -0.002073 0.013516 -0.001248 0.000004 -0.001958 0.000005
# 3 -0.002560 -0.001248 0.010819 -0.000001 -0.001897 0.000000
# 4 -0.000002 0.000004 -0.000001 0.030871 0.000000 -0.009950
# 5 -0.003628 -0.001958 -0.001897 0.000000 0.029999 0.000000
# 6 -0.000002 0.000005 0.000000 -0.009950 0.000000 0.036019
#
#
# Mechanical properties :
#
#
# Convention : Reuss Voigt Hill
#
# Bulk Modulus (GPa) = 37.91012 41.43437 39.67224
# Shear Modulus (GPa) = 32.13654 34.30226 33.21940
#
# Velocity S-wave (km/s) = 3.82170 3.94837 3.88555
# Velocity P-wave (km/s) = 6.05831 6.29422 6.17739
#
# Compressibility (1/GPa) = 0.02637818
#
# Stress axis : x y z
#
# Youngs Moduli (GPa) = 72.43325 73.98487 92.42913
#
# Poissons Ratio (x) = 0.15337 0.23666
# Poissons Ratio (y) = 0.15016 0.11535
# Poissons Ratio (z) = 0.18546 0.09234
#
# Static dielectric constant tensor:
#      x y z
#    x 4.083130 -0.000020 0.440990 
#    y -0.000020 3.855810 0.000110 
#    z 0.440990 0.000110 5.226380 
# 
# 
# High freq. dielectric constant tensor:
#      x y z
#    x 1.870540 0.000000 -0.000050 
#    y 0.000000 1.872090 0.000000 
#    z -0.000050 0.000000 1.885670 
# 
# From -- ./inp_files/302954.got.cif
#   From: 2010.06.25/outbox.cif.g09.slc.cpg/sg15_152_cif.got.tgz:302954.got - 2010.06.28 07:06:18.
