data_PCOD8153704
_publ_section_title
;
Structure prediction by ZEFSAII (Michael W. Deem and Ramdas Pophale) SiO2 
 PCOD8153704
Probable space group: C 2/C
;
_chemical_formula_sum "Si O2"
_cell_formula_units_Z 40
_cell_length_a 8.548600
_cell_length_b 25.071200
_cell_length_c 17.298288
_cell_angle_alpha 90.000000
_cell_angle_beta 30.234829
_cell_angle_gamma 90.000000
_cell_volume 1866.859900
_symmetry_space_group_name_H-M "C 2/C"
_symmetry_group_IT_number 15
_symmetry_cell_setting 'monoclinic'
loop_
_space_group_symop_operation_xyz
x,y,z
-x,y,1/2-z
-x,-y,-z
x,-y,1/2+z
1/2+x,1/2+y,z
1/2-x,1/2+y,1/2-z
1/2-x,1/2-y,-z
1/2+x,1/2-y,1/2+z
loop_
_atom_site_type_symbol
_atom_site_label
_atom_site_fract_x
_atom_site_fract_y
_atom_site_fract_z
Si Si1 0.651944 0.295715 0.601899
Si Si2 0.890311 0.552270 0.880811
Si Si3 0.833820 0.539426 0.136864
Si Si4 0.799743 0.113581 0.173480
Si Si5 0.853755 0.617560 0.608499
O O1 0.500000 0.276658 0.750000
O O2 0.750000 0.250000 0.500000
O O3 0.432446 0.328918 0.638046
O O4 0.946083 0.331535 0.502372
O O5 0.000000 0.535430 0.750000
O O6 0.948947 0.500858 0.908855
O O7 0.088385 0.603372 0.826030
O O8 0.530572 0.570901 0.033715
O O9 0.500000 0.516080 0.250000
O O10 0.776351 0.591693 0.210276
O O11 0.043120 0.561722 0.976831
O O12 0.500000 0.121956 0.250000
O O13 0.500000 0.633323 0.750000
#
# Coordination Sequence:
#
# PCOD8153704 Si02
#       5
#     8   8   8   8   8
#     4  11  24  50  76 103 134 182 234 296 364 421
#     4  11  26  39  62 104 140 185 233 276 328 403
#     4  12  22  45  67  90 141 189 230 273 337 406
#     4  11  25  45  69  98 145 184 225 286 343 411
#     4  11  24  44  69  98 134 178 233 282 343 421
#
# _framework density 21.426354
#
# number of rings (size 3 to 8) (size 9 to 14) (size 15 to 20)
#    0.000    0.800    6.000    1.800    5.600    5.600 
#    0.000    2.000    0.000    0.000    0.000    0.000 
#    0.000    0.000    0.000    0.000    0.000    0.000 
#
# Total GULP energy -247794.588088 kJ/mol
# GULP energy per Si atom -12389.729404 kJ/mol
# Density = 2.137759 g / cm^3
# Si number density = 21.426354 Si / 1000 Ang^3
#
#
#
# Elastic Constant Matrix: (Units=GPa)
#
#
# Indices 1 2 3 4 5 6 
#
# 1 131.2293 56.7072 81.7228 0.0003 -16.6428 -0.0001
# 2 56.7072 105.7124 61.7577 0.0000 8.7186 -0.0001
# 3 81.7228 61.7577 135.4482 0.0003 -5.2503 0.0006
# 4 0.0003 0.0000 0.0003 39.3522 0.0002 11.0334
# 5 -16.6428 8.7186 -5.2503 0.0002 51.2250 -0.0004
# 6 -0.0001 -0.0001 0.0006 11.0334 -0.0004 29.3343
#
#
#
# Elastic Compliance Matrix: (Units=1/GPa)
#
#
# Indices 1 2 3 4 5 6 
#
# 1 0.013948 -0.004155 -0.006343 0.000000 0.004589 0.000000
# 2 -0.004155 0.014547 -0.004291 0.000000 -0.004266 0.000000
# 3 -0.006343 -0.004291 0.013167 0.000000 0.000019 0.000000
# 4 0.000000 0.000000 0.000000 0.028407 0.000000 -0.010685
# 5 0.004589 -0.004266 0.000019 0.000000 0.021740 0.000000
# 6 0.000000 0.000000 0.000000 -0.010685 0.000000 0.038109
#
#
# Mechanical properties :
#
#
# Convention : Reuss Voigt Hill
#
# Bulk Modulus (GPa) = 82.75521 85.86282 84.30901
# Shear Modulus (GPa) = 30.57633 35.46246 33.01939
#
# Velocity S-wave (km/s) = 3.78172 4.07269 3.92990
# Velocity P-wave (km/s) = 7.60102 7.89153 7.74763
#
# Compressibility (1/GPa) = 0.01208383
#
# Stress axis : x y z
#
# Youngs Moduli (GPa) = 71.69632 68.74178 75.94478
#
# Poissons Ratio (x) = 0.28560 0.48173
# Poissons Ratio (y) = 0.29788 0.32591
# Poissons Ratio (z) = 0.45478 0.29500
#
# Static dielectric constant tensor:
#      x y z
#    x 3.981960 0.000000 0.036190 
#    y 0.000000 3.762510 0.000010 
#    z 0.036190 0.000010 4.305190 
# 
# 
# High freq. dielectric constant tensor:
#      x y z
#    x 1.850820 0.000000 0.004670 
#    y 0.000000 1.829730 0.000000 
#    z 0.004670 0.000000 1.848000 
# 
# From -- ./inp_files/24593.got.cif
#   From: 2010.06.25/outbox.cif.g09.slc.cpg/sg15_13_cif.got.tgz:24593.got - 2010.06.28 07:06:18.
