data_PCOD8153757
_publ_section_title
;
Structure prediction by ZEFSAII (Michael W. Deem and Ramdas Pophale) SiO2 
 PCOD8153757
Probable space group: C 2/C
;
_chemical_formula_sum "Si O2"
_cell_formula_units_Z 36
_cell_length_a 18.659420
_cell_length_b 5.499352
_cell_length_c 24.194108
_cell_angle_alpha 90.000000
_cell_angle_beta 143.750183
_cell_angle_gamma 90.000000
_cell_volume 1468.021268
_symmetry_space_group_name_H-M "C 2/C"
_symmetry_group_IT_number 15
_symmetry_cell_setting 'monoclinic'
loop_
_space_group_symop_operation_xyz
x,y,z
-x,y,1/2-z
-x,-y,-z
x,-y,1/2+z
1/2+x,1/2+y,z
1/2-x,1/2+y,1/2-z
1/2-x,1/2-y,-z
1/2+x,1/2-y,1/2+z
loop_
_atom_site_type_symbol
_atom_site_label
_atom_site_fract_x
_atom_site_fract_y
_atom_site_fract_z
Si Si1 0.272213 0.000945 0.047372
Si Si2 0.116918 0.150565 0.639813
Si Si3 0.500000 0.144865 0.750000
Si Si4 0.679291 0.554025 0.287272
Si Si5 0.369185 0.705842 0.446612
O O1 0.410404 0.015855 0.156394
O O2 0.179845 0.995531 0.042183
O O3 0.250000 0.750000 0.000000
O O4 0.250000 0.250000 0.000000
O O5 0.243568 0.272153 0.704168
O O6 0.998400 0.308666 0.548986
O O7 0.109585 0.122417 0.701394
O O8 0.110569 0.896159 0.602475
O O9 0.420201 0.311312 0.739637
O O10 0.769084 0.416846 0.385009
#
# Coordination Sequence:
#
# PCOD8153757 Si02
#       5
#     8   8   4   8   8
#     4  12  28  50  76 114 161 209 265 325 405 473
#     4  11  24  44  74 108 149 203 263 319 399 466
#     4  12  28  50  80 114 162 204 266 334 406 482
#     4  12  24  49  76 116 154 207 266 329 400 481
#     4  11  25  45  73 105 153 201 264 329 386 475
#
# _framework density 24.522805999999999
#
# number of rings (size 3 to 8) (size 9 to 14) (size 15 to 20)
#    0.000    0.444    4.444    3.333    0.000    7.111 
#    0.000    0.000    0.000    0.000    0.000    0.000 
#    0.000    0.000    0.000    0.000    0.000    0.000 
#
# Total GULP energy -223198.426304 kJ/mol
# GULP energy per Si atom -12399.912572 kJ/mol
# Density = 2.446699 g / cm^3
# Si number density = 24.522806 Si / 1000 Ang^3
#
#
#
# Elastic Constant Matrix: (Units=GPa)
#
#
# Indices 1 2 3 4 5 6 
#
# 1 135.7321 42.7117 63.8583 -0.0019 5.0947 -0.0048
# 2 42.7117 97.4366 51.8952 -0.0070 -9.9241 -0.0068
# 3 63.8583 51.8952 194.2083 0.0027 2.4593 0.0021
# 4 -0.0019 -0.0070 0.0027 51.8824 0.0005 9.9651
# 5 5.0947 -9.9241 2.4593 0.0005 37.4840 -0.0004
# 6 -0.0048 -0.0068 0.0021 9.9651 -0.0004 -16.4521
#
#
#
# Elastic Compliance Matrix: (Units=1/GPa)
#
#
# Indices 1 2 3 4 5 6 
#
# 1 0.009497 -0.003166 -0.002252 0.000000 -0.001981 -0.000002
# 2 -0.003166 0.013465 -0.002610 0.000002 0.004166 -0.000004
# 3 -0.002252 -0.002610 0.006597 -0.000001 -0.000818 0.000002
# 4 0.000000 0.000002 -0.000001 0.017266 0.000001 0.010458
# 5 -0.001981 0.004166 -0.000818 0.000001 0.028104 -0.000002
# 6 -0.000002 -0.000004 0.000002 0.010458 -0.000002 -0.054448
#
#
# Mechanical properties :
#
#
# Convention : Reuss Voigt Hill
#
# Bulk Modulus (GPa) = 74.04678 82.70083 78.37381
# Shear Modulus (GPa) = 121.83739 32.51031 77.17385
#
# Velocity S-wave (km/s) = 7.05628 3.64499 5.61592
# Velocity P-wave (km/s) = 9.83101 7.17718 8.60699
#
# Compressibility (1/GPa) = 0.01350498
#
# Stress axis : x y z
#
# Youngs Moduli (GPa) = 105.29164 74.26559 151.57656
#
# Poissons Ratio (x) = 0.23510 0.34133
# Poissons Ratio (y) = 0.33332 0.39560
# Poissons Ratio (z) = 0.23710 0.19383
#
# Static dielectric constant tensor:
#      x y z
#    x 4.614960 -0.000020 -0.166920 
#    y -0.000020 4.114730 0.000000 
#    z -0.166920 0.000000 5.125800 
# 
# 
# High freq. dielectric constant tensor:
#      x y z
#    x 1.986780 0.000000 -0.001710 
#    y 0.000000 1.951130 0.000000 
#    z -0.001710 0.000000 2.002570 
# 
# From -- ./inp_files/165043.got.cif
#   From: 2010.06.25/outbox.cif.g09.slc.cpg/sg15_83_cif.got.tgz:165043.got - 2010.06.28 07:06:18.
