data_PCOD8153253
_publ_section_title
;
Structure prediction by ZEFSAII (Michael W. Deem and Ramdas Pophale) SiO2 
 PCOD8153253
Probable space group: C 2/C
;
_chemical_formula_sum "Si O2"
_cell_formula_units_Z 48
_cell_length_a 13.993378
_cell_length_b 12.618434
_cell_length_c 12.687079
_cell_angle_alpha 90.000000
_cell_angle_beta 81.584690
_cell_angle_gamma 90.000000
_cell_volume 2216.095039
_symmetry_space_group_name_H-M "C 2/C"
_symmetry_group_IT_number 15
_symmetry_cell_setting 'monoclinic'
loop_
_space_group_symop_operation_xyz
x,y,z
-x,y,1/2-z
-x,-y,-z
x,-y,1/2+z
1/2+x,1/2+y,z
1/2-x,1/2+y,1/2-z
1/2-x,1/2-y,-z
1/2+x,1/2-y,1/2+z
loop_
_atom_site_type_symbol
_atom_site_label
_atom_site_fract_x
_atom_site_fract_y
_atom_site_fract_z
Si Si1 0.996258 0.730838 0.481561
Si Si2 0.707262 0.668029 0.298504
Si Si3 0.426138 0.377178 0.856323
Si Si4 0.402702 0.101606 0.202494
Si Si5 0.665705 0.890957 0.393704
Si Si6 0.866083 0.917659 0.478890
O O1 0.043055 0.773552 0.582895
O O2 0.080630 0.684868 0.394707
O O3 0.924223 0.632918 0.515361
O O4 0.936650 0.822799 0.430103
O O5 0.677085 0.638102 0.183948
O O6 0.822017 0.651726 0.292415
O O7 0.681554 0.790493 0.316436
O O8 0.648115 0.595800 0.392433
O O9 0.500000 0.401370 0.750000
O O10 0.418354 0.472683 0.941525
O O11 0.500000 0.080673 0.250000
O O12 0.359515 0.991089 0.171927
O O13 0.761802 0.909791 0.444268
#
# Coordination Sequence:
#
# PCOD8153253 Si02
#       6
#     8   8   8   8   8   8
#     4  11  25  43  69 100 140 183 233 288 340 418
#     4  11  25  45  70 103 140 184 227 293 350 405
#     4  12  24  45  73 104 137 183 234 286 352 403
#     4  12  26  45  69 105 136 187 238 279 352 419
#     4  11  23  44  69  95 143 182 226 293 345 410
#     4  11  23  45  70 103 138 179 235 287 344 413
#
# _framework density 21.659721000000001
#
# number of rings (size 3 to 8) (size 9 to 14) (size 15 to 20)
#    0.000    0.667    5.000    5.000    2.333    4.000 
#    0.000    0.000    0.000    0.000    0.000    0.000 
#    0.000    0.000    0.000    0.000    0.000    0.000 
#
# Total GULP energy -297633.220945 kJ/mol
# GULP energy per Si atom -12401.384206 kJ/mol
# Density = 2.161042 g / cm^3
# Si number density = 21.659721 Si / 1000 Ang^3
#
#
#
# Elastic Constant Matrix: (Units=GPa)
#
#
# Indices 1 2 3 4 5 6 
#
# 1 87.8010 40.8996 39.4341 0.0000 12.0010 0.0000
# 2 40.8996 101.7260 62.9555 0.0000 -8.6150 0.0000
# 3 39.4341 62.9555 104.2828 0.0000 2.1917 0.0000
# 4 0.0000 0.0000 0.0000 19.9296 0.0000 1.9707
# 5 12.0010 -8.6150 2.1917 0.0000 48.8349 0.0000
# 6 0.0000 0.0000 0.0000 1.9707 0.0000 28.1878
#
#
#
# Elastic Compliance Matrix: (Units=1/GPa)
#
#
# Indices 1 2 3 4 5 6 
#
# 1 0.015564 -0.004886 -0.002840 0.000000 -0.004559 0.000000
# 2 -0.004886 0.017743 -0.008963 0.000000 0.004733 0.000000
# 3 -0.002840 -0.008963 0.016108 0.000000 -0.001606 0.000000
# 4 0.000000 0.000000 0.000000 0.050526 0.000000 -0.003532
# 5 -0.004559 0.004733 -0.001606 0.000000 0.022505 0.000000
# 6 0.000000 0.000000 0.000000 -0.003532 0.000000 0.035723
#
#
# Mechanical properties :
#
#
# Convention : Reuss Voigt Hill
#
# Bulk Modulus (GPa) = 62.35778 64.48757 63.42267
# Shear Modulus (GPa) = 25.39458 29.42516 27.40987
#
# Velocity S-wave (km/s) = 3.42780 3.68981 3.56121
# Velocity P-wave (km/s) = 6.67223 6.92752 6.80107
#
# Compressibility (1/GPa) = 0.01603649
#
# Stress axis : x y z
#
# Youngs Moduli (GPa) = 64.25000 56.36123 62.08132
#
# Poissons Ratio (x) = 0.27540 0.17630
# Poissons Ratio (y) = 0.31395 0.55643
# Poissons Ratio (z) = 0.18246 0.50517
#
# Static dielectric constant tensor:
#      x y z
#    x 4.205310 0.000000 -0.020930 
#    y 0.000000 3.854560 0.000000 
#    z -0.020930 0.000000 3.911820 
# 
# 
# High freq. dielectric constant tensor:
#      x y z
#    x 1.876770 0.000000 0.004410 
#    y 0.000000 1.846660 0.000000 
#    z 0.004410 0.000000 1.842300 
# 
# From -- ./inp_files/151947.got.cif
#   From: 2010.06.25/outbox.cif.g09.slc.cpg/sg15_76_cif.got.tgz:151947.got - 2010.06.28 07:06:18.
