data_PCOD8153176
_publ_section_title
;
Structure prediction by ZEFSAII (Michael W. Deem and Ramdas Pophale) SiO2 
 PCOD8153176
Probable space group: C 2/C
;
_chemical_formula_sum "Si O2"
_cell_formula_units_Z 32
_cell_length_a 20.819753
_cell_length_b 8.243421
_cell_length_c 7.244310
_cell_angle_alpha 90.000000
_cell_angle_beta 115.362079
_cell_angle_gamma 90.000000
_cell_volume 1123.480208
_symmetry_space_group_name_H-M "C 2/C"
_symmetry_group_IT_number 15
_symmetry_cell_setting 'monoclinic'
loop_
_space_group_symop_operation_xyz
x,y,z
-x,y,1/2-z
-x,-y,-z
x,-y,1/2+z
1/2+x,1/2+y,z
1/2-x,1/2+y,1/2-z
1/2-x,1/2-y,-z
1/2+x,1/2-y,1/2+z
loop_
_atom_site_type_symbol
_atom_site_label
_atom_site_fract_x
_atom_site_fract_y
_atom_site_fract_z
Si Si1 0.792083 0.513106 0.506152
Si Si2 0.794562 0.195509 0.343092
Si Si3 0.424659 0.594134 0.738569
Si Si4 0.077034 0.255594 0.370750
O O1 0.796863 0.392339 0.326836
O O2 0.721681 0.625415 0.383963
O O3 0.776592 0.369767 0.635820
O O4 0.864751 0.613270 0.622297
O O5 0.866563 0.131343 0.514121
O O6 0.500000 0.650003 0.750000
O O7 0.424273 0.398969 0.771534
O O8 0.408169 0.691161 0.904917
O O9 0.000000 0.341092 0.250000
#
# Coordination Sequence:
#
# PCOD8153176 Si02
#       4
#     8   8   8   8
#     4  11  25  45  70  99 138 181 232 286 341 408
#     4  11  24  44  70 102 133 179 232 284 345 407
#     4  11  23  43  71 104 142 182 229 279 342 416
#     4  11  24  43  69 103 142 185 228 281 343 410
#
# _framework density 28.48292
#
# number of rings (size 3 to 8) (size 9 to 14) (size 15 to 20)
#    0.000    1.000    0.000    9.000    0.000    9.000 
#    0.000    3.750    0.000    0.000    0.000    0.000 
#    0.000    0.000    0.000    0.000    0.000    0.000 
#
# Total GULP energy -198325.392689 kJ/mol
# GULP energy per Si atom -12395.337043 kJ/mol
# Density = 2.841809 g / cm^3
# Si number density = 28.482920 Si / 1000 Ang^3
#
#
#
# Elastic Constant Matrix: (Units=GPa)
#
#
# Indices 1 2 3 4 5 6 
#
# 1 163.6849 64.8232 53.8263 0.0000 19.5201 0.0000
# 2 64.8232 143.7615 23.8663 0.0000 11.5448 0.0000
# 3 53.8263 23.8663 97.0700 0.0000 29.6984 0.0000
# 4 0.0000 0.0000 0.0000 55.7789 0.0000 8.2389
# 5 19.5201 11.5448 29.6984 0.0000 63.3893 0.0000
# 6 0.0000 0.0000 0.0000 8.2389 0.0000 52.9836
#
#
#
# Elastic Compliance Matrix: (Units=1/GPa)
#
#
# Indices 1 2 3 4 5 6 
#
# 1 0.008734 -0.003260 -0.003969 0.000000 -0.000236 0.000000
# 2 -0.003260 0.008486 -0.000132 0.000000 -0.000480 0.000000
# 3 -0.003969 -0.000132 0.014188 0.000000 -0.005401 0.000000
# 4 0.000000 0.000000 0.000000 0.018349 0.000000 -0.002853
# 5 -0.000236 -0.000480 -0.005401 0.000000 0.018466 0.000000
# 6 0.000000 0.000000 0.000000 -0.002853 0.000000 0.019317
#
#
# Mechanical properties :
#
#
# Convention : Reuss Voigt Hill
#
# Bulk Modulus (GPa) = 59.93326 76.61647 68.27487
# Shear Modulus (GPa) = 46.37147 51.89707 49.13427
#
# Velocity S-wave (km/s) = 4.03928 4.27317 4.15787
# Velocity P-wave (km/s) = 6.54537 7.16269 6.86098
#
# Compressibility (1/GPa) = 0.01668523
#
# Stress axis : x y z
#
# Youngs Moduli (GPa) = 114.49743 117.83467 70.48439
#
# Poissons Ratio (x) = 0.38417 0.27976
# Poissons Ratio (y) = 0.37329 0.00930
# Poissons Ratio (z) = 0.45446 0.01554
#
# Static dielectric constant tensor:
#      x y z
#    x 5.460340 0.000000 -0.388110 
#    y 0.000000 5.597270 0.000000 
#    z -0.388110 0.000000 5.752020 
# 
# 
# High freq. dielectric constant tensor:
#      x y z
#    x 2.169710 0.000000 -0.012690 
#    y 0.000000 2.156980 0.000000 
#    z -0.012690 0.000000 2.183730 
# 
# From -- ./inp_files/59819.got.cif
#   From: 2010.06.25/outbox.cif.g09.slc.cpg/sg15_30_cif.got.tgz:59819.got - 2010.06.28 07:06:18.
