data_PCOD8153690
_publ_section_title
;
Structure prediction by ZEFSAII (Michael W. Deem and Ramdas Pophale) SiO2 
 PCOD8153690
Probable space group: C 2/C
;
_chemical_formula_sum "Si O2"
_cell_formula_units_Z 60
_cell_length_a 11.734819
_cell_length_b 14.239636
_cell_length_c 17.173603
_cell_angle_alpha 90.000000
_cell_angle_beta 71.541815
_cell_angle_gamma 90.000000
_cell_volume 2722.069493
_symmetry_space_group_name_H-M "C 2/C"
_symmetry_group_IT_number 15
_symmetry_cell_setting 'monoclinic'
loop_
_space_group_symop_operation_xyz
x,y,z
-x,y,1/2-z
-x,-y,-z
x,-y,1/2+z
1/2+x,1/2+y,z
1/2-x,1/2+y,1/2-z
1/2-x,1/2-y,-z
1/2+x,1/2-y,1/2+z
loop_
_atom_site_type_symbol
_atom_site_label
_atom_site_fract_x
_atom_site_fract_y
_atom_site_fract_z
Si Si1 0.440981 0.830220 0.036323
Si Si2 0.500000 0.190482 0.250000
Si Si3 0.741869 0.082465 0.173863
Si Si4 0.730676 0.552359 0.515963
Si Si5 0.102951 0.760353 0.792557
Si Si6 0.741732 0.374690 0.332403
Si Si7 0.023205 0.181518 0.595000
Si Si8 0.195777 0.353768 0.017657
O O1 0.443536 0.799351 0.125151
O O2 0.576535 0.865445 0.991140
O O3 0.346345 0.911441 0.038641
O O4 0.416656 0.741504 0.986745
O O5 0.615933 0.124355 0.230493
O O6 0.480887 0.258002 0.326715
O O7 0.754611 0.081997 0.077516
O O8 0.852159 0.138747 0.188079
O O9 0.751499 0.977711 0.207129
O O10 0.611915 0.592846 0.582986
O O11 0.718145 0.439288 0.528916
O O12 0.219872 0.704802 0.736347
O O13 0.000000 0.772824 0.750000
O O14 0.609349 0.355169 0.395818
O O15 0.833531 0.371691 0.385170
O O16 0.250000 0.250000 0.000000
#
# Coordination Sequence:
#
# PCOD8153690 Si02
#       8
#     8   4   8   8   8   8   8   8
#     4  12  23  44  73 103 139 184 236 288 353 418
#     4  12  24  44  74 100 144 176 236 298 346 416
#     4  11  25  46  73 101 137 187 232 291 357 413
#     4  11  25  44  73 105 136 186 243 287 355 426
#     4  12  25  47  69 101 144 182 231 293 349 424
#     4  11  26  45  68 101 138 186 233 287 357 416
#     4  12  24  45  71 102 140 181 234 298 352 413
#     4  11  24  44  68 104 144 185 231 290 351 419
#
# _framework density 22.042054
#
# number of rings (size 3 to 8) (size 9 to 14) (size 15 to 20)
#    0.000    0.533    6.667    1.600    0.933    3.200 
#    6.000    0.000    0.000    0.000    0.000    0.000 
#    0.000    0.000    0.000    0.000    0.000    0.000 
#
# Total GULP energy -371960.459389 kJ/mol
# GULP energy per Si atom -12398.681980 kJ/mol
# Density = 2.199189 g / cm^3
# Si number density = 22.042054 Si / 1000 Ang^3
#
#
#
# Elastic Constant Matrix: (Units=GPa)
#
#
# Indices 1 2 3 4 5 6 
#
# 1 122.4607 59.7514 35.0080 0.0000 0.5251 0.0000
# 2 59.7514 172.5409 43.4336 0.0000 -0.0984 0.0000
# 3 35.0080 43.4336 75.9814 0.0000 1.9189 0.0000
# 4 0.0000 0.0000 0.0000 37.2489 0.0000 -12.7264
# 5 0.5251 -0.0984 1.9189 0.0000 38.3675 0.0000
# 6 0.0000 0.0000 0.0000 -12.7264 0.0000 55.1865
#
#
#
# Elastic Compliance Matrix: (Units=1/GPa)
#
#
# Indices 1 2 3 4 5 6 
#
# 1 0.010456 -0.002813 -0.003210 0.000000 0.000010 0.000000
# 2 -0.002813 0.007528 -0.003013 0.000000 0.000208 0.000000
# 3 -0.003210 -0.003013 0.016382 0.000000 -0.000783 0.000000
# 4 0.000000 0.000000 0.000000 0.029143 0.000000 0.006720
# 5 0.000010 0.000208 -0.000783 0.000000 0.026103 0.000000
# 6 0.000000 0.000000 0.000000 0.006720 0.000000 0.019670
#
#
# Mechanical properties :
#
#
# Convention : Reuss Voigt Hill
#
# Bulk Modulus (GPa) = 61.36704 71.92991 66.64847
# Shear Modulus (GPa) = 37.65490 41.67991 39.66740
#
# Velocity S-wave (km/s) = 4.13767 4.35320 4.24680
# Velocity P-wave (km/s) = 7.12239 7.61387 7.37222
#
# Compressibility (1/GPa) = 0.01629539
#
# Stress axis : x y z
#
# Youngs Moduli (GPa) = 95.63958 132.83120 61.04271
#
# Poissons Ratio (x) = 0.37364 0.19594
# Poissons Ratio (y) = 0.26903 0.18390
# Poissons Ratio (z) = 0.30699 0.40018
#
# Static dielectric constant tensor:
#      x y z
#    x 3.999290 0.000000 0.165150 
#    y 0.000000 4.123370 0.000000 
#    z 0.165150 0.000000 3.383680 
# 
# 
# High freq. dielectric constant tensor:
#      x y z
#    x 1.877180 0.000000 0.003370 
#    y 0.000000 1.877330 0.000000 
#    z 0.003370 0.000000 1.857600 
# 
# From -- ./inp_files/198271.got.cif
#   From: 2010.06.25/outbox.cif.g09.slc.cpg/sg15_100_cif.got.tgz:198271.got - 2010.06.28 07:06:18.
