data_PCOD8153451
_publ_section_title
;
Structure prediction by ZEFSAII (Michael W. Deem and Ramdas Pophale) SiO2 
 PCOD8153451
Probable space group: C 2/C
;
_chemical_formula_sum "Si O2"
_cell_formula_units_Z 44
_cell_length_a 6.657515
_cell_length_b 25.883418
_cell_length_c 17.302841
_cell_angle_alpha 90.000000
_cell_angle_beta 137.689791
_cell_angle_gamma 90.000000
_cell_volume 2007.055414
_symmetry_space_group_name_H-M "C 2/C"
_symmetry_group_IT_number 15
_symmetry_cell_setting 'monoclinic'
loop_
_space_group_symop_operation_xyz
x,y,z
-x,y,1/2-z
-x,-y,-z
x,-y,1/2+z
1/2+x,1/2+y,z
1/2-x,1/2+y,1/2-z
1/2-x,1/2-y,-z
1/2+x,1/2-y,1/2+z
loop_
_atom_site_type_symbol
_atom_site_label
_atom_site_fract_x
_atom_site_fract_y
_atom_site_fract_z
Si Si1 0.000000 0.241999 0.250000
Si Si2 0.675057 0.385825 0.369539
Si Si3 0.330847 0.571123 0.022873
Si Si4 0.158840 0.968434 0.142512
Si Si5 0.354298 0.670948 0.351844
Si Si6 0.057327 0.200272 0.952036
O O1 0.006824 0.205463 0.176717
O O2 0.257258 0.284118 0.324664
O O3 0.500000 0.356205 0.250000
O O4 0.433866 0.430762 0.315635
O O5 0.717449 0.346972 0.453357
O O6 0.993038 0.411797 0.443158
O O7 0.423362 0.515252 0.081752
O O8 0.550388 0.611303 0.128597
O O9 0.381821 0.566515 0.945683
O O10 0.500000 0.987822 0.250000
O O11 0.495747 0.688300 0.473255
O O12 0.000000 0.676289 0.250000
O O13 0.250000 0.250000 0.000000
#
# Coordination Sequence:
#
# PCOD8153451 Si02
#       6
#     4   8   8   8   8   8
#     4  12  28  46  76 104 140 194 242 300 364 420
#     4  12  26  44  72 106 142 188 239 293 359 429
#     4  11  25  44  74  97 146 184 232 297 355 431
#     4  11  23  47  69 106 139 185 237 291 360 422
#     4  12  26  49  70 105 142 188 243 295 360 428
#     4  12  27  47  71 103 145 187 239 297 353 423
#
# _framework density 21.922663
#
# number of rings (size 3 to 8) (size 9 to 14) (size 15 to 20)
#    0.000    0.364    5.455    2.727    6.364    0.000 
#    1.636    0.000    0.000    0.000    0.000    0.000 
#    0.000    0.000    0.000    0.000    0.000    0.000 
#
# Total GULP energy -272700.472808 kJ/mol
# GULP energy per Si atom -12395.476037 kJ/mol
# Density = 2.187277 g / cm^3
# Si number density = 21.922663 Si / 1000 Ang^3
#
#
#
# Elastic Constant Matrix: (Units=GPa)
#
#
# Indices 1 2 3 4 5 6 
#
# 1 96.6298 66.0265 29.5395 -0.0009 -0.9191 -0.0004
# 2 66.0265 111.7935 40.7881 0.0005 1.5891 0.0002
# 3 29.5395 40.7881 93.0450 -0.0026 3.8312 -0.0014
# 4 -0.0009 0.0005 -0.0026 47.7397 -0.0007 2.0092
# 5 -0.9191 1.5891 3.8312 -0.0007 50.8449 -0.0005
# 6 -0.0004 0.0002 -0.0014 2.0092 -0.0005 32.8298
#
#
#
# Elastic Compliance Matrix: (Units=1/GPa)
#
#
# Indices 1 2 3 4 5 6 
#
# 1 0.017492 -0.009885 -0.001249 0.000000 0.000719 0.000000
# 2 -0.009885 0.016235 -0.003962 -0.000001 -0.000388 0.000000
# 3 -0.001249 -0.003962 0.012917 0.000001 -0.000872 0.000000
# 4 0.000000 -0.000001 0.000001 0.021001 0.000000 -0.001285
# 5 0.000719 -0.000388 -0.000872 0.000000 0.019758 0.000000
# 6 0.000000 0.000000 0.000000 -0.001285 0.000000 0.030539
#
#
# Mechanical properties :
#
#
# Convention : Reuss Voigt Hill
#
# Bulk Modulus (GPa) = 60.79301 63.79737 62.29519
# Shear Modulus (GPa) = 32.54776 37.29049 34.91912
#
# Velocity S-wave (km/s) = 3.85731 4.12879 3.99536
# Velocity P-wave (km/s) = 6.90140 7.20372 7.05418
#
# Compressibility (1/GPa) = 0.01644926
#
# Stress axis : x y z
#
# Youngs Moduli (GPa) = 57.16815 61.59623 77.41678
#
# Poissons Ratio (x) = 0.60891 0.09673
# Poissons Ratio (y) = 0.56513 0.30676
# Poissons Ratio (z) = 0.07143 0.24407
#
# Static dielectric constant tensor:
#      x y z
#    x 3.903690 0.000000 -0.147880 
#    y 0.000000 3.703440 0.000000 
#    z -0.147880 0.000000 3.917980 
# 
# 
# High freq. dielectric constant tensor:
#      x y z
#    x 1.867840 0.000000 0.001930 
#    y 0.000000 1.873340 0.000000 
#    z 0.001930 0.000000 1.873760 
# 
# From -- ./inp_files/129955.got.cif
#   From: 2010.06.25/outbox.cif.g09.slc.cpg/sg15_65_cif.got.tgz:129955.got - 2010.06.28 07:06:18.
