data_PCOD8153816
_publ_section_title
;
Structure prediction by ZEFSAII (Michael W. Deem and Ramdas Pophale) SiO2 
 PCOD8153816
Probable space group: C 2/C
;
_chemical_formula_sum "Si O2"
_cell_formula_units_Z 56
_cell_length_a 18.777936
_cell_length_b 12.124067
_cell_length_c 13.111529
_cell_angle_alpha 90.000000
_cell_angle_beta 58.237561
_cell_angle_gamma 90.000000
_cell_volume 2537.990630
_symmetry_space_group_name_H-M "C 2/C"
_symmetry_group_IT_number 15
_symmetry_cell_setting 'monoclinic'
loop_
_space_group_symop_operation_xyz
x,y,z
-x,y,1/2-z
-x,-y,-z
x,-y,1/2+z
1/2+x,1/2+y,z
1/2-x,1/2+y,1/2-z
1/2-x,1/2-y,-z
1/2+x,1/2-y,1/2+z
loop_
_atom_site_type_symbol
_atom_site_label
_atom_site_fract_x
_atom_site_fract_y
_atom_site_fract_z
Si Si1 0.595190 0.964925 0.282602
Si Si2 0.806444 0.147502 0.932106
Si Si3 0.715965 0.009082 0.350843
Si Si4 0.631450 0.450753 0.904711
Si Si5 0.917114 0.627681 0.923670
Si Si6 0.535802 0.667838 0.005529
Si Si7 0.569359 0.210973 0.279834
O O1 0.615857 0.896270 0.165234
O O2 0.498179 0.948896 0.386660
O O3 0.659693 0.926145 0.322640
O O4 0.618318 0.095038 0.253364
O O5 0.874801 0.186967 0.799324
O O6 0.750261 0.054528 0.922689
O O7 0.750000 0.250000 0.000000
O O8 0.850969 0.100401 0.998363
O O9 0.789932 0.063827 0.229256
O O10 0.655496 0.104778 0.439600
O O11 0.609612 0.579376 0.935425
O O12 0.553280 0.390353 0.909990
O O13 0.942801 0.756484 0.912384
O O14 0.528261 0.751554 0.916407
O O15 0.500000 0.183547 0.250000
#
# Coordination Sequence:
#
# PCOD8153816 Si02
#       7
#     8   8   8   8   8   8   8
#     4  11  25  45  71 106 138 178 232 290 350 416
#     4  12  27  42  71 106 136 186 232 287 347 411
#     4  12  24  44  71 102 144 176 229 297 341 415
#     4  11  26  47  68 103 142 181 238 279 347 428
#     4  11  24  45  71 104 135 181 233 288 349 410
#     4  11  25  47  70  99 141 191 228 283 350 412
#     4  12  21  44  73  98 134 180 238 282 338 412
#
# _framework density 22.064698
#
# number of rings (size 3 to 8) (size 9 to 14) (size 15 to 20)
#    0.000    0.571    5.714    3.000    2.000    0.000 
#    5.143    1.429    0.000    0.000    0.000    0.000 
#    0.000    0.000    0.000    0.000    0.000    0.000 
#
# Total GULP energy -347291.630641 kJ/mol
# GULP energy per Si atom -12403.272523 kJ/mol
# Density = 2.201448 g / cm^3
# Si number density = 22.064698 Si / 1000 Ang^3
#
#
#
# Elastic Constant Matrix: (Units=GPa)
#
#
# Indices 1 2 3 4 5 6 
#
# 1 89.3375 32.2217 30.1924 0.0000 -6.3933 0.0000
# 2 32.2217 116.6876 37.6556 0.0000 5.4444 0.0000
# 3 30.1924 37.6556 112.3464 0.0000 -18.8188 0.0000
# 4 0.0000 0.0000 0.0000 26.4259 0.0000 5.6156
# 5 -6.3933 5.4444 -18.8188 0.0000 32.1596 0.0000
# 6 0.0000 0.0000 0.0000 5.6156 0.0000 33.8160
#
#
#
# Elastic Compliance Matrix: (Units=1/GPa)
#
#
# Indices 1 2 3 4 5 6 
#
# 1 0.013158 -0.003000 -0.002225 0.000000 0.001821 0.000000
# 2 -0.003000 0.010754 -0.003551 0.000000 -0.004495 0.000000
# 3 -0.002225 -0.003551 0.011880 0.000000 0.007111 0.000000
# 4 0.000000 0.000000 0.000000 0.039226 0.000000 -0.006514
# 5 0.001821 -0.004495 0.007111 0.000000 0.036379 0.000000
# 6 0.000000 0.000000 0.000000 -0.006514 0.000000 0.030654
#
#
# Mechanical properties :
#
#
# Convention : Reuss Voigt Hill
#
# Bulk Modulus (GPa) = 54.82763 57.61232 56.21998
# Shear Modulus (GPa) = 30.17786 33.03376 31.60581
#
# Velocity S-wave (km/s) = 3.70225 3.87348 3.78883
# Velocity P-wave (km/s) = 6.57100 6.79503 6.68395
#
# Compressibility (1/GPa) = 0.01823898
#
# Stress axis : x y z
#
# Youngs Moduli (GPa) = 75.99889 92.98807 84.17173
#
# Poissons Ratio (x) = 0.27899 0.18732
# Poissons Ratio (y) = 0.22802 0.29891
# Poissons Ratio (z) = 0.16913 0.33021
#
# Static dielectric constant tensor:
#      x y z
#    x 4.108530 0.000000 0.178590 
#    y 0.000000 4.188360 0.000000 
#    z 0.178590 0.000000 3.902380 
# 
# 
# High freq. dielectric constant tensor:
#      x y z
#    x 1.877870 0.000000 0.003210 
#    y 0.000000 1.858990 0.000000 
#    z 0.003210 0.000000 1.874100 
# 
# From -- ./inp_files/161261.got.cif
#   From: 2010.06.25/outbox.cif.g09.slc.cpg/sg15_81_cif.got.tgz:161261.got - 2010.06.28 07:06:18.
