data_PCOD8153695
_publ_section_title
;
Structure prediction by ZEFSAII (Michael W. Deem and Ramdas Pophale) SiO2 
 PCOD8153695
Probable space group: C 2/C
;
_chemical_formula_sum "Si O2"
_cell_formula_units_Z 60
_cell_length_a 20.815380
_cell_length_b 14.357280
_cell_length_c 20.817251
_cell_angle_alpha 90.000000
_cell_angle_beta 152.781927
_cell_angle_gamma 90.000000
_cell_volume 2845.480387
_symmetry_space_group_name_H-M "C 2/C"
_symmetry_group_IT_number 15
_symmetry_cell_setting 'monoclinic'
loop_
_space_group_symop_operation_xyz
x,y,z
-x,y,1/2-z
-x,-y,-z
x,-y,1/2+z
1/2+x,1/2+y,z
1/2-x,1/2+y,1/2-z
1/2-x,1/2-y,-z
1/2+x,1/2-y,1/2+z
loop_
_atom_site_type_symbol
_atom_site_label
_atom_site_fract_x
_atom_site_fract_y
_atom_site_fract_z
Si Si1 0.232424 0.560651 0.584526
Si Si2 0.264597 0.038713 0.056017
Si Si3 0.926462 0.293577 0.489353
Si Si4 0.845532 0.057507 0.297510
Si Si5 0.500000 0.177211 0.250000
Si Si6 0.327709 0.559785 0.906147
Si Si7 0.714843 0.247529 0.197128
Si Si8 0.014004 0.163488 0.852448
O O1 0.206607 0.508711 0.492745
O O2 0.092010 0.619301 0.478197
O O3 0.261652 0.482600 0.662698
O O4 0.356740 0.637209 0.692576
O O5 0.378757 0.116330 0.175514
O O6 0.266862 0.960029 0.113879
O O7 0.107871 0.077044 0.917206
O O8 0.779533 0.290284 0.320041
O O9 0.961126 0.191437 0.551098
O O10 0.066834 0.307778 0.572001
O O11 0.825612 0.168455 0.275648
O O12 0.009947 0.038106 0.434382
O O13 0.786492 0.008380 0.310087
O O14 0.434028 0.243418 0.137278
O O15 0.299473 0.668120 0.865854
#
# Coordination Sequence:
#
# PCOD8153695 Si02
#       8
#     8   8   8   8   4   8   8   8
#     4  12  23  41  65 101 134 180 230 277 349 418
#     4  12  25  40  63  94 143 183 220 284 342 420
#     4  12  23  39  67 100 138 172 226 281 348 408
#     4  11  24  44  68  97 134 176 237 286 337 411
#     4  12  24  36  56 102 140 174 216 272 350 418
#     4  11  24  45  68  99 136 184 226 280 349 414
#     4  12  25  45  69 100 134 184 230 290 338 407
#     4  12  21  37  63  97 138 175 212 270 343 429
#
# _framework density 21.086071
#
# number of rings (size 3 to 8) (size 9 to 14) (size 15 to 20)
#    0.000    0.267    8.000    2.000    1.867    0.533 
#    2.400    0.667    0.000    0.000    0.000    0.000 
#    0.000    0.000    0.000    0.000    0.000    0.000 
#
# Total GULP energy -371832.899663 kJ/mol
# GULP energy per Si atom -12394.429989 kJ/mol
# Density = 2.103808 g / cm^3
# Si number density = 21.086071 Si / 1000 Ang^3
#
#
#
# Elastic Constant Matrix: (Units=GPa)
#
#
# Indices 1 2 3 4 5 6 
#
# 1 116.0310 53.3641 26.2154 0.0009 -16.8907 -0.0003
# 2 53.3641 92.4858 13.6450 0.0027 -7.8120 0.0014
# 3 26.2154 13.6450 59.5707 0.0014 -8.3990 0.0005
# 4 0.0009 0.0027 0.0014 35.9667 0.0023 -2.2554
# 5 -16.8907 -7.8120 -8.3990 0.0023 36.2617 0.0009
# 6 -0.0003 0.0014 0.0005 -2.2554 0.0009 37.3183
#
#
#
# Elastic Compliance Matrix: (Units=1/GPa)
#
#
# Indices 1 2 3 4 5 6 
#
# 1 0.013077 -0.006680 -0.003689 0.000000 0.003798 0.000000
# 2 -0.006680 0.014728 -0.000439 -0.000001 -0.000041 -0.000001
# 3 -0.003689 -0.000439 0.018872 -0.000001 0.002558 0.000000
# 4 0.000000 -0.000001 -0.000001 0.027909 -0.000002 0.001687
# 5 0.003798 -0.000041 0.002558 -0.000002 0.029930 -0.000001
# 6 0.000000 -0.000001 0.000000 0.001687 -0.000001 0.026898
#
#
# Mechanical properties :
#
#
# Convention : Reuss Voigt Hill
#
# Bulk Modulus (GPa) = 39.90592 50.50403 45.20497
# Shear Modulus (GPa) = 30.98158 33.56688 32.27423
#
# Velocity S-wave (km/s) = 3.83729 3.99419 3.91653
# Velocity P-wave (km/s) = 6.21284 6.72865 6.47588
#
# Compressibility (1/GPa) = 0.02505894
#
# Stress axis : x y z
#
# Youngs Moduli (GPa) = 76.46928 67.89571 52.98953
#
# Poissons Ratio (x) = 0.45357 0.19549
# Poissons Ratio (y) = 0.51085 0.02329
# Poissons Ratio (z) = 0.28212 0.02984
#
# Static dielectric constant tensor:
#      x y z
#    x 3.932390 0.000000 -0.113600 
#    y 0.000000 3.521970 0.000000 
#    z -0.113600 0.000000 3.781870 
# 
# 
# High freq. dielectric constant tensor:
#      x y z
#    x 1.817400 0.000000 -0.004110 
#    y 0.000000 1.797960 0.000000 
#    z -0.004110 0.000000 1.833560 
# 
# From -- ./inp_files/253055.got.cif
#   From: 2010.06.25/outbox.cif.g09.slc.cpg/sg15_127_cif.got.tgz:253055.got - 2010.06.28 07:06:18.
