data_PCOD8153384
_publ_section_title
;
Structure prediction by ZEFSAII (Michael W. Deem and Ramdas Pophale) SiO2 
 PCOD8153384
Probable space group: C 2/C
;
_chemical_formula_sum "Si O2"
_cell_formula_units_Z 56
_cell_length_a 9.127054
_cell_length_b 16.744170
_cell_length_c 26.190090
_cell_angle_alpha 90.000000
_cell_angle_beta 141.698462
_cell_angle_gamma 90.000000
_cell_volume 2480.749290
_symmetry_space_group_name_H-M "C 2/C"
_symmetry_group_IT_number 15
_symmetry_cell_setting 'monoclinic'
loop_
_space_group_symop_operation_xyz
x,y,z
-x,y,1/2-z
-x,-y,-z
x,-y,1/2+z
1/2+x,1/2+y,z
1/2-x,1/2+y,1/2-z
1/2-x,1/2-y,-z
1/2+x,1/2-y,1/2+z
loop_
_atom_site_type_symbol
_atom_site_label
_atom_site_fract_x
_atom_site_fract_y
_atom_site_fract_z
Si Si1 0.911091 0.165851 0.485069
Si Si2 0.151836 0.276072 0.241689
Si Si3 0.446717 0.060717 0.176809
Si Si4 0.172819 0.526599 0.590164
Si Si5 0.087827 0.406466 0.383851
Si Si6 0.943418 0.892656 0.789227
Si Si7 0.150411 0.822154 0.414943
O O1 0.729442 0.123189 0.397217
O O2 0.870602 0.142210 0.533372
O O3 0.873422 0.261653 0.471701
O O4 0.174112 0.142922 0.538255
O O5 0.088186 0.194128 0.192060
O O6 0.421643 0.272806 0.334524
O O7 0.000000 0.296019 0.250000
O O8 0.113601 0.346962 0.190944
O O9 0.500000 0.082376 0.250000
O O10 0.701302 0.058811 0.219610
O O11 0.342270 0.971682 0.140576
O O12 0.350100 0.451855 0.638987
O O13 0.315812 0.605477 0.614677
O O14 0.000000 0.500000 0.500000
O O15 0.017737 0.543628 0.597806
O O16 0.000000 0.856850 0.750000
#
# Coordination Sequence:
#
# PCOD8153384 Si02
#       7
#     8   8   8   8   8   8   8
#     4  11  26  47  73 110 143 192 242 313 366 449
#     4  11  23  45  76 107 140 198 243 303 367 452
#     4  12  26  44  70 105 146 190 241 301 368 432
#     4  12  29  46  74 105 149 196 246 310 376 445
#     4  12  26  46  73 106 146 188 250 304 369 440
#     4  11  25  47  71 101 147 192 241 293 373 447
#     4  11  25  47  76 107 148 190 253 303 379 439
#
# _framework density 22.573823999999998
#
# number of rings (size 3 to 8) (size 9 to 14) (size 15 to 20)
#    0.000    0.571    4.286    2.571    6.000    1.714 
#    0.000    0.000    0.000    0.000    0.000    0.000 
#    0.000    0.000    0.000    0.000    0.000    0.000 
#
# Total GULP energy -347027.167584 kJ/mol
# GULP energy per Si atom -12393.827414 kJ/mol
# Density = 2.252245 g / cm^3
# Si number density = 22.573824 Si / 1000 Ang^3
#
#
#
# Elastic Constant Matrix: (Units=GPa)
#
#
# Indices 1 2 3 4 5 6 
#
# 1 73.9106 34.0755 46.5536 0.0000 0.1362 -0.0001
# 2 34.0755 140.1776 53.1903 0.0000 -10.1512 -0.0001
# 3 46.5536 53.1903 140.2671 0.0000 -2.1798 -0.0001
# 4 0.0000 0.0000 0.0000 52.5262 0.0000 1.6839
# 5 0.1362 -10.1512 -2.1798 0.0000 30.7723 -0.0001
# 6 -0.0001 -0.0001 -0.0001 1.6839 -0.0001 31.7581
#
#
#
# Elastic Compliance Matrix: (Units=1/GPa)
#
#
# Indices 1 2 3 4 5 6 
#
# 1 0.017838 -0.002540 -0.004977 0.000000 -0.001269 0.000000
# 2 -0.002540 0.008896 -0.002487 0.000000 0.002769 0.000000
# 3 -0.004977 -0.002487 0.009723 0.000000 -0.000110 0.000000
# 4 0.000000 0.000000 0.000000 0.019071 0.000000 -0.001011
# 5 -0.001269 0.002769 -0.000110 0.000000 0.033408 0.000000
# 6 0.000000 0.000000 0.000000 -0.001011 0.000000 0.031542
#
#
# Mechanical properties :
#
#
# Convention : Reuss Voigt Hill
#
# Bulk Modulus (GPa) = 60.79690 69.11047 64.95369
# Shear Modulus (GPa) = 34.25437 37.71372 35.98404
#
# Velocity S-wave (km/s) = 3.89966 4.09183 3.99690
# Velocity P-wave (km/s) = 6.87513 7.28052 7.08072
#
# Compressibility (1/GPa) = 0.01644821
#
# Stress axis : x y z
#
# Youngs Moduli (GPa) = 56.06066 112.41607 102.85343
#
# Poissons Ratio (x) = 0.28549 0.51189
# Poissons Ratio (y) = 0.14237 0.25583
# Poissons Ratio (z) = 0.27901 0.27962
#
# Static dielectric constant tensor:
#      x y z
#    x 4.028310 0.000000 0.113140 
#    y 0.000000 3.809020 0.000000 
#    z 0.113140 0.000000 4.033100 
# 
# 
# High freq. dielectric constant tensor:
#      x y z
#    x 1.878400 0.000000 0.007670 
#    y 0.000000 1.912380 0.000000 
#    z 0.007670 0.000000 1.895650 
# 
# From -- ./inp_files/289766.got.cif
#   From: 2010.06.25/outbox.cif.g09.slc.cpg/sg15_145_cif.got.tgz:289766.got - 2010.06.28 07:06:18.
