data_PCOD8153764
_publ_section_title
;
Structure prediction by ZEFSAII (Michael W. Deem and Ramdas Pophale) SiO2 
 PCOD8153764
Probable space group: C 2/C
;
_chemical_formula_sum "Si O2"
_cell_formula_units_Z 56
_cell_length_a 17.518608
_cell_length_b 5.324208
_cell_length_c 26.416819
_cell_angle_alpha 90.000000
_cell_angle_beta 105.864109
_cell_angle_gamma 90.000000
_cell_volume 2370.122553
_symmetry_space_group_name_H-M "C 2/C"
_symmetry_group_IT_number 15
_symmetry_cell_setting 'monoclinic'
loop_
_space_group_symop_operation_xyz
x,y,z
-x,y,1/2-z
-x,-y,-z
x,-y,1/2+z
1/2+x,1/2+y,z
1/2-x,1/2+y,1/2-z
1/2-x,1/2-y,-z
1/2+x,1/2-y,1/2+z
loop_
_atom_site_type_symbol
_atom_site_label
_atom_site_fract_x
_atom_site_fract_y
_atom_site_fract_z
Si Si1 0.336303 0.669466 0.430793
Si Si2 0.744060 0.168298 0.113350
Si Si3 0.547041 0.840232 0.968109
Si Si4 0.957951 0.005427 0.882933
Si Si5 0.789274 0.568338 0.276961
Si Si6 0.087545 0.349288 0.384310
Si Si7 0.462639 0.852520 0.795493
O O1 0.294378 0.399988 0.423587
O O2 0.391270 0.665669 0.490541
O O3 0.389536 0.686522 0.388878
O O4 0.275290 0.905143 0.418712
O O5 0.712994 0.151886 0.164879
O O6 0.836654 0.236219 0.130304
O O7 0.469809 0.719201 0.927312
O O8 0.602425 0.973072 0.935500
O O9 0.500000 0.000000 0.000000
O O10 0.044467 0.888325 0.899662
O O11 0.938883 0.108274 0.823861
O O12 0.741078 0.309041 0.260858
O O13 0.878892 0.502755 0.274472
O O14 0.029238 0.476552 0.333243
O O15 0.500000 0.757475 0.750000
#
# Coordination Sequence:
#
# PCOD8153764 Si02
#       7
#     8   8   8   8   8   8   8
#     4  12  25  46  75 103 152 194 247 302 371 437
#     4  12  28  47  71 108 153 193 241 310 374 435
#     4  11  24  44  75 108 142 197 251 307 368 442
#     4  11  24  45  74 105 143 196 255 303 365 453
#     4  12  27  47  74 104 144 190 243 303 376 441
#     4  11  27  45  73 106 150 191 252 305 365 450
#     4  11  26  47  75 107 145 196 248 307 371 445
#
# _framework density 23.627471
#
# number of rings (size 3 to 8) (size 9 to 14) (size 15 to 20)
#    0.000    0.571    2.857    3.857   10.000    1.714 
#    0.000    0.000    0.000    0.000    0.000    0.000 
#    0.000    0.000    0.000    0.000    0.000    0.000 
#
# Total GULP energy -347056.853832 kJ/mol
# GULP energy per Si atom -12394.887637 kJ/mol
# Density = 2.357369 g / cm^3
# Si number density = 23.627471 Si / 1000 Ang^3
#
#
#
# Elastic Constant Matrix: (Units=GPa)
#
#
# Indices 1 2 3 4 5 6 
#
# 1 142.1651 28.9453 24.7096 -0.0008 -5.5502 0.0005
# 2 28.9453 109.9674 35.9244 -0.0021 1.2144 0.0014
# 3 24.7096 35.9244 95.1219 -0.0010 -7.9929 0.0006
# 4 -0.0008 -0.0021 -0.0010 124.4090 0.0000 -64.6612
# 5 -5.5502 1.2144 -7.9929 0.0000 32.2321 0.0000
# 6 0.0005 0.0014 0.0006 -64.6612 0.0000 81.6275
#
#
#
# Elastic Compliance Matrix: (Units=1/GPa)
#
#
# Indices 1 2 3 4 5 6 
#
# 1 0.007624 -0.001598 -0.001289 0.000000 0.001053 0.000000
# 2 -0.001598 0.010770 -0.003789 0.000000 -0.001620 0.000000
# 3 -0.001289 -0.003789 0.012533 0.000000 0.003029 0.000000
# 4 0.000000 0.000000 0.000000 0.013664 0.000000 0.010824
# 5 0.001053 -0.001620 0.003029 0.000000 0.032018 0.000000
# 6 0.000000 0.000000 0.000000 0.010824 0.000000 0.020825
#
#
# Mechanical properties :
#
#
# Convention : Reuss Voigt Hill
#
# Bulk Modulus (GPa) = 56.89103 58.49034 57.69068
# Shear Modulus (GPa) = 42.86611 64.83205 53.84908
#
# Velocity S-wave (km/s) = 4.26402 5.24393 4.77916
# Velocity P-wave (km/s) = 6.95508 7.84054 7.41105
#
# Compressibility (1/GPa) = 0.01757746
#
# Stress axis : x y z
#
# Youngs Moduli (GPa) = 131.15683 92.85369 79.79007
#
# Poissons Ratio (x) = 0.14834 0.10283
# Poissons Ratio (y) = 0.20953 0.30229
# Poissons Ratio (z) = 0.16903 0.35178
#
# Static dielectric constant tensor:
#      x y z
#    x 4.666030 0.000000 0.182670 
#    y 0.000000 4.362900 0.000000 
#    z 0.182670 0.000000 4.400870 
# 
# 
# High freq. dielectric constant tensor:
#      x y z
#    x 1.940690 0.000000 0.003070 
#    y 0.000000 1.939010 0.000000 
#    z 0.003070 0.000000 1.941010 
# 
# From -- ./inp_files/297785.got.cif
#   From: 2010.06.25/outbox.cif.g09.slc.cpg/sg15_149_cif.got.tgz:297785.got - 2010.06.28 07:06:18.
