data_PCOD8153232
_publ_section_title
;
Structure prediction by ZEFSAII (Michael W. Deem and Ramdas Pophale) SiO2 
 PCOD8153232
Probable space group: C 2/C
;
_chemical_formula_sum "Si O2"
_cell_formula_units_Z 60
_cell_length_a 22.272938
_cell_length_b 8.852942
_cell_length_c 19.766981
_cell_angle_alpha 90.000000
_cell_angle_beta 41.712468
_cell_angle_gamma 90.000000
_cell_volume 2593.484028
_symmetry_space_group_name_H-M "C 2/C"
_symmetry_group_IT_number 15
_symmetry_cell_setting 'monoclinic'
loop_
_space_group_symop_operation_xyz
x,y,z
-x,y,1/2-z
-x,-y,-z
x,-y,1/2+z
1/2+x,1/2+y,z
1/2-x,1/2+y,1/2-z
1/2-x,1/2-y,-z
1/2+x,1/2-y,1/2+z
loop_
_atom_site_type_symbol
_atom_site_label
_atom_site_fract_x
_atom_site_fract_y
_atom_site_fract_z
Si Si1 0.346486 0.581538 0.394516
Si Si2 0.763402 0.789179 0.653040
Si Si3 0.718886 0.606797 0.812109
Si Si4 0.401458 0.753679 0.476807
Si Si5 0.603258 0.104741 0.204712
Si Si6 0.500000 0.360076 0.250000
Si Si7 0.660383 0.064001 0.009836
Si Si8 0.097625 0.702830 0.772506
O O1 0.342580 0.692785 0.462359
O O2 0.425001 0.464818 0.347157
O O3 0.257399 0.484943 0.457515
O O4 0.366457 0.677028 0.311075
O O5 0.709428 0.665161 0.742967
O O6 0.701710 0.878350 0.652063
O O7 0.836675 0.704823 0.544858
O O8 0.799285 0.925762 0.670727
O O9 0.820791 0.658235 0.746339
O O10 0.639111 0.681057 0.922012
O O11 0.509663 0.724737 0.383127
O O12 0.385538 0.932003 0.494557
O O13 0.543742 0.253104 0.272275
O O14 0.560974 0.947640 0.265715
O O15 0.601769 0.106954 0.124163
#
# Coordination Sequence:
#
# PCOD8153232 Si02
#       8
#     8   8   8   8   8   4   8   8
#     4  12  22  39  65 102 137 169 215 281 336 403
#     4  11  25  45  68  94 135 181 230 284 334 403
#     4  11  26  46  69  94 136 184 232 280 335 402
#     4  12  23  41  72 101 134 180 226 270 346 413
#     4  11  24  42  65 103 137 174 219 283 341 405
#     4  12  24  34  62  98 148 162 210 278 340 378
#     4  12  23  41  71  99 134 177 224 273 348 407
#     4  11  23  44  67 101 137 175 226 278 335 409
#
# _framework density 23.134903000000001
#
# number of rings (size 3 to 8) (size 9 to 14) (size 15 to 20)
#    0.000    0.533    5.333    4.000    1.867    0.000 
#    0.000    8.000    0.000    0.000    0.000    0.000 
#    0.000    0.000    0.000    0.000    0.000    0.000 
#
# Total GULP energy -371922.477394 kJ/mol
# GULP energy per Si atom -12397.415913 kJ/mol
# Density = 2.308225 g / cm^3
# Si number density = 23.134903 Si / 1000 Ang^3
#
#
#
# Elastic Constant Matrix: (Units=GPa)
#
#
# Indices 1 2 3 4 5 6 
#
# 1 23.6815 7.7896 13.5038 0.0001 -1.3168 -0.0002
# 2 7.7896 112.6426 4.1671 -0.0008 10.1076 0.0009
# 3 13.5038 4.1671 65.7985 0.0001 8.0990 0.0000
# 4 0.0001 -0.0008 0.0001 44.3424 0.0004 0.4430
# 5 -1.3168 10.1076 8.0990 0.0004 32.6159 -0.0004
# 6 -0.0002 0.0009 0.0000 0.4430 -0.0004 41.4929
#
#
#
# Elastic Compliance Matrix: (Units=1/GPa)
#
#
# Indices 1 2 3 4 5 6 
#
# 1 0.049830 -0.003568 -0.010712 0.000000 0.005777 0.000000
# 2 -0.003568 0.009391 0.000530 0.000000 -0.003186 0.000000
# 3 -0.010712 0.000530 0.017986 0.000000 -0.005063 0.000000
# 4 0.000000 0.000000 0.000000 0.022554 0.000000 -0.000241
# 5 0.005777 -0.003186 -0.005063 0.000000 0.033138 0.000000
# 6 0.000000 0.000000 0.000000 -0.000241 0.000000 0.024103
#
#
# Mechanical properties :
#
#
# Convention : Reuss Voigt Hill
#
# Bulk Modulus (GPa) = 20.11817 28.11596 24.11706
# Shear Modulus (GPa) = 24.86690 35.46772 30.16731
#
# Velocity S-wave (km/s) = 3.28207 3.91971 3.61498
# Velocity P-wave (km/s) = 4.80391 5.71532 5.27932
#
# Compressibility (1/GPa) = 0.04970632
#
# Stress axis : x y z
#
# Youngs Moduli (GPa) = 20.06820 106.48894 55.59913
#
# Poissons Ratio (x) = 0.37996 0.59556
# Poissons Ratio (y) = 0.07160 -0.02945
# Poissons Ratio (z) = 0.21497 -0.05641
#
# Static dielectric constant tensor:
#      x y z
#    x 3.914280 0.000000 -0.123000 
#    y 0.000000 4.542350 0.000000 
#    z -0.123000 0.000000 4.135800 
# 
# 
# High freq. dielectric constant tensor:
#      x y z
#    x 1.887230 0.000000 -0.011870 
#    y 0.000000 1.939520 0.000000 
#    z -0.011870 0.000000 1.911070 
# 
# From -- ./inp_files/255169.got.cif
#   From: 2010.06.25/outbox.cif.g09.slc.cpg/sg15_128_cif.got.tgz:255169.got - 2010.06.28 07:06:18.
