data_PCOD8153135
_publ_section_title
;
Structure prediction by ZEFSAII (Michael W. Deem and Ramdas Pophale) SiO2 
 PCOD8153135
Probable space group: C 2/C
;
_chemical_formula_sum "Si O2"
_cell_formula_units_Z 32
_cell_length_a 17.811732
_cell_length_b 7.881226
_cell_length_c 9.378158
_cell_angle_alpha 90.000000
_cell_angle_beta 75.967684
_cell_angle_gamma 90.000000
_cell_volume 1277.204531
_symmetry_space_group_name_H-M "C 2/C"
_symmetry_group_IT_number 15
_symmetry_cell_setting 'monoclinic'
loop_
_space_group_symop_operation_xyz
x,y,z
-x,y,1/2-z
-x,-y,-z
x,-y,1/2+z
1/2+x,1/2+y,z
1/2-x,1/2+y,1/2-z
1/2-x,1/2-y,-z
1/2+x,1/2-y,1/2+z
loop_
_atom_site_type_symbol
_atom_site_label
_atom_site_fract_x
_atom_site_fract_y
_atom_site_fract_z
Si Si1 0.166898 0.359020 0.350531
Si Si2 0.570810 0.617874 0.012728
Si Si3 0.573572 0.977409 0.135042
Si Si4 0.332130 0.495391 0.269045
O O1 0.143225 0.442077 0.211367
O O2 0.103662 0.393168 0.502125
O O3 0.248737 0.435700 0.361407
O O4 0.325350 0.340662 0.671621
O O5 0.542855 0.803187 0.075785
O O6 0.614584 0.525072 0.120338
O O7 0.500000 0.500000 0.000000
O O8 0.628316 0.645888 0.851506
O O9 0.500000 0.059712 0.250000
#
# Coordination Sequence:
#
# PCOD8153135 Si02
#       4
#     8   8   8   8
#     4  11  24  43  67  99 135 172 220 272 327 391
#     4  11  23  43  67  95 131 172 223 273 326 391
#     4  11  24  44  66  94 133 174 219 271 327 391
#     4  11  24  42  68 100 133 173 220 272 329 391
#
# _framework density 25.054718999999999
#
# number of rings (size 3 to 8) (size 9 to 14) (size 15 to 20)
#    0.000    1.000    0.000    7.500    0.000   10.000 
#    0.000    3.750    0.000    0.000    0.000    0.000 
#    0.000    0.000    0.000    0.000    0.000    0.000 
#
# Total GULP energy -198519.929363 kJ/mol
# GULP energy per Si atom -12407.495585 kJ/mol
# Density = 2.499769 g / cm^3
# Si number density = 25.054719 Si / 1000 Ang^3
#
#
#
# Elastic Constant Matrix: (Units=GPa)
#
#
# Indices 1 2 3 4 5 6 
#
# 1 148.5845 59.4111 55.0209 0.0000 -15.6370 0.0000
# 2 59.4111 45.2633 20.7581 0.0000 -5.0944 0.0000
# 3 55.0209 20.7581 128.0860 0.0000 -28.5365 0.0000
# 4 0.0000 0.0000 0.0000 34.3726 0.0000 -0.0701
# 5 -15.6370 -5.0944 -28.5365 0.0000 41.4895 0.0000
# 6 0.0000 0.0000 0.0000 -0.0701 0.0000 29.2886
#
#
#
# Elastic Compliance Matrix: (Units=1/GPa)
#
#
# Indices 1 2 3 4 5 6 
#
# 1 0.015656 -0.018854 -0.003391 0.000000 0.001254 0.000000
# 2 -0.018854 0.046575 0.000286 0.000000 -0.001191 0.000000
# 3 -0.003391 0.000286 0.010558 0.000000 0.006019 0.000000
# 4 0.000000 0.000000 0.000000 0.029093 0.000000 0.000070
# 5 0.001254 -0.001191 0.006019 0.000000 0.028569 0.000000
# 6 0.000000 0.000000 0.000000 0.000070 0.000000 0.034143
#
#
# Mechanical properties :
#
#
# Convention : Reuss Voigt Hill
#
# Bulk Modulus (GPa) = 34.63555 65.81269 50.22412
# Shear Modulus (GPa) = 22.92138 33.47972 28.20055
#
# Velocity S-wave (km/s) = 3.02793 3.65946 3.35857
# Velocity P-wave (km/s) = 5.10671 6.64681 5.92700
#
# Compressibility (1/GPa) = 0.02887207
#
# Stress axis : x y z
#
# Youngs Moduli (GPa) = 63.87186 21.47067 94.71070
#
# Poissons Ratio (x) = 0.40481 0.32112
# Poissons Ratio (y) = 1.20424 -0.02705
# Poissons Ratio (z) = 0.21656 -0.00613
#
# Static dielectric constant tensor:
#      x y z
#    x 4.582520 0.000000 -0.019330 
#    y 0.000000 4.388100 0.000000 
#    z -0.019330 0.000000 4.770730 
# 
# 
# High freq. dielectric constant tensor:
#      x y z
#    x 2.010380 0.000000 0.005020 
#    y 0.000000 1.987260 0.000000 
#    z 0.005020 0.000000 2.019250 
# 
# From -- ./inp_files/36565.got.cif
#   From: 2010.06.25/outbox.cif.g09.slc.cpg/sg15_19_cif.got.tgz:36565.got - 2010.06.28 07:06:18.
