data_PCOD8153460
_publ_section_title
;
Structure prediction by ZEFSAII (Michael W. Deem and Ramdas Pophale) SiO2 
 PCOD8153460
Probable space group: C 2/C
;
_chemical_formula_sum "Si O2"
_cell_formula_units_Z 56
_cell_length_a 13.103136
_cell_length_b 14.084690
_cell_length_c 19.555876
_cell_angle_alpha 90.000000
_cell_angle_beta 136.698584
_cell_angle_gamma 90.000000
_cell_volume 2475.257064
_symmetry_space_group_name_H-M "C 2/C"
_symmetry_group_IT_number 15
_symmetry_cell_setting 'monoclinic'
loop_
_space_group_symop_operation_xyz
x,y,z
-x,y,1/2-z
-x,-y,-z
x,-y,1/2+z
1/2+x,1/2+y,z
1/2-x,1/2+y,1/2-z
1/2-x,1/2-y,-z
1/2+x,1/2-y,1/2+z
loop_
_atom_site_type_symbol
_atom_site_label
_atom_site_fract_x
_atom_site_fract_y
_atom_site_fract_z
Si Si1 0.396606 0.788015 0.900870
Si Si2 0.594617 0.115708 0.964120
Si Si3 0.334087 0.018629 0.306798
Si Si4 0.675668 0.490401 0.585371
Si Si5 0.354789 0.338023 0.037163
Si Si6 0.157874 0.990477 0.352045
Si Si7 0.155671 0.674731 0.858883
O O1 0.364530 0.869571 0.830572
O O2 0.484061 0.701490 0.908511
O O3 0.238890 0.753956 0.855305
O O4 0.484098 0.836019 0.007868
O O5 0.624284 0.199997 0.923443
O O6 0.490790 0.035933 0.878315
O O7 0.751823 0.069507 0.062514
O O8 0.236988 0.013848 0.191711
O O9 0.248902 0.966964 0.327501
O O10 0.500000 0.500000 0.500000
O O11 0.717396 0.399199 0.559456
O O12 0.744279 0.581577 0.583445
O O13 0.370831 0.397858 0.114845
O O14 0.250000 0.250000 0.000000
O O15 0.000000 0.032749 0.250000
O O16 0.000000 0.648999 0.750000
#
# Coordination Sequence:
#
# PCOD8153460 Si02
#       7
#     8   8   8   8   8   8   8
#     4  11  26  43  68 109 142 182 240 298 360 425
#     4  11  23  47  71  98 140 189 236 287 359 430
#     4  11  25  47  73  99 141 189 236 292 363 431
#     4  12  25  48  72 101 145 192 239 297 369 432
#     4  12  25  44  72 105 142 183 241 297 358 425
#     4  11  24  41  71 100 134 180 233 283 354 421
#     4  12  25  44  74 105 143 189 244 294 364 437
#
# _framework density 22.623913000000002
#
# number of rings (size 3 to 8) (size 9 to 14) (size 15 to 20)
#    0.000    0.571    4.286    4.714    0.000    4.571 
#    0.000    0.000    0.000    0.000    0.000    0.000 
#    0.000    0.000    0.000    0.000    0.000    0.000 
#
# Total GULP energy -347094.655873 kJ/mol
# GULP energy per Si atom -12396.237710 kJ/mol
# Density = 2.257242 g / cm^3
# Si number density = 22.623913 Si / 1000 Ang^3
#
#
#
# Elastic Constant Matrix: (Units=GPa)
#
#
# Indices 1 2 3 4 5 6 
#
# 1 86.7605 31.1208 49.2175 0.0000 -9.7462 0.0000
# 2 31.1208 97.7346 33.9704 0.0000 -3.3976 0.0000
# 3 49.2175 33.9704 157.4992 0.0000 -4.6962 0.0000
# 4 0.0000 0.0000 0.0000 16.4472 0.0000 -1.0156
# 5 -9.7462 -3.3976 -4.6962 0.0000 49.0253 0.0000
# 6 0.0000 0.0000 0.0000 -1.0156 0.0000 51.8244
#
#
#
# Elastic Compliance Matrix: (Units=1/GPa)
#
#
# Indices 1 2 3 4 5 6 
#
# 1 0.015266 -0.003399 -0.003965 0.000000 0.002420 0.000000
# 2 -0.003399 0.011832 -0.001490 0.000000 0.000002 0.000000
# 3 -0.003965 -0.001490 0.007906 0.000000 -0.000134 0.000000
# 4 0.000000 0.000000 0.000000 0.060874 0.000000 0.001193
# 5 0.002420 0.000002 -0.000134 0.000000 0.020866 0.000000
# 6 0.000000 0.000000 0.000000 0.001193 0.000000 0.019319
#
#
# Mechanical properties :
#
#
# Convention : Reuss Voigt Hill
#
# Bulk Modulus (GPa) = 57.81682 63.40132 60.60907
# Shear Modulus (GPa) = 31.34072 38.63843 34.98958
#
# Velocity S-wave (km/s) = 3.72599 4.13711 3.93692
# Velocity P-wave (km/s) = 6.64242 7.13483 6.89302
#
# Compressibility (1/GPa) = 0.01729601
#
# Stress axis : x y z
#
# Youngs Moduli (GPa) = 65.50323 84.51720 126.49017
#
# Poissons Ratio (x) = 0.28725 0.50159
# Poissons Ratio (y) = 0.22263 0.18845
# Poissons Ratio (z) = 0.25975 0.12592
#
# Static dielectric constant tensor:
#      x y z
#    x 4.126820 0.000000 -0.077980 
#    y 0.000000 4.217190 0.000000 
#    z -0.077980 0.000000 4.149160 
# 
# 
# High freq. dielectric constant tensor:
#      x y z
#    x 1.912050 0.000000 -0.009510 
#    y 0.000000 1.888530 0.000000 
#    z -0.009510 0.000000 1.895500 
# 
# From -- ./inp_files/244576.got.cif
#   From: 2010.06.25/outbox.cif.g09.slc.cpg/sg15_123_cif.got.tgz:244576.got - 2010.06.28 07:06:18.
