data_PCOD8153647
_publ_section_title
;
Structure prediction by ZEFSAII (Michael W. Deem and Ramdas Pophale) SiO2 
 PCOD8153647
Probable space group: C 2/C
;
_chemical_formula_sum "Si O2"
_cell_formula_units_Z 40
_cell_length_a 22.742385
_cell_length_b 10.996329
_cell_length_c 12.094604
_cell_angle_alpha 90.000000
_cell_angle_beta 33.896894
_cell_angle_gamma 90.000000
_cell_volume 1686.848652
_symmetry_space_group_name_H-M "C 2/C"
_symmetry_group_IT_number 15
_symmetry_cell_setting 'monoclinic'
loop_
_space_group_symop_operation_xyz
x,y,z
-x,y,1/2-z
-x,-y,-z
x,-y,1/2+z
1/2+x,1/2+y,z
1/2-x,1/2+y,1/2-z
1/2-x,1/2-y,-z
1/2+x,1/2-y,1/2+z
loop_
_atom_site_type_symbol
_atom_site_label
_atom_site_fract_x
_atom_site_fract_y
_atom_site_fract_z
Si Si1 0.192995 0.807714 0.724050
Si Si2 0.500000 0.973846 0.750000
Si Si3 0.972902 0.728449 0.123929
Si Si4 0.197977 0.076109 0.999608
Si Si5 0.500000 0.560609 0.750000
Si Si6 0.338710 0.899201 0.665061
O O1 0.178367 0.922787 0.663334
O O2 0.290511 0.720133 0.540633
O O3 0.225503 0.858127 0.793464
O O4 0.090333 0.722606 0.892226
O O5 0.554525 0.884574 0.753649
O O6 0.585863 0.055901 0.552398
O O7 0.967147 0.857909 0.195243
O O8 0.891627 0.713402 0.148972
O O9 0.306609 0.006211 0.800179
O O10 0.100271 0.027142 0.079397
#
# Coordination Sequence:
#
# PCOD8153647 Si02
#       6
#     8   4   8   8   4   8
#     4  11  26  45  70 107 139 185 242 280 356 430
#     4  11  24  43  72 100 142 189 232 287 354 416
#     4  11  25  46  71 107 138 186 246 282 351 429
#     4  11  26  46  70 103 146 185 232 296 354 415
#     4  11  26  49  72 104 144 187 232 297 358 414
#     4  12  25  45  71 102 144 190 229 298 345 417
#
# _framework density 23.712857
#
# number of rings (size 3 to 8) (size 9 to 14) (size 15 to 20)
#    0.000    0.800    4.000    1.800    8.400    3.200 
#    0.000    0.000    0.000    0.000    0.000    0.000 
#    0.000    0.000    0.000    0.000    0.000    0.000 
#
# Total GULP energy -247841.292510 kJ/mol
# GULP energy per Si atom -12392.064626 kJ/mol
# Density = 2.365889 g / cm^3
# Si number density = 23.712857 Si / 1000 Ang^3
#
#
#
# Elastic Constant Matrix: (Units=GPa)
#
#
# Indices 1 2 3 4 5 6 
#
# 1 138.8347 50.1104 48.3639 0.0000 2.5256 0.0000
# 2 50.1104 93.3423 39.5578 0.0000 -2.9118 0.0000
# 3 48.3639 39.5578 108.4793 0.0000 3.1939 0.0000
# 4 0.0000 0.0000 0.0000 25.7690 0.0000 -4.0704
# 5 2.5256 -2.9118 3.1939 0.0000 30.7268 0.0000
# 6 0.0000 0.0000 0.0000 -4.0704 0.0000 24.9988
#
#
#
# Elastic Compliance Matrix: (Units=1/GPa)
#
#
# Indices 1 2 3 4 5 6 
#
# 1 0.009647 -0.004015 -0.002811 0.000000 -0.000881 0.000000
# 2 -0.004015 0.014430 -0.003533 0.000000 0.002065 0.000000
# 3 -0.002811 -0.003533 0.011799 0.000000 -0.001330 0.000000
# 4 0.000000 0.000000 0.000000 0.039831 0.000000 0.006485
# 5 -0.000881 0.002065 -0.001330 0.000000 0.032951 0.000000
# 6 0.000000 0.000000 0.000000 0.006485 0.000000 0.041058
#
#
# Mechanical properties :
#
#
# Convention : Reuss Voigt Hill
#
# Bulk Modulus (GPa) = 65.96910 68.52450 67.24680
# Shear Modulus (GPa) = 28.49201 29.80719 29.14960
#
# Velocity S-wave (km/s) = 3.47009 3.54927 3.50990
# Velocity P-wave (km/s) = 6.62840 6.76438 6.69673
#
# Compressibility (1/GPa) = 0.01515861
#
# Stress axis : x y z
#
# Youngs Moduli (GPa) = 103.65549 69.29780 84.75309
#
# Poissons Ratio (x) = 0.27826 0.23824
# Poissons Ratio (y) = 0.41622 0.29941
# Poissons Ratio (z) = 0.29137 0.24481
#
# Static dielectric constant tensor:
#      x y z
#    x 4.276970 0.000000 0.228360 
#    y 0.000000 4.034450 0.000000 
#    z 0.228360 0.000000 4.151830 
# 
# 
# High freq. dielectric constant tensor:
#      x y z
#    x 1.936500 0.000000 0.006680 
#    y 0.000000 1.935250 0.000000 
#    z 0.006680 0.000000 1.940200 
# 
# From -- ./inp_files/111415.got.cif
#   From: 2010.06.25/outbox.cif.g09.slc.cpg/sg15_56_cif.got.tgz:111415.got - 2010.06.28 07:06:18.
