data_PCOD8153774
_publ_section_title
;
Structure prediction by ZEFSAII (Michael W. Deem and Ramdas Pophale) SiO2 
 PCOD8153774
Probable space group: C 2/C
;
_chemical_formula_sum "Si O2"
_cell_formula_units_Z 56
_cell_length_a 22.244832
_cell_length_b 21.395692
_cell_length_c 18.257988
_cell_angle_alpha 90.000000
_cell_angle_beta 161.967592
_cell_angle_gamma 90.000000
_cell_volume 2689.961414
_symmetry_space_group_name_H-M "C 2/C"
_symmetry_group_IT_number 15
_symmetry_cell_setting 'monoclinic'
loop_
_space_group_symop_operation_xyz
x,y,z
-x,y,1/2-z
-x,-y,-z
x,-y,1/2+z
1/2+x,1/2+y,z
1/2-x,1/2+y,1/2-z
1/2-x,1/2-y,-z
1/2+x,1/2-y,1/2+z
loop_
_atom_site_type_symbol
_atom_site_label
_atom_site_fract_x
_atom_site_fract_y
_atom_site_fract_z
Si Si1 0.284200 0.677805 0.526862
Si Si2 0.106590 0.132301 0.448306
Si Si3 0.928900 0.188365 0.386410
Si Si4 0.986897 0.326827 0.041659
Si Si5 0.590142 0.486794 0.432926
Si Si6 0.838598 0.895908 0.232327
Si Si7 0.554437 0.098140 0.150091
O O1 0.500000 0.663277 0.750000
O O2 0.250000 0.750000 0.500000
O O3 0.246063 0.641807 0.557904
O O4 0.135099 0.654429 0.293018
O O5 0.329748 0.152725 0.696893
O O6 0.000000 0.149374 0.250000
O O7 0.008171 0.170794 0.399022
O O8 0.088491 0.059771 0.447166
O O9 0.973022 0.261042 0.452108
O O10 0.028735 0.150105 0.566847
O O11 0.698559 0.176560 0.120289
O O12 0.952698 0.378991 0.940998
O O13 0.500000 0.470210 0.250000
O O14 0.465409 0.454270 0.352151
O O15 0.810955 0.462820 0.688975
O O16 0.660905 0.922122 0.074556
#
# Coordination Sequence:
#
# PCOD8153774 Si02
#       7
#     8   8   8   8   8   8   8
#     4  12  22  36  58  99 139 182 225 260 310 392
#     4  11  28  49  70  99 129 172 225 285 343 402
#     4  12  24  46  71 102 135 169 219 283 343 398
#     4  12  24  46  71 102 135 169 219 283 343 398
#     4  11  24  45  66  96 142 179 228 271 317 394
#     4  12  22  40  66  98 139 182 218 264 325 386
#     4  12  22  40  66  98 139 182 218 264 325 386
#
# _framework density 20.818142000000002
#
# number of rings (size 3 to 8) (size 9 to 14) (size 15 to 20)
#    0.000    0.286    7.143    2.143    0.000    3.429 
#    0.000    2.857    0.000    0.000    0.000    0.000 
#    0.000    0.000    0.000    0.000    0.000    0.000 
#
# Total GULP energy -347412.341112 kJ/mol
# GULP energy per Si atom -12407.583611 kJ/mol
# Density = 2.077076 g / cm^3
# Si number density = 20.818142 Si / 1000 Ang^3
#
#
#
# Elastic Constant Matrix: (Units=GPa)
#
#
# Indices 1 2 3 4 5 6 
#
# 1 51.2004 5.4698 22.2434 0.0000 -2.5128 0.0003
# 2 5.4698 54.2938 19.4624 -0.0006 -4.7874 -0.0005
# 3 22.2434 19.4624 134.6868 -0.0029 5.6809 -0.0009
# 4 0.0000 -0.0006 -0.0029 27.5551 -0.0012 -0.8283
# 5 -2.5128 -4.7874 5.6809 -0.0012 46.3095 -0.0003
# 6 0.0003 -0.0005 -0.0009 -0.8283 -0.0003 20.2348
#
#
#
# Elastic Compliance Matrix: (Units=1/GPa)
#
#
# Indices 1 2 3 4 5 6 
#
# 1 0.021185 -0.000765 -0.003451 0.000000 0.001494 0.000000
# 2 -0.000765 0.019713 -0.002821 0.000000 0.002342 0.000000
# 3 -0.003451 -0.002821 0.008466 0.000001 -0.001517 0.000000
# 4 0.000000 0.000000 0.000001 0.036336 0.000001 0.001487
# 5 0.001494 0.002342 -0.001517 0.000001 0.022103 0.000000
# 6 0.000000 0.000000 0.000000 0.001487 0.000000 0.049481
#
#
# Mechanical properties :
#
#
# Convention : Reuss Voigt Hill
#
# Bulk Modulus (GPa) = 28.33687 37.17024 32.75356
# Shear Modulus (GPa) = 27.30408 31.68692 29.49550
#
# Velocity S-wave (km/s) = 3.62546 3.90562 3.76815
# Velocity P-wave (km/s) = 5.58270 6.18320 5.89061
#
# Compressibility (1/GPa) = 0.03528971
#
# Stress axis : x y z
#
# Youngs Moduli (GPa) = 47.20210 50.72743 118.11640
#
# Poissons Ratio (x) = 0.03883 0.40764
# Poissons Ratio (y) = 0.03613 0.33320
# Poissons Ratio (z) = 0.16290 0.14310
#
# Static dielectric constant tensor:
#      x y z
#    x 3.847020 0.000030 0.076880 
#    y 0.000030 1.522180 -0.000080 
#    z 0.076880 -0.000080 4.037430 
# 
# 
# High freq. dielectric constant tensor:
#      x y z
#    x 1.815270 0.000000 0.007380 
#    y 0.000000 1.815520 0.000000 
#    z 0.007380 0.000000 1.831110 
# 
# From -- ./inp_files/216659.got.cif
#   From: 2010.06.25/outbox.cif.g09.slc.cpg/sg15_109_cif.got.tgz:216659.got - 2010.06.28 07:06:18.
