data_PCOD8153292
_publ_section_title
;
Structure prediction by ZEFSAII (Michael W. Deem and Ramdas Pophale) SiO2 
 PCOD8153292
Probable space group: C 2/C
;
_chemical_formula_sum "Si O2"
_cell_formula_units_Z 56
_cell_length_a 14.695268
_cell_length_b 14.428997
_cell_length_c 11.698881
_cell_angle_alpha 90.000000
_cell_angle_beta 84.738804
_cell_angle_gamma 90.000000
_cell_volume 2470.156344
_symmetry_space_group_name_H-M "C 2/C"
_symmetry_group_IT_number 15
_symmetry_cell_setting 'monoclinic'
loop_
_space_group_symop_operation_xyz
x,y,z
-x,y,1/2-z
-x,-y,-z
x,-y,1/2+z
1/2+x,1/2+y,z
1/2-x,1/2+y,1/2-z
1/2-x,1/2-y,-z
1/2+x,1/2-y,1/2+z
loop_
_atom_site_type_symbol
_atom_site_label
_atom_site_fract_x
_atom_site_fract_y
_atom_site_fract_z
Si Si1 0.018136 0.142044 0.051887
Si Si2 0.928382 0.957754 0.358036
Si Si3 0.939497 0.310920 0.153505
Si Si4 0.257640 0.082090 0.728791
Si Si5 0.686515 0.719714 0.904804
Si Si6 0.521323 0.908697 0.567778
Si Si7 0.148128 0.389734 0.753144
O O1 0.952507 0.199536 0.147937
O O2 0.074093 0.068652 0.123119
O O3 0.086626 0.204980 0.968589
O O4 0.951800 0.088952 0.974690
O O5 0.829466 0.915609 0.343169
O O6 0.000000 0.930464 0.250000
O O7 0.837869 0.351929 0.170471
O O8 0.000000 0.353936 0.250000
O O9 0.984771 0.330510 0.026341
O O10 0.227456 0.122602 0.854700
O O11 0.283981 0.974908 0.735660
O O12 0.689900 0.793026 0.797071
O O13 0.750000 0.750000 0.000000
O O14 0.618875 0.894783 0.622339
O O15 0.443027 0.903486 0.667424
O O16 0.500000 0.000000 0.500000
#
# Coordination Sequence:
#
# PCOD8153292 Si02
#       7
#     8   8   8   8   8   8   8
#     4  11  25  46  77 101 148 204 249 312 374 461
#     4  11  25  49  72 102 152 202 252 308 385 450
#     4  12  25  45  74 111 151 188 254 320 383 454
#     4  12  27  45  74 112 153 192 264 315 378 467
#     4  12  26  46  75 109 148 201 252 311 389 461
#     4  11  23  44  73 103 145 190 236 305 396 448
#     4  11  26  44  74 109 147 198 245 311 387 459
#
# _framework density 22.670629999999999
#
# number of rings (size 3 to 8) (size 9 to 14) (size 15 to 20)
#    0.000    0.571    4.286    3.000    4.000    2.857 
#    0.000    0.000    0.000    0.000    0.000    0.000 
#    0.000    0.000    0.000    0.000    0.000    0.000 
#
# Total GULP energy -346932.913029 kJ/mol
# GULP energy per Si atom -12390.461180 kJ/mol
# Density = 2.261903 g / cm^3
# Si number density = 22.670630 Si / 1000 Ang^3
#
#
#
# Elastic Constant Matrix: (Units=GPa)
#
#
# Indices 1 2 3 4 5 6 
#
# 1 126.6419 64.4289 45.6219 0.0000 12.4663 0.0000
# 2 64.4289 99.0293 30.1467 0.0000 8.6624 0.0000
# 3 45.6219 30.1467 102.1040 0.0000 26.7397 0.0000
# 4 0.0000 0.0000 0.0000 50.4809 0.0000 -9.3544
# 5 12.4663 8.6624 26.7397 0.0000 38.3520 0.0000
# 6 0.0000 0.0000 0.0000 -9.3544 0.0000 32.0715
#
#
#
# Elastic Compliance Matrix: (Units=1/GPa)
#
#
# Indices 1 2 3 4 5 6 
#
# 1 0.012912 -0.007300 -0.003605 0.000000 -0.000035 0.000000
# 2 -0.007300 0.015225 -0.001167 0.000000 -0.000252 0.000000
# 3 -0.003605 -0.001167 0.013914 0.000000 -0.008266 0.000000
# 4 0.000000 0.000000 0.000000 0.020941 0.000000 0.006108
# 5 -0.000035 -0.000252 -0.008266 0.000000 0.031905 0.000000
# 6 0.000000 0.000000 0.000000 0.006108 0.000000 0.032962
#
#
# Mechanical properties :
#
#
# Convention : Reuss Voigt Hill
#
# Bulk Modulus (GPa) = 55.84656 67.57447 61.71052
# Shear Modulus (GPa) = 31.65076 36.68607 34.16841
#
# Velocity S-wave (km/s) = 3.74051 4.02708 3.88644
# Velocity P-wave (km/s) = 6.58351 7.17599 6.88613
#
# Compressibility (1/GPa) = 0.01790621
#
# Stress axis : x y z
#
# Youngs Moduli (GPa) = 77.44475 65.68096 71.87013
#
# Poissons Ratio (x) = 0.47950 0.25908
# Poissons Ratio (y) = 0.56538 0.08390
# Poissons Ratio (z) = 0.27918 0.07667
#
# Static dielectric constant tensor:
#      x y z
#    x 3.983610 0.000000 0.168230 
#    y 0.000000 4.763400 0.000000 
#    z 0.168230 0.000000 4.255340 
# 
# 
# High freq. dielectric constant tensor:
#      x y z
#    x 1.888290 0.000000 0.009150 
#    y 0.000000 1.906260 0.000000 
#    z 0.009150 0.000000 1.905180 
# 
# From -- ./inp_files/97047.got.cif
#   From: 2010.06.25/outbox.cif.g09.slc.cpg/sg15_49_cif.got.tgz:97047.got - 2010.06.28 07:06:18.
