data_PCOD8153864
_publ_section_title
;
Structure prediction by ZEFSAII (Michael W. Deem and Ramdas Pophale) SiO2 
 PCOD8153864
Probable space group: C 2/C
;
_chemical_formula_sum "Si O2"
_cell_formula_units_Z 48
_cell_length_a 9.498922
_cell_length_b 14.734854
_cell_length_c 16.966148
_cell_angle_alpha 90.000000
_cell_angle_beta 89.811224
_cell_angle_gamma 90.000000
_cell_volume 2374.657898
_symmetry_space_group_name_H-M "C 2/C"
_symmetry_group_IT_number 15
_symmetry_cell_setting 'monoclinic'
loop_
_space_group_symop_operation_xyz
x,y,z
-x,y,1/2-z
-x,-y,-z
x,-y,1/2+z
1/2+x,1/2+y,z
1/2-x,1/2+y,1/2-z
1/2-x,1/2-y,-z
1/2+x,1/2-y,1/2+z
loop_
_atom_site_type_symbol
_atom_site_label
_atom_site_fract_x
_atom_site_fract_y
_atom_site_fract_z
Si Si1 0.332526 0.247978 0.255984
Si Si2 0.725207 0.566140 0.818440
Si Si3 0.237442 0.435905 0.822661
Si Si4 0.513493 0.455656 0.915358
Si Si5 0.252814 0.306602 0.579567
Si Si6 0.455036 0.030358 0.414738
O O1 0.500000 0.242479 0.250000
O O2 0.279867 0.327017 0.198163
O O3 0.261859 0.155502 0.227379
O O4 0.273752 0.260266 0.345615
O O5 0.735771 0.519181 0.734484
O O6 0.581901 0.531536 0.858999
O O7 0.858079 0.546138 0.874396
O O8 0.357809 0.430554 0.887844
O O9 0.088911 0.452097 0.861989
O O10 0.601966 0.362437 0.915173
O O11 0.500000 0.500000 0.000000
O O12 0.250000 0.250000 0.500000
O O13 0.124079 0.375359 0.578123
O O14 0.500000 0.000000 0.500000
#
# Coordination Sequence:
#
# PCOD8153864 Si02
#       6
#     8   8   8   8   8   8
#     4  12  24  44  72 101 137 180 229 288 337 405
#     4  11  25  43  70 100 131 181 226 272 349 398
#     4  12  22  46  69  98 135 174 228 281 329 406
#     4  11  25  44  68  99 140 178 223 281 343 409
#     4  11  26  45  65 101 139 177 226 280 342 404
#     4  11  24  46  68  98 139 175 221 283 339 405
#
# _framework density 20.213438
#
# number of rings (size 3 to 8) (size 9 to 14) (size 15 to 20)
#    0.000    0.667    5.000    4.000    7.000    1.333 
#    3.000    2.500    0.000    0.000    0.000    0.000 
#    0.000    0.000    0.000    0.000    0.000    0.000 
#
# Total GULP energy -297698.819264 kJ/mol
# GULP energy per Si atom -12404.117469 kJ/mol
# Density = 2.016743 g / cm^3
# Si number density = 20.213438 Si / 1000 Ang^3
#
#
#
# Elastic Constant Matrix: (Units=GPa)
#
#
# Indices 1 2 3 4 5 6 
#
# 1 123.1672 26.2767 38.8211 0.0000 10.1042 0.0000
# 2 26.2767 59.8117 22.4875 0.0000 7.9021 0.0000
# 3 38.8211 22.4875 117.5524 0.0000 10.3639 0.0000
# 4 0.0000 0.0000 0.0000 49.5388 0.0000 3.0481
# 5 10.1042 7.9021 10.3639 0.0000 33.6250 0.0000
# 6 0.0000 0.0000 0.0000 3.0481 0.0000 9.3251
#
#
#
# Elastic Compliance Matrix: (Units=1/GPa)
#
#
# Indices 1 2 3 4 5 6 
#
# 1 0.009684 -0.003138 -0.002473 0.000000 -0.001410 0.000000
# 2 -0.003138 0.019386 -0.002419 0.000000 -0.002867 0.000000
# 3 -0.002473 -0.002419 0.009941 0.000000 -0.001752 0.000000
# 4 0.000000 0.000000 0.000000 0.020601 0.000000 -0.006734
# 5 -0.001410 -0.002867 -0.001752 0.000000 0.031377 0.000000
# 6 0.000000 0.000000 0.000000 -0.006734 0.000000 0.109439
#
#
# Mechanical properties :
#
#
# Convention : Reuss Voigt Hill
#
# Bulk Modulus (GPa) = 43.57451 52.85575 48.21513
# Shear Modulus (GPa) = 22.30758 32.69418 27.50088
#
# Velocity S-wave (km/s) = 3.32565 4.02611 3.69253
# Velocity P-wave (km/s) = 6.02915 6.91508 6.48726
#
# Compressibility (1/GPa) = 0.02294920
#
# Stress axis : x y z
#
# Youngs Moduli (GPa) = 103.26518 51.58304 100.59374
#
# Poissons Ratio (x) = 0.16187 0.24881
# Poissons Ratio (y) = 0.32406 0.24338
# Poissons Ratio (z) = 0.25542 0.12480
#
# Static dielectric constant tensor:
#      x y z
#    x 3.823980 0.000000 0.088990 
#    y 0.000000 3.565890 0.000000 
#    z 0.088990 0.000000 3.805840 
# 
# 
# High freq. dielectric constant tensor:
#      x y z
#    x 1.803410 0.000000 -0.005230 
#    y 0.000000 1.786870 0.000000 
#    z -0.005230 0.000000 1.809370 
# 
# From -- ./inp_files/182432.got.cif
#   From: 2010.06.25/outbox.cif.g09.slc.cpg/sg15_92_cif.got.tgz:182432.got - 2010.06.28 07:06:18.
