data_PCOD8153778
_publ_section_title
;
Structure prediction by ZEFSAII (Michael W. Deem and Ramdas Pophale) SiO2 
 PCOD8153778
Probable space group: C 2/C
;
_chemical_formula_sum "Si O2"
_cell_formula_units_Z 64
_cell_length_a 13.954185
_cell_length_b 16.414762
_cell_length_c 17.184328
_cell_angle_alpha 90.000000
_cell_angle_beta 44.969017
_cell_angle_gamma 90.000000
_cell_volume 2781.772748
_symmetry_space_group_name_H-M "C 2/C"
_symmetry_group_IT_number 15
_symmetry_cell_setting 'monoclinic'
loop_
_space_group_symop_operation_xyz
x,y,z
-x,y,1/2-z
-x,-y,-z
x,-y,1/2+z
1/2+x,1/2+y,z
1/2-x,1/2+y,1/2-z
1/2-x,1/2-y,-z
1/2+x,1/2-y,1/2+z
loop_
_atom_site_type_symbol
_atom_site_label
_atom_site_fract_x
_atom_site_fract_y
_atom_site_fract_z
Si Si1 0.348252 0.762872 0.830250
Si Si2 0.090428 0.812874 0.531178
Si Si3 0.829574 0.875081 0.463320
Si Si4 0.137167 0.493084 0.496914
Si Si5 0.361448 0.064945 0.670364
Si Si6 0.758753 0.162156 0.408831
Si Si7 0.584427 0.565725 0.903117
Si Si8 0.178386 0.748341 0.784572
O O1 0.500000 0.798313 0.750000
O O2 0.337195 0.676761 0.880138
O O3 0.315274 0.749334 0.757654
O O4 0.242019 0.825997 0.926727
O O5 0.124749 0.856478 0.593691
O O6 0.147057 0.721882 0.508695
O O7 0.144098 0.864178 0.426359
O O8 0.931055 0.803509 0.607592
O O9 0.740473 0.956444 0.500723
O O10 0.983490 0.897346 0.396865
O O11 0.127934 0.430919 0.429803
O O12 0.190847 0.576530 0.427610
O O13 0.990738 0.509591 0.622858
O O14 0.217245 0.027583 0.784006
O O15 0.373697 0.156183 0.696391
O O16 0.811849 0.208037 0.303169
O O17 0.500000 0.500000 0.000000
#
# Coordination Sequence:
#
# PCOD8153778 Si02
#       8
#     8   8   8   8   8   8   8   8
#     4  11  25  42  75 106 141 193 240 300 364 442
#     4  11  24  45  68 103 134 187 242 294 364 438
#     4  11  25  45  69 106 145 188 247 299 362 444
#     4  11  25  46  70 106 145 189 246 300 369 433
#     4  11  25  44  72 102 141 192 235 306 364 431
#     4  11  25  43  73 101 139 184 243 302 360 444
#     4  12  26  46  69 103 150 192 237 306 374 436
#     4  12  22  46  72 100 140 186 241 298 364 437
#
# _framework density 23.006913000000001
#
# number of rings (size 3 to 8) (size 9 to 14) (size 15 to 20)
#    0.000    0.750    5.000    1.875    1.750    3.000 
#    2.250    1.875    0.000    0.000    0.000    0.000 
#    0.000    0.000    0.000    0.000    0.000    0.000 
#
# Total GULP energy -396725.689647 kJ/mol
# GULP energy per Si atom -12397.677801 kJ/mol
# Density = 2.295455 g / cm^3
# Si number density = 23.006913 Si / 1000 Ang^3
#
#
#
# Elastic Constant Matrix: (Units=GPa)
#
#
# Indices 1 2 3 4 5 6 
#
# 1 148.3014 37.0965 51.4319 0.0000 -2.4945 0.0000
# 2 37.0965 95.5469 35.6743 0.0000 -4.1932 0.0000
# 3 51.4319 35.6743 132.1907 0.0000 -20.5905 0.0000
# 4 0.0000 0.0000 0.0000 28.5856 0.0000 -4.6652
# 5 -2.4945 -4.1932 -20.5905 0.0000 37.6778 0.0000
# 6 0.0000 0.0000 0.0000 -4.6652 0.0000 33.9113
#
#
#
# Elastic Compliance Matrix: (Units=1/GPa)
#
#
# Indices 1 2 3 4 5 6 
#
# 1 0.008248 -0.002209 -0.002805 0.000000 -0.001233 0.000000
# 2 -0.002209 0.012238 -0.002463 0.000000 -0.000131 0.000000
# 3 -0.002805 -0.002463 0.010110 0.000000 0.005065 0.000000
# 4 0.000000 0.000000 0.000000 0.035786 0.000000 0.004923
# 5 -0.001233 -0.000131 0.005065 0.000000 0.029213 0.000000
# 6 0.000000 0.000000 0.000000 0.004923 0.000000 0.030166
#
#
# Mechanical properties :
#
#
# Convention : Reuss Voigt Hill
#
# Bulk Modulus (GPa) = 63.93574 69.38270 66.65922
# Shear Modulus (GPa) = 34.26348 36.82404 35.54376
#
# Velocity S-wave (km/s) = 3.86329 4.00505 3.93481
# Velocity P-wave (km/s) = 6.91015 7.18401 7.04841
#
# Compressibility (1/GPa) = 0.01564070
#
# Stress axis : x y z
#
# Youngs Moduli (GPa) = 121.24788 81.71408 98.91351
#
# Poissons Ratio (x) = 0.18051 0.27743
# Poissons Ratio (y) = 0.26784 0.24367
# Poissons Ratio (z) = 0.34007 0.20130
#
# Static dielectric constant tensor:
#      x y z
#    x 4.146010 0.000000 -0.244960 
#    y 0.000000 4.100550 0.000000 
#    z -0.244960 0.000000 4.097850 
# 
# 
# High freq. dielectric constant tensor:
#      x y z
#    x 1.914800 0.000000 -0.009070 
#    y 0.000000 1.903640 0.000000 
#    z -0.009070 0.000000 1.907570 
# 
# From -- ./inp_files/206454.got.cif
#   From: 2010.06.25/outbox.cif.g09.slc.cpg/sg15_104_cif.got.tgz:206454.got - 2010.06.28 07:06:18.
