data_PCOD8153122
_publ_section_title
;
Structure prediction by ZEFSAII (Michael W. Deem and Ramdas Pophale) SiO2 
 PCOD8153122
Probable space group: C 2/C
;
_chemical_formula_sum "Si O2"
_cell_formula_units_Z 32
_cell_length_a 10.928187
_cell_length_b 21.113332
_cell_length_c 8.456876
_cell_angle_alpha 90.000000
_cell_angle_beta 128.665109
_cell_angle_gamma 90.000000
_cell_volume 1523.564298
_symmetry_space_group_name_H-M "C 2/C"
_symmetry_group_IT_number 15
_symmetry_cell_setting 'monoclinic'
loop_
_space_group_symop_operation_xyz
x,y,z
-x,y,1/2-z
-x,-y,-z
x,-y,1/2+z
1/2+x,1/2+y,z
1/2-x,1/2+y,1/2-z
1/2-x,1/2-y,-z
1/2+x,1/2-y,1/2+z
loop_
_atom_site_type_symbol
_atom_site_label
_atom_site_fract_x
_atom_site_fract_y
_atom_site_fract_z
Si Si1 0.317609 0.939853 0.150920
Si Si2 0.835160 0.312804 0.026355
Si Si3 0.177169 0.311065 0.854144
Si Si4 0.685612 0.435107 0.395532
O O1 0.500000 0.944092 0.250000
O O2 0.278172 0.932663 0.304259
O O3 0.245922 0.877445 0.006806
O O4 0.238493 0.003574 0.032000
O O5 0.834139 0.306190 0.840384
O O6 0.750000 0.250000 0.000000
O O7 0.000000 0.313558 0.250000
O O8 0.000000 0.322646 0.750000
O O9 0.250000 0.250000 0.000000
O O10 0.277489 0.371710 0.980459
O O11 0.500000 0.439534 0.250000
#
# Coordination Sequence:
#
# PCOD8153122 Si02
#       4
#     8   8   8   8
#     4  11  23  43  66  94 131 177 222 270 327 393
#     4  11  24  42  65  94 127 169 217 269 325 388
#     4  12  24  43  67  96 132 175 221 273 330 395
#     4  12  25  42  66 100 134 173 219 274 332 394
#
# _framework density 21.003378999999999
#
# number of rings (size 3 to 8) (size 9 to 14) (size 15 to 20)
#    0.000    0.500    0.000   10.500    0.000    3.000 
#    0.000    0.000    0.000    0.000    0.000    0.000 
#    0.000    0.000    0.000    0.000    0.000    0.000 
#
# Total GULP energy -198230.794197 kJ/mol
# GULP energy per Si atom -12389.424637 kJ/mol
# Density = 2.095557 g / cm^3
# Si number density = 21.003379 Si / 1000 Ang^3
#
#
#
# Elastic Constant Matrix: (Units=GPa)
#
#
# Indices 1 2 3 4 5 6 
#
# 1 125.6896 30.5268 54.2817 0.0000 -14.7439 0.0000
# 2 30.5268 212.5726 73.6660 0.0000 -0.3394 0.0000
# 3 54.2817 73.6660 139.9473 0.0000 -29.1175 0.0000
# 4 0.0000 0.0000 0.0000 56.1279 0.0000 -0.7263
# 5 -14.7439 -0.3394 -29.1175 0.0000 54.4772 0.0000
# 6 0.0000 0.0000 0.0000 -0.7263 0.0000 34.0737
#
#
#
# Elastic Compliance Matrix: (Units=1/GPa)
#
#
# Indices 1 2 3 4 5 6 
#
# 1 0.009584 -0.000171 -0.003474 0.000000 0.000736 0.000000
# 2 -0.000171 0.005915 -0.003430 0.000000 -0.001843 0.000000
# 3 -0.003474 -0.003430 0.011362 0.000000 0.005111 0.000000
# 4 0.000000 0.000000 0.000000 0.017821 0.000000 0.000380
# 5 0.000736 -0.001843 0.005111 0.000000 0.021276 0.000000
# 6 0.000000 0.000000 0.000000 0.000380 0.000000 0.029356
#
#
# Mechanical properties :
#
#
# Convention : Reuss Voigt Hill
#
# Bulk Modulus (GPa) = 78.68084 88.35093 83.51588
# Shear Modulus (GPa) = 43.97395 50.25143 47.11269
#
# Velocity S-wave (km/s) = 4.58062 4.89667 4.74128
# Velocity P-wave (km/s) = 8.09435 8.60966 8.35598
#
# Compressibility (1/GPa) = 0.01270957
#
# Stress axis : x y z
#
# Youngs Moduli (GPa) = 104.33545 169.06932 88.00992
#
# Poissons Ratio (x) = 0.02895 0.30577
# Poissons Ratio (y) = 0.01786 0.30192
# Poissons Ratio (z) = 0.36249 0.57999
#
# Static dielectric constant tensor:
#      x y z
#    x 3.922610 0.000000 -0.066150 
#    y 0.000000 6.542420 0.000000 
#    z -0.066150 0.000000 4.037260 
# 
# 
# High freq. dielectric constant tensor:
#      x y z
#    x 1.836430 0.000000 -0.012230 
#    y 0.000000 1.860760 0.000000 
#    z -0.012230 0.000000 1.833410 
# 
# From -- ./inp_files/30042.got.cif
#   From: 2010.06.25/outbox.cif.g09.slc.cpg/sg15_16_cif.got.tgz:30042.got - 2010.06.28 07:06:18.
