data_PCOD8153210
_publ_section_title
;
Structure prediction by ZEFSAII (Michael W. Deem and Ramdas Pophale) SiO2 
 PCOD8153210
Probable space group: C 2/C
;
_chemical_formula_sum "Si O2"
_cell_formula_units_Z 48
_cell_length_a 11.244613
_cell_length_b 10.512951
_cell_length_c 17.517888
_cell_angle_alpha 90.000000
_cell_angle_beta 103.410849
_cell_angle_gamma 90.000000
_cell_volume 2014.392485
_symmetry_space_group_name_H-M "C 2/C"
_symmetry_group_IT_number 15
_symmetry_cell_setting 'monoclinic'
loop_
_space_group_symop_operation_xyz
x,y,z
-x,y,1/2-z
-x,-y,-z
x,-y,1/2+z
1/2+x,1/2+y,z
1/2-x,1/2+y,1/2-z
1/2-x,1/2-y,-z
1/2+x,1/2-y,1/2+z
loop_
_atom_site_type_symbol
_atom_site_label
_atom_site_fract_x
_atom_site_fract_y
_atom_site_fract_z
Si Si1 0.171728 0.233793 0.412996
Si Si2 0.091653 0.706745 0.421646
Si Si3 0.478142 0.486254 0.084614
Si Si4 0.788639 0.885057 0.844128
Si Si5 0.429746 0.853358 0.403054
Si Si6 0.151164 0.385293 0.670254
O O1 0.250000 0.250000 0.500000
O O2 0.264510 0.224270 0.355811
O O3 0.072510 0.349883 0.394923
O O4 0.102611 0.100572 0.397488
O O5 0.215549 0.636560 0.413240
O O6 0.066089 0.673775 0.505690
O O7 0.096359 0.858352 0.408642
O O8 0.985860 0.664771 0.348430
O O9 0.616296 0.496472 0.140061
O O10 0.500000 0.500000 0.000000
O O11 0.863534 0.755127 0.844101
O O12 0.695609 0.911346 0.762066
O O13 0.357566 0.983293 0.378476
#
# Coordination Sequence:
#
# PCOD8153210 Si02
#       6
#     8   8   8   8   8   8
#     4  11  23  45  73 100 140 185 239 291 350 427
#     4  12  24  46  73 104 139 186 243 283 361 427
#     4  11  23  43  74 105 135 186 237 291 353 426
#     4  11  27  46  68 106 145 182 237 299 358 423
#     4  11  25  46  72 104 135 190 241 285 354 432
#     4  12  27  45  69 105 145 187 228 300 364 411
#
# _framework density 23.828524999999999
#
# number of rings (size 3 to 8) (size 9 to 14) (size 15 to 20)
#    0.000    0.667    5.000    2.500    4.667    4.000 
#    6.000    0.000    0.000    0.000    0.000    0.000 
#    0.000    0.000    0.000    0.000    0.000    0.000 
#
# Total GULP energy -297453.872422 kJ/mol
# GULP energy per Si atom -12393.911351 kJ/mol
# Density = 2.377429 g / cm^3
# Si number density = 23.828525 Si / 1000 Ang^3
#
#
#
# Elastic Constant Matrix: (Units=GPa)
#
#
# Indices 1 2 3 4 5 6 
#
# 1 108.4571 23.0713 13.8515 0.0000 9.0489 0.0000
# 2 23.0713 63.4504 36.9387 0.0000 2.7873 0.0000
# 3 13.8515 36.9387 98.6678 0.0000 27.3643 0.0000
# 4 0.0000 0.0000 0.0000 30.0164 0.0000 7.7680
# 5 9.0489 2.7873 27.3643 0.0000 40.1182 0.0000
# 6 0.0000 0.0000 0.0000 7.7680 0.0000 19.6573
#
#
#
# Elastic Compliance Matrix: (Units=1/GPa)
#
#
# Indices 1 2 3 4 5 6 
#
# 1 0.010196 -0.004060 0.000799 0.000000 -0.002563 0.000000
# 2 -0.004060 0.022488 -0.009459 0.000000 0.005805 0.000000
# 3 0.000799 -0.009459 0.016565 0.000000 -0.010822 0.000000
# 4 0.000000 0.000000 0.000000 0.037110 0.000000 -0.014665
# 5 -0.002563 0.005805 -0.010822 0.000000 0.032483 0.000000
# 6 0.000000 0.000000 0.000000 -0.014665 0.000000 0.056667
#
#
# Mechanical properties :
#
#
# Convention : Reuss Voigt Hill
#
# Bulk Modulus (GPa) = 41.99918 46.47759 44.23839
# Shear Modulus (GPa) = 23.93650 31.07262 27.50456
#
# Velocity S-wave (km/s) = 3.17287 3.61502 3.40114
# Velocity P-wave (km/s) = 5.57554 6.08045 5.83346
#
# Compressibility (1/GPa) = 0.02380999
#
# Stress axis : x y z
#
# Youngs Moduli (GPa) = 98.08118 44.46733 60.36650
#
# Poissons Ratio (x) = 0.18054 -0.04826
# Poissons Ratio (y) = 0.39822 0.57102
# Poissons Ratio (z) = -0.07841 0.42062
#
# Static dielectric constant tensor:
#      x y z
#    x 4.941680 0.000000 0.335690 
#    y 0.000000 3.901430 0.000000 
#    z 0.335690 0.000000 4.062430 
# 
# 
# High freq. dielectric constant tensor:
#      x y z
#    x 1.964370 0.000000 0.021740 
#    y 0.000000 1.942390 0.000000 
#    z 0.021740 0.000000 1.929260 
# 
# From -- ./inp_files/196569.got.cif
#   From: 2010.06.25/outbox.cif.g09.slc.cpg/sg15_99_cif.got.tgz:196569.got - 2010.06.28 07:06:18.
