data_PCOD8153116
_publ_section_title
;
Structure prediction by ZEFSAII (Michael W. Deem and Ramdas Pophale) SiO2 
 PCOD8153116
Probable space group: C 2/C
;
_chemical_formula_sum "Si O2"
_cell_formula_units_Z 40
_cell_length_a 14.796521
_cell_length_b 24.179096
_cell_length_c 9.457569
_cell_angle_alpha 90.000000
_cell_angle_beta 32.433027
_cell_angle_gamma 90.000000
_cell_volume 1814.670764
_symmetry_space_group_name_H-M "C 2/C"
_symmetry_group_IT_number 15
_symmetry_cell_setting 'monoclinic'
loop_
_space_group_symop_operation_xyz
x,y,z
-x,y,1/2-z
-x,-y,-z
x,-y,1/2+z
1/2+x,1/2+y,z
1/2-x,1/2+y,1/2-z
1/2-x,1/2-y,-z
1/2+x,1/2-y,1/2+z
loop_
_atom_site_type_symbol
_atom_site_label
_atom_site_fract_x
_atom_site_fract_y
_atom_site_fract_z
Si Si1 0.034629 0.723519 0.045236
Si Si2 0.737842 0.676448 0.249905
Si Si3 0.300439 0.047767 0.858355
Si Si4 0.189216 0.554774 0.330920
Si Si5 0.308921 0.665629 0.506729
O O1 0.000000 0.702672 0.250000
O O2 0.883010 0.707247 0.144545
O O3 0.063386 0.790275 0.006662
O O4 0.209520 0.697773 0.759305
O O5 0.718983 0.612898 0.325139
O O6 0.782484 0.676313 0.023520
O O7 0.491195 0.062179 0.560530
O O8 0.232168 0.993142 0.870272
O O9 0.282958 0.035537 0.046335
O O10 0.189264 0.100354 0.959597
O O11 0.500000 0.687706 0.250000
#
# Coordination Sequence:
#
# PCOD8153116 Si02
#       5
#     8   8   8   8   8
#     4  12  25  42  66  97 133 175 223 276 331 386
#     4  11  23  43  65  96 134 177 220 273 324 403
#     4   9  18  36  62  93 126 166 218 264 320 394
#     4   9  18  36  63  91 127 165 216 266 323 388
#     4  11  23  43  68  98 133 178 223 268 327 402
#
# _framework density 22.042566999999998
#
# number of rings (size 3 to 8) (size 9 to 14) (size 15 to 20)
#    0.000    1.600    2.000    3.000    0.000    1.600 
#    0.000    5.000    0.000    0.000    0.000    0.000 
#    0.000    0.000    0.000    0.000    0.000    0.000 
#
# Total GULP energy -248019.081460 kJ/mol
# GULP energy per Si atom -12400.954073 kJ/mol
# Density = 2.199240 g / cm^3
# Si number density = 22.042567 Si / 1000 Ang^3
#
#
#
# Elastic Constant Matrix: (Units=GPa)
#
#
# Indices 1 2 3 4 5 6 
#
# 1 94.1780 68.2621 43.3157 0.0002 13.7916 0.0000
# 2 68.2621 143.2134 40.9943 0.0002 20.8537 -0.0001
# 3 43.3157 40.9943 74.4919 0.0004 20.9603 -0.0001
# 4 0.0002 0.0002 0.0004 38.9509 -0.0001 0.4493
# 5 13.7916 20.8537 20.9603 -0.0001 19.9521 -0.0001
# 6 0.0000 -0.0001 -0.0001 0.4493 -0.0001 36.5251
#
#
#
# Elastic Compliance Matrix: (Units=1/GPa)
#
#
# Indices 1 2 3 4 5 6 
#
# 1 0.019090 -0.007231 -0.007857 0.000000 0.002617 0.000000
# 2 -0.007231 0.011475 -0.000201 0.000000 -0.006783 0.000000
# 3 -0.007857 -0.000201 0.023448 0.000000 -0.018991 0.000000
# 4 0.000000 0.000000 0.000000 0.025677 0.000000 -0.000316
# 5 0.002617 -0.006783 -0.018991 0.000000 0.075352 0.000000
# 6 0.000000 0.000000 0.000000 -0.000316 0.000000 0.027382
#
#
# Mechanical properties :
#
#
# Convention : Reuss Voigt Hill
#
# Bulk Modulus (GPa) = 42.67531 68.55863 55.61697
# Shear Modulus (GPa) = 22.64350 29.70635 26.17492
#
# Velocity S-wave (km/s) = 3.20857 3.67506 3.44971
# Velocity P-wave (km/s) = 5.75578 7.01273 6.41512
#
# Compressibility (1/GPa) = 0.02343276
#
# Stress axis : x y z
#
# Youngs Moduli (GPa) = 52.38300 87.14893 42.64839
#
# Poissons Ratio (x) = 0.63018 0.33511
# Poissons Ratio (y) = 0.37879 0.00858
# Poissons Ratio (z) = 0.41160 0.01754
#
# Static dielectric constant tensor:
#      x y z
#    x 3.883330 0.000000 0.106740 
#    y 0.000000 4.250940 0.000000 
#    z 0.106740 0.000000 3.762040 
# 
# 
# High freq. dielectric constant tensor:
#      x y z
#    x 1.864650 0.000000 0.008250 
#    y 0.000000 1.879140 0.000000 
#    z 0.008250 0.000000 1.839740 
# 
# From -- ./inp_files/31750.got.cif
#   From: 2010.06.25/outbox.cif.g09.slc.cpg/sg15_16_cif.got.tgz:31750.got - 2010.06.28 07:06:18.
