data_PCOD8153167
_publ_section_title
;
Structure prediction by ZEFSAII (Michael W. Deem and Ramdas Pophale) SiO2 
 PCOD8153167
Probable space group: C 2/C
;
_chemical_formula_sum "Si O2"
_cell_formula_units_Z 40
_cell_length_a 19.238018
_cell_length_b 10.231720
_cell_length_c 19.293346
_cell_angle_alpha 90.000000
_cell_angle_beta 150.718532
_cell_angle_gamma 90.000000
_cell_volume 1857.438782
_symmetry_space_group_name_H-M "C 2/C"
_symmetry_group_IT_number 15
_symmetry_cell_setting 'monoclinic'
loop_
_space_group_symop_operation_xyz
x,y,z
-x,y,1/2-z
-x,-y,-z
x,-y,1/2+z
1/2+x,1/2+y,z
1/2-x,1/2+y,1/2-z
1/2-x,1/2-y,-z
1/2+x,1/2-y,1/2+z
loop_
_atom_site_type_symbol
_atom_site_label
_atom_site_fract_x
_atom_site_fract_y
_atom_site_fract_z
Si Si1 0.871112 0.879349 0.446763
Si Si2 0.917896 0.412062 0.983481
Si Si3 0.355407 0.744743 0.656213
Si Si4 0.912967 0.462287 0.239707
Si Si5 0.362396 0.462243 0.283974
O O1 0.953142 0.741814 0.511833
O O2 0.724852 0.872888 0.363757
O O3 0.827915 0.916517 0.331561
O O4 0.976604 0.982504 0.576787
O O5 0.748137 0.422510 0.828093
O O6 0.000000 0.500000 0.000000
O O7 0.965645 0.466484 0.097908
O O8 0.500000 0.692115 0.750000
O O9 0.250000 0.750000 0.500000
O O10 0.325371 0.651051 0.695876
O O11 0.359872 0.890472 0.688137
O O12 0.000000 0.407335 0.250000
#
# Coordination Sequence:
#
# PCOD8153167 Si02
#       5
#     8   8   8   8   8
#     4  11  25  43  65 104 137 180 231 284 350 416
#     4  12  24  43  67  96 135 180 228 281 350 414
#     4  11  23  43  70 100 134 178 233 286 345 411
#     4  11  24  44  68  99 138 183 229 285 347 414
#     4  11  24  40  70  99 136 177 227 294 342 414
#
# _framework density 21.535029999999999
#
# number of rings (size 3 to 8) (size 9 to 14) (size 15 to 20)
#    0.000    0.800    2.000    6.000    0.000    2.400 
#    0.000    4.000    0.000    0.000    0.000    0.000 
#    0.000    0.000    0.000    0.000    0.000    0.000 
#
# Total GULP energy -247885.883533 kJ/mol
# GULP energy per Si atom -12394.294177 kJ/mol
# Density = 2.148602 g / cm^3
# Si number density = 21.535030 Si / 1000 Ang^3
#
#
#
# Elastic Constant Matrix: (Units=GPa)
#
#
# Indices 1 2 3 4 5 6 
#
# 1 138.9635 36.4076 69.7609 0.0003 1.8852 0.0001
# 2 36.4076 105.9866 39.0396 0.0004 -10.2178 0.0001
# 3 69.7609 39.0396 171.8215 0.0004 -21.3086 0.0001
# 4 0.0003 0.0004 0.0004 37.8920 0.0003 -0.9346
# 5 1.8852 -10.2178 -21.3086 0.0003 47.4632 0.0000
# 6 0.0001 0.0001 0.0001 -0.9346 0.0000 34.4994
#
#
#
# Elastic Compliance Matrix: (Units=1/GPa)
#
#
# Indices 1 2 3 4 5 6 
#
# 1 0.009687 -0.002191 -0.003750 0.000000 -0.002540 0.000000
# 2 -0.002191 0.010861 -0.001353 0.000000 0.001818 0.000000
# 3 -0.003750 -0.001353 0.008082 0.000000 0.003486 0.000000
# 4 0.000000 0.000000 0.000000 0.026408 0.000000 0.000715
# 5 -0.002540 0.001818 0.003486 0.000000 0.023126 0.000000
# 6 0.000000 0.000000 0.000000 0.000715 0.000000 0.029005
#
#
# Mechanical properties :
#
#
# Convention : Reuss Voigt Hill
#
# Bulk Modulus (GPa) = 71.21160 78.57641 74.89401
# Shear Modulus (GPa) = 39.54425 42.07516 40.80971
#
# Velocity S-wave (km/s) = 4.28983 4.42498 4.35793
# Velocity P-wave (km/s) = 7.59450 7.91670 7.75727
#
# Compressibility (1/GPa) = 0.01404266
#
# Stress axis : x y z
#
# Youngs Moduli (GPa) = 103.22731 92.06925 123.72633
#
# Poissons Ratio (x) = 0.20174 0.46401
# Poissons Ratio (y) = 0.22619 0.16737
# Poissons Ratio (z) = 0.38713 0.12454
#
# Static dielectric constant tensor:
#      x y z
#    x 3.932440 0.000000 -0.125820 
#    y 0.000000 3.919550 0.000000 
#    z -0.125820 0.000000 4.347350 
# 
# 
# High freq. dielectric constant tensor:
#      x y z
#    x 1.846360 0.000000 -0.005510 
#    y 0.000000 1.840670 0.000000 
#    z -0.005510 0.000000 1.872700 
# 
# From -- ./inp_files/69228.got.cif
#   From: 2010.06.25/outbox.cif.g09.slc.cpg/sg15_35_cif.got.tgz:69228.got - 2010.06.28 07:06:18.
