data_PCOD8153561
_publ_section_title
;
Structure prediction by ZEFSAII (Michael W. Deem and Ramdas Pophale) SiO2 
 PCOD8153561
Probable space group: C 2/C
;
_chemical_formula_sum "Si O2"
_cell_formula_units_Z 44
_cell_length_a 15.678377
_cell_length_b 17.048258
_cell_length_c 8.288727
_cell_angle_alpha 90.000000
_cell_angle_beta 75.202865
_cell_angle_gamma 90.000000
_cell_volume 2142.011673
_symmetry_space_group_name_H-M "C 2/C"
_symmetry_group_IT_number 15
_symmetry_cell_setting 'monoclinic'
loop_
_space_group_symop_operation_xyz
x,y,z
-x,y,1/2-z
-x,-y,-z
x,-y,1/2+z
1/2+x,1/2+y,z
1/2-x,1/2+y,1/2-z
1/2-x,1/2-y,-z
1/2+x,1/2-y,1/2+z
loop_
_atom_site_type_symbol
_atom_site_label
_atom_site_fract_x
_atom_site_fract_y
_atom_site_fract_z
Si Si1 0.909440 0.678742 0.697821
Si Si2 0.213800 0.439789 0.113616
Si Si3 0.336428 0.484164 0.787170
Si Si4 0.500000 0.594974 0.750000
Si Si5 0.560341 0.945785 0.578241
Si Si6 0.056355 0.851610 0.886131
O O1 0.830638 0.646397 0.850131
O O2 0.906211 0.628408 0.537120
O O3 0.894487 0.768487 0.654482
O O4 0.000000 0.667897 0.750000
O O5 0.253919 0.465799 0.264791
O O6 0.141686 0.504696 0.105395
O O7 0.297837 0.434850 0.955583
O O8 0.414264 0.541470 0.800982
O O9 0.370942 0.420509 0.640350
O O10 0.500334 0.646042 0.582135
O O11 0.500000 0.912006 0.750000
O O12 0.500000 0.000000 0.500000
O O13 0.000000 0.867198 0.750000
#
# Coordination Sequence:
#
# PCOD8153561 Si02
#       6
#     8   8   8   4   8   8
#     4  11  24  42  64 100 137 173 220 275 348 407
#     4  12  22  38  67 101 128 172 226 277 329 402
#     4  12  23  42  70  95 130 176 233 281 325 410
#     4  12  24  48  70  98 130 192 236 268 348 404
#     4  12  20  38  64  92 131 175 217 265 329 414
#     4  11  25  45  68 100 137 177 228 285 342 401
#
# _framework density 20.541437999999999
#
# number of rings (size 3 to 8) (size 9 to 14) (size 15 to 20)
#    0.000    0.364    8.182    1.636    1.273    0.727 
#    0.000    3.636    0.000    0.000    0.000    0.000 
#    0.000    0.000    0.000    0.000    0.000    0.000 
#
# Total GULP energy -272730.588778 kJ/mol
# GULP energy per Si atom -12396.844944 kJ/mol
# Density = 2.049468 g / cm^3
# Si number density = 20.541438 Si / 1000 Ang^3
#
#
#
# Elastic Constant Matrix: (Units=GPa)
#
#
# Indices 1 2 3 4 5 6 
#
# 1 107.8511 36.9327 25.8480 0.0000 1.6891 0.0000
# 2 36.9327 114.2985 35.0857 0.0000 -5.4981 0.0000
# 3 25.8480 35.0857 134.3899 0.0000 -8.1700 0.0000
# 4 0.0000 0.0000 0.0000 31.5526 0.0000 -0.0234
# 5 1.6891 -5.4981 -8.1700 0.0000 31.3118 0.0000
# 6 0.0000 0.0000 0.0000 -0.0234 0.0000 11.8715
#
#
#
# Elastic Compliance Matrix: (Units=1/GPa)
#
#
# Indices 1 2 3 4 5 6 
#
# 1 0.010680 -0.003113 -0.001331 0.000000 -0.001470 0.000000
# 2 -0.003113 0.010452 -0.002041 0.000000 0.001471 0.000000
# 3 -0.001331 -0.002041 0.008345 0.000000 0.001891 0.000000
# 4 0.000000 0.000000 0.000000 0.031693 0.000000 0.000062
# 5 -0.001470 0.001471 0.001891 0.000000 0.032768 0.000000
# 6 0.000000 0.000000 0.000000 0.000062 0.000000 0.084235
#
#
# Mechanical properties :
#
#
# Convention : Reuss Voigt Hill
#
# Bulk Modulus (GPa) = 60.57747 61.36360 60.97053
# Shear Modulus (GPa) = 25.42656 32.19204 28.80930
#
# Velocity S-wave (km/s) = 3.52208 3.96305 3.74906
# Velocity P-wave (km/s) = 6.78929 7.13295 6.96324
#
# Compressibility (1/GPa) = 0.01650779
#
# Stress axis : x y z
#
# Youngs Moduli (GPa) = 93.63212 95.67438 119.83688
#
# Poissons Ratio (x) = 0.29786 0.15947
# Poissons Ratio (y) = 0.29150 0.24454
# Poissons Ratio (z) = 0.12460 0.19523
#
# Static dielectric constant tensor:
#      x y z
#    x 3.610780 0.000000 -0.208380 
#    y 0.000000 4.261720 0.000000 
#    z -0.208380 0.000000 3.792020 
# 
# 
# High freq. dielectric constant tensor:
#      x y z
#    x 1.803110 0.000000 -0.002490 
#    y 0.000000 1.784970 0.000000 
#    z -0.002490 0.000000 1.823390 
# 
# From -- ./inp_files/39045.got.cif
#   From: 2010.06.25/outbox.cif.g09.slc.cpg/sg15_20_cif.got.tgz:39045.got - 2010.06.28 07:06:18.
