data_PCOD8153463
_publ_section_title
;
Structure prediction by ZEFSAII (Michael W. Deem and Ramdas Pophale) SiO2 
 PCOD8153463
Probable space group: C 2/C
;
_chemical_formula_sum "Si O2"
_cell_formula_units_Z 44
_cell_length_a 8.510675
_cell_length_b 21.529597
_cell_length_c 12.558205
_cell_angle_alpha 90.000000
_cell_angle_beta 112.554176
_cell_angle_gamma 90.000000
_cell_volume 2125.066367
_symmetry_space_group_name_H-M "C 2/C"
_symmetry_group_IT_number 15
_symmetry_cell_setting 'monoclinic'
loop_
_space_group_symop_operation_xyz
x,y,z
-x,y,1/2-z
-x,-y,-z
x,-y,1/2+z
1/2+x,1/2+y,z
1/2-x,1/2+y,1/2-z
1/2-x,1/2-y,-z
1/2+x,1/2-y,1/2+z
loop_
_atom_site_type_symbol
_atom_site_label
_atom_site_fract_x
_atom_site_fract_y
_atom_site_fract_z
Si Si1 0.298049 0.338548 0.929785
Si Si2 0.080828 0.936238 0.983401
Si Si3 0.662816 0.987765 0.615720
Si Si4 0.690113 0.099508 0.762442
Si Si5 0.189387 0.790566 0.334702
Si Si6 0.000000 0.407238 0.750000
O O1 0.306337 0.270424 0.878810
O O2 0.112071 0.366166 0.858834
O O3 0.440162 0.384345 0.917782
O O4 0.321720 0.331802 0.061850
O O5 0.192729 0.909413 0.106219
O O6 0.193624 0.949583 0.909091
O O7 0.000000 0.000000 0.000000
O O8 0.620723 0.949312 0.709841
O O9 0.500000 0.000000 0.500000
O O10 0.737680 0.053110 0.677602
O O11 0.500000 0.086986 0.750000
O O12 0.716285 0.169624 0.730516
O O13 0.000000 0.771775 0.250000
#
# Coordination Sequence:
#
# PCOD8153463 Si02
#       6
#     8   8   8   8   8   4
#     4  11  25  44  70 104 133 185 234 283 352 414
#     4  12  25  42  69 107 140 179 234 286 357 422
#     4  12  23  42  68 101 141 180 226 290 351 415
#     4  12  24  43  67 100 136 184 234 285 349 412
#     4  11  23  47  72  95 138 185 234 287 338 422
#     4  12  24  44  68  98 140 180 230 288 358 410
#
# _framework density 20.705237
#
# number of rings (size 3 to 8) (size 9 to 14) (size 15 to 20)
#    0.000    0.364    5.455    4.364    0.000    2.182 
#    3.273    0.909    0.000    0.000    0.000    0.000 
#    0.000    0.000    0.000    0.000    0.000    0.000 
#
# Total GULP energy -272902.895087 kJ/mol
# GULP energy per Si atom -12404.677049 kJ/mol
# Density = 2.065811 g / cm^3
# Si number density = 20.705237 Si / 1000 Ang^3
#
#
#
# Elastic Constant Matrix: (Units=GPa)
#
#
# Indices 1 2 3 4 5 6 
#
# 1 114.9157 63.5841 46.3204 0.0000 -6.3229 0.0000
# 2 63.5841 135.0206 39.8681 0.0000 -13.5302 0.0000
# 3 46.3204 39.8681 101.4414 0.0000 1.0280 0.0000
# 4 0.0000 0.0000 0.0000 43.3990 0.0000 2.8848
# 5 -6.3229 -13.5302 1.0280 0.0000 39.8765 0.0000
# 6 0.0000 0.0000 0.0000 2.8848 0.0000 43.4177
#
#
#
# Elastic Compliance Matrix: (Units=1/GPa)
#
#
# Indices 1 2 3 4 5 6 
#
# 1 0.013080 -0.004914 -0.004047 0.000000 0.000511 0.000000
# 2 -0.004914 0.010581 -0.001944 0.000000 0.002861 0.000000
# 3 -0.004047 -0.001944 0.012486 0.000000 -0.001623 0.000000
# 4 0.000000 0.000000 0.000000 0.023144 0.000000 -0.001538
# 5 0.000511 0.002861 -0.001623 0.000000 0.026171 0.000000
# 6 0.000000 0.000000 0.000000 -0.001538 0.000000 0.023134
#
#
# Mechanical properties :
#
#
# Convention : Reuss Voigt Hill
#
# Bulk Modulus (GPa) = 69.74049 72.32474 71.03262
# Shear Modulus (GPa) = 36.98654 38.77899 37.88276
#
# Velocity S-wave (km/s) = 4.23109 4.33240 4.28205
# Velocity P-wave (km/s) = 7.59113 7.74808 7.67001
#
# Compressibility (1/GPa) = 0.01433887
#
# Stress axis : x y z
#
# Youngs Moduli (GPa) = 76.45241 94.51047 80.08896
#
# Poissons Ratio (x) = 0.46438 0.32410
# Poissons Ratio (y) = 0.37565 0.15568
# Poissons Ratio (z) = 0.30938 0.18371
#
# Static dielectric constant tensor:
#      x y z
#    x 3.805130 0.000000 -0.024540 
#    y 0.000000 3.945300 0.000000 
#    z -0.024540 0.000000 3.847250 
# 
# 
# High freq. dielectric constant tensor:
#      x y z
#    x 1.800620 0.000000 0.011600 
#    y 0.000000 1.822380 0.000000 
#    z 0.011600 0.000000 1.828680 
# 
# From -- ./inp_files/78110.got.cif
#   From: 2010.06.25/outbox.cif.g09.slc.cpg/sg15_40_cif.got.tgz:78110.got - 2010.06.28 07:06:18.
