data_PCOD8153311
_publ_section_title
;
Structure prediction by ZEFSAII (Michael W. Deem and Ramdas Pophale) SiO2 
 PCOD8153311
Probable space group: C 2/C
;
_chemical_formula_sum "Si O2"
_cell_formula_units_Z 56
_cell_length_a 11.385166
_cell_length_b 9.371033
_cell_length_c 24.754448
_cell_angle_alpha 90.000000
_cell_angle_beta 112.594849
_cell_angle_gamma 90.000000
_cell_volume 2438.354992
_symmetry_space_group_name_H-M "C 2/C"
_symmetry_group_IT_number 15
_symmetry_cell_setting 'monoclinic'
loop_
_space_group_symop_operation_xyz
x,y,z
-x,y,1/2-z
-x,-y,-z
x,-y,1/2+z
1/2+x,1/2+y,z
1/2-x,1/2+y,1/2-z
1/2-x,1/2-y,-z
1/2+x,1/2-y,1/2+z
loop_
_atom_site_type_symbol
_atom_site_label
_atom_site_fract_x
_atom_site_fract_y
_atom_site_fract_z
Si Si1 0.510304 0.729867 0.392964
Si Si2 0.735686 0.069135 0.904477
Si Si3 0.530136 0.729122 0.598610
Si Si4 0.406652 0.016589 0.934854
Si Si5 0.108687 0.147830 0.729384
Si Si6 0.227237 0.901360 0.695446
Si Si7 0.172582 0.017440 0.965501
O O1 0.614818 0.826332 0.381699
O O2 0.417691 0.656457 0.333133
O O3 0.570129 0.610413 0.442982
O O4 0.417522 0.826373 0.412629
O O5 0.859581 0.164240 0.918788
O O6 0.722401 0.953965 0.854160
O O7 0.747964 0.991257 0.964740
O O8 0.546850 0.899519 0.600580
O O9 0.538337 0.680928 0.661363
O O10 0.397017 0.671324 0.550302
O O11 0.263122 0.996014 0.929725
O O12 0.500000 0.000000 0.000000
O O13 0.173611 0.287014 0.765684
O O14 0.000000 0.089048 0.750000
O O15 0.218292 0.029783 0.737691
#
# Coordination Sequence:
#
# PCOD8153311 Si02
#       7
#     8   8   8   8   8   8   8
#     4  12  25  44  72 105 143 190 231 286 354 429
#     4  11  23  44  75 106 146 185 234 287 359 427
#     4  11  26  46  71 102 144 188 236 294 356 418
#     4  12  27  41  70 112 144 187 231 282 355 431
#     4  11  28  50  73  99 137 186 244 303 354 408
#     4  11  29  47  73 105 136 189 247 296 359 423
#     4  12  24  46  73 104 154 191 225 290 357 442
#
# _framework density 22.966303
#
# number of rings (size 3 to 8) (size 9 to 14) (size 15 to 20)
#    0.000    0.571    5.714    1.714    8.000    2.857 
#    0.000    0.000    0.000    0.000    0.000    0.000 
#    0.000    0.000    0.000    0.000    0.000    0.000 
#
# Total GULP energy -347304.259074 kJ/mol
# GULP energy per Si atom -12403.723538 kJ/mol
# Density = 2.291403 g / cm^3
# Si number density = 22.966303 Si / 1000 Ang^3
#
#
#
# Elastic Constant Matrix: (Units=GPa)
#
#
# Indices 1 2 3 4 5 6 
#
# 1 95.7725 34.9753 35.6406 0.0000 -16.9090 0.0000
# 2 34.9753 110.9399 25.3072 0.0000 -11.6671 0.0000
# 3 35.6406 25.3072 64.3052 0.0000 -12.5001 0.0000
# 4 0.0000 0.0000 0.0000 38.6134 0.0000 10.7313
# 5 -16.9090 -11.6671 -12.5001 0.0000 29.4729 0.0000
# 6 0.0000 0.0000 0.0000 10.7313 0.0000 40.3684
#
#
#
# Elastic Compliance Matrix: (Units=1/GPa)
#
#
# Indices 1 2 3 4 5 6 
#
# 1 0.014513 -0.002698 -0.006072 0.000000 0.004683 0.000000
# 2 -0.002698 0.010572 -0.002346 0.000000 0.001642 0.000000
# 3 -0.006072 -0.002346 0.020687 0.000000 0.004362 0.000000
# 4 0.000000 0.000000 0.000000 0.027964 0.000000 -0.007434
# 5 0.004683 0.001642 0.004362 0.000000 0.039116 0.000000
# 6 0.000000 0.000000 0.000000 -0.007434 0.000000 0.026748
#
#
# Mechanical properties :
#
#
# Convention : Reuss Voigt Hill
#
# Bulk Modulus (GPa) = 42.47883 51.42931 46.95407
# Shear Modulus (GPa) = 29.46742 33.36391 31.41566
#
# Velocity S-wave (km/s) = 3.58589 3.81561 3.70253
# Velocity P-wave (km/s) = 5.97336 6.46945 6.22635
#
# Compressibility (1/GPa) = 0.02354114
#
# Stress axis : x y z
#
# Youngs Moduli (GPa) = 68.90391 94.58631 48.33907
#
# Poissons Ratio (x) = 0.25518 0.29350
# Poissons Ratio (y) = 0.18589 0.11341
# Poissons Ratio (z) = 0.41836 0.22192
#
# Static dielectric constant tensor:
#      x y z
#    x 4.413090 0.000000 -0.174950 
#    y 0.000000 4.330060 0.000000 
#    z -0.174950 0.000000 4.016360 
# 
# 
# High freq. dielectric constant tensor:
#      x y z
#    x 1.918500 0.000000 -0.002870 
#    y 0.000000 1.920520 0.000000 
#    z -0.002870 0.000000 1.893270 
# 
# From -- ./inp_files/291627.got.cif
#   From: 2010.06.25/outbox.cif.g09.slc.cpg/sg15_146_cif.got.tgz:291627.got - 2010.06.28 07:06:18.
