data_PCOD8153507
_publ_section_title
;
Structure prediction by ZEFSAII (Michael W. Deem and Ramdas Pophale) SiO2 
 PCOD8153507
Probable space group: C 2/C
;
_chemical_formula_sum "Si O2"
_cell_formula_units_Z 60
_cell_length_a 9.194684
_cell_length_b 12.175336
_cell_length_c 23.596378
_cell_angle_alpha 90.000000
_cell_angle_beta 79.545164
_cell_angle_gamma 90.000000
_cell_volume 2597.721206
_symmetry_space_group_name_H-M "C 2/C"
_symmetry_group_IT_number 15
_symmetry_cell_setting 'monoclinic'
loop_
_space_group_symop_operation_xyz
x,y,z
-x,y,1/2-z
-x,-y,-z
x,-y,1/2+z
1/2+x,1/2+y,z
1/2-x,1/2+y,1/2-z
1/2-x,1/2-y,-z
1/2+x,1/2-y,1/2+z
loop_
_atom_site_type_symbol
_atom_site_label
_atom_site_fract_x
_atom_site_fract_y
_atom_site_fract_z
Si Si1 0.022391 0.319661 0.941935
Si Si2 0.536604 0.179127 0.930687
Si Si3 0.459224 0.637385 0.349361
Si Si4 0.715136 0.497678 0.316405
Si Si5 0.676571 0.253491 0.325497
Si Si6 0.203868 0.491007 0.565990
Si Si7 0.761088 0.004508 0.938921
Si Si8 0.000000 0.389323 0.750000
O O1 0.872888 0.370708 0.926954
O O2 0.101443 0.235366 0.893279
O O3 0.123707 0.424265 0.944655
O O4 0.996825 0.264761 0.005429
O O5 0.537065 0.272987 0.883684
O O6 0.411068 0.091735 0.923334
O O7 0.699575 0.122625 0.921418
O O8 0.587685 0.580356 0.301831
O O9 0.335611 0.693565 0.318633
O O10 0.393283 0.536832 0.390630
O O11 0.692834 0.373171 0.296523
O O12 0.695828 0.500685 0.385703
O O13 0.876877 0.532860 0.285586
O O14 0.568759 0.183595 0.294283
O O15 0.305722 0.493154 0.502243
#
# Coordination Sequence:
#
# PCOD8153507 Si02
#       8
#     8   8   8   8   8   8   8   4
#     4   8  16  35  66  97 137 180 215 250 318 398
#     4   9  17  35  64 100 142 182 204 249 319 401
#     4  11  24  39  67 107 135 168 214 265 328 403
#     4  12  27  45  72 100 126 170 227 280 329 395
#     4  11  25  47  72  95 130 173 218 283 335 379
#     4   9  16  37  63  95 137 180 217 248 316 394
#     4   8  18  32  59 100 144 178 207 254 306 396
#     4  12  30  52  70  90 122 174 232 286 338 384
#
# _framework density 23.097166999999999
#
# number of rings (size 3 to 8) (size 9 to 14) (size 15 to 20)
#    0.000    2.133    2.667    1.600    1.867    5.867 
#    0.000    1.333    0.000    0.000    0.000    0.000 
#    0.000    0.000    0.000    0.000    0.000    0.000 
#
# Total GULP energy -371877.807852 kJ/mol
# GULP energy per Si atom -12395.926928 kJ/mol
# Density = 2.304460 g / cm^3
# Si number density = 23.097167 Si / 1000 Ang^3
#
#
#
# Elastic Constant Matrix: (Units=GPa)
#
#
# Indices 1 2 3 4 5 6 
#
# 1 71.4652 56.2471 17.4277 0.0000 -17.6109 0.0000
# 2 56.2471 127.9784 27.9325 0.0000 -14.9736 0.0000
# 3 17.4277 27.9325 42.6590 0.0000 -1.9101 0.0000
# 4 0.0000 0.0000 0.0000 -3.6819 0.0000 -5.8057
# 5 -17.6109 -14.9736 -1.9101 0.0000 19.0873 0.0000
# 6 0.0000 0.0000 0.0000 -5.8057 0.0000 27.9680
#
#
#
# Elastic Compliance Matrix: (Units=1/GPa)
#
#
# Indices 1 2 3 4 5 6 
#
# 1 0.025817 -0.008456 -0.004260 0.000000 0.016760 0.000000
# 2 -0.008456 0.012792 -0.004843 0.000000 0.001748 0.000000
# 3 -0.004260 -0.004843 0.028133 0.000000 -0.004914 0.000000
# 4 0.000000 0.000000 0.000000 -0.204620 0.000000 -0.042476
# 5 0.016760 0.001748 -0.004914 0.000000 0.068735 0.000000
# 6 0.000000 0.000000 0.000000 -0.042476 0.000000 0.026938
#
#
# Mechanical properties :
#
#
# Convention : Reuss Voigt Hill
#
# Bulk Modulus (GPa) = 31.62124 49.47967 40.55046
# Shear Modulus (GPa) = 1447.62063 18.04102 732.83083
#
# Velocity S-wave (km/s) = 25.06218 2.79784 17.83173
# Velocity P-wave (km/s) = 29.17541 5.64855 21.01322
#
# Compressibility (1/GPa) = 0.03162431
#
# Stress axis : x y z
#
# Youngs Moduli (GPa) = 38.73373 78.17438 35.54525
#
# Poissons Ratio (x) = 0.66105 0.15142
# Poissons Ratio (y) = 0.32754 0.17215
# Poissons Ratio (z) = 0.16500 0.37860
#
# Static dielectric constant tensor:
#      x y z
#    x 4.140030 0.000000 -0.001840 
#    y 0.000000 4.082220 0.000000 
#    z -0.001840 0.000000 4.170150 
# 
# 
# High freq. dielectric constant tensor:
#      x y z
#    x 1.907580 0.000000 0.006570 
#    y 0.000000 1.907230 0.000000 
#    z 0.006570 0.000000 1.895280 
# 
# From -- ./inp_files/288012.got.cif
#   From: 2010.06.25/outbox.cif.g09.slc.cpg/sg15_145_cif.got.tgz:288012.got - 2010.06.28 07:06:18.
