data_PCOD8153672
_publ_section_title
;
Structure prediction by ZEFSAII (Michael W. Deem and Ramdas Pophale) SiO2 
 PCOD8153672
Probable space group: C 2/C
;
_chemical_formula_sum "Si O2"
_cell_formula_units_Z 64
_cell_length_a 28.046832
_cell_length_b 16.892163
_cell_length_c 12.046988
_cell_angle_alpha 90.000000
_cell_angle_beta 29.834422
_cell_angle_gamma 90.000000
_cell_volume 2839.464567
_symmetry_space_group_name_H-M "C 2/C"
_symmetry_group_IT_number 15
_symmetry_cell_setting 'monoclinic'
loop_
_space_group_symop_operation_xyz
x,y,z
-x,y,1/2-z
-x,-y,-z
x,-y,1/2+z
1/2+x,1/2+y,z
1/2-x,1/2+y,1/2-z
1/2-x,1/2-y,-z
1/2+x,1/2-y,1/2+z
loop_
_atom_site_type_symbol
_atom_site_label
_atom_site_fract_x
_atom_site_fract_y
_atom_site_fract_z
Si Si1 0.344112 0.683549 0.393279
Si Si2 0.789098 0.600675 0.005913
Si Si3 0.016846 0.908366 0.480584
Si Si4 0.232694 0.925130 0.073965
Si Si5 0.448017 0.270123 0.245875
Si Si6 0.028102 0.334468 0.397172
Si Si7 0.253679 0.791905 0.187268
Si Si8 0.657550 0.142316 0.349304
O O1 0.284546 0.665694 0.399415
O O2 0.394273 0.768688 0.300425
O O3 0.267761 0.676260 0.646404
O O4 0.431469 0.620999 0.233376
O O5 0.739486 0.516126 0.093450
O O6 0.811817 0.618327 0.088771
O O7 0.893532 0.597058 0.732083
O O8 0.123115 0.896363 0.312791
O O9 0.012825 0.855053 0.376236
O O10 0.000000 0.000000 0.500000
O O11 0.286656 0.868083 0.050729
O O12 0.275235 0.910674 0.866275
O O13 0.500000 0.243103 0.250000
O O14 0.337996 0.273159 0.505043
O O15 0.466250 0.199223 0.122297
O O16 0.955519 0.369024 0.450463
O O17 0.167613 0.738020 0.312130
#
# Coordination Sequence:
#
# PCOD8153672 Si02
#       8
#     8   8   8   8   8   8   8   8
#     4  11  25  44  75 109 142 187 248 305 359 442
#     4  12  27  45  73 108 153 189 240 311 366 439
#     4  11  24  45  69 105 151 185 238 306 378 444
#     4  12  27  46  70 108 147 196 238 298 379 448
#     4  11  24  43  76 106 142 194 249 306 364 444
#     4  11  24  47  72 105 137 193 253 293 361 439
#     4  12  24  46  75 103 144 193 243 308 357 442
#     4  12  26  48  74 102 146 199 245 300 366 437
#
# _framework density 22.539459999999998
#
# number of rings (size 3 to 8) (size 9 to 14) (size 15 to 20)
#    0.000    0.500    5.000    3.375    5.250    2.000 
#    2.250    0.000    0.000    0.000    0.000    0.000 
#    0.000    0.000    0.000    0.000    0.000    0.000 
#
# Total GULP energy -396471.249264 kJ/mol
# GULP energy per Si atom -12389.726540 kJ/mol
# Density = 2.248816 g / cm^3
# Si number density = 22.539460 Si / 1000 Ang^3
#
#
#
# Elastic Constant Matrix: (Units=GPa)
#
#
# Indices 1 2 3 4 5 6 
#
# 1 118.5493 32.3708 52.8317 0.0000 -1.1285 0.0000
# 2 32.3708 61.8447 36.8335 0.0000 14.7101 0.0000
# 3 52.8317 36.8335 142.2714 0.0000 -2.7865 0.0000
# 4 0.0000 0.0000 0.0000 25.3328 0.0000 -17.9391
# 5 -1.1285 14.7101 -2.7865 0.0000 40.0668 0.0000
# 6 0.0000 0.0000 0.0000 -17.9391 0.0000 5.0394
#
#
#
# Elastic Compliance Matrix: (Units=1/GPa)
#
#
# Indices 1 2 3 4 5 6 
#
# 1 0.010945 -0.004422 -0.002886 0.000000 0.001731 0.000000
# 2 -0.004422 0.023358 -0.004582 0.000000 -0.009019 0.000000
# 3 -0.002886 -0.004582 0.009331 0.000000 0.002250 0.000000
# 4 0.000000 0.000000 0.000000 -0.025956 0.000000 -0.092399
# 5 0.001731 -0.009019 0.002250 0.000000 0.028475 0.000000
# 6 0.000000 0.000000 0.000000 -0.092399 0.000000 -0.130481
#
#
# Mechanical properties :
#
#
# Convention : Reuss Voigt Hill
#
# Bulk Modulus (GPa) = 50.36546 62.97082 56.66814
# Shear Modulus (GPa) = -92.71074 27.46311 -32.62382
#
# Velocity S-wave (km/s) = -6.42043 3.49441 -3.80861
# Velocity P-wave (km/s) = 5.70689 6.65431 2.41984
#
# Compressibility (1/GPa) = 0.01985488
#
# Stress axis : x y z
#
# Youngs Moduli (GPa) = 91.36360 42.81158 107.17300
#
# Poissons Ratio (x) = 0.18931 0.30927
# Poissons Ratio (y) = 0.40401 0.49105
# Poissons Ratio (z) = 0.26365 0.19616
#
# Static dielectric constant tensor:
#      x y z
#    x 4.021050 0.000000 -0.357320 
#    y 0.000000 4.096360 0.000000 
#    z -0.357320 0.000000 4.783980 
# 
# 
# High freq. dielectric constant tensor:
#      x y z
#    x 1.880910 0.000000 -0.017960 
#    y 0.000000 1.878020 0.000000 
#    z -0.017960 0.000000 1.909870 
# 
# From -- ./inp_files/127277.got.cif
#   From: 2010.06.25/outbox.cif.g09.slc.cpg/sg15_64_cif.got.tgz:127277.got - 2010.06.28 07:06:18.
