data_PCOD8153386
_publ_section_title
;
Structure prediction by ZEFSAII (Michael W. Deem and Ramdas Pophale) SiO2 
 PCOD8153386
Probable space group: C 2/C
;
_chemical_formula_sum "Si O2"
_cell_formula_units_Z 36
_cell_length_a 23.100775
_cell_length_b 11.926240
_cell_length_c 8.811469
_cell_angle_alpha 90.000000
_cell_angle_beta 139.717826
_cell_angle_gamma 90.000000
_cell_volume 1569.575403
_symmetry_space_group_name_H-M "C 2/C"
_symmetry_group_IT_number 15
_symmetry_cell_setting 'monoclinic'
loop_
_space_group_symop_operation_xyz
x,y,z
-x,y,1/2-z
-x,-y,-z
x,-y,1/2+z
1/2+x,1/2+y,z
1/2-x,1/2+y,1/2-z
1/2-x,1/2-y,-z
1/2+x,1/2-y,1/2+z
loop_
_atom_site_type_symbol
_atom_site_label
_atom_site_fract_x
_atom_site_fract_y
_atom_site_fract_z
Si Si1 0.671539 0.126681 0.614607
Si Si2 0.642207 0.090535 0.903212
Si Si3 0.142206 0.090534 0.665617
Si Si4 0.500000 0.749999 0.250000
Si Si5 0.171538 0.126682 0.071550
O O1 0.669864 0.088640 0.784421
O O2 0.774846 0.131243 0.770002
O O3 0.628592 0.249999 0.507185
O O4 0.616939 0.036712 0.403429
O O5 0.558870 0.172353 0.758608
O O6 0.725155 0.131244 0.170622
O O7 0.058869 0.172351 0.476872
O O8 0.116939 0.963286 0.564333
O O9 0.169862 0.088640 0.895034
#
# Coordination Sequence:
#
# PCOD8153386 Si02
#       5
#     8   8   8   4   8
#     4  11  23  45  77 100 134 191 242 271 335 438
#     4  11  25  44  74 105 139 183 236 289 349 403
#     4  11  25  44  74 105 139 183 236 289 349 403
#     4  12  28  44  68 104 156 170 226 310 352 392
#     4  11  23  45  77 100 134 191 242 271 335 438
#
# _framework density 22.936139000000001
#
# number of rings (size 3 to 8) (size 9 to 14) (size 15 to 20)
#    0.000    0.889    2.222    6.667    6.222    1.778 
#    0.000    0.000    0.000    0.000    0.000    0.000 
#    0.000    0.000    0.000    0.000    0.000    0.000 
#
# Total GULP energy -223243.241673 kJ/mol
# GULP energy per Si atom -12402.402315 kJ/mol
# Density = 2.288394 g / cm^3
# Si number density = 22.936139 Si / 1000 Ang^3
#
#
#
# Elastic Constant Matrix: (Units=GPa)
#
#
# Indices 1 2 3 4 5 6 
#
# 1 97.8760 63.8168 89.0775 0.0000 -29.8208 0.0000
# 2 63.8168 235.1327 68.2101 0.0000 -19.5323 0.0000
# 3 89.0775 68.2101 113.5684 0.0000 -39.9506 0.0000
# 4 0.0000 0.0000 0.0000 34.7282 0.0000 12.5338
# 5 -29.8208 -19.5323 -39.9506 0.0000 52.8053 0.0000
# 6 0.0000 0.0000 0.0000 12.5338 0.0000 37.5453
#
#
#
# Elastic Compliance Matrix: (Units=1/GPa)
#
#
# Indices 1 2 3 4 5 6 
#
# 1 0.036473 -0.001910 -0.027884 0.000000 -0.001205 0.000000
# 2 -0.001910 0.005264 -0.001850 0.000000 -0.000532 0.000000
# 3 -0.027884 -0.001850 0.035439 0.000000 0.010381 0.000000
# 4 0.000000 0.000000 0.000000 0.032740 0.000000 -0.010930
# 5 -0.001205 -0.000532 0.010381 0.000000 0.025914 0.000000
# 6 0.000000 0.000000 0.000000 -0.010930 0.000000 0.030283
#
#
# Mechanical properties :
#
#
# Convention : Reuss Voigt Hill
#
# Bulk Modulus (GPa) = 72.01225 98.75401 85.38313
# Shear Modulus (GPa) = 21.36466 40.04727 30.70596
#
# Velocity S-wave (km/s) = 3.05533 4.18309 3.66288
# Velocity P-wave (km/s) = 6.62660 8.15356 7.42941
#
# Compressibility (1/GPa) = 0.01388653
#
# Stress axis : x y z
#
# Youngs Moduli (GPa) = 27.41759 189.97121 28.21718
#
# Poissons Ratio (x) = 0.36287 0.78682
# Poissons Ratio (y) = 0.05237 0.05221
# Poissons Ratio (z) = 0.76452 0.35151
#
# Static dielectric constant tensor:
#      x y z
#    x 3.890530 0.000000 -0.086910 
#    y 0.000000 4.873720 0.000000 
#    z -0.086910 0.000000 3.910070 
# 
# 
# High freq. dielectric constant tensor:
#      x y z
#    x 1.890460 0.000000 -0.021390 
#    y 0.000000 1.936530 0.000000 
#    z -0.021390 0.000000 1.895270 
# 
# From -- ./inp_files/68922.got.cif
#   From: 2010.06.25/outbox.cif.g09.slc.cpg/sg15_35_cif.got.tgz:68922.got - 2010.06.28 07:06:18.
