data_PCOD8153095
_publ_section_title
;
Structure prediction by ZEFSAII (Michael W. Deem and Ramdas Pophale) SiO2 
 PCOD8153095
Probable space group: C 2/C
;
_chemical_formula_sum "Si O2"
_cell_formula_units_Z 60
_cell_length_a 23.351839
_cell_length_b 9.029853
_cell_length_c 19.423746
_cell_angle_alpha 90.000000
_cell_angle_beta 139.185685
_cell_angle_gamma 90.000000
_cell_volume 2677.030114
_symmetry_space_group_name_H-M "C 2/C"
_symmetry_group_IT_number 15
_symmetry_cell_setting 'monoclinic'
loop_
_space_group_symop_operation_xyz
x,y,z
-x,y,1/2-z
-x,-y,-z
x,-y,1/2+z
1/2+x,1/2+y,z
1/2-x,1/2+y,1/2-z
1/2-x,1/2-y,-z
1/2+x,1/2-y,1/2+z
loop_
_atom_site_type_symbol
_atom_site_label
_atom_site_fract_x
_atom_site_fract_y
_atom_site_fract_z
Si Si1 0.361199 0.953759 0.871225
Si Si2 0.133570 0.399675 0.905620
Si Si3 0.728920 0.459953 0.357240
Si Si4 0.411963 0.614859 0.553123
Si Si5 0.218062 0.630050 0.338298
Si Si6 0.475739 0.240957 0.977574
Si Si7 0.500000 0.136834 0.750000
Si Si8 0.950831 0.121148 0.308552
O O1 0.321925 0.967583 0.759090
O O2 0.283893 0.933896 0.856575
O O3 0.412050 0.103836 0.934265
O O4 0.424184 0.812642 0.936972
O O5 0.088523 0.252097 0.894555
O O6 0.152792 0.375633 0.843183
O O7 0.067165 0.535602 0.854163
O O8 0.223535 0.438349 0.026137
O O9 0.723038 0.299020 0.316111
O O10 0.634821 0.526934 0.286879
O O11 0.313457 0.566547 0.444263
O O12 0.467147 0.652394 0.534994
O O13 0.462865 0.475208 0.632276
O O14 0.448780 0.331319 0.885927
O O15 0.551165 0.234128 0.740716
#
# Coordination Sequence:
#
# PCOD8153095 Si02
#       8
#     8   8   8   8   8   8   4   8
#     4  11  23  42  72  99 142 184 231 286 348 427
#     4  11  26  49  72  99 139 192 233 280 353 441
#     4  11  24  45  71 102 138 179 242 286 350 419
#     4  11  24  47  73  99 141 179 239 285 351 417
#     4  11  24  43  72 103 133 189 233 285 350 420
#     4  11  23  45  68 103 139 184 231 283 356 415
#     4  12  30  46  68 104 140 184 232 284 370 410
#     4  12  28  44  70 107 142 176 233 305 349 404
#
# _framework density 22.412897000000001
#
# number of rings (size 3 to 8) (size 9 to 14) (size 15 to 20)
#    0.000    0.800    2.667    5.200    9.333    1.600 
#    4.800    0.000    0.000    0.000    0.000    0.000 
#    0.000    0.000    0.000    0.000    0.000    0.000 
#
# Total GULP energy -372260.886377 kJ/mol
# GULP energy per Si atom -12408.696213 kJ/mol
# Density = 2.236188 g / cm^3
# Si number density = 22.412897 Si / 1000 Ang^3
#
#
#
# Elastic Constant Matrix: (Units=GPa)
#
#
# Indices 1 2 3 4 5 6 
#
# 1 77.6720 -4.3365 3.8777 0.0000 -2.0782 0.0000
# 2 -4.3365 47.3045 27.2969 0.0000 6.1991 0.0000
# 3 3.8777 27.2969 81.5022 0.0000 11.0835 0.0000
# 4 0.0000 0.0000 0.0000 35.1344 0.0000 -3.6737
# 5 -2.0782 6.1991 11.0835 0.0000 43.4028 0.0000
# 6 0.0000 0.0000 0.0000 -3.6737 0.0000 32.4115
#
#
#
# Elastic Compliance Matrix: (Units=1/GPa)
#
#
# Indices 1 2 3 4 5 6 
#
# 1 0.013066 0.001884 -0.001348 0.000000 0.000701 0.000000
# 2 0.001884 0.026577 -0.008792 0.000000 -0.001461 0.000000
# 3 -0.001348 -0.008792 0.015660 0.000000 -0.002808 0.000000
# 4 0.000000 0.000000 0.000000 0.028804 0.000000 0.003265
# 5 0.000701 -0.001461 -0.002808 0.000000 0.023999 0.000000
# 6 0.000000 0.000000 0.000000 0.003265 0.000000 0.031223
#
#
# Mechanical properties :
#
#
# Convention : Reuss Voigt Hill
#
# Bulk Modulus (GPa) = 25.77948 28.90609 27.34278
# Shear Modulus (GPa) = 29.62568 34.16578 31.89573
#
# Velocity S-wave (km/s) = 3.63962 3.90857 3.77649
# Velocity P-wave (km/s) = 5.40273 5.77012 5.58944
#
# Compressibility (1/GPa) = 0.03879055
#
# Stress axis : x y z
#
# Youngs Moduli (GPa) = 76.53530 37.62614 63.85567
#
# Poissons Ratio (x) = -0.07088 0.08607
# Poissons Ratio (y) = -0.14417 0.56144
# Poissons Ratio (z) = 0.10316 0.33082
#
# Static dielectric constant tensor:
#      x y z
#    x 3.962670 0.000000 0.074450 
#    y 0.000000 4.010030 0.000000 
#    z 0.074450 0.000000 4.102700 
# 
# 
# High freq. dielectric constant tensor:
#      x y z
#    x 1.892330 0.000000 0.001170 
#    y 0.000000 1.877280 0.000000 
#    z 0.001170 0.000000 1.891830 
# 
# From -- ./inp_files/255181.got.cif
#   From: 2010.06.25/outbox.cif.g09.slc.cpg/sg15_128_cif.got.tgz:255181.got - 2010.06.28 07:06:18.
