data_PCOD8153486
_publ_section_title
;
Structure prediction by ZEFSAII (Michael W. Deem and Ramdas Pophale) SiO2 
 PCOD8153486
Probable space group: C 2/C
;
_chemical_formula_sum "Si O2"
_cell_formula_units_Z 40
_cell_length_a 12.416771
_cell_length_b 19.159737
_cell_length_c 13.321330
_cell_angle_alpha 90.000000
_cell_angle_beta 34.359683
_cell_angle_gamma 90.000000
_cell_volume 1788.637100
_symmetry_space_group_name_H-M "C 2/C"
_symmetry_group_IT_number 15
_symmetry_cell_setting 'monoclinic'
loop_
_space_group_symop_operation_xyz
x,y,z
-x,y,1/2-z
-x,-y,-z
x,-y,1/2+z
1/2+x,1/2+y,z
1/2-x,1/2+y,1/2-z
1/2-x,1/2-y,-z
1/2+x,1/2-y,1/2+z
loop_
_atom_site_type_symbol
_atom_site_label
_atom_site_fract_x
_atom_site_fract_y
_atom_site_fract_z
Si Si1 0.082553 0.683354 0.294421
Si Si2 0.175518 0.827580 0.543738
Si Si3 0.076138 0.544727 0.588892
Si Si4 0.523709 0.329052 0.439946
Si Si5 0.190686 0.422471 0.383394
O O1 0.074283 0.750342 0.371832
O O2 0.000000 0.704222 0.250000
O O3 0.961350 0.623293 0.438943
O O4 0.298868 0.657128 0.116612
O O5 0.250000 0.750000 0.500000
O O6 0.339770 0.879655 0.452056
O O7 0.118475 0.843715 0.473936
O O8 0.000000 0.841428 0.750000
O O9 0.229652 0.491831 0.420116
O O10 0.000000 0.509759 0.750000
O O11 0.895724 0.554403 0.655822
O O12 0.613004 0.381268 0.288077
#
# Coordination Sequence:
#
# PCOD8153486 Si02
#       5
#     8   8   8   8   8
#     4  12  26  46  71 107 143 190 244 304 364 427
#     4  12  25  43  74 110 143 184 237 303 367 431
#     4  11  23  48  69 104 151 189 235 295 366 428
#     4  12  24  44  74 107 143 186 247 302 361 433
#     4  11  25  45  73 104 148 195 237 294 358 446
#
# _framework density 22.363396999999999
#
# number of rings (size 3 to 8) (size 9 to 14) (size 15 to 20)
#    0.000    0.400    4.000    5.400    0.000    0.000 
#    7.200    3.000    0.000    0.000    0.000    0.000 
#    0.000    0.000    0.000    0.000    0.000    0.000 
#
# Total GULP energy -248108.634933 kJ/mol
# GULP energy per Si atom -12405.431747 kJ/mol
# Density = 2.231250 g / cm^3
# Si number density = 22.363397 Si / 1000 Ang^3
#
#
#
# Elastic Constant Matrix: (Units=GPa)
#
#
# Indices 1 2 3 4 5 6 
#
# 1 87.2318 35.5869 37.4685 -0.0208 18.0026 -0.0081
# 2 35.5869 124.8333 43.9113 -0.0479 10.1844 0.0073
# 3 37.4685 43.9113 143.5567 -0.0419 2.8682 0.0053
# 4 -0.0208 -0.0479 -0.0419 39.8983 0.0087 6.1224
# 5 18.0026 10.1844 2.8682 0.0087 37.4904 0.0128
# 6 -0.0081 0.0073 0.0053 6.1224 0.0128 41.6814
#
#
#
# Elastic Compliance Matrix: (Units=1/GPa)
#
#
# Indices 1 2 3 4 5 6 
#
# 1 0.015176 -0.002760 -0.002991 0.000002 -0.006309 0.000005
# 2 -0.002760 0.009669 -0.002215 0.000009 -0.001132 -0.000003
# 3 -0.002991 -0.002215 0.008396 0.000005 0.001395 -0.000002
# 4 0.000002 0.000009 0.000005 0.025642 -0.000008 -0.003766
# 5 -0.006309 -0.001132 0.001395 -0.000008 0.029904 -0.000009
# 6 0.000005 -0.000003 -0.000002 -0.003766 -0.000009 0.024545
#
#
# Mechanical properties :
#
#
# Convention : Reuss Voigt Hill
#
# Bulk Modulus (GPa) = 57.76716 65.50616 61.63666
# Shear Modulus (GPa) = 37.02836 39.72436 38.37636
#
# Velocity S-wave (km/s) = 4.07351 4.21920 4.14700
# Velocity P-wave (km/s) = 6.92906 7.28635 7.10995
#
# Compressibility (1/GPa) = 0.01731087
#
# Stress axis : x y z
#
# Youngs Moduli (GPa) = 65.89265 103.42612 119.10379
#
# Poissons Ratio (x) = 0.28541 0.35622
# Poissons Ratio (y) = 0.18184 0.26377
# Poissons Ratio (z) = 0.19708 0.22905
#
# Static dielectric constant tensor:
#      x y z
#    x 4.088050 -0.000080 0.244060 
#    y -0.000080 4.113920 0.000150 
#    z 0.244060 0.000150 4.323660 
# 
# 
# High freq. dielectric constant tensor:
#      x y z
#    x 1.883430 -0.000010 0.018080 
#    y -0.000010 1.888550 0.000010 
#    z 0.018080 0.000010 1.898360 
# 
# From -- ./inp_files/89331.got.cif
#   From: 2010.06.25/outbox.cif.g09.slc.cpg/sg15_45_cif.got.tgz:89331.got - 2010.06.28 07:06:18.
