data_PCOD8153260
_publ_section_title
;
Structure prediction by ZEFSAII (Michael W. Deem and Ramdas Pophale) SiO2 
 PCOD8153260
Probable space group: C 2/C
;
_chemical_formula_sum "Si O2"
_cell_formula_units_Z 44
_cell_length_a 20.323278
_cell_length_b 6.543105
_cell_length_c 17.395899
_cell_angle_alpha 90.000000
_cell_angle_beta 66.137798
_cell_angle_gamma 90.000000
_cell_volume 2115.525287
_symmetry_space_group_name_H-M "C 2/C"
_symmetry_group_IT_number 15
_symmetry_cell_setting 'monoclinic'
loop_
_space_group_symop_operation_xyz
x,y,z
-x,y,1/2-z
-x,-y,-z
x,-y,1/2+z
1/2+x,1/2+y,z
1/2-x,1/2+y,1/2-z
1/2-x,1/2-y,-z
1/2+x,1/2-y,1/2+z
loop_
_atom_site_type_symbol
_atom_site_label
_atom_site_fract_x
_atom_site_fract_y
_atom_site_fract_z
Si Si1 0.437967 0.331775 0.517696
Si Si2 0.423928 0.742261 0.196230
Si Si3 0.295347 0.449000 0.499513
Si Si4 0.500000 0.392917 0.250000
Si Si5 0.952580 0.444333 0.877148
Si Si6 0.323856 0.194813 0.877905
O O1 0.500000 0.500000 0.500000
O O2 0.405952 0.269413 0.615070
O O3 0.373106 0.412661 0.497458
O O4 0.466923 0.132079 0.457998
O O5 0.454660 0.528027 0.212099
O O6 0.351922 0.797445 0.277187
O O7 0.481171 0.920641 0.183613
O O8 0.250000 0.250000 0.500000
O O9 0.308717 0.578010 0.415824
O O10 0.250969 0.573947 0.584635
O O11 0.554462 0.253367 0.174736
O O12 0.880772 0.580362 0.907002
#
# Coordination Sequence:
#
# PCOD8153260 Si02
#       6
#     8   8   8   4   8   8
#     4  12  25  44  68 102 138 177 228 291 349 403
#     4  12  24  40  65 104 135 173 227 285 338 406
#     4  11  25  47  70  93 134 187 225 281 348 421
#     4  12  20  38  68  98 134 178 224 278 342 408
#     4  12  22  42  70 101 135 179 228 288 342 413
#     4  11  23  44  70  94 134 180 237 269 344 426
#
# _framework density 20.798617
#
# number of rings (size 3 to 8) (size 9 to 14) (size 15 to 20)
#    0.000    0.364    7.273    2.727    0.000    0.000 
#    3.273    0.000    0.000    0.000    0.000    0.000 
#    0.000    0.000    0.000    0.000    0.000    0.000 
#
# Total GULP energy -272808.080565 kJ/mol
# GULP energy per Si atom -12400.367298 kJ/mol
# Density = 2.075128 g / cm^3
# Si number density = 20.798617 Si / 1000 Ang^3
#
#
#
# Elastic Constant Matrix: (Units=GPa)
#
#
# Indices 1 2 3 4 5 6 
#
# 1 85.4690 37.6508 29.8967 0.0003 -11.3223 0.0000
# 2 37.6508 124.3316 57.6493 0.0006 -1.0181 -0.0014
# 3 29.8967 57.6493 158.3788 0.0002 -4.7088 0.0002
# 4 0.0003 0.0006 0.0002 38.3669 0.0003 -0.3338
# 5 -11.3223 -1.0181 -4.7088 0.0003 34.9710 -0.0003
# 6 0.0000 -0.0014 0.0002 -0.3338 -0.0003 38.0318
#
#
#
# Elastic Compliance Matrix: (Units=1/GPa)
#
#
# Indices 1 2 3 4 5 6 
#
# 1 0.014356 -0.003748 -0.001216 0.000000 0.004375 0.000000
# 2 -0.003748 0.010656 -0.003211 0.000000 -0.001336 0.000000
# 3 -0.001216 -0.003211 0.007729 0.000000 0.000554 0.000000
# 4 0.000000 0.000000 0.000000 0.026066 0.000000 0.000229
# 5 0.004375 -0.001336 0.000554 0.000000 0.030047 0.000000
# 6 0.000000 0.000000 0.000000 0.000229 0.000000 0.026296
#
#
# Mechanical properties :
#
#
# Convention : Reuss Voigt Hill
#
# Bulk Modulus (GPa) = 61.00682 68.73034 64.86858
# Shear Modulus (GPa) = 36.50635 38.47276 37.48956
#
# Velocity S-wave (km/s) = 4.19409 4.30557 4.25019
# Velocity P-wave (km/s) = 7.26978 7.60491 7.43923
#
# Compressibility (1/GPa) = 0.01639161
#
# Stress axis : x y z
#
# Youngs Moduli (GPa) = 69.65750 93.84521 129.38826
#
# Poissons Ratio (x) = 0.35172 0.15729
# Poissons Ratio (y) = 0.26107 0.41546
# Poissons Ratio (z) = 0.08468 0.30133
#
# Static dielectric constant tensor:
#      x y z
#    x 3.176730 0.000000 -0.693900 
#    y 0.000000 3.998420 0.000000 
#    z -0.693900 0.000000 3.286190 
# 
# 
# High freq. dielectric constant tensor:
#      x y z
#    x 1.786010 0.000000 -0.016310 
#    y 0.000000 1.833530 0.000000 
#    z -0.016310 0.000000 1.832040 
# 
# From -- ./inp_files/212851.got.cif
#   From: 2010.06.25/outbox.cif.g09.slc.cpg/sg15_107_cif.got.tgz:212851.got - 2010.06.28 07:06:18.
