data_PCOD8153990
_publ_section_title
;
Structure prediction by ZEFSAII (Michael W. Deem and Ramdas Pophale) SiO2 
 PCOD8153990
Probable space group: C 2/C
;
_chemical_formula_sum "Si O2"
_cell_formula_units_Z 40
_cell_length_a 18.546022
_cell_length_b 7.307208
_cell_length_c 17.638263
_cell_angle_alpha 90.000000
_cell_angle_beta 129.803707
_cell_angle_gamma 90.000000
_cell_volume 1836.352969
_symmetry_space_group_name_H-M "C 2/C"
_symmetry_group_IT_number 15
_symmetry_cell_setting 'monoclinic'
loop_
_space_group_symop_operation_xyz
x,y,z
-x,y,1/2-z
-x,-y,-z
x,-y,1/2+z
1/2+x,1/2+y,z
1/2-x,1/2+y,1/2-z
1/2-x,1/2-y,-z
1/2+x,1/2-y,1/2+z
loop_
_atom_site_type_symbol
_atom_site_label
_atom_site_fract_x
_atom_site_fract_y
_atom_site_fract_z
Si Si1 0.637236 0.054032 0.634700
Si Si2 0.557582 0.066045 0.927656
Si Si3 0.327972 0.388069 0.522589
Si Si4 0.256863 0.604979 0.338974
Si Si5 0.604335 0.258224 0.345990
O O1 0.553655 0.048182 0.639888
O O2 0.657972 0.257058 0.619152
O O3 0.609206 0.935253 0.543415
O O4 0.728139 0.974217 0.737770
O O5 0.576318 0.270537 0.909391
O O6 0.599627 0.910157 0.901492
O O7 0.250000 0.250000 0.500000
O O8 0.298845 0.443535 0.418166
O O9 0.341692 0.570676 0.580793
O O10 0.166971 0.701278 0.316817
O O11 0.500000 0.314528 0.250000
#
# Coordination Sequence:
#
# PCOD8153990 Si02
#       5
#     8   8   8   8   8
#     4  11  25  43  71 100 146 177 231 292 363 413
#     4  11  24  48  68 100 142 186 225 297 347 419
#     4  12  25  42  74 102 137 181 239 288 343 411
#     4  12  24  44  70 105 137 184 233 293 352 421
#     4  12  25  46  74 101 138 188 239 282 348 424
#
# _framework density 21.782305999999998
#
# number of rings (size 3 to 8) (size 9 to 14) (size 15 to 20)
#    0.000    0.400    6.000    3.000    0.000    4.800 
#    0.000    0.000    0.000    0.000    0.000    0.000 
#    0.000    0.000    0.000    0.000    0.000    0.000 
#
# Total GULP energy -248050.861231 kJ/mol
# GULP energy per Si atom -12402.543062 kJ/mol
# Density = 2.173273 g / cm^3
# Si number density = 21.782306 Si / 1000 Ang^3
#
#
#
# Elastic Constant Matrix: (Units=GPa)
#
#
# Indices 1 2 3 4 5 6 
#
# 1 62.8804 44.9689 9.9613 0.0000 -7.7590 0.0000
# 2 44.9689 131.4330 26.2536 0.0000 1.9669 0.0000
# 3 9.9613 26.2536 87.7445 0.0000 -0.2554 0.0000
# 4 0.0000 0.0000 0.0000 32.0923 0.0000 -0.5994
# 5 -7.7590 1.9669 -0.2554 0.0000 25.0018 0.0000
# 6 0.0000 0.0000 0.0000 -0.5994 0.0000 44.6977
#
#
#
# Elastic Compliance Matrix: (Units=1/GPa)
#
#
# Indices 1 2 3 4 5 6 
#
# 1 0.022401 -0.007736 -0.000206 0.000000 0.007558 0.000000
# 2 -0.007736 0.010775 -0.002355 0.000000 -0.003273 0.000000
# 3 -0.000206 -0.002355 0.012126 0.000000 0.000245 0.000000
# 4 0.000000 0.000000 0.000000 0.031168 0.000000 0.000418
# 5 0.007558 -0.003273 0.000245 0.000000 0.042603 0.000000
# 6 0.000000 0.000000 0.000000 0.000418 0.000000 0.022378
#
#
# Mechanical properties :
#
#
# Convention : Reuss Voigt Hill
#
# Bulk Modulus (GPa) = 40.47618 49.38062 44.92840
# Shear Modulus (GPa) = 29.36320 33.74997 31.55659
#
# Velocity S-wave (km/s) = 3.67554 3.94054 3.81034
# Velocity P-wave (km/s) = 6.05270 6.58962 6.32686
#
# Compressibility (1/GPa) = 0.02470589
#
# Stress axis : x y z
#
# Youngs Moduli (GPa) = 44.64049 92.80946 82.47062
#
# Poissons Ratio (x) = 0.71800 0.01702
# Poissons Ratio (y) = 0.34535 0.19423
# Poissons Ratio (z) = 0.00921 0.21858
#
# Static dielectric constant tensor:
#      x y z
#    x 4.047780 0.000000 0.027560 
#    y 0.000000 4.158330 0.000000 
#    z 0.027560 0.000000 3.913310 
# 
# 
# High freq. dielectric constant tensor:
#      x y z
#    x 1.860260 0.000000 -0.000910 
#    y 0.000000 1.863030 0.000000 
#    z -0.000910 0.000000 1.863070 
# 
# From -- ./inp_files/251137.got.cif
#   From: 2010.06.25/outbox.cif.g09.slc.cpg/sg15_126_cif.got.tgz:251137.got - 2010.06.28 07:06:18.
