data_PCOD8153213
_publ_section_title
;
Structure prediction by ZEFSAII (Michael W. Deem and Ramdas Pophale) SiO2 
 PCOD8153213
Probable space group: C 2/C
;
_chemical_formula_sum "Si O2"
_cell_formula_units_Z 48
_cell_length_a 14.472474
_cell_length_b 10.526642
_cell_length_c 27.028744
_cell_angle_alpha 90.000000
_cell_angle_beta 150.122205
_cell_angle_gamma 90.000000
_cell_volume 2051.257323
_symmetry_space_group_name_H-M "C 2/C"
_symmetry_group_IT_number 15
_symmetry_cell_setting 'monoclinic'
loop_
_space_group_symop_operation_xyz
x,y,z
-x,y,1/2-z
-x,-y,-z
x,-y,1/2+z
1/2+x,1/2+y,z
1/2-x,1/2+y,1/2-z
1/2-x,1/2-y,-z
1/2+x,1/2-y,1/2+z
loop_
_atom_site_type_symbol
_atom_site_label
_atom_site_fract_x
_atom_site_fract_y
_atom_site_fract_z
Si Si1 0.852484 0.362530 0.465966
Si Si2 0.956136 0.306444 0.041994
Si Si3 0.528634 0.983741 0.878460
Si Si4 0.135442 0.065477 0.168078
Si Si5 0.389346 0.428675 0.992037
Si Si6 0.583963 0.410049 0.840236
O O1 0.982358 0.386384 0.478293
O O2 0.816147 0.211876 0.446559
O O3 0.667800 0.447443 0.373812
O O4 0.939805 0.390148 0.560200
O O5 0.019970 0.379273 0.121101
O O6 0.044575 0.167609 0.087589
O O7 0.732135 0.310181 0.932318
O O8 0.356888 0.936424 0.765215
O O9 0.704480 0.001793 0.924224
O O10 0.090101 0.089470 0.203986
O O11 0.038744 0.932460 0.106661
O O12 0.500000 0.500000 0.000000
O O13 0.500000 0.359961 0.750000
#
# Coordination Sequence:
#
# PCOD8153213 Si02
#       6
#     8   8   8   8   8   8
#     4  11  23  44  72  98 143 176 236 295 344 422
#     4  11  23  45  70 104 145 181 234 301 345 420
#     4  11  26  44  72 101 137 189 239 288 355 418
#     4  12  25  44  71 102 148 184 233 294 360 420
#     4  12  26  47  67 101 142 185 231 294 357 427
#     4  11  23  43  75 107 135 186 244 289 352 416
#
# _framework density 23.400283000000002
#
# number of rings (size 3 to 8) (size 9 to 14) (size 15 to 20)
#    0.000    0.667    5.000    5.000    2.333    2.000 
#    0.000    0.000    0.000    0.000    0.000    0.000 
#    0.000    0.000    0.000    0.000    0.000    0.000 
#
# Total GULP energy -297398.328530 kJ/mol
# GULP energy per Si atom -12391.597022 kJ/mol
# Density = 2.334702 g / cm^3
# Si number density = 23.400283 Si / 1000 Ang^3
#
#
#
# Elastic Constant Matrix: (Units=GPa)
#
#
# Indices 1 2 3 4 5 6 
#
# 1 140.4205 7.8254 43.8057 -0.0001 19.8219 0.0000
# 2 7.8254 75.1076 30.6001 0.0001 5.2759 0.0000
# 3 43.8057 30.6001 152.7780 0.0009 8.6985 -0.0001
# 4 -0.0001 0.0001 0.0009 16.8569 0.0001 -2.8288
# 5 19.8219 5.2759 8.6985 0.0001 33.2445 0.0000
# 6 0.0000 0.0000 -0.0001 -2.8288 0.0000 28.9835
#
#
#
# Elastic Compliance Matrix: (Units=1/GPa)
#
#
# Indices 1 2 3 4 5 6 
#
# 1 0.008433 0.000346 -0.002231 0.000000 -0.004500 0.000000
# 2 0.000346 0.014592 -0.002922 0.000000 -0.001758 0.000000
# 3 -0.002231 -0.002922 0.007784 0.000000 -0.000243 0.000000
# 4 0.000000 0.000000 0.000000 0.060311 0.000000 0.005886
# 5 -0.004500 -0.001758 -0.000243 0.000000 0.033105 0.000000
# 6 0.000000 0.000000 0.000000 0.005886 0.000000 0.035077
#
#
# Mechanical properties :
#
#
# Convention : Reuss Voigt Hill
#
# Bulk Modulus (GPa) = 47.17826 59.19651 53.18739
# Shear Modulus (GPa) = 28.41203 34.88863 31.65033
#
# Velocity S-wave (km/s) = 3.48828 3.86547 3.68171
# Velocity P-wave (km/s) = 6.03567 6.72865 6.39156
#
# Compressibility (1/GPa) = 0.02119620
#
# Stress axis : x y z
#
# Youngs Moduli (GPa) = 118.57624 68.53051 128.46420
#
# Poissons Ratio (x) = -0.02374 0.28664
# Poissons Ratio (y) = -0.04108 0.37536
# Poissons Ratio (z) = 0.26458 0.20024
#
# Static dielectric constant tensor:
#      x y z
#    x 4.485990 0.000000 -0.080150 
#    y 0.000000 4.158260 0.000000 
#    z -0.080150 0.000000 4.003380 
# 
# 
# High freq. dielectric constant tensor:
#      x y z
#    x 1.947010 0.000000 -0.005660 
#    y 0.000000 1.919700 0.000000 
#    z -0.005660 0.000000 1.908490 
# 
# From -- ./inp_files/151844.got.cif
#   From: 2010.06.25/outbox.cif.g09.slc.cpg/sg15_76_cif.got.tgz:151844.got - 2010.06.28 07:06:18.
