data_PCOD8153607
_publ_section_title
;
Structure prediction by ZEFSAII (Michael W. Deem and Ramdas Pophale) SiO2 
 PCOD8153607
Probable space group: C 2/C
;
_chemical_formula_sum "Si O2"
_cell_formula_units_Z 64
_cell_length_a 30.894348
_cell_length_b 11.200546
_cell_length_c 8.712494
_cell_angle_alpha 90.000000
_cell_angle_beta 91.222622
_cell_angle_gamma 90.000000
_cell_volume 3014.129005
_symmetry_space_group_name_H-M "C 2/C"
_symmetry_group_IT_number 15
_symmetry_cell_setting 'monoclinic'
loop_
_space_group_symop_operation_xyz
x,y,z
-x,y,1/2-z
-x,-y,-z
x,-y,1/2+z
1/2+x,1/2+y,z
1/2-x,1/2+y,1/2-z
1/2-x,1/2-y,-z
1/2+x,1/2-y,1/2+z
loop_
_atom_site_type_symbol
_atom_site_label
_atom_site_fract_x
_atom_site_fract_y
_atom_site_fract_z
Si Si1 0.770935 0.550110 0.394057
Si Si2 0.640289 0.933378 0.110181
Si Si3 0.956439 0.833188 0.180796
Si Si4 0.319552 0.280440 0.429917
Si Si5 0.364981 0.319318 0.749794
Si Si6 0.544602 0.575499 0.167293
Si Si7 0.116748 0.353239 0.778832
Si Si8 0.710303 0.534501 0.128487
O O1 0.811979 0.476742 0.338642
O O2 0.787272 0.672385 0.479297
O O3 0.741463 0.596187 0.253718
O O4 0.738950 0.457397 0.477438
O O5 0.631421 0.816975 0.205364
O O6 0.606434 0.037439 0.160701
O O7 0.638026 0.913368 0.929313
O O8 0.924233 0.722401 0.171659
O O9 0.000000 0.774106 0.250000
O O10 0.945234 0.935326 0.305221
O O11 0.960313 0.894487 0.013412
O O12 0.345655 0.331424 0.578228
O O13 0.350675 0.237197 0.298051
O O14 0.295643 0.392137 0.350412
O O15 0.414473 0.360235 0.754062
O O16 0.335605 0.394567 0.870342
O O17 0.500000 0.612672 0.250000
#
# Coordination Sequence:
#
# PCOD8153607 Si02
#       8
#     8   8   8   8   8   8   8   8
#     4  11  24  43  65  90 134 184 234 284 351 404
#     4  11  24  46  68  98 135 188 233 286 338 417
#     4  11  24  45  73 110 140 178 225 286 356 419
#     4  11  25  44  63  95 138 184 231 296 348 415
#     4  12  26  42  70 100 137 179 234 286 350 415
#     4  11  25  45  75 108 145 180 222 286 360 420
#     4  11  24  46  72  97 136 184 234 284 351 414
#     4  12  25  39  65  99 132 180 234 293 350 413
#
# _framework density 21.233331
#
# number of rings (size 3 to 8) (size 9 to 14) (size 15 to 20)
#    0.000    0.750    2.500    6.375    8.750    0.500 
#    0.000    1.250    0.000    0.000    0.000    0.000 
#    0.000    0.000    0.000    0.000    0.000    0.000 
#
# Total GULP energy -396537.254929 kJ/mol
# GULP energy per Si atom -12391.789217 kJ/mol
# Density = 2.118500 g / cm^3
# Si number density = 21.233331 Si / 1000 Ang^3
#
#
#
# Elastic Constant Matrix: (Units=GPa)
#
#
# Indices 1 2 3 4 5 6 
#
# 1 121.8145 53.6293 29.2542 0.0000 -1.4740 0.0000
# 2 53.6293 100.7125 21.2557 0.0000 -19.5325 0.0000
# 3 29.2542 21.2557 92.3094 0.0000 3.2074 0.0000
# 4 0.0000 0.0000 0.0000 38.9465 0.0000 -5.4675
# 5 -1.4740 -19.5325 3.2074 0.0000 34.7505 0.0000
# 6 0.0000 0.0000 0.0000 -5.4675 0.0000 25.5442
#
#
#
# Elastic Compliance Matrix: (Units=1/GPa)
#
#
# Indices 1 2 3 4 5 6 
#
# 1 0.011393 -0.006166 -0.002094 0.000000 -0.002789 0.000000
# 2 -0.006166 0.015248 -0.001852 0.000000 0.008480 0.000000
# 3 -0.002094 -0.001852 0.012001 0.000000 -0.002237 0.000000
# 4 0.000000 0.000000 0.000000 0.026472 0.000000 0.005666
# 5 -0.002789 0.008480 -0.002237 0.000000 0.033631 0.000000
# 6 0.000000 0.000000 0.000000 0.005666 0.000000 0.040361
#
#
# Mechanical properties :
#
#
# Convention : Reuss Voigt Hill
#
# Bulk Modulus (GPa) = 54.29183 58.12387 56.20785
# Shear Modulus (GPa) = 30.21750 33.89472 32.05611
#
# Velocity S-wave (km/s) = 3.77651 3.99970 3.88971
# Velocity P-wave (km/s) = 6.68137 6.98309 6.83389
#
# Compressibility (1/GPa) = 0.01841898
#
# Stress axis : x y z
#
# Youngs Moduli (GPa) = 87.77517 65.58294 83.32751
#
# Poissons Ratio (x) = 0.40436 0.17448
# Poissons Ratio (y) = 0.54119 0.15430
# Poissons Ratio (z) = 0.18379 0.12144
#
# Static dielectric constant tensor:
#      x y z
#    x 4.096420 0.000000 0.117510 
#    y 0.000000 3.947240 0.000000 
#    z 0.117510 0.000000 3.958440 
# 
# 
# High freq. dielectric constant tensor:
#      x y z
#    x 1.832180 0.000000 -0.001650 
#    y 0.000000 1.836390 0.000000 
#    z -0.001650 0.000000 1.837730 
# 
# From -- ./inp_files/69384.got.cif
#   From: 2010.06.25/outbox.cif.g09.slc.cpg/sg15_35_cif.got.tgz:69384.got - 2010.06.28 07:06:18.
