data_PCOD8153761
_publ_section_title
;
Structure prediction by ZEFSAII (Michael W. Deem and Ramdas Pophale) SiO2 
 PCOD8153761
Probable space group: C 2/C
;
_chemical_formula_sum "Si O2"
_cell_formula_units_Z 36
_cell_length_a 11.029599
_cell_length_b 9.732558
_cell_length_c 16.226061
_cell_angle_alpha 90.000000
_cell_angle_beta 122.312303
_cell_angle_gamma 90.000000
_cell_volume 1472.082399
_symmetry_space_group_name_H-M "C 2/C"
_symmetry_group_IT_number 15
_symmetry_cell_setting 'monoclinic'
loop_
_space_group_symop_operation_xyz
x,y,z
-x,y,1/2-z
-x,-y,-z
x,-y,1/2+z
1/2+x,1/2+y,z
1/2-x,1/2+y,1/2-z
1/2-x,1/2-y,-z
1/2+x,1/2-y,1/2+z
loop_
_atom_site_type_symbol
_atom_site_label
_atom_site_fract_x
_atom_site_fract_y
_atom_site_fract_z
Si Si1 0.214001 0.045980 0.064224
Si Si2 0.021293 0.595786 0.899069
Si Si3 0.500000 0.693111 0.250000
Si Si4 0.545335 0.714488 0.557820
Si Si5 0.721134 0.101360 0.227884
O O1 0.242575 0.114181 0.163135
O O2 0.362427 0.027058 0.068798
O O3 0.138733 0.898315 0.044086
O O4 0.109681 0.149398 0.976230
O O5 0.055345 0.714745 0.845847
O O6 0.863406 0.538936 0.821408
O O7 0.029184 0.651130 0.994494
O O8 0.368657 0.596913 0.229919
O O9 0.626317 0.764661 0.669426
#
# Coordination Sequence:
#
# PCOD8153761 Si02
#       5
#     8   8   4   8   8
#     4  11  24  44  75 103 142 183 229 288 349 409
#     4  12  23  47  71 102 142 184 231 288 344 411
#     4  12  24  44  74  96 144 188 226 286 350 408
#     4  11  25  44  73 106 136 185 237 278 350 420
#     4  12  24  43  72 108 135 184 234 283 349 409
#
# _framework density 24.455152999999999
#
# number of rings (size 3 to 8) (size 9 to 14) (size 15 to 20)
#    0.000    0.444    6.667    1.333    0.000    0.889 
#    0.000    4.444    0.000    0.000    0.000    0.000 
#    0.000    0.000    0.000    0.000    0.000    0.000 
#
# Total GULP energy -223330.547195 kJ/mol
# GULP energy per Si atom -12407.252622 kJ/mol
# Density = 2.439949 g / cm^3
# Si number density = 24.455153 Si / 1000 Ang^3
#
#
#
# Elastic Constant Matrix: (Units=GPa)
#
#
# Indices 1 2 3 4 5 6 
#
# 1 157.6226 47.3360 38.6388 0.0000 27.6469 0.0000
# 2 47.3360 80.2578 31.7890 0.0000 12.7867 0.0000
# 3 38.6388 31.7890 92.0813 0.0000 25.0761 0.0000
# 4 0.0000 0.0000 0.0000 51.5509 0.0000 8.2137
# 5 27.6469 12.7867 25.0761 0.0000 32.7058 0.0000
# 6 0.0000 0.0000 0.0000 8.2137 0.0000 33.6659
#
#
#
# Elastic Compliance Matrix: (Units=1/GPa)
#
#
# Indices 1 2 3 4 5 6 
#
# 1 0.008633 -0.003933 -0.000880 0.000000 -0.005085 0.000000
# 2 -0.003933 0.016364 -0.003997 0.000000 -0.000009 0.000000
# 3 -0.000880 -0.003997 0.015143 0.000000 -0.009304 0.000000
# 4 0.000000 0.000000 0.000000 0.020183 0.000000 -0.004924
# 5 -0.005085 -0.000009 -0.009304 0.000000 0.042011 0.000000
# 6 0.000000 0.000000 0.000000 -0.004924 0.000000 0.030905
#
#
# Mechanical properties :
#
#
# Convention : Reuss Voigt Hill
#
# Bulk Modulus (GPa) = 44.40376 62.83216 53.61796
# Shear Modulus (GPa) = 31.57273 37.73104 34.65188
#
# Velocity S-wave (km/s) = 3.59701 3.93220 3.76833
# Velocity P-wave (km/s) = 5.95382 6.80917 6.39581
#
# Compressibility (1/GPa) = 0.02252062
#
# Stress axis : x y z
#
# Youngs Moduli (GPa) = 115.83341 61.11001 66.03914
#
# Poissons Ratio (x) = 0.24035 0.05811
# Poissons Ratio (y) = 0.45558 0.26393
# Poissons Ratio (z) = 0.10192 0.24423
#
# Static dielectric constant tensor:
#      x y z
#    x 4.416410 0.000000 0.335730 
#    y 0.000000 4.319780 0.000000 
#    z 0.335730 0.000000 4.491350 
# 
# 
# High freq. dielectric constant tensor:
#      x y z
#    x 1.969130 0.000000 0.024070 
#    y 0.000000 1.971170 0.000000 
#    z 0.024070 0.000000 1.978180 
# 
# From -- ./inp_files/195779.got.cif
#   From: 2010.06.25/outbox.cif.g09.slc.cpg/sg15_98_cif.got.tgz:195779.got - 2010.06.28 07:06:18.
