data_PCOD8153794
_publ_section_title
;
Structure prediction by ZEFSAII (Michael W. Deem and Ramdas Pophale) SiO2 
 PCOD8153794
Probable space group: C 2/C
;
_chemical_formula_sum "Si O2"
_cell_formula_units_Z 52
_cell_length_a 7.959147
_cell_length_b 17.867814
_cell_length_c 15.172927
_cell_angle_alpha 90.000000
_cell_angle_beta 79.118520
_cell_angle_gamma 90.000000
_cell_volume 2118.983399
_symmetry_space_group_name_H-M "C 2/C"
_symmetry_group_IT_number 15
_symmetry_cell_setting 'monoclinic'
loop_
_space_group_symop_operation_xyz
x,y,z
-x,y,1/2-z
-x,-y,-z
x,-y,1/2+z
1/2+x,1/2+y,z
1/2-x,1/2+y,1/2-z
1/2-x,1/2-y,-z
1/2+x,1/2-y,1/2+z
loop_
_atom_site_type_symbol
_atom_site_label
_atom_site_fract_x
_atom_site_fract_y
_atom_site_fract_z
Si Si1 0.500000 0.450550 0.750000
Si Si2 0.246540 0.181549 0.865294
Si Si3 0.452487 0.725890 0.457736
Si Si4 0.534677 0.887014 0.527416
Si Si5 0.000000 0.235002 0.750000
Si Si6 0.254795 0.353296 0.658758
Si Si7 0.205553 0.493783 0.383646
Si Si8 0.500000 0.933560 0.250000
O O1 0.348081 0.401971 0.723110
O O2 0.592568 0.498133 0.662579
O O3 0.369899 0.254691 0.868902
O O4 0.369261 0.115104 0.822390
O O5 0.077235 0.185180 0.821088
O O6 0.175926 0.173085 0.972852
O O7 0.495814 0.800977 0.509545
O O8 0.619093 0.677729 0.427767
O O9 0.614132 0.898412 0.617164
O O10 0.360952 0.936486 0.550424
O O11 0.669811 0.917926 0.441743
O O12 0.833485 0.282666 0.787788
O O13 0.107191 0.487697 0.301045
#
# Coordination Sequence:
#
# PCOD8153794 Si02
#       8
#     4   8   8   8   4   8   8   4
#     4  12  28  46  68 104 138 184 234 290 330 406
#     4  11  25  40  72 101 141 173 226 278 359 398
#     4  11  24  45  69 108 133 183 218 289 354 419
#     4  11  24  48  70  96 136 190 228 279 335 424
#     4  12  24  40  66 112 138 174 212 292 362 406
#     4  12  25  42  72 100 140 172 229 289 355 398
#     4  11  27  46  70  93 139 189 237 269 335 401
#     4  12  24  48  70 102 138 186 226 292 334 406
#
# _framework density 24.540068000000002
#
# number of rings (size 3 to 8) (size 9 to 14) (size 15 to 20)
#    0.000    0.615    3.077    4.154    4.308    2.462 
#    0.000    0.000    0.000    0.000    0.000    0.000 
#    0.000    0.000    0.000    0.000    0.000    0.000 
#
# Total GULP energy -322185.813569 kJ/mol
# GULP energy per Si atom -12391.762060 kJ/mol
# Density = 2.448421 g / cm^3
# Si number density = 24.540068 Si / 1000 Ang^3
#
#
#
# Elastic Constant Matrix: (Units=GPa)
#
#
# Indices 1 2 3 4 5 6 
#
# 1 100.6078 18.8241 21.0669 0.0000 -5.3618 0.0000
# 2 18.8241 56.7805 24.4627 0.0000 -22.1691 0.0000
# 3 21.0669 24.4627 73.0167 0.0000 -8.4970 0.0000
# 4 0.0000 0.0000 0.0000 28.9523 0.0000 -8.4090
# 5 -5.3618 -22.1691 -8.4970 0.0000 77.1078 0.0000
# 6 0.0000 0.0000 0.0000 -8.4090 0.0000 53.1411
#
#
#
# Elastic Compliance Matrix: (Units=1/GPa)
#
#
# Indices 1 2 3 4 5 6 
#
# 1 0.010913 -0.002755 -0.002258 0.000000 -0.000282 0.000000
# 2 -0.002755 0.023589 -0.006424 0.000000 0.005883 0.000000
# 3 -0.002258 -0.006424 0.016477 0.000000 -0.000188 0.000000
# 4 0.000000 0.000000 0.000000 0.036203 0.000000 0.005729
# 5 -0.000282 0.005883 -0.000188 0.000000 0.014620 0.000000
# 6 0.000000 0.000000 0.000000 0.005729 0.000000 0.019724
#
#
# Mechanical properties :
#
#
# Convention : Reuss Voigt Hill
#
# Bulk Modulus (GPa) = 35.58045 39.90140 37.74092
# Shear Modulus (GPa) = 32.51610 42.91034 37.71322
#
# Velocity S-wave (km/s) = 3.64403 4.18614 3.92446
# Velocity P-wave (km/s) = 5.67765 6.29762 5.99565
#
# Compressibility (1/GPa) = 0.02810532
#
# Stress axis : x y z
#
# Youngs Moduli (GPa) = 91.63434 42.39195 60.68951
#
# Poissons Ratio (x) = 0.11679 0.13706
# Poissons Ratio (y) = 0.25246 0.38985
# Poissons Ratio (z) = 0.20695 0.27231
#
# Static dielectric constant tensor:
#      x y z
#    x 3.929310 0.000000 -0.312350 
#    y 0.000000 4.011630 0.000000 
#    z -0.312350 0.000000 4.424290 
# 
# 
# High freq. dielectric constant tensor:
#      x y z
#    x 1.988170 0.000000 -0.005430 
#    y 0.000000 1.952370 0.000000 
#    z -0.005430 0.000000 1.987230 
# 
# From -- ./inp_files/136034.got.cif
#   From: 2010.06.25/outbox.cif.g09.slc.cpg/sg15_69_cif.got.tgz:136034.got - 2010.06.28 07:06:18.
