data_PCOD8153797
_publ_section_title
;
Structure prediction by ZEFSAII (Michael W. Deem and Ramdas Pophale) SiO2 
 PCOD8153797
Probable space group: C 2/C
;
_chemical_formula_sum "Si O2"
_cell_formula_units_Z 48
_cell_length_a 28.433387
_cell_length_b 13.619872
_cell_length_c 12.390253
_cell_angle_alpha 90.000000
_cell_angle_beta 151.994923
_cell_angle_gamma 90.000000
_cell_volume 2253.011746
_symmetry_space_group_name_H-M "C 2/C"
_symmetry_group_IT_number 15
_symmetry_cell_setting 'monoclinic'
loop_
_space_group_symop_operation_xyz
x,y,z
-x,y,1/2-z
-x,-y,-z
x,-y,1/2+z
1/2+x,1/2+y,z
1/2-x,1/2+y,1/2-z
1/2-x,1/2-y,-z
1/2+x,1/2-y,1/2+z
loop_
_atom_site_type_symbol
_atom_site_label
_atom_site_fract_x
_atom_site_fract_y
_atom_site_fract_z
Si Si1 0.947357 0.838241 0.756398
Si Si2 0.185338 0.338765 0.506718
Si Si3 0.263087 0.555464 0.967307
Si Si4 0.710861 0.230159 0.593643
Si Si5 0.881980 0.466222 0.515392
Si Si6 0.359702 0.359578 0.233831
O O1 0.916428 0.724580 0.711287
O O2 0.848758 0.906423 0.559423
O O3 0.000000 0.856129 0.750000
O O4 0.022844 0.872360 0.003457
O O5 0.237414 0.355573 0.496463
O O6 0.262349 0.280549 0.739026
O O7 0.160263 0.444801 0.501371
O O8 0.301987 0.462358 0.112730
O O9 0.165097 0.527485 0.699753
O O10 0.644715 0.134550 0.479310
O O11 0.645798 0.305868 0.392208
O O12 0.812574 0.205742 0.734579
O O13 0.000000 0.475618 0.750000
#
# Coordination Sequence:
#
# PCOD8153797 Si02
#       6
#     8   8   8   8   8   8
#     4  12  25  45  74 102 139 187 235 283 356 417
#     4  12  25  46  72 101 146 184 228 295 348 407
#     4  12  26  46  71 106 141 180 237 297 341 417
#     4  11  24  45  69  97 147 182 228 291 348 415
#     4  12  27  44  70 106 140 186 231 289 350 417
#     4  11  24  45  71 103 136 187 235 281 354 412
#
# _framework density 21.304815999999999
#
# number of rings (size 3 to 8) (size 9 to 14) (size 15 to 20)
#    0.000    0.333    6.667    1.500    2.333    0.667 
#    0.000    0.833    0.000    0.000    0.000    0.000 
#    0.000    0.000    0.000    0.000    0.000    0.000 
#
# Total GULP energy -297777.227240 kJ/mol
# GULP energy per Si atom -12407.384468 kJ/mol
# Density = 2.125633 g / cm^3
# Si number density = 21.304816 Si / 1000 Ang^3
#
#
#
# Elastic Constant Matrix: (Units=GPa)
#
#
# Indices 1 2 3 4 5 6 
#
# 1 96.5314 28.7234 42.3561 0.0000 -0.4057 0.0000
# 2 28.7234 105.2053 38.8576 0.0000 2.5236 0.0000
# 3 42.3561 38.8576 147.3341 0.0000 -7.4538 0.0000
# 4 0.0000 0.0000 0.0000 36.5533 0.0000 -3.8853
# 5 -0.4057 2.5236 -7.4538 0.0000 23.9247 0.0000
# 6 0.0000 0.0000 0.0000 -3.8853 0.0000 39.6141
#
#
#
# Elastic Compliance Matrix: (Units=1/GPa)
#
#
# Indices 1 2 3 4 5 6 
#
# 1 0.012334 -0.002257 -0.002975 0.000000 -0.000480 0.000000
# 2 -0.002257 0.011040 -0.002361 0.000000 -0.001938 0.000000
# 3 -0.002975 -0.002361 0.008408 0.000000 0.002818 0.000000
# 4 0.000000 0.000000 0.000000 0.027645 0.000000 0.002711
# 5 -0.000480 -0.001938 0.002818 0.000000 0.042872 0.000000
# 6 0.000000 0.000000 0.000000 0.002711 0.000000 0.025509
#
#
# Mechanical properties :
#
#
# Convention : Reuss Voigt Hill
#
# Bulk Modulus (GPa) = 60.25491 63.21608 61.73550
# Shear Modulus (GPa) = 33.66393 35.96066 34.81230
#
# Velocity S-wave (km/s) = 3.97937 4.11288 4.04668
# Velocity P-wave (km/s) = 7.03261 7.23125 7.13262
#
# Compressibility (1/GPa) = 0.01659616
#
# Stress axis : x y z
#
# Youngs Moduli (GPa) = 81.07496 90.58002 118.93851
#
# Poissons Ratio (x) = 0.20446 0.35382
# Poissons Ratio (y) = 0.18301 0.28079
# Poissons Ratio (z) = 0.24118 0.21384
#
# Static dielectric constant tensor:
#      x y z
#    x 3.765500 0.000000 -0.122710 
#    y 0.000000 4.060350 0.000000 
#    z -0.122710 0.000000 3.981150 
# 
# 
# High freq. dielectric constant tensor:
#      x y z
#    x 1.834380 0.000000 -0.009200 
#    y 0.000000 1.851120 0.000000 
#    z -0.009200 0.000000 1.840320 
# 
# From -- ./inp_files/123419.got.cif
#   From: 2010.06.25/outbox.cif.g09.slc.cpg/sg15_62_cif.got.tgz:123419.got - 2010.06.28 07:06:18.
