data_PCOD8153592
_publ_section_title
;
Structure prediction by ZEFSAII (Michael W. Deem and Ramdas Pophale) SiO2 
 PCOD8153592
Probable space group: C 2/C
;
_chemical_formula_sum "Si O2"
_cell_formula_units_Z 56
_cell_length_a 30.185106
_cell_length_b 12.531158
_cell_length_c 14.099222
_cell_angle_alpha 90.000000
_cell_angle_beta 28.549778
_cell_angle_gamma 90.000000
_cell_volume 2548.802370
_symmetry_space_group_name_H-M "C 2/C"
_symmetry_group_IT_number 15
_symmetry_cell_setting 'monoclinic'
loop_
_space_group_symop_operation_xyz
x,y,z
-x,y,1/2-z
-x,-y,-z
x,-y,1/2+z
1/2+x,1/2+y,z
1/2-x,1/2+y,1/2-z
1/2-x,1/2-y,-z
1/2+x,1/2-y,1/2+z
loop_
_atom_site_type_symbol
_atom_site_label
_atom_site_fract_x
_atom_site_fract_y
_atom_site_fract_z
Si Si1 0.239471 0.354803 0.582552
Si Si2 0.658084 0.628819 0.940722
Si Si3 0.885775 0.987371 0.796502
Si Si4 0.339561 0.746825 0.058296
Si Si5 0.500000 0.111821 0.250000
Si Si6 0.000000 0.295517 0.250000
Si Si7 0.924271 0.933002 0.518869
Si Si8 0.043940 0.549300 0.510948
O O1 0.250000 0.250000 0.500000
O O2 0.300163 0.443867 0.415940
O O3 0.293516 0.341308 0.579064
O O4 0.137145 0.393705 0.799804
O O5 0.762334 0.667220 0.731063
O O6 0.633299 0.531976 0.916398
O O7 0.654332 0.599622 0.057447
O O8 0.588304 0.726263 0.054994
O O9 0.924548 0.927493 0.632346
O O10 0.965132 0.051792 0.708598
O O11 0.385223 0.681095 0.059127
O O12 0.420429 0.813616 0.853066
O O13 0.444657 0.047243 0.435663
O O14 0.981415 0.366530 0.189439
O O15 0.000000 0.500000 0.500000
#
# Coordination Sequence:
#
# PCOD8153592 Si02
#       8
#     8   8   8   8   4   4   8   8
#     4  12  24  42  70 104 135 190 241 286 357 437
#     4  12  23  44  72  99 142 182 238 295 352 430
#     4  11  24  42  70  98 138 180 234 297 353 415
#     4  12  25  42  72  99 141 184 239 288 360 422
#     4  11  26  45  68 104 140 191 230 303 354 420
#     4  11  24  43  72 102 134 193 232 291 364 418
#     4  11  25  43  68 103 140 181 237 303 351 423
#     4  11  26  47  68 102 147 184 238 294 362 426
#
# _framework density 21.971101999999998
#
# number of rings (size 3 to 8) (size 9 to 14) (size 15 to 20)
#    0.000    0.571    4.286    3.429    0.000    2.857 
#    0.000    0.000    0.000    0.000    0.000    0.000 
#    0.000    0.000    0.000    0.000    0.000    0.000 
#
# Total GULP energy -346982.455344 kJ/mol
# GULP energy per Si atom -12392.230548 kJ/mol
# Density = 2.192110 g / cm^3
# Si number density = 21.971102 Si / 1000 Ang^3
#
#
#
# Elastic Constant Matrix: (Units=GPa)
#
#
# Indices 1 2 3 4 5 6 
#
# 1 98.1197 37.3847 35.9738 0.0000 3.0009 0.0000
# 2 37.3847 94.0347 48.4770 0.0000 -5.2278 0.0000
# 3 35.9738 48.4770 135.8550 0.0000 -15.9815 0.0000
# 4 0.0000 0.0000 0.0000 43.1896 0.0000 -5.5178
# 5 3.0009 -5.2278 -15.9815 0.0000 29.1295 0.0000
# 6 0.0000 0.0000 0.0000 -5.5178 0.0000 41.3502
#
#
#
# Elastic Compliance Matrix: (Units=1/GPa)
#
#
# Indices 1 2 3 4 5 6 
#
# 1 0.012674 -0.004034 -0.002304 0.000000 -0.003294 0.000000
# 2 -0.004034 0.014317 -0.003944 0.000000 0.000821 0.000000
# 3 -0.002304 -0.003944 0.009966 0.000000 0.004997 0.000000
# 4 0.000000 0.000000 0.000000 0.023555 0.000000 0.003143
# 5 -0.003294 0.000821 0.004997 0.000000 0.037558 0.000000
# 6 0.000000 0.000000 0.000000 0.003143 0.000000 0.024603
#
#
# Mechanical properties :
#
#
# Convention : Reuss Voigt Hill
#
# Bulk Modulus (GPa) = 61.00117 63.52003 62.26060
# Shear Modulus (GPa) = 33.62431 36.47878 35.05155
#
# Velocity S-wave (km/s) = 3.91626 4.07911 3.99851
# Velocity P-wave (km/s) = 6.94795 7.15255 7.05099
#
# Compressibility (1/GPa) = 0.01639313
#
# Stress axis : x y z
#
# Youngs Moduli (GPa) = 78.90080 69.84697 100.34072
#
# Poissons Ratio (x) = 0.28177 0.23119
# Poissons Ratio (y) = 0.31829 0.39573
# Poissons Ratio (z) = 0.18179 0.27547
#
# Static dielectric constant tensor:
#      x y z
#    x 3.996280 0.000000 -0.114360 
#    y 0.000000 4.092470 0.000000 
#    z -0.114360 0.000000 4.026000 
# 
# 
# High freq. dielectric constant tensor:
#      x y z
#    x 1.859280 0.000000 0.003950 
#    y 0.000000 1.873120 0.000000 
#    z 0.003950 0.000000 1.877470 
# 
# From -- ./inp_files/181961.got.cif
#   From: 2010.06.25/outbox.cif.g09.slc.cpg/sg15_91_cif.got.tgz:181961.got - 2010.06.28 07:06:18.
