data_PCOD8153744
_publ_section_title
;
Structure prediction by ZEFSAII (Michael W. Deem and Ramdas Pophale) SiO2 
 PCOD8153744
Probable space group: C 2/C
;
_chemical_formula_sum "Si O2"
_cell_formula_units_Z 60
_cell_length_a 8.727676
_cell_length_b 24.808208
_cell_length_c 20.548966
_cell_angle_alpha 90.000000
_cell_angle_beta 140.659341
_cell_angle_gamma 90.000000
_cell_volume 2820.494061
_symmetry_space_group_name_H-M "C 2/C"
_symmetry_group_IT_number 15
_symmetry_cell_setting 'monoclinic'
loop_
_space_group_symop_operation_xyz
x,y,z
-x,y,1/2-z
-x,-y,-z
x,-y,1/2+z
1/2+x,1/2+y,z
1/2-x,1/2+y,1/2-z
1/2-x,1/2-y,-z
1/2+x,1/2-y,1/2+z
loop_
_atom_site_type_symbol
_atom_site_label
_atom_site_fract_x
_atom_site_fract_y
_atom_site_fract_z
Si Si1 0.541629 0.649167 0.387162
Si Si2 0.397114 0.758809 0.287319
Si Si3 0.178022 0.377300 0.865892
Si Si4 0.851542 0.745993 0.104490
Si Si5 0.500000 0.585833 0.250000
Si Si6 0.238513 0.553810 0.639467
Si Si7 0.436383 0.167668 0.906458
Si Si8 0.971399 0.543601 0.069544
O O1 0.450691 0.710177 0.353972
O O2 0.448273 0.621836 0.423711
O O3 0.418036 0.620918 0.284755
O O4 0.830982 0.647681 0.476979
O O5 0.500000 0.748021 0.250000
O O6 0.516595 0.811169 0.361171
O O7 0.115212 0.771622 0.191284
O O8 0.123430 0.316888 0.870756
O O9 0.000000 0.394342 0.750000
O O10 0.151324 0.421457 0.914007
O O11 0.691903 0.782008 0.100322
O O12 0.750000 0.750000 0.000000
O O13 0.254996 0.556085 0.146977
O O14 0.500000 0.531299 0.750000
O O15 0.233977 0.616230 0.658506
O O16 0.013545 0.520340 0.599097
O O17 0.204759 0.550294 0.550054
#
# Coordination Sequence:
#
# PCOD8153744 Si02
#       8
#     8   8   8   8   4   8   8   8
#     4  12  24  40  69  98 134 172 228 284 344 402
#     4  12  24  40  60  94 135 180 223 274 341 418
#     4  12  23  42  66 101 138 174 226 303 353 396
#     4  12  24  39  64  96 134 179 228 276 345 421
#     4  12  20  42  74  98 124 168 238 288 322 408
#     4  11  24  46  73  99 135 184 235 283 349 427
#     4  12  25  43  63  95 137 185 221 274 343 425
#     4  11  24  44  73 102 129 175 240 292 346 407
#
# _framework density 21.272869
#
# number of rings (size 3 to 8) (size 9 to 14) (size 15 to 20)
#    0.000    0.267    6.667    3.200    1.867    0.000 
#    0.000    1.333    0.000    0.000    0.000    0.000 
#    0.000    0.000    0.000    0.000    0.000    0.000 
#
# Total GULP energy -371809.507473 kJ/mol
# GULP energy per Si atom -12393.650249 kJ/mol
# Density = 2.122445 g / cm^3
# Si number density = 21.272869 Si / 1000 Ang^3
#
#
#
# Elastic Constant Matrix: (Units=GPa)
#
#
# Indices 1 2 3 4 5 6 
#
# 1 117.6922 46.7804 38.1401 0.0000 -8.8743 0.0000
# 2 46.7804 104.1192 27.8817 0.0000 -21.7655 0.0000
# 3 38.1401 27.8817 125.7554 0.0001 -1.2507 0.0001
# 4 0.0000 0.0000 0.0001 26.6030 0.0000 -8.8253
# 5 -8.8743 -21.7655 -1.2507 0.0000 34.2415 0.0000
# 6 0.0000 0.0000 0.0001 -8.8253 0.0000 35.8507
#
#
#
# Elastic Compliance Matrix: (Units=1/GPa)
#
#
# Indices 1 2 3 4 5 6 
#
# 1 0.010974 -0.004287 -0.002377 0.000000 0.000032 0.000000
# 2 -0.004287 0.013516 -0.001623 0.000000 0.007421 0.000000
# 3 -0.002377 -0.001623 0.009020 0.000000 -0.001318 0.000000
# 4 0.000000 0.000000 0.000000 0.040932 0.000000 0.010076
# 5 0.000032 0.007421 -0.001318 0.000000 0.033882 0.000000
# 6 0.000000 0.000000 0.000000 0.010076 0.000000 0.030374
#
#
# Mechanical properties :
#
#
# Convention : Reuss Voigt Hill
#
# Bulk Modulus (GPa) = 59.04795 63.68569 61.36682
# Shear Modulus (GPa) = 31.07183 34.99002 33.03093
#
# Velocity S-wave (km/s) = 3.82597 4.06004 3.94474
# Velocity P-wave (km/s) = 6.88005 7.20979 7.04685
#
# Compressibility (1/GPa) = 0.01693539
#
# Stress axis : x y z
#
# Youngs Moduli (GPa) = 91.12773 73.98374 110.86920
#
# Poissons Ratio (x) = 0.31717 0.26357
# Poissons Ratio (y) = 0.39067 0.17991
# Poissons Ratio (z) = 0.21664 0.12006
#
# Static dielectric constant tensor:
#      x y z
#    x 3.744010 0.000000 -0.052990 
#    y 0.000000 3.930310 0.000000 
#    z -0.052990 0.000000 4.013310 
# 
# 
# High freq. dielectric constant tensor:
#      x y z
#    x 1.817760 0.000000 -0.000100 
#    y 0.000000 1.839030 0.000000 
#    z -0.000100 0.000000 1.848570 
# 
# From -- ./inp_files/234797.got.cif
#   From: 2010.06.25/outbox.cif.g09.slc.cpg/sg15_118_cif.got.tgz:234797.got - 2010.06.28 07:06:18.
