data_PCOD8153830
_publ_section_title
;
Structure prediction by ZEFSAII (Michael W. Deem and Ramdas Pophale) SiO2 
 PCOD8153830
Probable space group: C 2/C
;
_chemical_formula_sum "Si O2"
_cell_formula_units_Z 40
_cell_length_a 10.966927
_cell_length_b 11.523639
_cell_length_c 14.296369
_cell_angle_alpha 90.000000
_cell_angle_beta 92.777525
_cell_angle_gamma 90.000000
_cell_volume 1804.636958
_symmetry_space_group_name_H-M "C 2/C"
_symmetry_group_IT_number 15
_symmetry_cell_setting 'monoclinic'
loop_
_space_group_symop_operation_xyz
x,y,z
-x,y,1/2-z
-x,-y,-z
x,-y,1/2+z
1/2+x,1/2+y,z
1/2-x,1/2+y,1/2-z
1/2-x,1/2-y,-z
1/2+x,1/2-y,1/2+z
loop_
_atom_site_type_symbol
_atom_site_label
_atom_site_fract_x
_atom_site_fract_y
_atom_site_fract_z
Si Si1 0.512390 0.017289 0.610542
Si Si2 0.916787 0.962938 0.829631
Si Si3 0.665173 0.102991 0.253683
Si Si4 0.156285 0.789194 0.120374
Si Si5 0.931083 0.239462 0.077629
O O1 0.409258 0.941508 0.659598
O O2 0.641842 0.980713 0.661501
O O3 0.500000 0.000000 0.500000
O O4 0.499360 0.154092 0.630399
O O5 0.855121 0.071493 0.880362
O O6 0.000000 0.012946 0.750000
O O7 0.807277 0.887798 0.782613
O O8 0.999052 0.880534 0.897827
O O9 0.619493 0.231042 0.218338
O O10 0.291972 0.741351 0.106236
O O11 0.067290 0.743671 0.034833
#
# Coordination Sequence:
#
# PCOD8153830 Si02
#       5
#     8   8   8   8   8
#     4  11  24  46  72 100 139 196 244 300 370 439
#     4  12  26  42  71 107 143 191 245 299 373 444
#     4  11  25  43  71 103 145 189 244 301 369 432
#     4  11  24  46  67 103 146 188 243 306 360 445
#     4  11  24  45  72  97 143 194 243 300 377 434
#
# _framework density 22.165123000000001
#
# number of rings (size 3 to 8) (size 9 to 14) (size 15 to 20)
#    0.000    0.800    6.000    0.600    8.400    0.000 
#    3.600    1.000    0.000    0.000    0.000    0.000 
#    0.000    0.000    0.000    0.000    0.000    0.000 
#
# Total GULP energy -247847.162663 kJ/mol
# GULP energy per Si atom -12392.358133 kJ/mol
# Density = 2.211467 g / cm^3
# Si number density = 22.165123 Si / 1000 Ang^3
#
#
#
# Elastic Constant Matrix: (Units=GPa)
#
#
# Indices 1 2 3 4 5 6 
#
# 1 94.2526 45.5415 48.1792 0.0000 19.3831 0.0000
# 2 45.5415 150.7220 48.6294 0.0000 13.0335 0.0000
# 3 48.1792 48.6294 141.0348 0.0000 1.1019 0.0000
# 4 0.0000 0.0000 0.0000 27.7701 0.0000 9.7341
# 5 19.3831 13.0335 1.1019 0.0000 37.4959 0.0000
# 6 0.0000 0.0000 0.0000 9.7341 0.0000 38.1025
#
#
#
# Elastic Compliance Matrix: (Units=1/GPa)
#
#
# Indices 1 2 3 4 5 6 
#
# 1 0.015564 -0.002702 -0.004331 0.000000 -0.006979 0.000000
# 2 -0.002702 0.008180 -0.001887 0.000000 -0.001391 0.000000
# 3 -0.004331 -0.001887 0.009200 0.000000 0.002624 0.000000
# 4 0.000000 0.000000 0.000000 0.039552 0.000000 -0.010104
# 5 -0.006979 -0.001391 0.002624 0.000000 0.030684 0.000000
# 6 0.000000 0.000000 0.000000 -0.010104 0.000000 0.028826
#
#
# Mechanical properties :
#
#
# Convention : Reuss Voigt Hill
#
# Bulk Modulus (GPa) = 66.20068 74.52328 70.36198
# Shear Modulus (GPa) = 32.28290 36.91766 34.60028
#
# Velocity S-wave (km/s) = 3.82052 4.08557 3.95527
# Velocity P-wave (km/s) = 7.02806 7.48002 7.25756
#
# Compressibility (1/GPa) = 0.01510559
#
# Stress axis : x y z
#
# Youngs Moduli (GPa) = 64.24898 122.24668 108.69664
#
# Poissons Ratio (x) = 0.33032 0.47074
# Poissons Ratio (y) = 0.17360 0.20507
# Poissons Ratio (z) = 0.27825 0.23064
#
# Static dielectric constant tensor:
#      x y z
#    x 3.869510 0.000000 0.161070 
#    y 0.000000 4.063570 0.000000 
#    z 0.161070 0.000000 4.155830 
# 
# 
# High freq. dielectric constant tensor:
#      x y z
#    x 1.860740 0.000000 0.009710 
#    y 0.000000 1.878450 0.000000 
#    z 0.009710 0.000000 1.881060 
# 
# From -- ./inp_files/142346.got.cif
#   From: 2010.06.25/outbox.cif.g09.slc.cpg/sg15_72_cif.got.tgz:142346.got - 2010.06.28 07:06:18.
