data_PCOD8153558
_publ_section_title
;
Structure prediction by ZEFSAII (Michael W. Deem and Ramdas Pophale) SiO2 
 PCOD8153558
Probable space group: C 2/C
;
_chemical_formula_sum "Si O2"
_cell_formula_units_Z 40
_cell_length_a 28.281171
_cell_length_b 13.617085
_cell_length_c 9.298639
_cell_angle_alpha 90.000000
_cell_angle_beta 151.464077
_cell_angle_gamma 90.000000
_cell_volume 1710.664919
_symmetry_space_group_name_H-M "C 2/C"
_symmetry_group_IT_number 15
_symmetry_cell_setting 'monoclinic'
loop_
_space_group_symop_operation_xyz
x,y,z
-x,y,1/2-z
-x,-y,-z
x,-y,1/2+z
1/2+x,1/2+y,z
1/2-x,1/2+y,1/2-z
1/2-x,1/2-y,-z
1/2+x,1/2-y,1/2+z
loop_
_atom_site_type_symbol
_atom_site_label
_atom_site_fract_x
_atom_site_fract_y
_atom_site_fract_z
Si Si1 0.670333 0.585017 0.250050
Si Si2 0.813674 0.116120 0.547387
Si Si3 0.500000 0.716757 0.750000
Si Si4 0.861389 0.677212 0.242170
Si Si5 0.500000 0.044677 0.750000
Si Si6 0.149415 0.378728 0.078460
O O1 0.657203 0.476419 0.277472
O O2 0.769060 0.635007 0.580117
O O3 0.678711 0.586567 0.099346
O O4 0.572746 0.646527 0.038135
O O5 0.884724 0.207125 0.780566
O O6 0.703127 0.156542 0.286906
O O7 0.427120 0.788078 0.642564
O O8 0.964702 0.617426 0.528359
O O9 0.800666 0.627224 0.945891
O O10 0.407198 0.980815 0.553589
#
# Coordination Sequence:
#
# PCOD8153558 Si02
#       6
#     8   8   4   8   4   8
#     4  12  25  50  72 105 147 194 241 296 359 432
#     4  11  26  45  74 102 147 194 232 296 362 422
#     4  11  26  43  74 106 142 195 240 291 360 428
#     4  11  24  47  70 114 140 185 240 296 368 420
#     4  11  24  41  80 112 140 181 242 305 352 436
#     4  11  24  48  75 108 143 189 240 302 361 427
#
# _framework density 23.382719000000002
#
# number of rings (size 3 to 8) (size 9 to 14) (size 15 to 20)
#    0.000    0.800    4.000    2.400    0.000    4.800 
#    7.200    0.000    0.000    0.000    0.000    0.000 
#    0.000    0.000    0.000    0.000    0.000    0.000 
#
# Total GULP energy -247777.562285 kJ/mol
# GULP energy per Si atom -12388.878114 kJ/mol
# Density = 2.332950 g / cm^3
# Si number density = 23.382719 Si / 1000 Ang^3
#
#
#
# Elastic Constant Matrix: (Units=GPa)
#
#
# Indices 1 2 3 4 5 6 
#
# 1 90.7512 59.1675 58.6341 0.0000 -18.4418 0.0000
# 2 59.1675 207.9201 103.0585 0.0000 -10.6367 0.0000
# 3 58.6341 103.0585 148.4995 0.0000 1.6097 0.0000
# 4 0.0000 0.0000 0.0000 41.6177 0.0000 2.1410
# 5 -18.4418 -10.6367 1.6097 0.0000 33.6537 0.0000
# 6 0.0000 0.0000 0.0000 2.1410 0.0000 30.8855
#
#
#
# Elastic Compliance Matrix: (Units=1/GPa)
#
#
# Indices 1 2 3 4 5 6 
#
# 1 0.017945 -0.001602 -0.006078 0.000000 0.009618 0.000000
# 2 -0.001602 0.007702 -0.004732 0.000000 0.001783 0.000000
# 3 -0.006078 -0.004732 0.012477 0.000000 -0.005423 0.000000
# 4 0.000000 0.000000 0.000000 0.024114 0.000000 -0.001672
# 5 0.009618 0.001783 -0.005423 0.000000 0.035808 0.000000
# 6 0.000000 0.000000 0.000000 -0.001672 0.000000 0.032494
#
#
# Mechanical properties :
#
#
# Convention : Reuss Voigt Hill
#
# Bulk Modulus (GPa) = 75.18861 98.76565 86.97713
# Shear Modulus (GPa) = 31.28969 36.31875 33.80422
#
# Velocity S-wave (km/s) = 3.66205 3.94538 3.80635
# Velocity P-wave (km/s) = 7.07858 7.94262 7.52301
#
# Compressibility (1/GPa) = 0.01329989
#
# Stress axis : x y z
#
# Youngs Moduli (GPa) = 55.72563 129.83441 80.14905
#
# Poissons Ratio (x) = 0.20798 0.48715
# Poissons Ratio (y) = 0.08927 0.37927
# Poissons Ratio (z) = 0.33870 0.61439
#
# Static dielectric constant tensor:
#      x y z
#    x 4.185190 0.000000 0.036460 
#    y 0.000000 4.714390 0.000000 
#    z 0.036460 0.000000 4.148890 
# 
# 
# High freq. dielectric constant tensor:
#      x y z
#    x 1.918780 0.000000 -0.003430 
#    y 0.000000 1.956700 0.000000 
#    z -0.003430 0.000000 1.905610 
# 
# From -- ./inp_files/70224.got.cif
#   From: 2010.06.25/outbox.cif.g09.slc.cpg/sg15_36_cif.got.tgz:70224.got - 2010.06.28 07:06:18.
