data_PCOD8153965
_publ_section_title
;
Structure prediction by ZEFSAII (Michael W. Deem and Ramdas Pophale) SiO2 
 PCOD8153965
Probable space group: C 2/C
;
_chemical_formula_sum "Si O2"
_cell_formula_units_Z 48
_cell_length_a 18.473733
_cell_length_b 8.458833
_cell_length_c 19.321868
_cell_angle_alpha 90.000000
_cell_angle_beta 136.566040
_cell_angle_gamma 90.000000
_cell_volume 2075.861255
_symmetry_space_group_name_H-M "C 2/C"
_symmetry_group_IT_number 15
_symmetry_cell_setting 'monoclinic'
loop_
_space_group_symop_operation_xyz
x,y,z
-x,y,1/2-z
-x,-y,-z
x,-y,1/2+z
1/2+x,1/2+y,z
1/2-x,1/2+y,1/2-z
1/2-x,1/2-y,-z
1/2+x,1/2-y,1/2+z
loop_
_atom_site_type_symbol
_atom_site_label
_atom_site_fract_x
_atom_site_fract_y
_atom_site_fract_z
Si Si1 0.241896 0.587822 0.457582
Si Si2 0.464650 0.487458 0.652762
Si Si3 0.890600 0.127203 0.862422
Si Si4 0.945475 0.630474 0.644815
Si Si5 0.967518 0.664401 0.945215
Si Si6 0.742573 0.656357 0.182478
O O1 0.250000 0.750000 0.500000
O O2 0.362073 0.538752 0.541189
O O3 0.164466 0.463340 0.442460
O O4 0.204427 0.626151 0.354546
O O5 0.500000 0.572386 0.750000
O O6 0.554838 0.519922 0.658982
O O7 0.430376 0.312631 0.652245
O O8 0.839037 0.287465 0.797115
O O9 0.798760 0.015196 0.825277
O O10 0.965501 0.186921 0.977106
O O11 0.000000 0.549529 0.750000
O O12 0.016350 0.635331 0.625094
O O13 0.846911 0.707343 0.878317
O O14 0.000000 0.500000 0.000000
#
# Coordination Sequence:
#
# PCOD8153965 Si02
#       6
#     8   8   8   8   8   8
#     4  12  26  45  71 106 146 192 245 306 374 442
#     4  11  24  47  72 105 149 193 240 303 369 438
#     4  12  26  46  76 107 150 192 249 308 368 452
#     4  11  27  46  74 106 146 189 248 300 372 447
#     4  12  25  48  73 107 148 196 249 311 372 444
#     4  12  26  45  75 108 147 196 249 303 379 442
#
# _framework density 23.122934000000001
#
# number of rings (size 3 to 8) (size 9 to 14) (size 15 to 20)
#    0.000    0.333    3.333    5.000    4.667    2.000 
#    0.000    0.000    0.000    0.000    0.000    0.000 
#    0.000    0.000    0.000    0.000    0.000    0.000 
#
# Total GULP energy -297377.620817 kJ/mol
# GULP energy per Si atom -12390.734201 kJ/mol
# Density = 2.307030 g / cm^3
# Si number density = 23.122934 Si / 1000 Ang^3
#
#
#
# Elastic Constant Matrix: (Units=GPa)
#
#
# Indices 1 2 3 4 5 6 
#
# 1 109.0199 34.9833 20.0309 0.0000 -17.0867 0.0000
# 2 34.9833 95.3447 18.0957 0.0000 -5.1930 0.0000
# 3 20.0309 18.0957 86.4190 0.0000 -12.7990 0.0000
# 4 0.0000 0.0000 0.0000 41.0520 0.0000 10.7636
# 5 -17.0867 -5.1930 -12.7990 0.0000 44.4445 0.0000
# 6 0.0000 0.0000 0.0000 10.7636 0.0000 -9.1342
#
#
#
# Elastic Compliance Matrix: (Units=1/GPa)
#
#
# Indices 1 2 3 4 5 6 
#
# 1 0.011127 -0.003646 -0.001301 0.000000 0.003477 0.000000
# 2 -0.003646 0.012135 -0.001769 0.000000 -0.000493 0.000000
# 3 -0.001301 -0.001769 0.012680 0.000000 0.002945 0.000000
# 4 0.000000 0.000000 0.000000 0.018610 0.000000 0.021929
# 5 0.003477 -0.000493 0.002945 0.000000 0.024627 0.000000
# 6 0.000000 0.000000 0.000000 0.021929 0.000000 -0.083638
#
#
# Mechanical properties :
#
#
# Convention : Reuss Voigt Hill
#
# Bulk Modulus (GPa) = 44.42541 48.55592 46.49066
# Shear Modulus (GPa) = 303.49343 29.78404 166.63873
#
# Velocity S-wave (km/s) = 11.46896 3.59287 8.49840
# Velocity P-wave (km/s) = 13.95124 6.18516 10.79105
#
# Compressibility (1/GPa) = 0.02250964
#
# Stress axis : x y z
#
# Youngs Moduli (GPa) = 89.87470 82.40633 78.86741
#
# Poissons Ratio (x) = 0.30048 0.10257
# Poissons Ratio (y) = 0.32771 0.13951
# Poissons Ratio (z) = 0.11689 0.14577
#
# Static dielectric constant tensor:
#      x y z
#    x 4.100090 0.000000 -0.289680 
#    y 0.000000 4.222080 0.000000 
#    z -0.289680 0.000000 4.262100 
# 
# 
# High freq. dielectric constant tensor:
#      x y z
#    x 1.913770 0.000000 -0.009550 
#    y 0.000000 1.924060 0.000000 
#    z -0.009550 0.000000 1.927590 
# 
# From -- ./inp_files/252014.got.cif
#   From: 2010.06.25/outbox.cif.g09.slc.cpg/sg15_127_cif.got.tgz:252014.got - 2010.06.28 07:06:18.
