data_PCOD8153051
_publ_section_title
;
Structure prediction by ZEFSAII (Michael W. Deem and Ramdas Pophale) SiO2 
 PCOD8153051
Probable space group: C 2/C
;
_chemical_formula_sum "Si O2"
_cell_formula_units_Z 56
_cell_length_a 21.156589
_cell_length_b 11.189216
_cell_length_c 11.539101
_cell_angle_alpha 90.000000
_cell_angle_beta 77.917300
_cell_angle_gamma 90.000000
_cell_volume 2671.086550
_symmetry_space_group_name_H-M "C 2/C"
_symmetry_group_IT_number 15
_symmetry_cell_setting 'monoclinic'
loop_
_space_group_symop_operation_xyz
x,y,z
-x,y,1/2-z
-x,-y,-z
x,-y,1/2+z
1/2+x,1/2+y,z
1/2-x,1/2+y,1/2-z
1/2-x,1/2-y,-z
1/2+x,1/2-y,1/2+z
loop_
_atom_site_type_symbol
_atom_site_label
_atom_site_fract_x
_atom_site_fract_y
_atom_site_fract_z
Si Si1 0.500092 0.721160 0.126136
Si Si2 0.363928 0.322034 0.995956
Si Si3 0.965663 0.483196 0.139742
Si Si4 0.298504 0.442303 0.816234
Si Si5 0.186934 0.800990 0.083294
Si Si6 0.894003 0.078982 0.072193
Si Si7 0.838044 0.641100 0.200207
O O1 0.500000 0.656439 0.250000
O O2 0.573763 0.754883 0.066485
O O3 0.456456 0.840966 0.152128
O O4 0.467492 0.624770 0.054147
O O5 0.310097 0.351231 0.919245
O O6 0.394361 0.445631 0.026459
O O7 0.331200 0.246320 0.108797
O O8 0.896865 0.549982 0.158120
O O9 0.000000 0.525692 0.250000
O O10 0.000000 0.500000 0.000000
O O11 0.297211 0.579441 0.853177
O O12 0.356620 0.414714 0.707477
O O13 0.230052 0.426421 0.779746
O O14 0.154674 0.701273 0.177420
O O15 0.250000 0.750000 0.000000
O O16 0.135867 0.826970 0.004333
#
# Coordination Sequence:
#
# PCOD8153051 Si02
#       7
#     8   8   8   8   8   8   8
#     4  11  23  44  70  94 134 182 224 284 340 413
#     4  11  23  45  66 100 136 172 232 280 340 418
#     4  11  27  47  67 101 141 185 241 285 353 429
#     4  11  24  43  68 101 136 178 224 287 350 413
#     4  11  25  43  65 100 141 177 228 288 348 417
#     4  11  23  42  69 100 135 171 231 280 352 408
#     4  12  25  43  73  99 138 182 232 287 352 419
#
# _framework density 20.965250000000001
#
# number of rings (size 3 to 8) (size 9 to 14) (size 15 to 20)
#    0.000    0.857    5.714    0.857    4.000    0.000 
#    0.000    0.714    0.000    0.000    0.000    0.000 
#    0.000    0.000    0.000    0.000    0.000    0.000 
#
# Total GULP energy -347022.643595 kJ/mol
# GULP energy per Si atom -12393.665843 kJ/mol
# Density = 2.091753 g / cm^3
# Si number density = 20.965250 Si / 1000 Ang^3
#
#
#
# Elastic Constant Matrix: (Units=GPa)
#
#
# Indices 1 2 3 4 5 6 
#
# 1 79.4707 30.7306 13.9192 0.0000 2.1495 0.0000
# 2 30.7306 77.3551 18.4492 0.0000 7.3375 0.0000
# 3 13.9192 18.4492 106.3492 0.0000 3.6890 0.0000
# 4 0.0000 0.0000 0.0000 37.9532 0.0000 -1.5986
# 5 2.1495 7.3375 3.6890 0.0000 36.0731 0.0000
# 6 0.0000 0.0000 0.0000 -1.5986 0.0000 25.8737
#
#
#
# Elastic Compliance Matrix: (Units=1/GPa)
#
#
# Indices 1 2 3 4 5 6 
#
# 1 0.014967 -0.005749 -0.000975 0.000000 0.000377 0.000000
# 2 -0.005749 0.015925 -0.001916 0.000000 -0.002701 0.000000
# 3 -0.000975 -0.001916 0.009883 0.000000 -0.000563 0.000000
# 4 0.000000 0.000000 0.000000 0.026417 0.000000 0.001632
# 5 0.000377 -0.002701 -0.000563 0.000000 0.028306 0.000000
# 6 0.000000 0.000000 0.000000 0.001632 0.000000 0.038750
#
#
# Mechanical properties :
#
#
# Convention : Reuss Voigt Hill
#
# Bulk Modulus (GPa) = 42.56489 43.26368 42.91428
# Shear Modulus (GPa) = 31.37576 33.31840 32.34708
#
# Velocity S-wave (km/s) = 3.87274 3.99083 3.93223
# Velocity P-wave (km/s) = 6.35170 6.47428 6.41328
#
# Compressibility (1/GPa) = 0.02349354
#
# Stress axis : x y z
#
# Youngs Moduli (GPa) = 66.81397 62.79596 101.18872
#
# Poissons Ratio (x) = 0.36103 0.09862
# Poissons Ratio (y) = 0.38413 0.19392
# Poissons Ratio (z) = 0.06512 0.12034
#
# Static dielectric constant tensor:
#      x y z
#    x 3.770790 0.000000 0.176130 
#    y 0.000000 3.779260 0.000000 
#    z 0.176130 0.000000 4.103780 
# 
# 
# High freq. dielectric constant tensor:
#      x y z
#    x 1.821290 0.000000 0.007120 
#    y 0.000000 1.824340 0.000000 
#    z 0.007120 0.000000 1.836970 
# 
# From -- ./inp_files/111575.got.cif
#   From: 2010.06.25/outbox.cif.g09.slc.cpg/sg15_56_cif.got.tgz:111575.got - 2010.06.28 07:06:18.
