data_PCOD8153220
_publ_section_title
;
Structure prediction by ZEFSAII (Michael W. Deem and Ramdas Pophale) SiO2 
 PCOD8153220
Probable space group: C 2/C
;
_chemical_formula_sum "Si O2"
_cell_formula_units_Z 44
_cell_length_a 11.089781
_cell_length_b 16.988034
_cell_length_c 10.674714
_cell_angle_alpha 90.000000
_cell_angle_beta 83.250928
_cell_angle_gamma 90.000000
_cell_volume 1997.111716
_symmetry_space_group_name_H-M "C 2/C"
_symmetry_group_IT_number 15
_symmetry_cell_setting 'monoclinic'
loop_
_space_group_symop_operation_xyz
x,y,z
-x,y,1/2-z
-x,-y,-z
x,-y,1/2+z
1/2+x,1/2+y,z
1/2-x,1/2+y,1/2-z
1/2-x,1/2-y,-z
1/2+x,1/2-y,1/2+z
loop_
_atom_site_type_symbol
_atom_site_label
_atom_site_fract_x
_atom_site_fract_y
_atom_site_fract_z
Si Si1 0.790562 0.764016 0.190487
Si Si2 0.500000 0.479237 0.750000
Si Si3 0.632652 0.654201 0.371338
Si Si4 0.949859 0.552749 0.618880
Si Si5 0.061602 0.282020 0.051889
Si Si6 0.683316 0.404378 0.131583
O O1 0.742112 0.694223 0.283137
O O2 0.684516 0.794883 0.113272
O O3 0.837910 0.839198 0.259547
O O4 0.904527 0.730538 0.097803
O O5 0.402969 0.428466 0.685181
O O6 0.426875 0.533980 0.855606
O O7 0.511495 0.707145 0.387581
O O8 0.688200 0.640816 0.500405
O O9 0.805083 0.545632 0.640367
O O10 0.000000 0.527492 0.750000
O O11 0.000000 0.500000 0.500000
O O12 0.977992 0.642890 0.582605
#
# Coordination Sequence:
#
# PCOD8153220 Si02
#       6
#     8   4   8   8   8   8
#     4  11  23  43  76 101 142 191 245 292 363 444
#     4  12  28  46  74 108 148 188 250 298 380 430
#     4  12  24  48  71 108 142 193 245 304 362 442
#     4  12  28  48  72 106 152 193 248 307 379 443
#     4  11  23  45  75 101 141 195 242 295 365 440
#     4  12  27  46  72 107 151 185 241 313 368 440
#
# _framework density 22.031818000000001
#
# number of rings (size 3 to 8) (size 9 to 14) (size 15 to 20)
#    0.000    0.364    5.455    2.182    5.091    0.000 
#    0.000    0.000    0.000    0.000    0.000    0.000 
#    0.000    0.000    0.000    0.000    0.000    0.000 
#
# Total GULP energy -272963.621535 kJ/mol
# GULP energy per Si atom -12407.437343 kJ/mol
# Density = 2.198167 g / cm^3
# Si number density = 22.031818 Si / 1000 Ang^3
#
#
#
# Elastic Constant Matrix: (Units=GPa)
#
#
# Indices 1 2 3 4 5 6 
#
# 1 56.5042 23.8770 18.0659 0.0000 -9.8712 0.0000
# 2 23.8770 110.1652 49.6567 0.0000 -7.6963 0.0000
# 3 18.0659 49.6567 144.0925 0.0000 -9.1637 0.0000
# 4 0.0000 0.0000 0.0000 42.3397 0.0000 -5.2784
# 5 -9.8712 -7.6963 -9.1637 0.0000 44.4679 0.0000
# 6 0.0000 0.0000 0.0000 -5.2784 0.0000 19.1995
#
#
#
# Elastic Compliance Matrix: (Units=1/GPa)
#
#
# Indices 1 2 3 4 5 6 
#
# 1 0.020212 -0.003657 -0.001043 0.000000 0.003639 0.000000
# 2 -0.003657 0.011463 -0.003463 0.000000 0.000459 0.000000
# 3 -0.001043 -0.003463 0.008320 0.000000 0.000884 0.000000
# 4 0.000000 0.000000 0.000000 0.024457 0.000000 0.006724
# 5 0.003639 0.000459 0.000884 0.000000 0.023557 0.000000
# 6 0.000000 0.000000 0.000000 0.006724 0.000000 0.053933
#
#
# Mechanical properties :
#
#
# Convention : Reuss Voigt Hill
#
# Bulk Modulus (GPa) = 42.24515 54.88456 48.56485
# Shear Modulus (GPa) = 30.09217 35.81222 32.95219
#
# Velocity S-wave (km/s) = 3.69975 4.03609 3.87158
# Velocity P-wave (km/s) = 6.12104 6.83269 6.48663
#
# Compressibility (1/GPa) = 0.02367136
#
# Stress axis : x y z
#
# Youngs Moduli (GPa) = 49.47547 87.24038 120.18967
#
# Poissons Ratio (x) = 0.31900 0.12531
# Poissons Ratio (y) = 0.18091 0.41617
# Poissons Ratio (z) = 0.05158 0.30208
#
# Static dielectric constant tensor:
#      x y z
#    x 3.915380 0.000000 -0.084230 
#    y 0.000000 3.940700 0.000000 
#    z -0.084230 0.000000 4.284140 
# 
# 
# High freq. dielectric constant tensor:
#      x y z
#    x 1.870150 0.000000 -0.004880 
#    y 0.000000 1.866900 0.000000 
#    z -0.004880 0.000000 1.883490 
# 
# From -- ./inp_files/86072.got.cif
#   From: 2010.06.25/outbox.cif.g09.slc.cpg/sg15_44_cif.got.tgz:86072.got - 2010.06.28 07:06:18.
