data_PCOD8153028
_publ_section_title
;
Structure prediction by ZEFSAII (Michael W. Deem and Ramdas Pophale) SiO2 
 PCOD8153028
Probable space group: C 2/C
;
_chemical_formula_sum "Si O2"
_cell_formula_units_Z 40
_cell_length_a 12.423814
_cell_length_b 16.061279
_cell_length_c 9.042021
_cell_angle_alpha 90.000000
_cell_angle_beta 74.343389
_cell_angle_gamma 90.000000
_cell_volume 1737.321272
_symmetry_space_group_name_H-M "C 2/C"
_symmetry_group_IT_number 15
_symmetry_cell_setting 'monoclinic'
loop_
_space_group_symop_operation_xyz
x,y,z
-x,y,1/2-z
-x,-y,-z
x,-y,1/2+z
1/2+x,1/2+y,z
1/2-x,1/2+y,1/2-z
1/2-x,1/2-y,-z
1/2+x,1/2-y,1/2+z
loop_
_atom_site_type_symbol
_atom_site_label
_atom_site_fract_x
_atom_site_fract_y
_atom_site_fract_z
Si Si1 0.190283 0.397503 0.229653
Si Si2 0.770946 0.581596 0.346914
Si Si3 0.687645 0.821339 0.934118
Si Si4 0.936534 0.320684 0.970810
Si Si5 0.380631 0.648029 0.858428
O O1 0.209234 0.495478 0.247249
O O2 0.087393 0.355053 0.355501
O O3 0.299746 0.346544 0.245595
O O4 0.168403 0.392161 0.063548
O O5 0.736208 0.645429 0.228233
O O6 0.888547 0.608684 0.378471
O O7 0.671361 0.580363 0.506264
O O8 0.567413 0.799901 0.906057
O O9 0.750000 0.750000 0.000000
O O10 0.876637 0.234624 0.948450
O O11 0.500000 0.619599 0.750000
#
# Coordination Sequence:
#
# PCOD8153028 Si02
#       5
#     8   8   8   8   8
#     4  11  24  41  64  96 131 168 218 274 327 392
#     4  11  24  41  64  96 132 171 216 272 334 392
#     4  12  23  39  65  98 128 165 221 273 320 388
#     4  11  23  42  67  92 130 178 216 263 332 398
#     4  11  23  45  68  89 130 183 224 265 330 398
#
# _framework density 23.023949999999999
#
# number of rings (size 3 to 8) (size 9 to 14) (size 15 to 20)
#    0.000    0.800    0.000   10.800    0.000    5.600 
#    0.000    5.000    0.000    0.000    0.000    0.000 
#    0.000    0.000    0.000    0.000    0.000    0.000 
#
# Total GULP energy -247862.100991 kJ/mol
# GULP energy per Si atom -12393.105050 kJ/mol
# Density = 2.297155 g / cm^3
# Si number density = 23.023950 Si / 1000 Ang^3
#
#
#
# Elastic Constant Matrix: (Units=GPa)
#
#
# Indices 1 2 3 4 5 6 
#
# 1 112.5817 40.0664 38.3279 0.0000 -14.9531 0.0000
# 2 40.0664 98.2664 20.9960 0.0000 -2.0628 0.0000
# 3 38.3279 20.9960 127.3458 0.0000 -2.4047 0.0000
# 4 0.0000 0.0000 0.0000 42.3492 0.0000 9.9414
# 5 -14.9531 -2.0628 -2.4047 0.0000 42.0973 0.0000
# 6 0.0000 0.0000 0.0000 9.9414 0.0000 18.3027
#
#
#
# Elastic Compliance Matrix: (Units=1/GPa)
#
#
# Indices 1 2 3 4 5 6 
#
# 1 0.011819 -0.004140 -0.002802 0.000000 0.003835 0.000000
# 2 -0.004140 0.012005 -0.000751 0.000000 -0.000925 0.000000
# 3 -0.002802 -0.000751 0.008810 0.000000 -0.000529 0.000000
# 4 0.000000 0.000000 0.000000 0.027064 0.000000 -0.014700
# 5 0.003835 -0.000925 -0.000529 0.000000 0.025041 0.000000
# 6 0.000000 0.000000 0.000000 -0.014700 0.000000 0.062622
#
#
# Mechanical properties :
#
#
# Convention : Reuss Voigt Hill
#
# Bulk Modulus (GPa) = 57.97617 59.66383 58.82000
# Shear Modulus (GPa) = 29.67415 36.47008 33.07212
#
# Velocity S-wave (km/s) = 3.59393 3.98428 3.79413
# Velocity P-wave (km/s) = 6.51593 6.86557 6.69303
#
# Compressibility (1/GPa) = 0.01724847
#
# Stress axis : x y z
#
# Youngs Moduli (GPa) = 84.60834 83.29619 113.50902
#
# Poissons Ratio (x) = 0.34483 0.31809
# Poissons Ratio (y) = 0.35026 0.08523
# Poissons Ratio (z) = 0.23710 0.06254
#
# Static dielectric constant tensor:
#      x y z
#    x 3.959770 0.000000 0.147750 
#    y 0.000000 3.957700 0.000000 
#    z 0.147750 0.000000 4.651200 
# 
# 
# High freq. dielectric constant tensor:
#      x y z
#    x 1.893860 0.000000 0.010020 
#    y 0.000000 1.900150 0.000000 
#    z 0.010020 0.000000 1.937500 
# 
# From -- ./inp_files/29084.got.cif
#   From: 2010.06.25/outbox.cif.g09.slc.cpg/sg15_15_cif.got.tgz:29084.got - 2010.06.28 07:06:18.
