data_PCOD8153510
_publ_section_title
;
Structure prediction by ZEFSAII (Michael W. Deem and Ramdas Pophale) SiO2 
 PCOD8153510
Probable space group: C 2/C
;
_chemical_formula_sum "Si O2"
_cell_formula_units_Z 64
_cell_length_a 17.524091
_cell_length_b 9.238172
_cell_length_c 30.280911
_cell_angle_alpha 90.000000
_cell_angle_beta 38.629921
_cell_angle_gamma 90.000000
_cell_volume 3060.379013
_symmetry_space_group_name_H-M "C 2/C"
_symmetry_group_IT_number 15
_symmetry_cell_setting 'monoclinic'
loop_
_space_group_symop_operation_xyz
x,y,z
-x,y,1/2-z
-x,-y,-z
x,-y,1/2+z
1/2+x,1/2+y,z
1/2-x,1/2+y,1/2-z
1/2-x,1/2-y,-z
1/2+x,1/2-y,1/2+z
loop_
_atom_site_type_symbol
_atom_site_label
_atom_site_fract_x
_atom_site_fract_y
_atom_site_fract_z
Si Si1 0.392135 0.606435 0.826516
Si Si2 0.488747 0.001237 0.556895
Si Si3 0.988716 0.866143 0.666226
Si Si4 0.232939 0.880085 0.675709
Si Si5 0.481965 0.339413 0.568342
Si Si6 0.115010 0.350351 0.168032
Si Si7 0.195202 0.285771 0.478335
Si Si8 0.835358 0.028588 0.061715
O O1 0.500000 0.687827 0.750000
O O2 0.454392 0.495827 0.831947
O O3 0.307369 0.527744 0.829253
O O4 0.306172 0.710484 0.893063
O O5 0.375093 0.901663 0.624386
O O6 0.613341 0.930258 0.519544
O O7 0.500000 0.000000 0.500000
O O8 0.473351 0.166673 0.578909
O O9 0.846074 0.849521 0.744328
O O10 0.998707 0.901359 0.610051
O O11 0.066114 0.723294 0.645000
O O12 0.210604 0.750436 0.651453
O O13 0.592917 0.382907 0.485488
O O14 0.363433 0.413113 0.598711
O O15 0.190857 0.495015 0.122641
O O16 0.000000 0.390620 0.250000
O O17 0.250000 0.250000 0.500000
O O18 0.118744 0.150272 0.494076
#
# Coordination Sequence:
#
# PCOD8153510 Si02
#       8
#     8   8   8   8   8   8   8   8
#     4   9  18  38  66  87 123 169 213 257 318 392
#     4  12  22  42  68  86 125 172 216 253 318 394
#     4   9  20  39  63  93 121 161 217 257 310 386
#     4   9  18  39  65  91 115 164 215 253 308 386
#     4  11  24  40  61  93 126 167 208 262 325 379
#     4   9  20  39  65  89 122 164 204 256 320 383
#     4  12  26  41  61  99 127 163 220 273 317 375
#     4  11  24  40  59  90 130 160 205 264 325 369
#
# _framework density 20.912443
#
# number of rings (size 3 to 8) (size 9 to 14) (size 15 to 20)
#    0.000    1.750    2.500    3.000    5.250    1.000 
#    4.500    2.500    0.000    0.000    0.000    0.000 
#    0.000    0.000    0.000    0.000    0.000    0.000 
#
# Total GULP energy -396614.052826 kJ/mol
# GULP energy per Si atom -12394.189151 kJ/mol
# Density = 2.086485 g / cm^3
# Si number density = 20.912443 Si / 1000 Ang^3
#
#
#
# Elastic Constant Matrix: (Units=GPa)
#
#
# Indices 1 2 3 4 5 6 
#
# 1 116.8968 29.9594 55.6318 -0.0011 7.0167 0.0135
# 2 29.9594 72.7206 40.8701 -0.0015 -11.4571 0.0152
# 3 55.6318 40.8701 105.2958 -0.0001 -10.2937 0.0013
# 4 -0.0011 -0.0015 -0.0001 30.0932 -0.0004 -9.2584
# 5 7.0167 -11.4571 -10.2937 -0.0004 36.6331 -0.0010
# 6 0.0135 0.0152 0.0013 -9.2584 -0.0010 28.4183
#
#
#
# Elastic Compliance Matrix: (Units=1/GPa)
#
#
# Indices 1 2 3 4 5 6 
#
# 1 0.012350 -0.002451 -0.006046 -0.000001 -0.004831 -0.000005
# 2 -0.002451 0.018572 -0.005449 -0.000002 0.004747 -0.000009
# 3 -0.006046 -0.005449 0.015170 0.000001 0.003716 0.000006
# 4 -0.000001 -0.000002 0.000001 0.036932 0.000001 0.012032
# 5 -0.004831 0.004747 0.003716 0.000001 0.030752 0.000001
# 6 -0.000005 -0.000009 0.000006 0.012032 0.000001 0.039109
#
#
# Mechanical properties :
#
#
# Convention : Reuss Voigt Hill
#
# Bulk Modulus (GPa) = 54.94964 60.87065 57.91014
# Shear Modulus (GPa) = 26.76050 30.25905 28.50977
#
# Velocity S-wave (km/s) = 3.58109 3.80799 3.69628
# Velocity P-wave (km/s) = 6.59030 6.96455 6.78001
#
# Compressibility (1/GPa) = 0.01819848
#
# Stress axis : x y z
#
# Youngs Moduli (GPa) = 80.97173 53.84576 65.92073
#
# Poissons Ratio (x) = 0.13199 0.39854
# Poissons Ratio (y) = 0.19848 0.35923
# Poissons Ratio (z) = 0.48954 0.29342
#
# Static dielectric constant tensor:
#      x y z
#    x 3.664710 -0.000040 -0.057140 
#    y -0.000040 1.789360 -0.000210 
#    z -0.057140 -0.000210 2.783800 
# 
# 
# High freq. dielectric constant tensor:
#      x y z
#    x 1.809400 0.000000 -0.009200 
#    y 0.000000 1.809560 0.000000 
#    z -0.009200 0.000000 1.818690 
# 
# From -- ./inp_files/315699.got.cif
#   From: 2010.06.25/outbox.cif.g09.slc.cpg/sg15_158_cif.got.tgz:315699.got - 2010.06.28 07:06:18.
