data_PCOD8153548
_publ_section_title
;
Structure prediction by ZEFSAII (Michael W. Deem and Ramdas Pophale) SiO2 
 PCOD8153548
Probable space group: C 2/C
;
_chemical_formula_sum "Si O2"
_cell_formula_units_Z 56
_cell_length_a 8.968773
_cell_length_b 13.452519
_cell_length_c 23.315309
_cell_angle_alpha 90.000000
_cell_angle_beta 63.412965
_cell_angle_gamma 90.000000
_cell_volume 2515.587674
_symmetry_space_group_name_H-M "C 2/C"
_symmetry_group_IT_number 15
_symmetry_cell_setting 'monoclinic'
loop_
_space_group_symop_operation_xyz
x,y,z
-x,y,1/2-z
-x,-y,-z
x,-y,1/2+z
1/2+x,1/2+y,z
1/2-x,1/2+y,1/2-z
1/2-x,1/2-y,-z
1/2+x,1/2-y,1/2+z
loop_
_atom_site_type_symbol
_atom_site_label
_atom_site_fract_x
_atom_site_fract_y
_atom_site_fract_z
Si Si1 0.168742 0.000798 0.306499
Si Si2 0.720633 0.119120 0.605955
Si Si3 0.346692 0.599441 0.884380
Si Si4 0.649518 0.876545 0.311705
Si Si5 0.139909 0.468472 0.519433
Si Si6 0.459747 0.781724 0.607229
Si Si7 0.830499 0.315390 0.747113
O O1 0.204848 0.960943 0.363626
O O2 0.310588 0.969171 0.236170
O O3 0.979903 0.967521 0.326284
O O4 0.181580 0.119629 0.300763
O O5 0.542351 0.156452 0.660638
O O6 0.845713 0.215557 0.582050
O O7 0.694525 0.059387 0.551166
O O8 0.182204 0.598978 0.873001
O O9 0.413065 0.711049 0.880367
O O10 0.305261 0.556480 0.954377
O O11 0.781192 0.797232 0.266486
O O12 0.000000 0.500000 0.500000
O O13 0.070248 0.368133 0.560462
O O14 0.343305 0.830870 0.676071
O O15 0.000000 0.343678 0.750000
#
# Coordination Sequence:
#
# PCOD8153548 Si02
#       7
#     8   8   8   8   8   8   8
#     4  11  24  41  69 102 136 175 231 284 346 429
#     4  11  25  45  69 100 138 178 236 290 344 419
#     4  11  24  46  67  96 138 183 227 280 344 424
#     4  12  21  44  67 100 141 172 216 289 356 409
#     4  12  26  47  70  95 139 186 232 291 345 405
#     4  11  25  45  70 103 133 183 234 282 353 422
#     4  12  22  40  71 101 138 177 221 286 364 420
#
# _framework density 22.261199000000001
#
# number of rings (size 3 to 8) (size 9 to 14) (size 15 to 20)
#    0.000    0.571    5.714    3.857    0.000    4.000 
#    5.143    0.000    0.000    0.000    0.000    0.000 
#    0.000    0.000    0.000    0.000    0.000    0.000 
#
# Total GULP energy -347115.889577 kJ/mol
# GULP energy per Si atom -12396.996056 kJ/mol
# Density = 2.221053 g / cm^3
# Si number density = 22.261199 Si / 1000 Ang^3
#
#
#
# Elastic Constant Matrix: (Units=GPa)
#
#
# Indices 1 2 3 4 5 6 
#
# 1 72.2352 14.2496 2.2736 0.0000 4.1183 0.0000
# 2 14.2496 77.3640 28.4091 0.0000 -1.0896 0.0000
# 3 2.2736 28.4091 94.9141 0.0000 -3.0162 0.0000
# 4 0.0000 0.0000 0.0000 39.5660 0.0000 -3.3919
# 5 4.1183 -1.0896 -3.0162 0.0000 34.3488 0.0000
# 6 0.0000 0.0000 0.0000 -3.3919 0.0000 24.5123
#
#
#
# Elastic Compliance Matrix: (Units=1/GPa)
#
#
# Indices 1 2 3 4 5 6 
#
# 1 0.014496 -0.002861 0.000452 0.000000 -0.001789 0.000000
# 2 -0.002861 0.015087 -0.004433 0.000000 0.000432 0.000000
# 3 0.000452 -0.004433 0.011879 0.000000 0.000848 0.000000
# 4 0.000000 0.000000 0.000000 0.025578 0.000000 0.003539
# 5 -0.001789 0.000432 0.000848 0.000000 0.029416 0.000000
# 6 0.000000 0.000000 0.000000 0.003539 0.000000 0.041286
#
#
# Mechanical properties :
#
#
# Convention : Reuss Voigt Hill
#
# Bulk Modulus (GPa) = 36.00100 37.15311 36.57705
# Shear Modulus (GPa) = 31.11684 32.99083 32.05384
#
# Velocity S-wave (km/s) = 3.74278 3.85384 3.79871
# Velocity P-wave (km/s) = 5.90636 6.04389 5.97552
#
# Compressibility (1/GPa) = 0.02777701
#
# Stress axis : x y z
#
# Youngs Moduli (GPa) = 68.98526 66.28199 84.18241
#
# Poissons Ratio (x) = 0.18965 -0.03808
# Poissons Ratio (y) = 0.19739 0.37322
# Poissons Ratio (z) = -0.03120 0.29386
#
# Static dielectric constant tensor:
#      x y z
#    x 4.413930 0.000000 -1.230400 
#    y 0.000000 3.987640 0.000000 
#    z -1.230400 0.000000 9.007590 
# 
# 
# High freq. dielectric constant tensor:
#      x y z
#    x 1.879250 0.000000 -0.000280 
#    y 0.000000 1.876650 0.000000 
#    z -0.000280 0.000000 1.877390 
# 
# From -- ./inp_files/264591.got.cif
#   From: 2010.06.25/outbox.cif.g09.slc.cpg/sg15_133_cif.got.tgz:264591.got - 2010.06.28 07:06:18.
