data_PCOD8153399
_publ_section_title
;
Structure prediction by ZEFSAII (Michael W. Deem and Ramdas Pophale) SiO2 
 PCOD8153399
Probable space group: C 2/C
;
_chemical_formula_sum "Si O2"
_cell_formula_units_Z 40
_cell_length_a 10.731223
_cell_length_b 9.087841
_cell_length_c 21.284573
_cell_angle_alpha 90.000000
_cell_angle_beta 60.023299
_cell_angle_gamma 90.000000
_cell_volume 1798.073447
_symmetry_space_group_name_H-M "C 2/C"
_symmetry_group_IT_number 15
_symmetry_cell_setting 'monoclinic'
loop_
_space_group_symop_operation_xyz
x,y,z
-x,y,1/2-z
-x,-y,-z
x,-y,1/2+z
1/2+x,1/2+y,z
1/2-x,1/2+y,1/2-z
1/2-x,1/2-y,-z
1/2+x,1/2-y,1/2+z
loop_
_atom_site_type_symbol
_atom_site_label
_atom_site_fract_x
_atom_site_fract_y
_atom_site_fract_z
Si Si1 0.594310 0.910862 0.393328
Si Si2 0.684961 0.024470 0.618195
Si Si3 0.152401 0.265442 0.725999
Si Si4 0.382996 0.685487 0.003186
Si Si5 0.847786 0.276387 0.629225
O O1 0.449713 0.954734 0.393211
O O2 0.716491 0.845253 0.317352
O O3 0.562915 0.795870 0.456111
O O4 0.650690 0.066669 0.407412
O O5 0.710051 0.183957 0.642324
O O6 0.655503 0.907454 0.680251
O O7 0.828983 0.971631 0.543880
O O8 0.158903 0.316931 0.795971
O O9 0.000000 0.184246 0.750000
O O10 0.513142 0.673599 0.920981
O O11 0.250000 0.750000 0.000000
#
# Coordination Sequence:
#
# PCOD8153399 Si02
#       5
#     8   8   8   8   8
#     4  11  24  46  68  97 137 177 225 277 335 399
#     4  11  25  45  70  97 137 177 225 279 334 399
#     4  11  23  46  67  94 138 180 218 281 340 395
#     4  11  23  46  70  97 139 183 218 277 343 398
#     4  12  23  41  70 100 134 174 229 275 333 397
#
# _framework density 22.246032
#
# number of rings (size 3 to 8) (size 9 to 14) (size 15 to 20)
#    0.000    0.800    4.000    3.600    0.000    0.800 
#   18.000    0.000    0.000    0.000    0.000    0.000 
#    0.000    0.000    0.000    0.000    0.000    0.000 
#
# Total GULP energy -247949.680167 kJ/mol
# GULP energy per Si atom -12397.484008 kJ/mol
# Density = 2.219540 g / cm^3
# Si number density = 22.246032 Si / 1000 Ang^3
#
#
#
# Elastic Constant Matrix: (Units=GPa)
#
#
# Indices 1 2 3 4 5 6 
#
# 1 80.6772 68.3320 34.3540 0.0000 3.7122 0.0000
# 2 68.3320 114.1743 7.6337 0.0000 5.2636 0.0000
# 3 34.3540 7.6337 81.7947 0.0000 -5.4088 0.0000
# 4 0.0000 0.0000 0.0000 18.0713 0.0000 2.9413
# 5 3.7122 5.2636 -5.4088 0.0000 34.9805 0.0000
# 6 0.0000 0.0000 0.0000 2.9413 0.0000 43.5566
#
#
#
# Elastic Compliance Matrix: (Units=1/GPa)
#
#
# Indices 1 2 3 4 5 6 
#
# 1 0.034893 -0.019890 -0.012979 0.000000 -0.002717 0.000000
# 2 -0.019890 0.020227 0.006471 0.000000 0.000068 0.000000
# 3 -0.012979 0.006471 0.017276 0.000000 0.003075 0.000000
# 4 0.000000 0.000000 0.000000 0.055951 0.000000 -0.003778
# 5 -0.002717 0.000068 0.003075 0.000000 0.029341 0.000000
# 6 0.000000 0.000000 0.000000 -0.003778 0.000000 0.023214
#
#
# Mechanical properties :
#
#
# Convention : Reuss Voigt Hill
#
# Bulk Modulus (GPa) = 51.02019 55.25395 53.13707
# Shear Modulus (GPa) = 20.81322 30.41013 25.61167
#
# Velocity S-wave (km/s) = 3.06206 3.70130 3.39675
# Velocity P-wave (km/s) = 5.95701 6.56945 6.27071
#
# Compressibility (1/GPa) = 0.01960009
#
# Stress axis : x y z
#
# Youngs Moduli (GPa) = 28.65882 49.43919 57.88306
#
# Poissons Ratio (x) = 0.98336 0.75124
# Poissons Ratio (y) = 0.57003 -0.37454
# Poissons Ratio (z) = 0.37195 -0.31991
#
# Static dielectric constant tensor:
#      x y z
#    x 3.996190 0.000000 -0.188320 
#    y 0.000000 4.444400 0.000000 
#    z -0.188320 0.000000 4.518730 
# 
# 
# High freq. dielectric constant tensor:
#      x y z
#    x 1.876730 0.000000 -0.005510 
#    y 0.000000 1.871930 0.000000 
#    z -0.005510 0.000000 1.889860 
# 
# From -- ./inp_files/267549.got.cif
#   From: 2010.06.25/outbox.cif.g09.slc.cpg/sg15_134_cif.got.tgz:267549.got - 2010.06.28 07:06:18.
