data_PCOD8153840
_publ_section_title
;
Structure prediction by ZEFSAII (Michael W. Deem and Ramdas Pophale) SiO2 
 PCOD8153840
Probable space group: C 2/C
;
_chemical_formula_sum "Si O2"
_cell_formula_units_Z 40
_cell_length_a 15.203603
_cell_length_b 15.283053
_cell_length_c 8.484344
_cell_angle_alpha 90.000000
_cell_angle_beta 119.362033
_cell_angle_gamma 90.000000
_cell_volume 1718.152439
_symmetry_space_group_name_H-M "C 2/C"
_symmetry_group_IT_number 15
_symmetry_cell_setting 'monoclinic'
loop_
_space_group_symop_operation_xyz
x,y,z
-x,y,1/2-z
-x,-y,-z
x,-y,1/2+z
1/2+x,1/2+y,z
1/2-x,1/2+y,1/2-z
1/2-x,1/2-y,-z
1/2+x,1/2-y,1/2+z
loop_
_atom_site_type_symbol
_atom_site_label
_atom_site_fract_x
_atom_site_fract_y
_atom_site_fract_z
Si Si1 0.157712 0.302250 0.845046
Si Si2 0.941082 0.073264 0.357444
Si Si3 0.786250 0.452002 0.822450
Si Si4 0.476336 0.762723 0.494914
Si Si5 0.401339 0.914422 0.227922
O O1 0.201795 0.394184 0.824511
O O2 0.097005 0.258841 0.641919
O O3 0.250000 0.250000 0.000000
O O4 0.077506 0.314753 0.911889
O O5 0.830311 0.032535 0.237596
O O6 0.934436 0.164198 0.446189
O O7 0.000000 0.094503 0.250000
O O8 0.000000 0.000000 0.500000
O O9 0.844715 0.541326 0.827429
O O10 0.828259 0.404284 0.014378
O O11 0.445734 0.819062 0.315139
O O12 0.500000 0.968275 0.250000
#
# Coordination Sequence:
#
# PCOD8153840 Si02
#       5
#     8   8   8   8   8
#     4  11  24  45  74 105 148 190 246 297 374 442
#     4  12  29  50  72 104 147 198 251 301 367 439
#     4  12  26  46  77 112 148 205 242 310 377 445
#     4  11  26  46  75 107 148 192 242 318 364 445
#     4  12  25  45  73 113 152 187 252 307 382 442
#
# _framework density 23.280819999999999
#
# number of rings (size 3 to 8) (size 9 to 14) (size 15 to 20)
#    0.000    0.400    4.000    3.600    5.600    5.600 
#    0.000    0.000    0.000    0.000    0.000    0.000 
#    0.000    0.000    0.000    0.000    0.000    0.000 
#
# Total GULP energy -247852.102583 kJ/mol
# GULP energy per Si atom -12392.605129 kJ/mol
# Density = 2.322783 g / cm^3
# Si number density = 23.280820 Si / 1000 Ang^3
#
#
#
# Elastic Constant Matrix: (Units=GPa)
#
#
# Indices 1 2 3 4 5 6 
#
# 1 145.0027 30.2687 49.8836 0.0000 20.3110 0.0000
# 2 30.2687 117.4538 59.1389 0.0000 9.3882 0.0000
# 3 49.8836 59.1389 163.4672 0.0000 26.1802 0.0000
# 4 0.0000 0.0000 0.0000 42.7858 0.0000 -0.2174
# 5 20.3110 9.3882 26.1802 0.0000 52.8379 0.0000
# 6 0.0000 0.0000 0.0000 -0.2174 0.0000 24.8398
#
#
#
# Elastic Compliance Matrix: (Units=1/GPa)
#
#
# Indices 1 2 3 4 5 6 
#
# 1 0.007994 -0.001019 -0.001746 0.000000 -0.002027 0.000000
# 2 -0.001019 0.010540 -0.003547 0.000000 0.000276 0.000000
# 3 -0.001746 -0.003547 0.008391 0.000000 -0.002856 0.000000
# 4 0.000000 0.000000 0.000000 0.023373 0.000000 0.000205
# 5 -0.002027 0.000276 -0.002856 0.000000 0.021071 0.000000
# 6 0.000000 0.000000 0.000000 0.000205 0.000000 0.040260
#
#
# Mechanical properties :
#
#
# Convention : Reuss Voigt Hill
#
# Bulk Modulus (GPa) = 69.92249 78.27847 74.10048
# Shear Modulus (GPa) = 38.75402 43.20153 40.97777
#
# Velocity S-wave (km/s) = 4.08442 4.31242 4.19997
# Velocity P-wave (km/s) = 7.23484 7.64804 7.44431
#
# Compressibility (1/GPa) = 0.01430155
#
# Stress axis : x y z
#
# Youngs Moduli (GPa) = 125.09869 94.87506 119.17843
#
# Poissons Ratio (x) = 0.09666 0.20811
# Poissons Ratio (y) = 0.12745 0.42267
# Poissons Ratio (z) = 0.21845 0.33648
#
# Static dielectric constant tensor:
#      x y z
#    x 4.545920 0.000000 0.244460 
#    y 0.000000 4.012580 0.000000 
#    z 0.244460 0.000000 4.453760 
# 
# 
# High freq. dielectric constant tensor:
#      x y z
#    x 1.935600 0.000000 0.002950 
#    y 0.000000 1.899100 0.000000 
#    z 0.002950 0.000000 1.940290 
# 
# From -- ./inp_files/39393.got.cif
#   From: 2010.06.25/outbox.cif.g09.slc.cpg/sg15_20_cif.got.tgz:39393.got - 2010.06.28 07:06:18.
