data_PCOD8153769
_publ_section_title
;
Structure prediction by ZEFSAII (Michael W. Deem and Ramdas Pophale) SiO2 
 PCOD8153769
Probable space group: C 2/C
;
_chemical_formula_sum "Si O2"
_cell_formula_units_Z 40
_cell_length_a 23.051344
_cell_length_b 7.137591
_cell_length_c 13.402817
_cell_angle_alpha 90.000000
_cell_angle_beta 62.110841
_cell_angle_gamma 90.000000
_cell_volume 1949.057288
_symmetry_space_group_name_H-M "C 2/C"
_symmetry_group_IT_number 15
_symmetry_cell_setting 'monoclinic'
loop_
_space_group_symop_operation_xyz
x,y,z
-x,y,1/2-z
-x,-y,-z
x,-y,1/2+z
1/2+x,1/2+y,z
1/2-x,1/2+y,1/2-z
1/2-x,1/2-y,-z
1/2+x,1/2-y,1/2+z
loop_
_atom_site_type_symbol
_atom_site_label
_atom_site_fract_x
_atom_site_fract_y
_atom_site_fract_z
Si Si1 0.268710 0.118711 0.854307
Si Si2 0.817208 0.982348 0.902072
Si Si3 0.667902 0.769183 0.782682
Si Si4 0.042821 0.999348 0.117519
Si Si5 0.020738 0.713615 0.470534
O O1 0.317609 0.289923 0.838651
O O2 0.203437 0.188728 0.851190
O O3 0.309578 0.982035 0.750801
O O4 0.246230 0.016871 0.974523
O O5 0.881284 0.996130 0.917634
O O6 0.812102 0.154844 0.831353
O O7 0.590498 0.764556 0.860651
O O8 0.000000 0.980526 0.250000
O O9 0.022169 0.189835 0.077760
O O10 0.032300 0.818619 0.055681
O O11 0.000000 0.500000 0.500000
#
# Coordination Sequence:
#
# PCOD8153769 Si02
#       5
#     8   8   8   8   8
#     4  11  25  41  68 100 129 172 217 271 330 390
#     4  11  24  45  65  97 134 170 219 267 329 399
#     4  12  23  43  67  97 133 169 218 274 330 387
#     4  11  24  45  69  94 135 176 217 274 335 390
#     4  11  27  43  67 101 131 173 227 276 327 394
#
# _framework density 20.522742999999998
#
# number of rings (size 3 to 8) (size 9 to 14) (size 15 to 20)
#    0.000    0.800    6.000    0.600    2.800    4.000 
#    0.000    0.000    0.000    0.000    0.000    0.000 
#    0.000    0.000    0.000    0.000    0.000    0.000 
#
# Total GULP energy -248123.692533 kJ/mol
# GULP energy per Si atom -12406.184627 kJ/mol
# Density = 2.047603 g / cm^3
# Si number density = 20.522743 Si / 1000 Ang^3
#
#
#
# Elastic Constant Matrix: (Units=GPa)
#
#
# Indices 1 2 3 4 5 6 
#
# 1 111.9821 38.9550 10.8381 0.0000 7.8587 0.0000
# 2 38.9550 124.0783 26.7071 0.0001 6.6541 0.0001
# 3 10.8381 26.7071 60.3750 0.0000 16.5118 0.0000
# 4 0.0000 0.0001 0.0000 33.3355 0.0000 1.2859
# 5 7.8587 6.6541 16.5118 0.0000 25.8584 0.0000
# 6 0.0000 0.0001 0.0000 1.2859 0.0000 24.9177
#
#
#
# Elastic Compliance Matrix: (Units=1/GPa)
#
#
# Indices 1 2 3 4 5 6 
#
# 1 0.010160 -0.003106 0.000213 0.000000 -0.002425 0.000000
# 2 -0.003106 0.009858 -0.004080 0.000000 0.001012 0.000000
# 3 0.000213 -0.004080 0.021882 0.000000 -0.012987 0.000000
# 4 0.000000 0.000000 0.000000 0.030058 0.000000 -0.001551
# 5 -0.002425 0.001012 -0.012987 0.000000 0.047441 0.000000
# 6 0.000000 0.000000 0.000000 -0.001551 0.000000 0.040212
#
#
# Mechanical properties :
#
#
# Convention : Reuss Voigt Hill
#
# Bulk Modulus (GPa) = 35.77275 49.93730 42.85503
# Shear Modulus (GPa) = 27.34109 31.48468 29.41289
#
# Velocity S-wave (km/s) = 3.65394 3.92105 3.78985
# Velocity P-wave (km/s) = 5.93888 6.69963 6.33069
#
# Compressibility (1/GPa) = 0.02795424
#
# Stress axis : x y z
#
# Youngs Moduli (GPa) = 98.42649 101.43638 45.70045
#
# Poissons Ratio (x) = 0.31502 -0.00974
# Poissons Ratio (y) = 0.30567 0.18647
# Poissons Ratio (z) = -0.02097 0.41389
#
# Static dielectric constant tensor:
#      x y z
#    x 3.791090 0.000000 0.153590 
#    y 0.000000 3.767080 0.000000 
#    z 0.153590 0.000000 3.750440 
# 
# 
# High freq. dielectric constant tensor:
#      x y z
#    x 1.809200 0.000000 0.009760 
#    y 0.000000 1.806600 0.000000 
#    z 0.009760 0.000000 1.812730 
# 
# From -- ./inp_files/170737.got.cif
#   From: 2010.06.25/outbox.cif.g09.slc.cpg/sg15_86_cif.got.tgz:170737.got - 2010.06.28 07:06:18.
