data_PCOD8153141
_publ_section_title
;
Structure prediction by ZEFSAII (Michael W. Deem and Ramdas Pophale) SiO2 
 PCOD8153141
Probable space group: C 2/C
;
_chemical_formula_sum "Si O2"
_cell_formula_units_Z 60
_cell_length_a 9.488950
_cell_length_b 16.440705
_cell_length_c 20.333088
_cell_angle_alpha 90.000000
_cell_angle_beta 63.556740
_cell_angle_gamma 90.000000
_cell_volume 2840.189279
_symmetry_space_group_name_H-M "C 2/C"
_symmetry_group_IT_number 15
_symmetry_cell_setting 'monoclinic'
loop_
_space_group_symop_operation_xyz
x,y,z
-x,y,1/2-z
-x,-y,-z
x,-y,1/2+z
1/2+x,1/2+y,z
1/2-x,1/2+y,1/2-z
1/2-x,1/2-y,-z
1/2+x,1/2-y,1/2+z
loop_
_atom_site_type_symbol
_atom_site_label
_atom_site_fract_x
_atom_site_fract_y
_atom_site_fract_z
Si Si1 0.990056 0.366685 0.896099
Si Si2 0.612103 0.503855 0.414861
Si Si3 0.207541 0.751220 0.294730
Si Si4 0.366694 0.842169 0.062491
Si Si5 0.976891 0.896398 0.326863
Si Si6 0.000000 0.355838 0.250000
Si Si7 0.542101 0.047092 0.617373
Si Si8 0.220236 0.177848 0.359518
O O1 0.893360 0.339732 0.851781
O O2 0.149514 0.313521 0.861780
O O3 0.038741 0.461055 0.882608
O O4 0.880777 0.347771 0.981264
O O5 0.500000 0.500000 0.500000
O O6 0.549511 0.452270 0.367455
O O7 0.620284 0.595875 0.387669
O O8 0.775436 0.466250 0.405732
O O9 0.350207 0.800371 0.298029
O O10 0.267469 0.703272 0.218571
O O11 0.063814 0.810001 0.306596
O O12 0.206490 0.883378 0.120466
O O13 0.514371 0.891467 0.062441
O O14 0.372036 0.748055 0.081758
O O15 0.000000 0.937162 0.250000
O O16 0.044221 0.413231 0.301971
#
# Coordination Sequence:
#
# PCOD8153141 Si02
#       8
#     8   8   8   8   8   4   8   8
#     4  11  25  41  73  99 136 180 226 283 340 410
#     4  11  27  47  70 100 141 186 230 279 357 420
#     4  12  24  44  68 104 134 182 235 278 342 409
#     4  12  24  45  71 106 137 174 234 289 341 406
#     4  12  22  43  73 102 136 181 233 289 345 405
#     4  12  24  46  68  96 138 188 224 286 342 410
#     4  11  25  45  70  97 141 180 224 279 347 408
#     4  11  23  43  68 100 133 178 230 279 330 422
#
# _framework density 21.125351999999999
#
# number of rings (size 3 to 8) (size 9 to 14) (size 15 to 20)
#    0.000    0.533    5.333    2.800    5.600    0.000 
#    6.000    1.333    0.000    0.000    0.000    0.000 
#    0.000    0.000    0.000    0.000    0.000    0.000 
#
# Total GULP energy -372130.578064 kJ/mol
# GULP energy per Si atom -12404.352602 kJ/mol
# Density = 2.107727 g / cm^3
# Si number density = 21.125352 Si / 1000 Ang^3
#
#
#
# Elastic Constant Matrix: (Units=GPa)
#
#
# Indices 1 2 3 4 5 6 
#
# 1 72.2422 40.5957 32.8503 0.0000 -1.9413 0.0000
# 2 40.5957 147.9007 58.2170 0.0000 -3.7868 0.0000
# 3 32.8503 58.2170 129.4703 0.0000 -10.9553 0.0000
# 4 0.0000 0.0000 0.0000 22.7396 0.0000 6.4432
# 5 -1.9413 -3.7868 -10.9553 0.0000 23.8209 0.0000
# 6 0.0000 0.0000 0.0000 6.4432 0.0000 28.9769
#
#
#
# Elastic Compliance Matrix: (Units=1/GPa)
#
#
# Indices 1 2 3 4 5 6 
#
# 1 0.017120 -0.003628 -0.002750 0.000000 -0.000446 0.000000
# 2 -0.003628 0.008988 -0.003148 0.000000 -0.000314 0.000000
# 3 -0.002750 -0.003148 0.010171 0.000000 0.003953 0.000000
# 4 0.000000 0.000000 0.000000 0.046933 0.000000 -0.010436
# 5 -0.000446 -0.000314 0.003953 0.000000 0.043712 0.000000
# 6 0.000000 0.000000 0.000000 -0.010436 0.000000 0.036831
#
#
# Mechanical properties :
#
#
# Convention : Reuss Voigt Hill
#
# Bulk Modulus (GPa) = 58.04626 68.10436 63.07531
# Shear Modulus (GPa) = 26.51839 29.63749 28.07794
#
# Velocity S-wave (km/s) = 3.54685 3.74964 3.64965
# Velocity P-wave (km/s) = 6.65659 7.14525 6.90524
#
# Compressibility (1/GPa) = 0.01722764
#
# Stress axis : x y z
#
# Youngs Moduli (GPa) = 58.41270 111.25966 98.31445
#
# Poissons Ratio (x) = 0.40363 0.27039
# Poissons Ratio (y) = 0.21191 0.30946
# Poissons Ratio (z) = 0.16065 0.35020
#
# Static dielectric constant tensor:
#      x y z
#    x 3.699690 0.000000 0.012300 
#    y 0.000000 4.084890 0.000000 
#    z 0.012300 0.000000 3.871440 
# 
# 
# High freq. dielectric constant tensor:
#      x y z
#    x 1.817710 0.000000 0.001970 
#    y 0.000000 1.843050 0.000000 
#    z 0.001970 0.000000 1.834710 
# 
# From -- ./inp_files/232649.got.cif
#   From: 2010.06.25/outbox.cif.g09.slc.cpg/sg15_117_cif.got.tgz:232649.got - 2010.06.28 07:06:18.
