data_PCOD8153224
_publ_section_title
;
Structure prediction by ZEFSAII (Michael W. Deem and Ramdas Pophale) SiO2 
 PCOD8153224
Probable space group: C 2/C
;
_chemical_formula_sum "Si O2"
_cell_formula_units_Z 32
_cell_length_a 25.680400
_cell_length_b 6.565835
_cell_length_c 9.488224
_cell_angle_alpha 90.000000
_cell_angle_beta 93.642708
_cell_angle_gamma 90.000000
_cell_volume 1596.608225
_symmetry_space_group_name_H-M "C 2/C"
_symmetry_group_IT_number 15
_symmetry_cell_setting 'monoclinic'
loop_
_space_group_symop_operation_xyz
x,y,z
-x,y,1/2-z
-x,-y,-z
x,-y,1/2+z
1/2+x,1/2+y,z
1/2-x,1/2+y,1/2-z
1/2-x,1/2-y,-z
1/2+x,1/2-y,1/2+z
loop_
_atom_site_type_symbol
_atom_site_label
_atom_site_fract_x
_atom_site_fract_y
_atom_site_fract_z
Si Si1 0.638326 0.926587 0.189416
Si Si2 0.895763 0.963601 0.980527
Si Si3 0.810923 0.720697 0.523737
Si Si4 0.059604 0.766346 0.241929
O O1 0.610011 0.740837 0.108698
O O2 0.677084 0.849236 0.316169
O O3 0.593592 0.061766 0.254526
O O4 0.672150 0.049781 0.083562
O O5 0.933118 0.122026 0.906248
O O6 0.922679 0.921244 0.133875
O O7 0.839299 0.065573 0.995820
O O8 0.750000 0.750000 0.500000
O O9 0.000000 0.700886 0.250000
#
# Coordination Sequence:
#
# PCOD8153224 Si02
#       4
#     8   8   8   8
#     4  11  24  44  63  96 131 159 214 263 304 380
#     4  11  23  44  63  95 130 158 218 260 303 382
#     4  11  26  42  67  94 126 170 207 259 317 367
#     4  11  24  42  67  93 126 170 207 259 317 367
#
# _framework density 20.042487000000001
#
# number of rings (size 3 to 8) (size 9 to 14) (size 15 to 20)
#    0.000    1.000    5.000    0.750    3.500    3.000 
#    0.000    0.000    0.000    0.000    0.000    0.000 
#    0.000    0.000    0.000    0.000    0.000    0.000 
#
# Total GULP energy -198516.548193 kJ/mol
# GULP energy per Si atom -12407.284262 kJ/mol
# Density = 1.999687 g / cm^3
# Si number density = 20.042487 Si / 1000 Ang^3
#
#
#
# Elastic Constant Matrix: (Units=GPa)
#
#
# Indices 1 2 3 4 5 6 
#
# 1 103.6538 7.0698 3.2987 0.0000 -4.1742 0.0000
# 2 7.0698 70.6641 9.3727 0.0000 2.4553 0.0000
# 3 3.2987 9.3727 84.8295 0.0000 1.3931 0.0000
# 4 0.0000 0.0000 0.0000 27.6703 0.0000 4.0623
# 5 -4.1742 2.4553 1.3931 0.0000 19.7570 0.0000
# 6 0.0000 0.0000 0.0000 4.0623 0.0000 22.1944
#
#
#
# Elastic Compliance Matrix: (Units=1/GPa)
#
#
# Indices 1 2 3 4 5 6 
#
# 1 0.009816 -0.001019 -0.000306 0.000000 0.002222 0.000000
# 2 -0.001019 0.014523 -0.001534 0.000000 -0.001912 0.000000
# 3 -0.000306 -0.001534 0.011981 0.000000 -0.000719 0.000000
# 4 0.000000 0.000000 0.000000 0.037138 0.000000 -0.006797
# 5 0.002222 -0.001912 -0.000719 0.000000 0.051373 0.000000
# 6 0.000000 0.000000 0.000000 -0.006797 0.000000 0.046301
#
#
# Mechanical properties :
#
#
# Convention : Reuss Voigt Hill
#
# Bulk Modulus (GPa) = 32.67458 33.18109 32.92784
# Shear Modulus (GPa) = 26.73088 29.88476 28.30782
#
# Velocity S-wave (km/s) = 3.65596 3.86563 3.76226
# Velocity P-wave (km/s) = 5.84461 6.04280 5.94453
#
# Compressibility (1/GPa) = 0.03060483
#
# Stress axis : x y z
#
# Youngs Moduli (GPa) = 101.87246 68.85514 83.46205
#
# Poissons Ratio (x) = 0.07015 0.02551
# Poissons Ratio (y) = 0.10378 0.12800
# Poissons Ratio (z) = 0.03114 0.10560
#
# Static dielectric constant tensor:
#      x y z
#    x 3.476280 0.000000 -0.091790 
#    y 0.000000 3.823280 0.000000 
#    z -0.091790 0.000000 3.930120 
# 
# 
# High freq. dielectric constant tensor:
#      x y z
#    x 1.775510 0.000000 -0.003450 
#    y 0.000000 1.793820 0.000000 
#    z -0.003450 0.000000 1.804190 
# 
# From -- ./inp_files/67875.got.cif
#   From: 2010.06.25/outbox.cif.g09.slc.cpg/sg15_34_cif.got.tgz:67875.got - 2010.06.28 07:06:18.
