data_PCOD8153792
_publ_section_title
;
Structure prediction by ZEFSAII (Michael W. Deem and Ramdas Pophale) SiO2 
 PCOD8153792
Probable space group: C 2/C
;
_chemical_formula_sum "Si O2"
_cell_formula_units_Z 48
_cell_length_a 27.544793
_cell_length_b 15.760774
_cell_length_c 14.102243
_cell_angle_alpha 90.000000
_cell_angle_beta 21.291446
_cell_angle_gamma 90.000000
_cell_volume 2223.033485
_symmetry_space_group_name_H-M "C 2/C"
_symmetry_group_IT_number 15
_symmetry_cell_setting 'monoclinic'
loop_
_space_group_symop_operation_xyz
x,y,z
-x,y,1/2-z
-x,-y,-z
x,-y,1/2+z
1/2+x,1/2+y,z
1/2-x,1/2+y,1/2-z
1/2-x,1/2-y,-z
1/2+x,1/2-y,1/2+z
loop_
_atom_site_type_symbol
_atom_site_label
_atom_site_fract_x
_atom_site_fract_y
_atom_site_fract_z
Si Si1 0.481910 0.883410 0.607585
Si Si2 0.279886 0.621203 0.193283
Si Si3 0.500000 0.800297 0.250000
Si Si4 0.793961 0.507144 0.336699
Si Si5 0.000000 0.261208 0.750000
Si Si6 0.105722 0.072699 0.319986
Si Si7 0.092429 0.753772 0.774630
O O1 0.344760 0.928053 0.825643
O O2 0.459352 0.822673 0.737897
O O3 0.527250 0.830441 0.434034
O O4 0.589189 0.958074 0.433111
O O5 0.123653 0.643104 0.488361
O O6 0.296996 0.558992 0.072285
O O7 0.325877 0.569200 0.201838
O O8 0.371491 0.704494 0.010933
O O9 0.446223 0.739564 0.265122
O O10 0.710565 0.435992 0.543589
O O11 0.035711 0.164230 0.433351
O O12 0.000000 0.000000 0.500000
O O13 0.250000 0.750000 0.500000
#
# Coordination Sequence:
#
# PCOD8153792 Si02
#       7
#     8   8   4   8   4   8   8
#     4  11  24  45  69 102 140 183 233 297 348 430
#     4  12  26  46  74 105 143 189 243 298 364 429
#     4  12  24  43  81 104 136 200 240 292 353 447
#     4  11  26  43  70 107 140 181 241 292 357 423
#     4  12  26  45  75 102 142 194 242 298 359 427
#     4  12  27  47  71 103 151 186 232 307 361 423
#     4  12  22  47  72 102 143 187 243 292 364 430
#
# _framework density 21.592116999999998
#
# number of rings (size 3 to 8) (size 9 to 14) (size 15 to 20)
#    0.000    0.333    6.667    1.000    4.667    3.333 
#    0.000    0.000    0.000    0.000    0.000    0.000 
#    0.000    0.000    0.000    0.000    0.000    0.000 
#
# Total GULP energy -297669.851139 kJ/mol
# GULP energy per Si atom -12402.910464 kJ/mol
# Density = 2.154297 g / cm^3
# Si number density = 21.592117 Si / 1000 Ang^3
#
#
#
# Elastic Constant Matrix: (Units=GPa)
#
#
# Indices 1 2 3 4 5 6 
#
# 1 171.3778 49.1649 26.0153 -0.0004 -2.3132 0.0003
# 2 49.1649 111.0010 22.6018 -0.0003 -5.6784 0.0002
# 3 26.0153 22.6018 81.1506 -0.0004 -4.5019 0.0003
# 4 -0.0004 -0.0003 -0.0004 38.5816 0.0003 6.1913
# 5 -2.3132 -5.6784 -4.5019 0.0003 30.7802 -0.0002
# 6 0.0003 0.0002 0.0003 6.1913 -0.0002 55.4623
#
#
#
# Elastic Compliance Matrix: (Units=1/GPa)
#
#
# Indices 1 2 3 4 5 6 
#
# 1 0.006839 -0.002746 -0.001439 0.000000 -0.000203 0.000000
# 2 -0.002746 0.010712 -0.002021 0.000000 0.001474 0.000000
# 3 -0.001439 -0.002021 0.013429 0.000000 0.001483 0.000000
# 4 0.000000 0.000000 0.000000 0.026392 0.000000 -0.002946
# 5 -0.000203 0.001474 0.001483 0.000000 0.032962 0.000000
# 6 0.000000 0.000000 0.000000 -0.002946 0.000000 0.018359
#
#
# Mechanical properties :
#
#
# Convention : Reuss Voigt Hill
#
# Bulk Modulus (GPa) = 53.85801 62.12148 57.98974
# Shear Modulus (GPa) = 39.27875 42.68130 40.98003
#
# Velocity S-wave (km/s) = 4.26975 4.45084 4.36123
# Velocity P-wave (km/s) = 7.02176 7.43278 7.23019
#
# Compressibility (1/GPa) = 0.01856734
#
# Stress axis : x y z
#
# Youngs Moduli (GPa) = 146.22863 93.34993 74.46439
#
# Poissons Ratio (x) = 0.25638 0.10713
# Poissons Ratio (y) = 0.40161 0.15052
# Poissons Ratio (z) = 0.21037 0.18869
#
# Static dielectric constant tensor:
#      x y z
#    x 3.974620 0.000000 -0.037950 
#    y 0.000000 6.857560 -0.000010 
#    z -0.037950 -0.000010 4.051270 
# 
# 
# High freq. dielectric constant tensor:
#      x y z
#    x 1.860680 0.000000 0.002370 
#    y 0.000000 1.859240 0.000000 
#    z 0.002370 0.000000 1.839300 
# 
# From -- ./inp_files/143486.got.cif
#   From: 2010.06.25/outbox.cif.g09.slc.cpg/sg15_72_cif.got.tgz:143486.got - 2010.06.28 07:06:18.
