data_PCOD8153156
_publ_section_title
;
Structure prediction by ZEFSAII (Michael W. Deem and Ramdas Pophale) SiO2 
 PCOD8153156
Probable space group: C 2/C
;
_chemical_formula_sum "Si O2"
_cell_formula_units_Z 56
_cell_length_a 16.952261
_cell_length_b 8.595780
_cell_length_c 18.988891
_cell_angle_alpha 90.000000
_cell_angle_beta 111.615699
_cell_angle_gamma 90.000000
_cell_volume 2572.432272
_symmetry_space_group_name_H-M "C 2/C"
_symmetry_group_IT_number 15
_symmetry_cell_setting 'monoclinic'
loop_
_space_group_symop_operation_xyz
x,y,z
-x,y,1/2-z
-x,-y,-z
x,-y,1/2+z
1/2+x,1/2+y,z
1/2-x,1/2+y,1/2-z
1/2-x,1/2-y,-z
1/2+x,1/2-y,1/2+z
loop_
_atom_site_type_symbol
_atom_site_label
_atom_site_fract_x
_atom_site_fract_y
_atom_site_fract_z
Si Si1 0.570688 0.905703 0.721659
Si Si2 0.299035 0.907857 0.160604
Si Si3 0.725921 0.580886 0.018258
Si Si4 0.930940 0.917107 0.929548
Si Si5 0.761278 0.052322 0.123649
Si Si6 0.153257 0.912186 0.217362
Si Si7 0.065075 0.443492 0.079272
O O1 0.500000 0.831870 0.750000
O O2 0.637882 0.771770 0.722522
O O3 0.610842 0.056081 0.774287
O O4 0.530573 0.972330 0.637513
O O5 0.270167 0.734326 0.136054
O O6 0.234168 0.963504 0.198979
O O7 0.301721 0.004179 0.088304
O O8 0.651276 0.579829 0.049353
O O9 0.750000 0.750000 0.000000
O O10 0.703987 0.479785 0.942947
O O11 0.949756 0.739499 0.917020
O O12 0.923857 0.008800 0.852202
O O13 0.000000 0.000000 0.000000
O O14 0.828596 0.975771 0.198849
O O15 0.664203 0.989129 0.098485
O O16 0.000000 0.500000 0.000000
#
# Coordination Sequence:
#
# PCOD8153156 Si02
#       7
#     8   8   8   8   8   8   8
#     4  12  27  45  73 106 143 180 234 300 357 414
#     4  11  23  43  69 100 138 183 234 280 349 424
#     4  11  24  41  69 101 134 181 235 289 340 414
#     4  11  26  46  70  99 142 184 231 288 359 424
#     4  12  24  43  72 101 137 185 242 286 342 430
#     4  11  23  44  73  98 134 189 234 279 354 428
#     4  12  26  43  70 101 144 185 228 294 369 411
#
# _framework density 21.769282
#
# number of rings (size 3 to 8) (size 9 to 14) (size 15 to 20)
#    0.000    0.571    4.286    3.000    6.000    4.571 
#    0.000    1.429    0.000    0.000    0.000    0.000 
#    0.000    0.000    0.000    0.000    0.000    0.000 
#
# Total GULP energy -346989.230657 kJ/mol
# GULP energy per Si atom -12392.472523 kJ/mol
# Density = 2.171973 g / cm^3
# Si number density = 21.769282 Si / 1000 Ang^3
#
#
#
# Elastic Constant Matrix: (Units=GPa)
#
#
# Indices 1 2 3 4 5 6 
#
# 1 52.1189 23.1095 42.1010 0.0000 1.8768 0.0000
# 2 23.1095 127.5364 52.2240 0.0000 10.4707 0.0000
# 3 42.1010 52.2240 195.5134 0.0000 4.8612 0.0000
# 4 0.0000 0.0000 0.0000 47.8132 0.0000 0.4083
# 5 1.8768 10.4707 4.8612 0.0000 41.6083 0.0000
# 6 0.0000 0.0000 0.0000 0.4083 0.0000 30.3478
#
#
#
# Elastic Compliance Matrix: (Units=1/GPa)
#
#
# Indices 1 2 3 4 5 6 
#
# 1 0.023916 -0.002504 -0.004483 0.000000 0.000075 0.000000
# 2 -0.002504 0.009226 -0.001876 0.000000 -0.001990 0.000000
# 3 -0.004483 -0.001876 0.006583 0.000000 -0.000095 0.000000
# 4 0.000000 0.000000 0.000000 0.020917 0.000000 -0.000281
# 5 0.000075 -0.001990 -0.000095 0.000000 0.024542 0.000000
# 6 0.000000 0.000000 0.000000 -0.000281 0.000000 0.032955
#
#
# Mechanical properties :
#
#
# Convention : Reuss Voigt Hill
#
# Bulk Modulus (GPa) = 45.45467 67.78196 56.61831
# Shear Modulus (GPa) = 34.91666 41.13613 38.02640
#
# Velocity S-wave (km/s) = 4.00927 4.35172 4.18400
# Velocity P-wave (km/s) = 6.50829 7.51359 7.02894
#
# Compressibility (1/GPa) = 0.02199994
#
# Stress axis : x y z
#
# Youngs Moduli (GPa) = 41.81352 108.38879 151.89580
#
# Poissons Ratio (x) = 0.27140 0.68094
# Poissons Ratio (y) = 0.10470 0.28491
# Poissons Ratio (z) = 0.18745 0.20331
#
# Static dielectric constant tensor:
#      x y z
#    x 4.033360 0.000000 -0.275150 
#    y 0.000000 4.148970 0.000000 
#    z -0.275150 0.000000 4.752510 
# 
# 
# High freq. dielectric constant tensor:
#      x y z
#    x 1.832200 0.000000 -0.003850 
#    y 0.000000 1.865730 0.000000 
#    z -0.003850 0.000000 1.887820 
# 
# From -- ./inp_files/209613.got.cif
#   From: 2010.06.25/outbox.cif.g09.slc.cpg/sg15_105_cif.got.tgz:209613.got - 2010.06.28 07:06:18.
