data_PCOD8153849
_publ_section_title
;
Structure prediction by ZEFSAII (Michael W. Deem and Ramdas Pophale) SiO2 
 PCOD8153849
Probable space group: C 2/C
;
_chemical_formula_sum "Si O2"
_cell_formula_units_Z 40
_cell_length_a 9.351655
_cell_length_b 21.481339
_cell_length_c 16.973058
_cell_angle_alpha 90.000000
_cell_angle_beta 148.914700
_cell_angle_gamma 90.000000
_cell_volume 1760.449237
_symmetry_space_group_name_H-M "C 2/C"
_symmetry_group_IT_number 15
_symmetry_cell_setting 'monoclinic'
loop_
_space_group_symop_operation_xyz
x,y,z
-x,y,1/2-z
-x,-y,-z
x,-y,1/2+z
1/2+x,1/2+y,z
1/2-x,1/2+y,1/2-z
1/2-x,1/2-y,-z
1/2+x,1/2-y,1/2+z
loop_
_atom_site_type_symbol
_atom_site_label
_atom_site_fract_x
_atom_site_fract_y
_atom_site_fract_z
Si Si1 0.414240 0.617164 0.422209
Si Si2 0.688521 0.857932 0.106589
Si Si3 0.916107 0.427031 0.597167
Si Si4 0.538864 0.932220 0.359342
Si Si5 0.201781 0.755025 0.068747
O O1 0.354683 0.578391 0.474662
O O2 0.636632 0.581076 0.472541
O O3 0.518565 0.684434 0.499566
O O4 0.141997 0.621211 0.238876
O O5 0.640420 0.887059 0.170064
O O6 0.000000 0.830976 0.250000
O O7 0.654206 0.912215 0.025875
O O8 0.472563 0.803886 0.983281
O O9 0.037726 0.496647 0.659186
O O10 0.500000 0.912907 0.250000
O O11 0.500000 0.757860 0.250000
O O12 0.250000 0.750000 0.000000
#
# Coordination Sequence:
#
# PCOD8153849 Si02
#       5
#     8   8   8   8   8
#     4  11  24  45  77  99 146 197 245 294 369 435
#     4  12  29  45  74 110 148 188 248 308 363 429
#     4  11  26  45  71 111 144 190 247 307 361 435
#     4  12  24  47  73 102 147 195 243 294 372 443
#     4  12  27  50  75 106 147 197 250 303 367 442
#
# _framework density 22.721473
#
# number of rings (size 3 to 8) (size 9 to 14) (size 15 to 20)
#    0.000    0.400    4.000    4.200    8.400    0.800 
#    0.000    0.000    0.000    0.000    0.000    0.000 
#    0.000    0.000    0.000    0.000    0.000    0.000 
#
# Total GULP energy -248070.174056 kJ/mol
# GULP energy per Si atom -12403.508703 kJ/mol
# Density = 2.266976 g / cm^3
# Si number density = 22.721473 Si / 1000 Ang^3
#
#
#
# Elastic Constant Matrix: (Units=GPa)
#
#
# Indices 1 2 3 4 5 6 
#
# 1 108.4991 22.3724 45.7716 0.0060 1.1477 0.0008
# 2 22.3724 125.2508 44.2971 0.0140 11.2721 0.0033
# 3 45.7716 44.2971 111.7309 -0.0019 4.6556 0.0076
# 4 0.0060 0.0140 -0.0019 33.6247 -0.0089 3.8751
# 5 1.1477 11.2721 4.6556 -0.0089 45.5499 0.0001
# 6 0.0008 0.0033 0.0076 3.8751 0.0001 35.3576
#
#
#
# Elastic Compliance Matrix: (Units=1/GPa)
#
#
# Indices 1 2 3 4 5 6 
#
# 1 0.011166 -0.000463 -0.004403 -0.000002 0.000283 0.000001
# 2 -0.000463 0.009477 -0.003485 -0.000005 -0.001977 0.000000
# 3 -0.004403 -0.003485 0.012147 0.000003 -0.000268 -0.000003
# 4 -0.000002 -0.000005 0.000003 0.030121 0.000007 -0.003301
# 5 0.000283 -0.001977 -0.000268 0.000007 0.022464 -0.000001
# 6 0.000001 0.000000 -0.000003 -0.003301 -0.000001 0.028644
#
#
# Mechanical properties :
#
#
# Convention : Reuss Voigt Hill
#
# Bulk Modulus (GPa) = 62.15653 63.37366 62.76509
# Shear Modulus (GPa) = 36.74215 38.44243 37.59229
#
# Velocity S-wave (km/s) = 4.02564 4.11773 4.07195
# Velocity P-wave (km/s) = 7.00164 7.11053 7.05630
#
# Compressibility (1/GPa) = 0.01608841
#
# Stress axis : x y z
#
# Youngs Moduli (GPa) = 89.55385 105.51551 82.32717
#
# Poissons Ratio (x) = 0.04885 0.36246
# Poissons Ratio (y) = 0.04146 0.28694
# Poissons Ratio (z) = 0.39428 0.36776
#
# Static dielectric constant tensor:
#      x y z
#    x 4.229510 -0.000180 0.219950 
#    y -0.000180 4.329500 0.000160 
#    z 0.219950 0.000160 4.166250 
# 
# 
# High freq. dielectric constant tensor:
#      x y z
#    x 1.903100 0.000000 0.008730 
#    y 0.000000 1.893850 -0.000010 
#    z 0.008730 -0.000010 1.906470 
# 
# From -- ./inp_files/193460.got.cif
#   From: 2010.06.25/outbox.cif.g09.slc.cpg/sg15_97_cif.got.tgz:193460.got - 2010.06.28 07:06:18.
