data_PCOD8153027
_publ_section_title
;
Structure prediction by ZEFSAII (Michael W. Deem and Ramdas Pophale) SiO2 
 PCOD8153027
Probable space group: C 2/C
;
_chemical_formula_sum "Si O2"
_cell_formula_units_Z 56
_cell_length_a 18.956678
_cell_length_b 9.341749
_cell_length_c 31.241872
_cell_angle_alpha 90.000000
_cell_angle_beta 152.152079
_cell_angle_gamma 90.000000
_cell_volume 2584.412401
_symmetry_space_group_name_H-M "C 2/C"
_symmetry_group_IT_number 15
_symmetry_cell_setting 'monoclinic'
loop_
_space_group_symop_operation_xyz
x,y,z
-x,y,1/2-z
-x,-y,-z
x,-y,1/2+z
1/2+x,1/2+y,z
1/2-x,1/2+y,1/2-z
1/2-x,1/2-y,-z
1/2+x,1/2-y,1/2+z
loop_
_atom_site_type_symbol
_atom_site_label
_atom_site_fract_x
_atom_site_fract_y
_atom_site_fract_z
Si Si1 0.134135 0.882992 0.130947
Si Si2 0.546492 0.986173 0.725346
Si Si3 0.143522 0.784687 0.231075
Si Si4 0.102944 0.358290 0.553269
Si Si5 0.035570 0.806360 0.591800
Si Si6 0.431809 0.459752 0.754797
Si Si7 0.406498 0.763981 0.107990
O O1 0.155171 0.795199 0.186306
O O2 0.044851 0.769341 0.053330
O O3 0.293977 0.930456 0.195495
O O4 0.027550 0.022573 0.079308
O O5 0.500000 0.960234 0.750000
O O6 0.538590 0.841305 0.693168
O O7 0.415918 0.078167 0.632624
O O8 0.305635 0.755555 0.339771
O O9 0.079777 0.935023 0.211936
O O10 0.272065 0.390256 0.657917
O O11 0.000000 0.500000 0.500000
O O12 0.096140 0.284066 0.502678
O O13 0.033407 0.771485 0.640821
O O14 0.500000 0.540885 0.750000
O O15 0.559314 0.342624 0.834499
O O16 0.250000 0.750000 0.000000
#
# Coordination Sequence:
#
# PCOD8153027 Si02
#       7
#     8   8   8   8   8   8   8
#     4  11  24  44  71  96 139 179 228 288 343 410
#     4  11  25  44  68 102 142 180 226 285 352 407
#     4  11  23  45  71  99 135 182 228 283 347 411
#     4  12  25  41  70 104 137 173 236 286 345 413
#     4  11  23  42  67 103 130 179 229 281 339 415
#     4  12  24  46  67  99 141 178 223 289 349 409
#     4  12  25  43  70  98 134 178 233 276 345 415
#
# _framework density 21.668367
#
# number of rings (size 3 to 8) (size 9 to 14) (size 15 to 20)
#    0.000    0.571    5.714    2.143    6.000    0.000 
#    0.000    0.714    0.000    0.000    0.000    0.000 
#    0.000    0.000    0.000    0.000    0.000    0.000 
#
# Total GULP energy -347060.103248 kJ/mol
# GULP energy per Si atom -12395.003687 kJ/mol
# Density = 2.161905 g / cm^3
# Si number density = 21.668367 Si / 1000 Ang^3
#
#
#
# Elastic Constant Matrix: (Units=GPa)
#
#
# Indices 1 2 3 4 5 6 
#
# 1 103.4438 34.0542 11.1604 -0.0005 -22.1736 0.0000
# 2 34.0542 132.9077 43.8930 -0.0002 -7.2229 0.0000
# 3 11.1604 43.8930 97.1572 -0.0040 -3.3857 -0.0003
# 4 -0.0005 -0.0002 -0.0040 34.2289 -0.0001 -13.9178
# 5 -22.1736 -7.2229 -3.3857 -0.0001 31.0661 0.0001
# 6 0.0000 0.0000 -0.0003 -13.9178 0.0001 35.2059
#
#
#
# Elastic Compliance Matrix: (Units=1/GPa)
#
#
# Indices 1 2 3 4 5 6 
#
# 1 0.012308 -0.002747 0.000112 0.000000 0.008159 0.000000
# 2 -0.002747 0.009539 -0.004000 -0.000001 -0.000179 0.000000
# 3 0.000112 -0.004000 0.012103 0.000002 0.000469 0.000001
# 4 0.000000 -0.000001 0.000002 0.034811 0.000000 0.013762
# 5 0.008159 -0.000179 0.000469 0.000000 0.038022 0.000000
# 6 0.000000 0.000000 0.000001 0.013762 0.000000 0.033845
#
#
# Mechanical properties :
#
#
# Convention : Reuss Voigt Hill
#
# Bulk Modulus (GPa) = 48.35789 56.85820 52.60804
# Shear Modulus (GPa) = 31.09587 36.39358 33.74472
#
# Velocity S-wave (km/s) = 3.79236 4.10270 3.95058
# Velocity P-wave (km/s) = 6.44528 6.98141 6.71870
#
# Compressibility (1/GPa) = 0.02067915
#
# Stress axis : x y z
#
# Youngs Moduli (GPa) = 81.24639 104.82981 82.62194
#
# Poissons Ratio (x) = 0.28798 -0.00922
# Poissons Ratio (y) = 0.22319 0.33051
# Poissons Ratio (z) = -0.00906 0.41935
#
# Static dielectric constant tensor:
#      x y z
#    x 4.090240 0.000000 -0.172450 
#    y 0.000000 4.078750 0.000000 
#    z -0.172450 0.000000 3.701880 
# 
# 
# High freq. dielectric constant tensor:
#      x y z
#    x 1.855520 0.000000 -0.018140 
#    y 0.000000 1.860810 0.000000 
#    z -0.018140 0.000000 1.844170 
# 
# From -- ./inp_files/317584.got.cif
#   From: 2010.06.25/outbox.cif.g09.slc.cpg/sg15_159_cif.got.tgz:317584.got - 2010.06.28 07:06:18.
