data_PCOD8153957
_publ_section_title
;
Structure prediction by ZEFSAII (Michael W. Deem and Ramdas Pophale) SiO2 
 PCOD8153957
Probable space group: C 2/C
;
_chemical_formula_sum "Si O2"
_cell_formula_units_Z 52
_cell_length_a 12.956671
_cell_length_b 14.082432
_cell_length_c 13.215317
_cell_angle_alpha 90.000000
_cell_angle_beta 74.572285
_cell_angle_gamma 90.000000
_cell_volume 2324.399496
_symmetry_space_group_name_H-M "C 2/C"
_symmetry_group_IT_number 15
_symmetry_cell_setting 'monoclinic'
loop_
_space_group_symop_operation_xyz
x,y,z
-x,y,1/2-z
-x,-y,-z
x,-y,1/2+z
1/2+x,1/2+y,z
1/2-x,1/2+y,1/2-z
1/2-x,1/2-y,-z
1/2+x,1/2-y,1/2+z
loop_
_atom_site_type_symbol
_atom_site_label
_atom_site_fract_x
_atom_site_fract_y
_atom_site_fract_z
Si Si1 0.061817 0.590438 0.520177
Si Si2 0.476972 0.413955 0.935977
Si Si3 0.171513 0.819821 0.170594
Si Si4 0.170990 0.818187 0.787751
Si Si5 0.969746 0.228562 0.599624
Si Si6 0.227386 0.965114 0.624344
Si Si7 0.500000 0.180429 0.750000
O O1 0.034518 0.664030 0.437372
O O2 0.187635 0.559785 0.486430
O O3 0.022182 0.618629 0.643111
O O4 0.000000 0.500000 0.500000
O O5 0.590130 0.388655 0.861111
O O6 0.394237 0.442300 0.872014
O O7 0.500000 0.500000 0.000000
O O8 0.428981 0.327642 0.012255
O O9 0.265925 0.741776 0.143147
O O10 0.110199 0.798753 0.290601
O O11 0.090909 0.802661 0.098232
O O12 0.227457 0.923769 0.155766
O O13 0.252334 0.889060 0.707305
O O14 0.105836 0.745049 0.733082
#
# Coordination Sequence:
#
# PCOD8153957 Si02
#       7
#     8   8   8   8   8   8   4
#     4  12  28  51  74 110 153 198 245 306 377 451
#     4  12  24  43  73 108 144 189 247 314 360 435
#     4  11  26  45  75 107 148 199 243 307 370 447
#     4  12  24  45  74 107 147 193 248 306 369 437
#     4  11  24  47  71 105 151 191 251 305 373 437
#     4  12  25  46  75 111 144 194 255 301 374 442
#     4  12  26  48  78 104 150 192 252 308 370 444
#
# _framework density 22.371369000000001
#
# number of rings (size 3 to 8) (size 9 to 14) (size 15 to 20)
#    0.000    0.308    6.154    1.846    4.308    4.308 
#    5.538    0.000    0.000    0.000    0.000    0.000 
#    0.000    0.000    0.000    0.000    0.000    0.000 
#
# Total GULP energy -322268.011809 kJ/mol
# GULP energy per Si atom -12394.923531 kJ/mol
# Density = 2.232045 g / cm^3
# Si number density = 22.371369 Si / 1000 Ang^3
#
#
#
# Elastic Constant Matrix: (Units=GPa)
#
#
# Indices 1 2 3 4 5 6 
#
# 1 82.4914 42.2589 23.3114 0.0000 -11.7765 0.0000
# 2 42.2589 163.1584 53.7938 0.0000 -3.8854 0.0000
# 3 23.3114 53.7938 123.8199 0.0000 -12.6698 0.0000
# 4 0.0000 0.0000 0.0000 -16.4775 0.0000 20.8699
# 5 -11.7765 -3.8854 -12.6698 0.0000 32.7990 0.0000
# 6 0.0000 0.0000 0.0000 20.8699 0.0000 30.6200
#
#
#
# Elastic Compliance Matrix: (Units=1/GPa)
#
#
# Indices 1 2 3 4 5 6 
#
# 1 0.014773 -0.003449 -0.000814 0.000000 0.004581 0.000000
# 2 -0.003449 0.007963 -0.002957 0.000000 -0.001437 0.000000
# 3 -0.000814 -0.002957 0.009837 0.000000 0.003157 0.000000
# 4 0.000000 0.000000 0.000000 -0.032571 0.000000 0.022200
# 5 0.004581 -0.001437 0.003157 0.000000 0.033183 0.000000
# 6 0.000000 0.000000 0.000000 0.022200 0.000000 0.017528
#
#
# Mechanical properties :
#
#
# Convention : Reuss Voigt Hill
#
# Bulk Modulus (GPa) = 55.14778 67.57753 61.36266
# Shear Modulus (GPa) = 70.22626 26.06201 48.14414
#
# Velocity S-wave (km/s) = 5.60886 3.41687 4.64404
# Velocity P-wave (km/s) = 8.16396 6.77048 7.49966
#
# Compressibility (1/GPa) = 0.01813309
#
# Stress axis : x y z
#
# Youngs Moduli (GPa) = 67.68931 125.57926 101.65240
#
# Poissons Ratio (x) = 0.43310 0.08277
# Poissons Ratio (y) = 0.23345 0.30062
# Poissons Ratio (z) = 0.05511 0.37138
#
# Static dielectric constant tensor:
#      x y z
#    x 4.366000 0.000000 -0.236220 
#    y 0.000000 4.350150 0.000000 
#    z -0.236220 0.000000 4.360510 
# 
# 
# High freq. dielectric constant tensor:
#      x y z
#    x 1.880050 0.000000 -0.008490 
#    y 0.000000 1.902450 0.000000 
#    z -0.008490 0.000000 1.884840 
# 
# From -- ./inp_files/144182.got.cif
#   From: 2010.06.25/outbox.cif.g09.slc.cpg/sg15_73_cif.got.tgz:144182.got - 2010.06.28 07:06:18.
