data_PCOD8153657
_publ_section_title
;
Structure prediction by ZEFSAII (Michael W. Deem and Ramdas Pophale) SiO2 
 PCOD8153657
Probable space group: C 2/C
;
_chemical_formula_sum "Si O2"
_cell_formula_units_Z 44
_cell_length_a 14.609203
_cell_length_b 10.546621
_cell_length_c 12.655747
_cell_angle_alpha 90.000000
_cell_angle_beta 75.249455
_cell_angle_gamma 90.000000
_cell_volume 1885.704622
_symmetry_space_group_name_H-M "C 2/C"
_symmetry_group_IT_number 15
_symmetry_cell_setting 'monoclinic'
loop_
_space_group_symop_operation_xyz
x,y,z
-x,y,1/2-z
-x,-y,-z
x,-y,1/2+z
1/2+x,1/2+y,z
1/2-x,1/2+y,1/2-z
1/2-x,1/2-y,-z
1/2+x,1/2-y,1/2+z
loop_
_atom_site_type_symbol
_atom_site_label
_atom_site_fract_x
_atom_site_fract_y
_atom_site_fract_z
Si Si1 0.831799 0.177910 0.718916
Si Si2 0.394655 0.426742 0.786262
Si Si3 0.000000 0.676278 0.250000
Si Si4 0.714656 0.559146 0.978485
Si Si5 0.667919 0.703731 0.386684
Si Si6 0.091030 0.444240 0.532183
O O1 0.937174 0.236546 0.689615
O O2 0.790538 0.165802 0.612142
O O3 0.772569 0.265916 0.814900
O O4 0.825060 0.037343 0.768136
O O5 0.500000 0.481704 0.750000
O O6 0.394041 0.312631 0.701497
O O7 0.356176 0.384954 0.911733
O O8 0.064850 0.585456 0.160293
O O9 0.672639 0.422983 0.955678
O O10 0.821917 0.544422 0.990679
O O11 0.623329 0.814903 0.467570
O O12 0.000000 0.500000 0.500000
#
# Coordination Sequence:
#
# PCOD8153657 Si02
#       6
#     8   8   4   8   8   8
#     4  11  24  43  73  97 138 186 237 285 358 422
#     4  11  25  42  68 103 138 177 240 295 343 425
#     4  12  26  46  70 106 138 188 236 292 354 426
#     4  11  25  46  71 102 140 189 236 292 354 423
#     4  11  25  46  69  97 143 189 226 293 362 409
#     4  12  28  45  73 103 145 185 237 290 358 427
#
# _framework density 23.333452999999999
#
# number of rings (size 3 to 8) (size 9 to 14) (size 15 to 20)
#    0.000    0.727    4.545    1.636    7.636    3.636 
#    0.000    0.000    0.000    0.000    0.000    0.000 
#    0.000    0.000    0.000    0.000    0.000    0.000 
#
# Total GULP energy -272808.984000 kJ/mol
# GULP energy per Si atom -12400.408364 kJ/mol
# Density = 2.328034 g / cm^3
# Si number density = 23.333453 Si / 1000 Ang^3
#
#
#
# Elastic Constant Matrix: (Units=GPa)
#
#
# Indices 1 2 3 4 5 6 
#
# 1 139.5339 28.3325 54.6084 0.0000 4.0654 0.0000
# 2 28.3325 42.2047 20.8697 0.0000 3.8435 0.0000
# 3 54.6084 20.8697 152.0683 0.0000 -6.6005 0.0000
# 4 0.0000 0.0000 0.0000 20.1240 0.0000 11.2526
# 5 4.0654 3.8435 -6.6005 0.0000 39.4733 0.0000
# 6 0.0000 0.0000 0.0000 11.2526 0.0000 19.0361
#
#
#
# Elastic Compliance Matrix: (Units=1/GPa)
#
#
# Indices 1 2 3 4 5 6 
#
# 1 0.009218 -0.004769 -0.002696 0.000000 -0.000936 0.000000
# 2 -0.004769 0.028264 -0.002281 0.000000 -0.002642 0.000000
# 3 -0.002696 -0.002281 0.007937 0.000000 0.001827 0.000000
# 4 0.000000 0.000000 0.000000 0.074226 0.000000 -0.043877
# 5 -0.000936 -0.002642 0.001827 0.000000 0.025993 0.000000
# 6 0.000000 0.000000 0.000000 -0.043877 0.000000 0.078468
#
#
# Mechanical properties :
#
#
# Convention : Reuss Voigt Hill
#
# Bulk Modulus (GPa) = 38.57214 60.15867 49.36541
# Shear Modulus (GPa) = 19.82235 31.05975 25.44105
#
# Velocity S-wave (km/s) = 2.91782 3.65242 3.30559
# Velocity P-wave (km/s) = 5.28378 6.60492 5.98094
#
# Compressibility (1/GPa) = 0.02592545
#
# Stress axis : x y z
#
# Youngs Moduli (GPa) = 108.48814 35.38021 125.99991
#
# Poissons Ratio (x) = 0.16874 0.33971
# Poissons Ratio (y) = 0.51743 0.28740
# Poissons Ratio (z) = 0.29250 0.08070
#
# Static dielectric constant tensor:
#      x y z
#    x 4.223890 0.000000 0.128480 
#    y 0.000000 4.007150 0.000000 
#    z 0.128480 0.000000 4.343060 
# 
# 
# High freq. dielectric constant tensor:
#      x y z
#    x 1.926010 0.000000 0.002200 
#    y 0.000000 1.911430 0.000000 
#    z 0.002200 0.000000 1.936400 
# 
# From -- ./inp_files/94959.got.cif
#   From: 2010.06.25/outbox.cif.g09.slc.cpg/sg15_48_cif.got.tgz:94959.got - 2010.06.28 07:06:18.
