data_PCOD8153117
_publ_section_title
;
Structure prediction by ZEFSAII (Michael W. Deem and Ramdas Pophale) SiO2 
 PCOD8153117
Probable space group: C 2/C
;
_chemical_formula_sum "Si O2"
_cell_formula_units_Z 56
_cell_length_a 15.404574
_cell_length_b 11.805950
_cell_length_c 14.182492
_cell_angle_alpha 90.000000
_cell_angle_beta 89.680653
_cell_angle_gamma 90.000000
_cell_volume 2579.267785
_symmetry_space_group_name_H-M "C 2/C"
_symmetry_group_IT_number 15
_symmetry_cell_setting 'monoclinic'
loop_
_space_group_symop_operation_xyz
x,y,z
-x,y,1/2-z
-x,-y,-z
x,-y,1/2+z
1/2+x,1/2+y,z
1/2-x,1/2+y,1/2-z
1/2-x,1/2-y,-z
1/2+x,1/2-y,1/2+z
loop_
_atom_site_type_symbol
_atom_site_label
_atom_site_fract_x
_atom_site_fract_y
_atom_site_fract_z
Si Si1 0.453414 0.034842 0.851283
Si Si2 0.218954 0.984325 0.136286
Si Si3 0.193589 0.291281 0.914099
Si Si4 0.805428 0.333184 0.273140
Si Si5 0.079722 0.086554 0.490394
Si Si6 0.000428 0.676650 0.029296
Si Si7 0.401504 0.611055 0.224688
O O1 0.500000 0.039563 0.750000
O O2 0.352662 0.069097 0.835345
O O3 0.457652 0.909016 0.895025
O O4 0.497447 0.121581 0.925128
O O5 0.275040 0.877739 0.171396
O O6 0.288803 0.078031 0.107500
O O7 0.158325 0.020955 0.222749
O O8 0.161740 0.957517 0.046677
O O9 0.219759 0.213700 0.825352
O O10 0.092964 0.279612 0.936582
O O11 0.250000 0.250000 0.000000
O O12 0.877386 0.236627 0.258528
O O13 0.113618 0.092937 0.384615
O O14 0.058018 0.211504 0.527128
O O15 0.000000 0.000000 0.500000
O O16 0.500000 0.586453 0.250000
#
# Coordination Sequence:
#
# PCOD8153117 Si02
#       7
#     8   8   8   8   8   8   8
#     4  11  23  44  70  98 134 173 227 275 329 397
#     4  11  27  42  66 103 130 178 219 277 341 385
#     4  11  23  43  65  96 135 176 221 267 343 401
#     4  11  24  43  68  95 138 174 219 278 333 400
#     4  12  25  44  70 100 137 175 227 275 325 403
#     4  11  25  42  72 101 128 179 226 274 330 392
#     4  11  24  45  68  95 134 181 222 266 338 403
#
# _framework density 21.711587000000002
#
# number of rings (size 3 to 8) (size 9 to 14) (size 15 to 20)
#    0.000    0.857    2.857    3.857    4.000    5.143 
#    0.000    0.000    0.000    0.000    0.000    0.000 
#    0.000    0.000    0.000    0.000    0.000    0.000 
#
# Total GULP energy -347337.952424 kJ/mol
# GULP energy per Si atom -12404.926872 kJ/mol
# Density = 2.166217 g / cm^3
# Si number density = 21.711587 Si / 1000 Ang^3
#
#
#
# Elastic Constant Matrix: (Units=GPa)
#
#
# Indices 1 2 3 4 5 6 
#
# 1 53.0003 6.3882 21.9182 0.0000 4.0035 0.0000
# 2 6.3882 86.5542 30.2683 0.0000 0.5912 0.0000
# 3 21.9182 30.2683 127.5384 0.0000 -2.9791 0.0000
# 4 0.0000 0.0000 0.0000 36.1262 0.0000 13.6030
# 5 4.0035 0.5912 -2.9791 0.0000 41.0224 0.0000
# 6 0.0000 0.0000 0.0000 13.6030 0.0000 7.9886
#
#
#
# Elastic Compliance Matrix: (Units=1/GPa)
#
#
# Indices 1 2 3 4 5 6 
#
# 1 0.020525 -0.000270 -0.003516 0.000000 -0.002255 0.000000
# 2 -0.000270 0.012609 -0.002955 0.000000 -0.000370 0.000000
# 3 -0.003516 -0.002955 0.009171 0.000000 0.001052 0.000000
# 4 0.000000 0.000000 0.000000 0.077143 0.000000 -0.131360
# 5 -0.002255 -0.000370 0.001052 0.000000 0.024679 0.000000
# 6 0.000000 0.000000 0.000000 -0.131360 0.000000 0.348858
#
#
# Mechanical properties :
#
#
# Convention : Reuss Voigt Hill
#
# Bulk Modulus (GPa) = 34.69388 42.69359 38.69374
# Shear Modulus (GPa) = 9.68854 30.92864 20.30859
#
# Velocity S-wave (km/s) = 2.11473 3.77838 3.06172
# Velocity P-wave (km/s) = 4.68795 6.22427 5.50992
#
# Compressibility (1/GPa) = 0.02882353
#
# Stress axis : x y z
#
# Youngs Moduli (GPa) = 48.72192 79.30717 109.04159
#
# Poissons Ratio (x) = 0.02141 0.38338
# Poissons Ratio (y) = 0.01315 0.32219
# Poissons Ratio (z) = 0.17130 0.23433
#
# Static dielectric constant tensor:
#      x y z
#    x 3.865440 0.000000 -0.105300 
#    y 0.000000 4.065980 0.000000 
#    z -0.105300 0.000000 4.097580 
# 
# 
# High freq. dielectric constant tensor:
#      x y z
#    x 1.851610 0.000000 -0.004900 
#    y 0.000000 1.861900 0.000000 
#    z -0.004900 0.000000 1.866180 
# 
# From -- ./inp_files/152625.got.cif
#   From: 2010.06.25/outbox.cif.g09.slc.cpg/sg15_77_cif.got.tgz:152625.got - 2010.06.28 07:06:18.
