data_PCOD8153316
_publ_section_title
;
Structure prediction by ZEFSAII (Michael W. Deem and Ramdas Pophale) SiO2 
 PCOD8153316
Probable space group: C 2/C
;
_chemical_formula_sum "Si O2"
_cell_formula_units_Z 60
_cell_length_a 11.653992
_cell_length_b 9.112331
_cell_length_c 24.535425
_cell_angle_alpha 90.000000
_cell_angle_beta 89.607040
_cell_angle_gamma 90.000000
_cell_volume 2605.478977
_symmetry_space_group_name_H-M "C 2/C"
_symmetry_group_IT_number 15
_symmetry_cell_setting 'monoclinic'
loop_
_space_group_symop_operation_xyz
x,y,z
-x,y,1/2-z
-x,-y,-z
x,-y,1/2+z
1/2+x,1/2+y,z
1/2-x,1/2+y,1/2-z
1/2-x,1/2-y,-z
1/2+x,1/2-y,1/2+z
loop_
_atom_site_type_symbol
_atom_site_label
_atom_site_fract_x
_atom_site_fract_y
_atom_site_fract_z
Si Si1 0.106792 0.551016 0.140991
Si Si2 0.780788 0.817546 0.124625
Si Si3 0.136006 0.321658 0.474340
Si Si4 0.819965 0.258329 0.145730
Si Si5 0.105428 0.991967 0.787625
Si Si6 0.000000 0.569498 0.250000
Si Si7 0.783623 0.566329 0.197365
Si Si8 0.568016 0.140310 0.449252
O O1 0.178056 0.425953 0.108960
O O2 0.190942 0.691198 0.148926
O O3 0.063324 0.484276 0.199467
O O4 0.998516 0.592390 0.105103
O O5 0.874969 0.897531 0.162454
O O6 0.722736 0.680954 0.157470
O O7 0.839939 0.763328 0.068753
O O8 0.250000 0.250000 0.500000
O O9 0.126535 0.250923 0.414781
O O10 0.137205 0.500637 0.473625
O O11 0.020729 0.282660 0.508598
O O12 0.820593 0.426517 0.162557
O O13 0.905610 0.170200 0.185838
O O14 0.213910 0.992781 0.748133
O O15 0.000000 0.037443 0.750000
O O16 0.896527 0.655382 0.220330
#
# Coordination Sequence:
#
# PCOD8153316 Si02
#       8
#     8   8   8   8   8   4   8   8
#     4  11  24  42  72  98 147 181 237 290 354 435
#     4  11  24  44  65 105 138 181 239 288 351 428
#     4  11  23  44  79 100 135 186 246 297 364 423
#     4  11  23  45  65 103 135 183 235 296 350 423
#     4  11  27  40  64 100 145 181 234 288 352 437
#     4  12  22  38  66  96 138 194 224 284 350 428
#     4  12  24  38  67  96 136 188 232 278 358 422
#     4  11  24  45  76 102 131 195 233 296 370 417
#
# _framework density 23.028395
#
# number of rings (size 3 to 8) (size 9 to 14) (size 15 to 20)
#    0.000    0.800    6.667    0.800    3.733    1.067 
#    0.000    5.333    2.933    0.000    0.000    0.000 
#    0.000    0.000    0.000    0.000    0.000    0.000 
#
# Total GULP energy -371650.274728 kJ/mol
# GULP energy per Si atom -12388.342491 kJ/mol
# Density = 2.297598 g / cm^3
# Si number density = 23.028395 Si / 1000 Ang^3
#
#
#
# Elastic Constant Matrix: (Units=GPa)
#
#
# Indices 1 2 3 4 5 6 
#
# 1 81.1643 1.7618 27.2166 0.0000 -21.0047 0.0000
# 2 1.7618 54.9471 7.7240 0.0000 -9.0634 0.0000
# 3 27.2166 7.7240 125.4199 0.0000 -34.2794 0.0000
# 4 0.0000 0.0000 0.0000 112.3210 0.0000 -28.2143
# 5 -21.0047 -9.0634 -34.2794 0.0000 37.6825 0.0000
# 6 0.0000 0.0000 0.0000 -28.2143 0.0000 38.3231
#
#
#
# Elastic Compliance Matrix: (Units=1/GPa)
#
#
# Indices 1 2 3 4 5 6 
#
# 1 0.014586 0.000897 -0.001250 0.000000 0.007209 0.000000
# 2 0.000897 0.019007 0.000028 0.000000 0.005097 0.000000
# 3 -0.001250 0.000028 0.010719 0.000000 0.009061 0.000000
# 4 0.000000 0.000000 0.000000 0.010923 0.000000 0.008042
# 5 0.007209 0.005097 0.009061 0.000000 0.040025 0.000000
# 6 0.000000 0.000000 0.000000 0.008042 0.000000 0.032014
#
#
# Mechanical properties :
#
#
# Convention : Reuss Voigt Hill
#
# Bulk Modulus (GPa) = 22.90289 37.21514 30.05901
# Shear Modulus (GPa) = 35.09276 52.65391 43.87333
#
# Velocity S-wave (km/s) = 3.90794 4.78690 4.36958
# Velocity P-wave (km/s) = 5.50724 6.83726 6.20798
#
# Compressibility (1/GPa) = 0.04366261
#
# Stress axis : x y z
#
# Youngs Moduli (GPa) = 68.55868 52.61106 93.28913
#
# Poissons Ratio (x) = -0.04720 0.11662
# Poissons Ratio (y) = -0.06151 -0.00260
# Poissons Ratio (z) = 0.08571 -0.00147
#
# Static dielectric constant tensor:
#      x y z
#    x 3.972290 0.000000 -0.228950 
#    y 0.000000 4.022340 0.000000 
#    z -0.228950 0.000000 4.372100 
# 
# 
# High freq. dielectric constant tensor:
#      x y z
#    x 1.903600 0.000000 -0.012190 
#    y 0.000000 1.893140 0.000000 
#    z -0.012190 0.000000 1.924950 
# 
# From -- ./inp_files/291595.got.cif
#   From: 2010.06.25/outbox.cif.g09.slc.cpg/sg15_146_cif.got.tgz:291595.got - 2010.06.28 07:06:18.
