data_PCOD8153970
_publ_section_title
;
Structure prediction by ZEFSAII (Michael W. Deem and Ramdas Pophale) SiO2 
 PCOD8153970
Probable space group: C 2/C
;
_chemical_formula_sum "Si O2"
_cell_formula_units_Z 24
_cell_length_a 22.340942
_cell_length_b 6.756239
_cell_length_c 13.101481
_cell_angle_alpha 90.000000
_cell_angle_beta 151.448168
_cell_angle_gamma 90.000000
_cell_volume 945.175799
_symmetry_space_group_name_H-M "C 2/C"
_symmetry_group_IT_number 15
_symmetry_cell_setting 'monoclinic'
loop_
_space_group_symop_operation_xyz
x,y,z
-x,y,1/2-z
-x,-y,-z
x,-y,1/2+z
1/2+x,1/2+y,z
1/2-x,1/2+y,1/2-z
1/2-x,1/2-y,-z
1/2+x,1/2-y,1/2+z
loop_
_atom_site_type_symbol
_atom_site_label
_atom_site_fract_x
_atom_site_fract_y
_atom_site_fract_z
Si Si1 0.880731 0.386407 0.362513
Si Si2 0.677786 0.688968 0.030526
Si Si3 0.372076 0.491275 0.743501
O O1 0.772781 0.540130 0.228803
O O2 0.914540 0.272030 0.519130
O O3 0.831797 0.238106 0.199598
O O4 0.000000 0.500000 0.500000
O O5 0.757607 0.869633 0.105011
O O6 0.600583 0.559703 0.831810
O O7 0.500000 0.500000 0.000000
#
# Coordination Sequence:
#
# PCOD8153970 Si02
#       3
#     8   8   8
#     4  12  24  47  78 114 153 209 261 325 407 461
#     4  11  25  46  75 113 159 200 262 329 386 480
#     4  11  24  47  73 110 156 205 259 319 399 468
#
# _framework density 25.392099999999999
#
# number of rings (size 3 to 8) (size 9 to 14) (size 15 to 20)
#    0.000    0.667    6.667    1.000    0.000    1.333 
#    0.000    0.000    0.000    0.000    0.000    0.000 
#    0.000    0.000    0.000    0.000    0.000    0.000 
#
# Total GULP energy -148680.626452 kJ/mol
# GULP energy per Si atom -12390.052204 kJ/mol
# Density = 2.533431 g / cm^3
# Si number density = 25.392100 Si / 1000 Ang^3
#
#
#
# Elastic Constant Matrix: (Units=GPa)
#
#
# Indices 1 2 3 4 5 6 
#
# 1 178.7447 72.8170 60.6656 0.0000 -37.9978 0.0000
# 2 72.8170 166.1193 22.8483 0.0000 -14.8426 0.0000
# 3 60.6656 22.8483 85.5333 0.0000 -17.0327 0.0000
# 4 0.0000 0.0000 0.0000 42.6298 0.0000 1.7629
# 5 -37.9978 -14.8426 -17.0327 0.0000 41.4810 0.0000
# 6 0.0000 0.0000 0.0000 1.7629 0.0000 63.5732
#
#
#
# Elastic Compliance Matrix: (Units=1/GPa)
#
#
# Indices 1 2 3 4 5 6 
#
# 1 0.009763 -0.003080 -0.004944 0.000000 0.005811 0.000000
# 2 -0.003080 0.007332 0.000203 0.000000 -0.000115 0.000000
# 3 -0.004944 0.000203 0.015526 0.000000 0.001919 0.000000
# 4 0.000000 0.000000 0.000000 0.023485 0.000000 -0.000651
# 5 0.005811 -0.000115 0.001919 0.000000 0.030177 0.000000
# 6 0.000000 0.000000 0.000000 -0.000651 0.000000 0.015748
#
#
# Mechanical properties :
#
#
# Convention : Reuss Voigt Hill
#
# Bulk Modulus (GPa) = 58.90023 82.56213 70.73118
# Shear Modulus (GPa) = 40.54101 47.80791 44.17446
#
# Velocity S-wave (km/s) = 4.00008 4.34382 4.17549
# Velocity P-wave (km/s) = 6.67689 7.59893 7.15278
#
# Compressibility (1/GPa) = 0.01697786
#
# Stress axis : x y z
#
# Youngs Moduli (GPa) = 102.43036 136.39343 64.40796
#
# Poissons Ratio (x) = 0.42012 0.31846
# Poissons Ratio (y) = 0.31550 -0.01310
# Poissons Ratio (z) = 0.50646 -0.02773
#
# Static dielectric constant tensor:
#      x y z
#    x 4.950740 0.000000 -0.252410 
#    y 0.000000 5.610220 0.000000 
#    z -0.252410 0.000000 4.445980 
# 
# 
# High freq. dielectric constant tensor:
#      x y z
#    x 2.021360 0.000000 -0.001970 
#    y 0.000000 2.035680 0.000000 
#    z -0.001970 0.000000 2.009240 
# 
# From -- ./inp_files/175599.got.cif
#   From: 2010.06.25/outbox.cif.g09.slc.cpg/sg15_88_cif.got.tgz:175599.got - 2010.06.28 07:06:18.
