data_PCOD8153356
_publ_section_title
;
Structure prediction by ZEFSAII (Michael W. Deem and Ramdas Pophale) SiO2 
 PCOD8153356
Probable space group: C 2/C
;
_chemical_formula_sum "Si O2"
_cell_formula_units_Z 40
_cell_length_a 28.800441
_cell_length_b 8.581151
_cell_length_c 14.975041
_cell_angle_alpha 90.000000
_cell_angle_beta 151.005080
_cell_angle_gamma 90.000000
_cell_volume 1793.967032
_symmetry_space_group_name_H-M "C 2/C"
_symmetry_group_IT_number 15
_symmetry_cell_setting 'monoclinic'
loop_
_space_group_symop_operation_xyz
x,y,z
-x,y,1/2-z
-x,-y,-z
x,-y,1/2+z
1/2+x,1/2+y,z
1/2-x,1/2+y,1/2-z
1/2-x,1/2-y,-z
1/2+x,1/2-y,1/2+z
loop_
_atom_site_type_symbol
_atom_site_label
_atom_site_fract_x
_atom_site_fract_y
_atom_site_fract_z
Si Si1 0.402270 0.668437 0.543497
Si Si2 0.224930 0.570418 0.966442
Si Si3 0.897446 0.482795 0.067059
Si Si4 0.104940 0.963580 0.142645
Si Si5 0.696919 0.139340 0.259636
O O1 0.500000 0.594269 0.750000
O O2 0.374326 0.573068 0.407789
O O3 0.311058 0.670261 0.457194
O O4 0.420969 0.851031 0.559806
O O5 0.150714 0.521403 0.917719
O O6 0.178332 0.501477 0.797492
O O7 0.250000 0.750000 0.000000
O O8 0.326726 0.495929 0.159165
O O9 0.000000 0.395946 0.250000
O O10 0.824969 0.399777 0.879081
O O11 0.125822 0.783071 0.158059
O O12 0.000000 0.000000 0.000000
#
# Coordination Sequence:
#
# PCOD8153356 Si02
#       5
#     8   8   8   8   8
#     4  11  23  45  73 101 145 187 240 295 362 431
#     4  12  27  46  72 102 143 187 243 301 363 434
#     4  11  27  46  71 103 141 188 237 294 368 430
#     4  12  27  44  71 109 144 188 242 300 367 434
#     4  12  25  47  72 103 146 187 242 300 363 436
#
# _framework density 22.296953999999999
#
# number of rings (size 3 to 8) (size 9 to 14) (size 15 to 20)
#    0.000    0.400    4.000    3.000   11.200    1.600 
#    0.000    0.000    0.000    0.000    0.000    0.000 
#    0.000    0.000    0.000    0.000    0.000    0.000 
#
# Total GULP energy -247842.094641 kJ/mol
# GULP energy per Si atom -12392.104732 kJ/mol
# Density = 2.224621 g / cm^3
# Si number density = 22.296954 Si / 1000 Ang^3
#
#
#
# Elastic Constant Matrix: (Units=GPa)
#
#
# Indices 1 2 3 4 5 6 
#
# 1 121.8040 34.4662 55.8237 0.0000 20.1016 0.0000
# 2 34.4662 99.2526 12.4114 0.0000 4.4612 0.0000
# 3 55.8237 12.4114 124.8685 0.0000 22.4279 0.0000
# 4 0.0000 0.0000 0.0000 35.5179 0.0000 -3.5540
# 5 20.1016 4.4612 22.4279 0.0000 46.0133 0.0000
# 6 0.0000 0.0000 0.0000 -3.5540 0.0000 32.2241
#
#
#
# Elastic Compliance Matrix: (Units=1/GPa)
#
#
# Indices 1 2 3 4 5 6 
#
# 1 0.011601 -0.003363 -0.004384 0.000000 -0.002605 0.000000
# 2 -0.003363 0.011189 0.000353 0.000000 0.000212 0.000000
# 3 -0.004384 0.000353 0.010516 0.000000 -0.003245 0.000000
# 4 0.000000 0.000000 0.000000 0.028469 0.000000 0.003140
# 5 -0.002605 0.000212 -0.003245 0.000000 0.024432 0.000000
# 6 0.000000 0.000000 0.000000 0.003140 0.000000 0.031379
#
#
# Mechanical properties :
#
#
# Convention : Reuss Voigt Hill
#
# Bulk Modulus (GPa) = 54.00056 61.25864 57.62960
# Shear Modulus (GPa) = 36.08891 38.96598 37.52744
#
# Velocity S-wave (km/s) = 4.02750 4.18496 4.10698
# Velocity P-wave (km/s) = 6.77488 7.13340 6.95645
#
# Compressibility (1/GPa) = 0.01851833
#
# Stress axis : x y z
#
# Youngs Moduli (GPa) = 86.20171 89.36982 95.09275
#
# Poissons Ratio (x) = 0.30056 0.41689
# Poissons Ratio (y) = 0.28991 -0.03359
# Poissons Ratio (z) = 0.37791 -0.03157
#
# Static dielectric constant tensor:
#      x y z
#    x 3.980000 0.000000 -0.119260 
#    y 0.000000 3.812710 0.000000 
#    z -0.119260 0.000000 4.701640 
# 
# 
# High freq. dielectric constant tensor:
#      x y z
#    x 1.881390 0.000000 0.005510 
#    y 0.000000 1.873630 0.000000 
#    z 0.005510 0.000000 1.898970 
# 
# From -- ./inp_files/150619.got.cif
#   From: 2010.06.25/outbox.cif.g09.slc.cpg/sg15_76_cif.got.tgz:150619.got - 2010.06.28 07:06:18.
