data_PCOD8153365
_publ_section_title
;
Structure prediction by ZEFSAII (Michael W. Deem and Ramdas Pophale) SiO2 
 PCOD8153365
Probable space group: C 2/C
;
_chemical_formula_sum "Si O2"
_cell_formula_units_Z 56
_cell_length_a 16.434663
_cell_length_b 9.215118
_cell_length_c 18.687900
_cell_angle_alpha 90.000000
_cell_angle_beta 70.558218
_cell_angle_gamma 90.000000
_cell_volume 2668.853727
_symmetry_space_group_name_H-M "C 2/C"
_symmetry_group_IT_number 15
_symmetry_cell_setting 'monoclinic'
loop_
_space_group_symop_operation_xyz
x,y,z
-x,y,1/2-z
-x,-y,-z
x,-y,1/2+z
1/2+x,1/2+y,z
1/2-x,1/2+y,1/2-z
1/2-x,1/2-y,-z
1/2+x,1/2-y,1/2+z
loop_
_atom_site_type_symbol
_atom_site_label
_atom_site_fract_x
_atom_site_fract_y
_atom_site_fract_z
Si Si1 0.956091 0.925746 0.447493
Si Si2 0.494347 0.666402 0.331533
Si Si3 0.814610 0.227035 0.181610
Si Si4 0.987183 0.595629 0.076921
Si Si5 0.226567 0.888388 0.960391
Si Si6 0.384611 0.052509 0.858947
Si Si7 0.827176 0.467729 0.715899
O O1 0.854629 0.959679 0.477714
O O2 0.981197 0.757970 0.446089
O O3 0.000000 0.000000 0.500000
O O4 0.986239 0.008866 0.368751
O O5 0.500000 0.617386 0.250000
O O6 0.584002 0.738026 0.329701
O O7 0.413828 0.779818 0.362901
O O8 0.804542 0.165500 0.106680
O O9 0.781961 0.391118 0.195999
O O10 0.753532 0.139824 0.253561
O O11 0.889811 0.596693 0.135861
O O12 0.039988 0.541514 0.129420
O O13 0.000000 0.500000 0.000000
O O14 0.299442 0.012075 0.930009
O O15 0.250000 0.750000 0.000000
O O16 0.373269 0.007496 0.778835
#
# Coordination Sequence:
#
# PCOD8153365 Si02
#       7
#     8   8   8   8   8   8   8
#     4  12  26  44  69 102 144 177 228 298 352 416
#     4  12  24  45  70 102 144 183 235 289 354 415
#     4  11  24  44  70  99 147 180 232 298 341 424
#     4  12  24  44  74 100 137 191 233 280 360 429
#     4  11  24  45  69 104 139 178 239 295 349 413
#     4  11  23  45  73  97 139 191 229 286 348 429
#     4  11  25  43  72 101 141 183 237 284 358 419
#
# _framework density 20.982792
#
# number of rings (size 3 to 8) (size 9 to 14) (size 15 to 20)
#    0.000    0.571    5.714    2.143    2.000    2.857 
#    0.000    0.000    0.000    0.000    0.000    0.000 
#    0.000    0.000    0.000    0.000    0.000    0.000 
#
# Total GULP energy -346938.510239 kJ/mol
# GULP energy per Si atom -12390.661080 kJ/mol
# Density = 2.093503 g / cm^3
# Si number density = 20.982792 Si / 1000 Ang^3
#
#
#
# Elastic Constant Matrix: (Units=GPa)
#
#
# Indices 1 2 3 4 5 6 
#
# 1 91.1588 30.8304 30.3514 0.0000 -23.5465 0.0000
# 2 30.8304 123.4778 52.6194 0.0000 -22.3279 0.0000
# 3 30.3514 52.6194 92.7069 0.0000 -18.5274 0.0000
# 4 0.0000 0.0000 0.0000 -23.7611 0.0000 11.9893
# 5 -23.5465 -22.3279 -18.5274 0.0000 36.7377 0.0000
# 6 0.0000 0.0000 0.0000 11.9893 0.0000 40.8782
#
#
#
# Elastic Compliance Matrix: (Units=1/GPa)
#
#
# Indices 1 2 3 4 5 6 
#
# 1 0.014012 -0.001153 -0.002534 0.000000 0.007002 0.000000
# 2 -0.001153 0.011282 -0.005342 0.000000 0.003424 0.000000
# 3 -0.002534 -0.005342 0.015208 0.000000 0.002799 0.000000
# 4 0.000000 0.000000 0.000000 -0.036660 0.000000 0.010752
# 5 0.007002 0.003424 0.002799 0.000000 0.035201 0.000000
# 6 0.000000 0.000000 0.000000 0.010752 0.000000 0.021309
#
#
# Mechanical properties :
#
#
# Convention : Reuss Voigt Hill
#
# Bulk Modulus (GPa) = 44.55317 59.43843 51.99580
# Shear Modulus (GPa) = 58.21429 23.67377 40.94403
#
# Velocity S-wave (km/s) = 5.27295 3.36258 4.42216
# Velocity P-wave (km/s) = 7.63881 6.59277 7.13499
#
# Compressibility (1/GPa) = 0.02244509
#
# Stress axis : x y z
#
# Youngs Moduli (GPa) = 71.36708 88.63693 65.75683
#
# Poissons Ratio (x) = 0.10216 0.16661
# Poissons Ratio (y) = 0.08226 0.35126
# Poissons Ratio (z) = 0.18083 0.47349
#
# Static dielectric constant tensor:
#      x y z
#    x 3.966690 0.000000 -0.216980 
#    y 0.000000 3.369130 0.000000 
#    z -0.216980 0.000000 4.116900 
# 
# 
# High freq. dielectric constant tensor:
#      x y z
#    x 1.830430 0.000000 -0.001810 
#    y 0.000000 1.825680 0.000000 
#    z -0.001810 0.000000 1.836110 
# 
# From -- ./inp_files/209502.got.cif
#   From: 2010.06.25/outbox.cif.g09.slc.cpg/sg15_105_cif.got.tgz:209502.got - 2010.06.28 07:06:18.
