data_PCOD8153475
_publ_section_title
;
Structure prediction by ZEFSAII (Michael W. Deem and Ramdas Pophale) SiO2 
 PCOD8153475
Probable space group: C 2/C
;
_chemical_formula_sum "Si O2"
_cell_formula_units_Z 48
_cell_length_a 11.193804
_cell_length_b 7.992823
_cell_length_c 24.206770
_cell_angle_alpha 90.000000
_cell_angle_beta 113.795284
_cell_angle_gamma 90.000000
_cell_volume 1981.675101
_symmetry_space_group_name_H-M "C 2/C"
_symmetry_group_IT_number 15
_symmetry_cell_setting 'monoclinic'
loop_
_space_group_symop_operation_xyz
x,y,z
-x,y,1/2-z
-x,-y,-z
x,-y,1/2+z
1/2+x,1/2+y,z
1/2-x,1/2+y,1/2-z
1/2-x,1/2-y,-z
1/2+x,1/2-y,1/2+z
loop_
_atom_site_type_symbol
_atom_site_label
_atom_site_fract_x
_atom_site_fract_y
_atom_site_fract_z
Si Si1 0.144764 0.181928 0.114927
Si Si2 0.619558 0.622812 0.385451
Si Si3 0.698404 0.550897 0.791218
Si Si4 0.627553 0.980337 0.892902
Si Si5 0.086553 0.640238 0.219138
Si Si6 0.859018 0.577087 0.981456
O O1 0.184694 0.338508 0.160711
O O2 0.266899 0.056107 0.135229
O O3 0.130314 0.249467 0.049578
O O4 0.019865 0.075737 0.112798
O O5 0.621803 0.561180 0.322329
O O6 0.742705 0.543190 0.438954
O O7 0.617138 0.821548 0.393664
O O8 0.766950 0.429791 0.759458
O O9 0.597027 0.665104 0.738496
O O10 0.492518 0.884854 0.852516
O O11 0.666927 0.896050 0.958487
O O12 0.000000 0.545652 0.250000
O O13 0.000000 0.500000 0.000000
#
# Coordination Sequence:
#
# PCOD8153475 Si02
#       6
#     8   8   8   8   8   8
#     4  11  24  47  71 111 146 191 242 293 376 435
#     4  11  25  48  74 107 149 196 239 300 373 443
#     4  11  27  47  73 103 144 190 250 308 361 440
#     4  12  24  47  75 109 152 190 245 304 367 437
#     4  12  27  50  72 106 143 194 249 306 364 436
#     4  11  23  47  75 109 154 190 242 302 360 450
#
# _framework density 24.221933
#
# number of rings (size 3 to 8) (size 9 to 14) (size 15 to 20)
#    0.000    0.667    5.000    2.000    2.333    3.333 
#    6.000    0.000    0.000    0.000    0.000    0.000 
#    0.000    0.000    0.000    0.000    0.000    0.000 
#
# Total GULP energy -297487.717738 kJ/mol
# GULP energy per Si atom -12395.321572 kJ/mol
# Density = 2.416680 g / cm^3
# Si number density = 24.221933 Si / 1000 Ang^3
#
#
#
# Elastic Constant Matrix: (Units=GPa)
#
#
# Indices 1 2 3 4 5 6 
#
# 1 178.6300 45.8408 17.9255 0.0000 -15.6926 0.0000
# 2 45.8408 48.9314 45.3358 0.0000 -10.2162 0.0000
# 3 17.9255 45.3358 83.1993 0.0000 -15.1632 0.0000
# 4 0.0000 0.0000 0.0000 37.0604 0.0000 -3.1264
# 5 -15.6926 -10.2162 -15.1632 0.0000 41.9327 0.0000
# 6 0.0000 0.0000 0.0000 -3.1264 0.0000 46.9969
#
#
#
# Elastic Compliance Matrix: (Units=1/GPa)
#
#
# Indices 1 2 3 4 5 6 
#
# 1 0.008422 -0.012374 0.005303 0.000000 0.002055 0.000000
# 2 -0.012374 0.059623 -0.029996 0.000000 -0.000952 0.000000
# 3 0.005303 -0.029996 0.028104 0.000000 0.004839 0.000000
# 4 0.000000 0.000000 0.000000 0.027135 0.000000 0.001805
# 5 0.002055 -0.000952 0.004839 0.000000 0.026135 0.000000
# 6 0.000000 0.000000 0.000000 0.001805 0.000000 0.021398
#
#
# Mechanical properties :
#
#
# Convention : Reuss Voigt Hill
#
# Bulk Modulus (GPa) = 45.42712 58.77387 52.10049
# Shear Modulus (GPa) = 19.81850 38.64188 29.23019
#
# Velocity S-wave (km/s) = 2.86353 3.99849 3.47762
# Velocity P-wave (km/s) = 5.45237 6.75534 6.13852
#
# Compressibility (1/GPa) = 0.02201328
#
# Stress axis : x y z
#
# Youngs Moduli (GPa) = 118.73607 16.77216 35.58232
#
# Poissons Ratio (x) = 0.20754 -0.18868
# Poissons Ratio (y) = 1.46925 1.06733
# Poissons Ratio (z) = -0.62961 0.50310
#
# Static dielectric constant tensor:
#      x y z
#    x 4.720480 0.000000 -0.146130 
#    y 0.000000 4.125520 0.000000 
#    z -0.146130 0.000000 4.576890 
# 
# 
# High freq. dielectric constant tensor:
#      x y z
#    x 1.990790 0.000000 -0.001760 
#    y 0.000000 1.941340 0.000000 
#    z -0.001760 0.000000 1.966670 
# 
# From -- ./inp_files/268068.got.cif
#   From: 2010.06.25/outbox.cif.g09.slc.cpg/sg15_135_cif.got.tgz:268068.got - 2010.06.28 07:06:18.
