data_PCOD8153889
_publ_section_title
;
Structure prediction by ZEFSAII (Michael W. Deem and Ramdas Pophale) SiO2 
 PCOD8153889
Probable space group: C 2/C
;
_chemical_formula_sum "Si O2"
_cell_formula_units_Z 48
_cell_length_a 26.991846
_cell_length_b 8.999429
_cell_length_c 15.932794
_cell_angle_alpha 90.000000
_cell_angle_beta 145.080970
_cell_angle_gamma 90.000000
_cell_volume 2215.404076
_symmetry_space_group_name_H-M "C 2/C"
_symmetry_group_IT_number 15
_symmetry_cell_setting 'monoclinic'
loop_
_space_group_symop_operation_xyz
x,y,z
-x,y,1/2-z
-x,-y,-z
x,-y,1/2+z
1/2+x,1/2+y,z
1/2-x,1/2+y,1/2-z
1/2-x,1/2-y,-z
1/2+x,1/2-y,1/2+z
loop_
_atom_site_type_symbol
_atom_site_label
_atom_site_fract_x
_atom_site_fract_y
_atom_site_fract_z
Si Si1 0.580241 0.234590 0.422838
Si Si2 0.139672 0.756497 0.098598
Si Si3 0.025199 0.327610 0.035026
Si Si4 0.325154 0.676082 0.156966
Si Si5 0.901224 0.043217 0.105712
Si Si6 0.777161 0.483942 0.354996
O O1 0.500000 0.211180 0.250000
O O2 0.548617 0.227098 0.475014
O O3 0.633366 0.390216 0.484762
O O4 0.647081 0.103790 0.491302
O O5 0.174435 0.587827 0.145951
O O6 0.057884 0.766695 0.047598
O O7 0.217517 0.864187 0.228427
O O8 0.113539 0.807356 0.968284
O O9 0.106367 0.295094 0.210069
O O10 0.000000 0.500000 0.000000
O O11 0.369357 0.559604 0.156203
O O12 0.282797 0.584842 0.171982
O O13 0.250000 0.750000 0.000000
O O14 0.000000 0.006384 0.250000
#
# Coordination Sequence:
#
# PCOD8153889 Si02
#       6
#     8   8   8   8   8   8
#     4  11  28  49  72 108 148 192 249 306 373 449
#     4  12  25  45  74 102 147 186 242 301 367 438
#     4  12  27  48  77 106 147 202 248 301 379 452
#     4  12  27  44  76 110 145 194 249 304 374 447
#     4  11  24  46  71 105 144 187 240 300 365 440
#     4  12  27  45  71 107 144 188 244 308 367 440
#
# _framework density 21.666478000000001
#
# number of rings (size 3 to 8) (size 9 to 14) (size 15 to 20)
#    0.000    0.333    5.000    3.000    7.000    4.000 
#    0.000    0.000    0.000    0.000    0.000    0.000 
#    0.000    0.000    0.000    0.000    0.000    0.000 
#
# Total GULP energy -297552.845108 kJ/mol
# GULP energy per Si atom -12398.035213 kJ/mol
# Density = 2.161716 g / cm^3
# Si number density = 21.666478 Si / 1000 Ang^3
#
#
#
# Elastic Constant Matrix: (Units=GPa)
#
#
# Indices 1 2 3 4 5 6 
#
# 1 116.2736 36.2638 39.3273 0.0000 3.4572 0.0000
# 2 36.2638 135.9477 63.4048 0.0000 5.7187 0.0000
# 3 39.3273 63.4048 123.2091 0.0000 2.1749 0.0000
# 4 0.0000 0.0000 0.0000 -14.6222 0.0000 -102.3568
# 5 3.4572 5.7187 2.1749 0.0000 35.9185 0.0000
# 6 0.0000 0.0000 0.0000 -102.3568 0.0000 -145.6281
#
#
#
# Elastic Compliance Matrix: (Units=1/GPa)
#
#
# Indices 1 2 3 4 5 6 
#
# 1 0.009890 -0.001509 -0.002370 0.000000 -0.000568 0.000000
# 2 -0.001509 0.009964 -0.004626 0.000000 -0.001161 0.000000
# 3 -0.002370 -0.004626 0.011248 0.000000 0.000284 0.000000
# 4 0.000000 0.000000 0.000000 0.017446 0.000000 -0.012262
# 5 -0.000568 -0.001161 0.000284 0.000000 0.028063 0.000000
# 6 0.000000 0.000000 0.000000 -0.012262 0.000000 0.001752
#
#
# Mechanical properties :
#
#
# Convention : Reuss Voigt Hill
#
# Bulk Modulus (GPa) = 70.95752 72.60247 71.77999
# Shear Modulus (GPa) = 49.96507 -9.10406 20.43051
#
# Velocity S-wave (km/s) = 4.80740 -2.05208 3.07409
# Velocity P-wave (km/s) = 7.97720 5.28840 6.76768
#
# Compressibility (1/GPa) = 0.01409294
#
# Stress axis : x y z
#
# Youngs Moduli (GPa) = 101.11725 100.35658 88.90214
#
# Poissons Ratio (x) = 0.15140 0.21072
# Poissons Ratio (y) = 0.15255 0.41124
# Poissons Ratio (z) = 0.23967 0.46423
#
# Static dielectric constant tensor:
#      x y z
#    x 4.051390 0.000000 0.222780 
#    y 0.000000 4.633100 0.000000 
#    z 0.222780 0.000000 4.056920 
# 
# 
# High freq. dielectric constant tensor:
#      x y z
#    x 1.859490 0.000000 0.012020 
#    y 0.000000 1.863740 0.000000 
#    z 0.012020 0.000000 1.862540 
# 
# From -- ./inp_files/224693.got.cif
#   From: 2010.06.25/outbox.cif.g09.slc.cpg/sg15_113_cif.got.tgz:224693.got - 2010.06.28 07:06:18.
