data_PCOD8153843
_publ_section_title
;
Structure prediction by ZEFSAII (Michael W. Deem and Ramdas Pophale) SiO2 
 PCOD8153843
Probable space group: C 2/C
;
_chemical_formula_sum "Si O2"
_cell_formula_units_Z 40
_cell_length_a 4.942069
_cell_length_b 12.652282
_cell_length_c 31.502217
_cell_angle_alpha 90.000000
_cell_angle_beta 67.049866
_cell_angle_gamma 90.000000
_cell_volume 1813.865653
_symmetry_space_group_name_H-M "C 2/C"
_symmetry_group_IT_number 15
_symmetry_cell_setting 'monoclinic'
loop_
_space_group_symop_operation_xyz
x,y,z
-x,y,1/2-z
-x,-y,-z
x,-y,1/2+z
1/2+x,1/2+y,z
1/2-x,1/2+y,1/2-z
1/2-x,1/2-y,-z
1/2+x,1/2-y,1/2+z
loop_
_atom_site_type_symbol
_atom_site_label
_atom_site_fract_x
_atom_site_fract_y
_atom_site_fract_z
Si Si1 0.534431 0.690806 0.545099
Si Si2 0.847302 0.619449 0.323480
Si Si3 0.306221 0.127643 0.114637
Si Si4 0.000000 0.206823 0.750000
Si Si5 0.500000 0.941370 0.250000
Si Si6 0.482130 0.052369 0.955115
O O1 0.750000 0.750000 0.500000
O O2 0.329834 0.769322 0.583936
O O3 0.737388 0.629062 0.566334
O O4 0.325225 0.613797 0.530683
O O5 0.533368 0.595790 0.363324
O O6 0.820436 0.718472 0.293252
O O7 0.080356 0.650076 0.345176
O O8 0.962228 0.513892 0.293674
O O9 0.499759 0.033872 0.082949
O O10 0.218949 0.132700 0.762422
O O11 0.500000 0.000000 0.000000
#
# Coordination Sequence:
#
# PCOD8153843 Si02
#       6
#     8   8   8   4   4   8
#     4  12  26  43  68  95 132 183 232 278 336 390
#     4  11  26  44  66 106 132 172 220 276 337 398
#     4  12  26  43  68  98 142 170 228 282 325 402
#     4  11  24  45  74  96 136 173 214 271 340 412
#     4  11  24  45  74  96 136 173 214 271 340 412
#     4  12  26  43  68  95 132 183 232 278 336 390
#
# _framework density 22.052351999999999
#
# number of rings (size 3 to 8) (size 9 to 14) (size 15 to 20)
#    0.000    0.400    2.000    6.000    2.800   12.800 
#    0.000    0.000    0.000    0.000    0.000    0.000 
#    0.000    0.000    0.000    0.000    0.000    0.000 
#
# Total GULP energy -248164.792435 kJ/mol
# GULP energy per Si atom -12408.239622 kJ/mol
# Density = 2.200216 g / cm^3
# Si number density = 22.052352 Si / 1000 Ang^3
#
#
#
# Elastic Constant Matrix: (Units=GPa)
#
#
# Indices 1 2 3 4 5 6 
#
# 1 117.7093 34.4265 13.5420 -0.0016 -0.8625 0.0014
# 2 34.4265 117.4074 42.4210 -0.0005 -2.0832 0.0005
# 3 13.5420 42.4210 95.6330 -0.0002 -1.4091 0.0003
# 4 -0.0016 -0.0005 -0.0002 42.5885 0.0006 0.3459
# 5 -0.8625 -2.0832 -1.4091 0.0006 39.9442 -0.0003
# 6 0.0014 0.0005 0.0003 0.3459 -0.0003 51.8200
#
#
#
# Elastic Compliance Matrix: (Units=1/GPa)
#
#
# Indices 1 2 3 4 5 6 
#
# 1 0.009294 -0.002678 -0.000127 0.000000 0.000057 0.000000
# 2 -0.002678 0.010920 -0.004460 0.000000 0.000354 0.000000
# 3 -0.000127 -0.004460 0.012456 0.000000 0.000204 0.000000
# 4 0.000000 0.000000 0.000000 0.023482 0.000000 -0.000157
# 5 0.000057 0.000354 0.000204 0.000000 0.025062 0.000000
# 6 0.000000 0.000000 0.000000 -0.000157 0.000000 0.019299
#
#
# Mechanical properties :
#
#
# Convention : Reuss Voigt Hill
#
# Bulk Modulus (GPa) = 55.12677 56.83651 55.98164
# Shear Modulus (GPa) = 41.29202 42.89454 42.09328
#
# Velocity S-wave (km/s) = 4.33188 4.41514 4.37371
# Velocity P-wave (km/s) = 7.07620 7.19866 7.13769
#
# Compressibility (1/GPa) = 0.01814001
#
# Stress axis : x y z
#
# Youngs Moduli (GPa) = 107.59805 91.57300 80.28366
#
# Poissons Ratio (x) = 0.24525 0.01021
# Poissons Ratio (y) = 0.28817 0.35803
# Poissons Ratio (z) = 0.01369 0.40837
#
# Static dielectric constant tensor:
#      x y z
#    x 3.959400 -0.000010 0.018760 
#    y -0.000010 4.524540 0.000000 
#    z 0.018760 0.000000 3.894840 
# 
# 
# High freq. dielectric constant tensor:
#      x y z
#    x 1.880100 0.000000 0.000150 
#    y 0.000000 1.884490 0.000000 
#    z 0.000150 0.000000 1.869330 
# 
# From -- ./inp_files/304834.got.cif
#   From: 2010.06.25/outbox.cif.g09.slc.cpg/sg15_153_cif.got.tgz:304834.got - 2010.06.28 07:06:18.
