data_PCOD8153982
_publ_section_title
;
Structure prediction by ZEFSAII (Michael W. Deem and Ramdas Pophale) SiO2 
 PCOD8153982
Probable space group: C 2/C
;
_chemical_formula_sum "Si O2"
_cell_formula_units_Z 44
_cell_length_a 16.885033
_cell_length_b 8.045557
_cell_length_c 14.614998
_cell_angle_alpha 90.000000
_cell_angle_beta 111.252447
_cell_angle_gamma 90.000000
_cell_volume 1850.415067
_symmetry_space_group_name_H-M "C 2/C"
_symmetry_group_IT_number 15
_symmetry_cell_setting 'monoclinic'
loop_
_space_group_symop_operation_xyz
x,y,z
-x,y,1/2-z
-x,-y,-z
x,-y,1/2+z
1/2+x,1/2+y,z
1/2-x,1/2+y,1/2-z
1/2-x,1/2-y,-z
1/2+x,1/2-y,1/2+z
loop_
_atom_site_type_symbol
_atom_site_label
_atom_site_fract_x
_atom_site_fract_y
_atom_site_fract_z
Si Si1 0.863979 0.040465 0.591906
Si Si2 0.000000 0.816314 0.750000
Si Si3 0.736134 0.188553 0.685903
Si Si4 0.506525 0.258335 0.065612
Si Si5 0.439558 0.077596 0.868794
Si Si6 0.173918 0.947948 0.112342
O O1 0.806704 0.134359 0.641790
O O2 0.913359 0.179586 0.553404
O O3 0.810347 0.938214 0.491635
O O4 0.935128 0.929541 0.667877
O O5 0.060718 0.696258 0.718445
O O6 0.657443 0.064525 0.637101
O O7 0.771142 0.182006 0.805282
O O8 0.701175 0.372996 0.659908
O O9 0.573856 0.410722 0.090929
O O10 0.533916 0.110898 0.146931
O O11 0.503857 0.163880 0.967362
#
# Coordination Sequence:
#
# PCOD8153982 Si02
#       6
#     8   4   8   8   8   8
#     4  12  25  46  77 107 145 199 242 303 368 434
#     4  12  26  48  78 110 142 198 252 296 368 442
#     4  12  26  45  73 106 150 189 245 304 372 425
#     4  11  24  47  75  98 145 193 243 301 362 428
#     4  11  25  47  70 108 141 189 245 305 356 437
#     4  12  25  47  71 108 147 193 242 304 356 442
#
# _framework density 23.778448000000001
#
# number of rings (size 3 to 8) (size 9 to 14) (size 15 to 20)
#    0.000    0.364    3.636    5.455    0.000    3.636 
#    3.273    2.727    0.000    0.000    0.000    0.000 
#    0.000    0.000    0.000    0.000    0.000    0.000 
#
# Total GULP energy -272722.189651 kJ/mol
# GULP energy per Si atom -12396.463166 kJ/mol
# Density = 2.372433 g / cm^3
# Si number density = 23.778448 Si / 1000 Ang^3
#
#
#
# Elastic Constant Matrix: (Units=GPa)
#
#
# Indices 1 2 3 4 5 6 
#
# 1 105.7316 50.0067 29.1390 0.0000 3.8348 0.0000
# 2 50.0067 101.2020 54.2666 0.0000 -10.8215 0.0000
# 3 29.1390 54.2666 154.0288 0.0000 12.7046 0.0000
# 4 0.0000 0.0000 0.0000 32.0486 0.0000 8.2409
# 5 3.8348 -10.8215 12.7046 0.0000 31.8899 0.0000
# 6 0.0000 0.0000 0.0000 8.2409 0.0000 37.0582
#
#
#
# Elastic Compliance Matrix: (Units=1/GPa)
#
#
# Indices 1 2 3 4 5 6 
#
# 1 0.012790 -0.006945 0.000360 0.000000 -0.004038 0.000000
# 2 -0.006945 0.017195 -0.005474 0.000000 0.008851 0.000000
# 3 0.000360 -0.005474 0.008799 0.000000 -0.005406 0.000000
# 4 0.000000 0.000000 0.000000 0.033095 0.000000 -0.007360
# 5 -0.004038 0.008851 -0.005406 0.000000 0.037001 0.000000
# 6 0.000000 0.000000 0.000000 -0.007360 0.000000 0.028621
#
#
# Mechanical properties :
#
#
# Convention : Reuss Voigt Hill
#
# Bulk Modulus (GPa) = 68.18615 69.75410 68.97013
# Shear Modulus (GPa) = 30.02904 35.36934 32.69919
#
# Velocity S-wave (km/s) = 3.55754 3.86094 3.71234
# Velocity P-wave (km/s) = 6.75371 7.01958 6.88793
#
# Compressibility (1/GPa) = 0.01466574
#
# Stress axis : x y z
#
# Youngs Moduli (GPa) = 78.18832 58.15797 113.65350
#
# Poissons Ratio (x) = 0.40389 -0.04094
# Poissons Ratio (y) = 0.54299 0.62215
# Poissons Ratio (z) = -0.02817 0.31836
#
# Static dielectric constant tensor:
#      x y z
#    x 4.280470 0.000000 0.068800 
#    y 0.000000 4.391580 0.000000 
#    z 0.068800 0.000000 4.684190 
# 
# 
# High freq. dielectric constant tensor:
#      x y z
#    x 1.932490 0.000000 0.014020 
#    y 0.000000 1.951290 0.000000 
#    z 0.014020 0.000000 1.955250 
# 
# From -- ./inp_files/159460.got.cif
#   From: 2010.06.25/outbox.cif.g09.slc.cpg/sg15_80_cif.got.tgz:159460.got - 2010.06.28 07:06:18.
