data_PCOD8153736
_publ_section_title
;
Structure prediction by ZEFSAII (Michael W. Deem and Ramdas Pophale) SiO2 
 PCOD8153736
Probable space group: C 2/C
;
_chemical_formula_sum "Si O2"
_cell_formula_units_Z 48
_cell_length_a 9.753473
_cell_length_b 21.603617
_cell_length_c 10.958381
_cell_angle_alpha 90.000000
_cell_angle_beta 76.507451
_cell_angle_gamma 90.000000
_cell_volume 2245.314713
_symmetry_space_group_name_H-M "C 2/C"
_symmetry_group_IT_number 15
_symmetry_cell_setting 'monoclinic'
loop_
_space_group_symop_operation_xyz
x,y,z
-x,y,1/2-z
-x,-y,-z
x,-y,1/2+z
1/2+x,1/2+y,z
1/2-x,1/2+y,1/2-z
1/2-x,1/2-y,-z
1/2+x,1/2-y,1/2+z
loop_
_atom_site_type_symbol
_atom_site_label
_atom_site_fract_x
_atom_site_fract_y
_atom_site_fract_z
Si Si1 0.500000 0.685297 0.250000
Si Si2 0.793849 0.321942 0.989644
Si Si3 0.260320 0.263852 0.140434
Si Si4 0.150111 0.619325 0.772272
Si Si5 0.620132 0.527079 0.824170
Si Si6 0.445851 0.596309 0.052544
Si Si7 0.000000 0.708152 0.250000
O O1 0.639089 0.726740 0.238474
O O2 0.522234 0.643286 0.127506
O O3 0.656609 0.364788 0.012806
O O4 0.895705 0.334205 0.852485
O O5 0.750000 0.250000 0.000000
O O6 0.872190 0.343746 0.096131
O O7 0.234706 0.336519 0.162058
O O8 0.411448 0.249226 0.170996
O O9 0.250000 0.250000 0.000000
O O10 0.237520 0.555389 0.763335
O O11 0.000000 0.601027 0.750000
O O12 0.500000 0.531203 0.750000
O O13 0.645264 0.455636 0.856278
O O14 0.572385 0.564965 0.952902
#
# Coordination Sequence:
#
# PCOD8153736 Si02
#       7
#     4   8   8   8   8   8   4
#     4  12  22  44  65  97 138 168 224 290 342 408
#     4  12  25  44  70 104 142 177 227 292 352 414
#     4  12  26  40  64  99 138 179 222 283 352 415
#     4  12  25  45  67 102 139 182 234 282 348 417
#     4  11  24  45  73  98 132 186 238 281 332 408
#     4  11  24  44  72 103 133 179 237 285 336 408
#     4  12  26  40  65 103 136 180 224 282 364 410
#
# _framework density 21.377849999999999
#
# number of rings (size 3 to 8) (size 9 to 14) (size 15 to 20)
#    0.000    0.333    6.667    2.000    5.833    0.000 
#    1.500    0.833    0.000    0.000    0.000    0.000 
#    0.000    0.000    0.000    0.000    0.000    0.000 
#
# Total GULP energy -297668.371412 kJ/mol
# GULP energy per Si atom -12402.848809 kJ/mol
# Density = 2.132919 g / cm^3
# Si number density = 21.377850 Si / 1000 Ang^3
#
#
#
# Elastic Constant Matrix: (Units=GPa)
#
#
# Indices 1 2 3 4 5 6 
#
# 1 119.5836 35.8945 21.5354 0.0000 23.1307 0.0000
# 2 35.8945 90.9163 4.2752 0.0000 4.0536 0.0000
# 3 21.5354 4.2752 89.5650 0.0000 12.1662 0.0000
# 4 0.0000 0.0000 0.0000 39.1480 0.0000 0.7659
# 5 23.1307 4.0536 12.1662 0.0000 39.1537 0.0000
# 6 0.0000 0.0000 0.0000 0.7659 0.0000 27.7911
#
#
#
# Elastic Compliance Matrix: (Units=1/GPa)
#
#
# Indices 1 2 3 4 5 6 
#
# 1 0.010932 -0.003991 -0.001688 0.000000 -0.005521 0.000000
# 2 -0.003991 0.012520 0.000227 0.000000 0.000991 0.000000
# 3 -0.001688 0.000227 0.011931 0.000000 -0.002734 0.000000
# 4 0.000000 0.000000 0.000000 0.025558 0.000000 -0.000704
# 5 -0.005521 0.000991 -0.002734 0.000000 0.029549 0.000000
# 6 0.000000 0.000000 0.000000 -0.000704 0.000000 0.036002
#
#
# Mechanical properties :
#
#
# Convention : Reuss Voigt Hill
#
# Bulk Modulus (GPa) = 40.84881 47.05279 43.95080
# Shear Modulus (GPa) = 34.35134 37.10921 35.73027
#
# Velocity S-wave (km/s) = 4.01292 4.17090 4.09267
# Velocity P-wave (km/s) = 6.37345 6.72704 6.55263
#
# Compressibility (1/GPa) = 0.02448052
#
# Stress axis : x y z
#
# Youngs Moduli (GPa) = 91.47459 79.87371 83.81196
#
# Poissons Ratio (x) = 0.31874 0.14149
# Poissons Ratio (y) = 0.36503 -0.01905
# Poissons Ratio (z) = 0.15442 -0.01816
#
# Static dielectric constant tensor:
#      x y z
#    x 3.847090 0.000000 -0.029190 
#    y 0.000000 3.947580 0.000000 
#    z -0.029190 0.000000 4.233990 
# 
# 
# High freq. dielectric constant tensor:
#      x y z
#    x 1.835210 0.000000 0.012030 
#    y 0.000000 1.833210 0.000000 
#    z 0.012030 0.000000 1.851520 
# 
# From -- ./inp_files/79190.got.cif
#   From: 2010.06.25/outbox.cif.g09.slc.cpg/sg15_40_cif.got.tgz:79190.got - 2010.06.28 07:06:18.
