data_PCOD8153686
_publ_section_title
;
Structure prediction by ZEFSAII (Michael W. Deem and Ramdas Pophale) SiO2 
 PCOD8153686
Probable space group: C 2/C
;
_chemical_formula_sum "Si O2"
_cell_formula_units_Z 64
_cell_length_a 25.064658
_cell_length_b 18.929785
_cell_length_c 18.787763
_cell_angle_alpha 90.000000
_cell_angle_beta 160.665098
_cell_angle_gamma 90.000000
_cell_volume 2951.396926
_symmetry_space_group_name_H-M "C 2/C"
_symmetry_group_IT_number 15
_symmetry_cell_setting 'monoclinic'
loop_
_space_group_symop_operation_xyz
x,y,z
-x,y,1/2-z
-x,-y,-z
x,-y,1/2+z
1/2+x,1/2+y,z
1/2-x,1/2+y,1/2-z
1/2-x,1/2-y,-z
1/2+x,1/2-y,1/2+z
loop_
_atom_site_type_symbol
_atom_site_label
_atom_site_fract_x
_atom_site_fract_y
_atom_site_fract_z
Si Si1 0.302784 0.555515 0.623407
Si Si2 0.460315 0.671280 0.084145
Si Si3 0.537848 0.871132 0.597216
Si Si4 0.207945 0.924576 0.976040
Si Si5 0.212593 0.934917 0.228160
Si Si6 0.846628 0.033652 0.467300
Si Si7 0.879803 0.309180 0.658201
Si Si8 0.631421 0.807507 0.245582
O O1 0.233495 0.479692 0.510484
O O2 0.308881 0.555734 0.715610
O O3 0.185474 0.614915 0.447038
O O4 0.476159 0.568523 0.803592
O O5 0.551330 0.616731 0.250062
O O6 0.581053 0.734154 0.217095
O O7 0.396400 0.631774 0.932933
O O8 0.307143 0.703366 0.932351
O O9 0.398336 0.927306 0.437951
O O10 0.711047 0.908500 0.811622
O O11 0.535198 0.815051 0.658246
O O12 0.504259 0.829529 0.482163
O O13 0.352438 0.869667 0.174986
O O14 0.167253 0.966987 0.997507
O O15 0.158302 0.006015 0.120150
O O16 0.750000 0.250000 0.500000
O O17 0.000000 0.281273 0.750000
#
# Coordination Sequence:
#
# PCOD8153686 Si02
#       8
#     8   8   8   8   8   8   8   8
#     4  12  25  44  70 104 138 175 230 285 344 401
#     4  11  24  44  69  95 139 182 230 273 342 400
#     4  11  25  44  69  99 135 179 228 281 342 406
#     4  12  23  44  73 102 138 181 226 280 343 413
#     4  11  24  44  67  99 140 179 222 290 341 398
#     4  12  23  42  75 101 133 180 229 278 345 417
#     4  12  29  47  70  99 139 179 228 287 342 411
#     4  11  25  44  67  99 137 182 225 280 334 410
#
# _framework density 21.684646999999998
#
# number of rings (size 3 to 8) (size 9 to 14) (size 15 to 20)
#    0.000    0.500    6.250    2.625    3.500    1.000 
#    0.000    1.250    0.000    0.000    0.000    0.000 
#    0.000    0.000    0.000    0.000    0.000    0.000 
#
# Total GULP energy -396852.797627 kJ/mol
# GULP energy per Si atom -12401.649926 kJ/mol
# Density = 2.163529 g / cm^3
# Si number density = 21.684647 Si / 1000 Ang^3
#
#
#
# Elastic Constant Matrix: (Units=GPa)
#
#
# Indices 1 2 3 4 5 6 
#
# 1 98.5790 57.9589 39.3148 -0.0019 -17.0613 0.0000
# 2 57.9589 92.1764 34.2130 0.0014 -2.8621 0.0012
# 3 39.3148 34.2130 85.3798 0.0013 -11.8097 0.0019
# 4 -0.0019 0.0014 0.0013 32.1890 -0.0001 4.7356
# 5 -17.0613 -2.8621 -11.8097 -0.0001 41.7366 0.0009
# 6 0.0000 0.0012 0.0019 4.7356 0.0009 30.1841
#
#
#
# Elastic Compliance Matrix: (Units=1/GPa)
#
#
# Indices 1 2 3 4 5 6 
#
# 1 0.018590 -0.010138 -0.003687 0.000002 0.005861 0.000000
# 2 -0.010138 0.018288 -0.003184 -0.000001 -0.003791 0.000000
# 3 -0.003687 -0.003184 0.015036 -0.000001 0.002529 -0.000001
# 4 0.000002 -0.000001 -0.000001 0.031801 0.000001 -0.004989
# 5 0.005861 -0.003791 0.002529 0.000001 0.026811 -0.000001
# 6 0.000000 0.000000 -0.000001 -0.004989 -0.000001 0.033913
#
#
# Mechanical properties :
#
#
# Convention : Reuss Voigt Hill
#
# Bulk Modulus (GPa) = 55.88289 59.90096 57.89192
# Shear Modulus (GPa) = 27.11186 30.46517 28.78851
#
# Velocity S-wave (km/s) = 3.53976 3.75229 3.64758
# Velocity P-wave (km/s) = 6.52175 6.81590 6.67045
#
# Compressibility (1/GPa) = 0.01789457
#
# Stress axis : x y z
#
# Youngs Moduli (GPa) = 53.79343 54.68127 66.50830
#
# Poissons Ratio (x) = 0.55439 0.24519
# Poissons Ratio (y) = 0.54538 0.21177
# Poissons Ratio (z) = 0.19832 0.17411
#
# Static dielectric constant tensor:
#      x y z
#    x 3.890660 0.000000 -0.123650 
#    y 0.000000 3.935530 0.000000 
#    z -0.123650 0.000000 3.949630 
# 
# 
# High freq. dielectric constant tensor:
#      x y z
#    x 1.856520 0.000000 -0.016560 
#    y 0.000000 1.843620 0.000000 
#    z -0.016560 0.000000 1.866890 
# 
# From -- ./inp_files/220314.got.cif
#   From: 2010.06.25/outbox.cif.g09.slc.cpg/sg15_111_cif.got.tgz:220314.got - 2010.06.28 07:06:18.
