data_PCOD8153793
_publ_section_title
;
Structure prediction by ZEFSAII (Michael W. Deem and Ramdas Pophale) SiO2 
 PCOD8153793
Probable space group: C 2/C
;
_chemical_formula_sum "Si O2"
_cell_formula_units_Z 40
_cell_length_a 11.055032
_cell_length_b 16.368026
_cell_length_c 9.321184
_cell_angle_alpha 90.000000
_cell_angle_beta 86.001139
_cell_angle_gamma 90.000000
_cell_volume 1682.553122
_symmetry_space_group_name_H-M "C 2/C"
_symmetry_group_IT_number 15
_symmetry_cell_setting 'monoclinic'
loop_
_space_group_symop_operation_xyz
x,y,z
-x,y,1/2-z
-x,-y,-z
x,-y,1/2+z
1/2+x,1/2+y,z
1/2-x,1/2+y,1/2-z
1/2-x,1/2-y,-z
1/2+x,1/2-y,1/2+z
loop_
_atom_site_type_symbol
_atom_site_label
_atom_site_fract_x
_atom_site_fract_y
_atom_site_fract_z
Si Si1 0.343814 0.685042 0.057017
Si Si2 0.565887 0.369657 0.378328
Si Si3 0.882532 0.446988 0.669532
Si Si4 0.281013 0.774625 0.659262
Si Si5 0.240514 0.007423 0.436319
O O1 0.334450 0.700995 0.230605
O O2 0.306293 0.594673 0.008010
O O3 0.250000 0.750000 0.000000
O O4 0.482989 0.687434 0.991132
O O5 0.500000 0.414620 0.250000
O O6 0.653383 0.306259 0.286075
O O7 0.639094 0.436532 0.466663
O O8 0.875555 0.349451 0.655864
O O9 0.864913 0.486525 0.513647
O O10 0.770150 0.485632 0.766225
O O11 0.000000 0.472219 0.750000
O O12 0.250000 0.750000 0.500000
#
# Coordination Sequence:
#
# PCOD8153793 Si02
#       5
#     8   8   8   8   8
#     4  11  25  44  72 106 143 194 248 300 374 443
#     4  12  23  45  77 101 150 196 239 314 366 437
#     4  11  24  45  71 101 146 190 241 308 368 442
#     4  11  24  45  69 104 148 186 250 299 365 447
#     4  11  25  44  70 107 143 187 254 298 370 445
#
# _framework density 23.773394
#
# number of rings (size 3 to 8) (size 9 to 14) (size 15 to 20)
#    0.000    0.800    4.000    3.000    2.800    0.800 
#    0.000    0.000    0.000    0.000    0.000    0.000 
#    0.000    0.000    0.000    0.000    0.000    0.000 
#
# Total GULP energy -247789.585953 kJ/mol
# GULP energy per Si atom -12389.479298 kJ/mol
# Density = 2.371928 g / cm^3
# Si number density = 23.773394 Si / 1000 Ang^3
#
#
#
# Elastic Constant Matrix: (Units=GPa)
#
#
# Indices 1 2 3 4 5 6 
#
# 1 100.3061 50.6147 43.7322 0.0000 6.9762 0.0000
# 2 50.6147 145.3975 40.1360 0.0000 -3.1621 0.0000
# 3 43.7322 40.1360 118.5076 0.0000 11.6207 0.0000
# 4 0.0000 0.0000 0.0000 39.5371 0.0000 5.6255
# 5 6.9762 -3.1621 11.6207 0.0000 43.3531 0.0000
# 6 0.0000 0.0000 0.0000 5.6255 0.0000 34.2416
#
#
#
# Elastic Compliance Matrix: (Units=1/GPa)
#
#
# Indices 1 2 3 4 5 6 
#
# 1 0.013526 -0.003755 -0.003573 0.000000 -0.001493 0.000000
# 2 -0.003755 0.008699 -0.001727 0.000000 0.001702 0.000000
# 3 -0.003573 -0.001727 0.010576 0.000000 -0.002386 0.000000
# 4 0.000000 0.000000 0.000000 0.025898 0.000000 -0.004255
# 5 -0.001493 0.001702 -0.002386 0.000000 0.024070 0.000000
# 6 0.000000 0.000000 0.000000 -0.004255 0.000000 0.029903
#
#
# Mechanical properties :
#
#
# Convention : Reuss Voigt Hill
#
# Bulk Modulus (GPa) = 68.07518 70.35300 69.21409
# Shear Modulus (GPa) = 36.85168 38.74156 37.79662
#
# Velocity S-wave (km/s) = 3.94143 4.04123 3.99164
# Velocity P-wave (km/s) = 7.02925 7.17167 7.10082
#
# Compressibility (1/GPa) = 0.01468964
#
# Stress axis : x y z
#
# Youngs Moduli (GPa) = 73.93273 114.96190 94.55440
#
# Poissons Ratio (x) = 0.43163 0.33788
# Poissons Ratio (y) = 0.27758 0.16333
# Poissons Ratio (z) = 0.26419 0.19858
#
# Static dielectric constant tensor:
#      x y z
#    x 4.467550 0.000000 -0.124550 
#    y 0.000000 4.343840 0.000000 
#    z -0.124550 0.000000 4.389070 
# 
# 
# High freq. dielectric constant tensor:
#      x y z
#    x 1.923990 0.000000 -0.000560 
#    y 0.000000 1.945600 0.000000 
#    z -0.000560 0.000000 1.958630 
# 
# From -- ./inp_files/29219.got.cif
#   From: 2010.06.25/outbox.cif.g09.slc.cpg/sg15_15_cif.got.tgz:29219.got - 2010.06.28 07:06:18.
