data_PCOD8153016
_publ_section_title
;
Structure prediction by ZEFSAII (Michael W. Deem and Ramdas Pophale) SiO2 
 PCOD8153016
Probable space group: C 2/C
;
_chemical_formula_sum "Si O2"
_cell_formula_units_Z 40
_cell_length_a 18.374273
_cell_length_b 10.359751
_cell_length_c 19.078166
_cell_angle_alpha 90.000000
_cell_angle_beta 149.832834
_cell_angle_gamma 90.000000
_cell_volume 1824.960277
_symmetry_space_group_name_H-M "C 2/C"
_symmetry_group_IT_number 15
_symmetry_cell_setting 'monoclinic'
loop_
_space_group_symop_operation_xyz
x,y,z
-x,y,1/2-z
-x,-y,-z
x,-y,1/2+z
1/2+x,1/2+y,z
1/2-x,1/2+y,1/2-z
1/2-x,1/2-y,-z
1/2+x,1/2-y,1/2+z
loop_
_atom_site_type_symbol
_atom_site_label
_atom_site_fract_x
_atom_site_fract_y
_atom_site_fract_z
Si Si1 0.140523 0.824894 0.120128
Si Si2 0.807165 0.118876 0.352924
Si Si3 0.500000 0.469483 0.750000
Si Si4 0.801960 0.245343 0.123513
Si Si5 0.500000 0.048492 0.750000
Si Si6 0.240258 0.886067 0.525787
O O1 0.209748 0.720306 0.229629
O O2 0.170249 0.769057 0.066671
O O3 0.201084 0.971083 0.182940
O O4 0.969281 0.826644 0.987663
O O5 0.743268 0.119818 0.377551
O O6 0.611431 0.388210 0.794294
O O7 0.413620 0.553162 0.621811
O O8 0.916886 0.359534 0.236074
O O9 0.750000 0.250000 0.000000
O O10 0.377299 0.964695 0.608400
O O11 0.250000 0.750000 0.500000
#
# Coordination Sequence:
#
# PCOD8153016 Si02
#       6
#     8   8   4   8   4   8
#     4  11  27  46  71 102 148 188 233 296 353 427
#     4  11  28  48  69 104 147 189 235 291 360 425
#     4  11  25  42  76 106 135 183 242 292 352 407
#     4  11  23  43  76 104 134 182 239 297 342 412
#     4  11  23  42  66 100 137 169 242 286 340 405
#     4  12  27  45  71 102 143 184 234 290 352 423
#
# _framework density 21.918285000000001
#
# number of rings (size 3 to 8) (size 9 to 14) (size 15 to 20)
#    0.000    0.800    4.000    0.600   16.800    0.800 
#    0.000    0.000    0.000    0.000    0.000    0.000 
#    0.000    0.000    0.000    0.000    0.000    0.000 
#
# Total GULP energy -247897.894233 kJ/mol
# GULP energy per Si atom -12394.894712 kJ/mol
# Density = 2.186840 g / cm^3
# Si number density = 21.918285 Si / 1000 Ang^3
#
#
#
# Elastic Constant Matrix: (Units=GPa)
#
#
# Indices 1 2 3 4 5 6 
#
# 1 92.2418 41.2405 44.6485 -0.0001 -3.2209 0.0000
# 2 41.2405 160.2991 70.5201 -0.0002 -6.1492 -0.0002
# 3 44.6485 70.5201 130.5944 -0.0002 -2.9292 -0.0003
# 4 -0.0001 -0.0002 -0.0002 50.9657 -0.0001 -1.0761
# 5 -3.2209 -6.1492 -2.9292 -0.0001 34.9369 -0.0002
# 6 0.0000 -0.0002 -0.0003 -1.0761 -0.0002 9.1308
#
#
#
# Elastic Compliance Matrix: (Units=1/GPa)
#
#
# Indices 1 2 3 4 5 6 
#
# 1 0.013422 -0.001858 -0.003572 0.000000 0.000611 0.000000
# 2 -0.001858 0.008480 -0.003921 0.000000 0.000992 0.000000
# 3 -0.003572 -0.003921 0.010994 0.000000 -0.000098 0.000000
# 4 0.000000 0.000000 0.000000 0.019670 0.000000 0.002318
# 5 0.000611 0.000992 -0.000098 0.000000 0.028846 0.000001
# 6 0.000000 0.000000 0.000000 0.002318 0.000001 0.109793
#
#
# Mechanical properties :
#
#
# Convention : Reuss Voigt Hill
#
# Bulk Modulus (GPa) = 70.45879 77.32817 73.89348
# Shear Modulus (GPa) = 23.29508 34.12177 28.70842
#
# Velocity S-wave (km/s) = 3.26362 3.94988 3.62303
# Velocity P-wave (km/s) = 6.81304 7.49392 7.16158
#
# Compressibility (1/GPa) = 0.01419269
#
# Stress axis : x y z
#
# Youngs Moduli (GPa) = 74.50415 117.92968 90.96154
#
# Poissons Ratio (x) = 0.21917 0.32488
# Poissons Ratio (y) = 0.13846 0.35669
# Poissons Ratio (z) = 0.26610 0.46244
#
# Static dielectric constant tensor:
#      x y z
#    x 4.463170 0.000000 0.410230 
#    y 0.000000 4.421080 0.000000 
#    z 0.410230 0.000000 4.056950 
# 
# 
# High freq. dielectric constant tensor:
#      x y z
#    x 1.850830 0.000000 0.020720 
#    y 0.000000 1.884960 0.000000 
#    z 0.020720 0.000000 1.861660 
# 
# From -- ./inp_files/210847.got.cif
#   From: 2010.06.25/outbox.cif.g09.slc.cpg/sg15_106_cif.got.tgz:210847.got - 2010.06.28 07:06:18.
