data_PCOD8153359
_publ_section_title
;
Structure prediction by ZEFSAII (Michael W. Deem and Ramdas Pophale) SiO2 
 PCOD8153359
Probable space group: C 2/C
;
_chemical_formula_sum "Si O2"
_cell_formula_units_Z 40
_cell_length_a 12.430990
_cell_length_b 13.895829
_cell_length_c 10.719800
_cell_angle_alpha 90.000000
_cell_angle_beta 114.605079
_cell_angle_gamma 90.000000
_cell_volume 1683.588334
_symmetry_space_group_name_H-M "C 2/C"
_symmetry_group_IT_number 15
_symmetry_cell_setting 'monoclinic'
loop_
_space_group_symop_operation_xyz
x,y,z
-x,y,1/2-z
-x,-y,-z
x,-y,1/2+z
1/2+x,1/2+y,z
1/2-x,1/2+y,1/2-z
1/2-x,1/2-y,-z
1/2+x,1/2-y,1/2+z
loop_
_atom_site_type_symbol
_atom_site_label
_atom_site_fract_x
_atom_site_fract_y
_atom_site_fract_z
Si Si1 0.842839 0.331742 0.918685
Si Si2 0.270305 0.409994 0.985404
Si Si3 0.064786 0.734671 0.407337
Si Si4 0.632783 0.201778 0.796623
Si Si5 0.783317 0.519592 0.781894
O O1 0.726325 0.283189 0.797885
O O2 0.868090 0.432084 0.861969
O O3 0.963150 0.272000 0.963007
O O4 0.816556 0.344189 0.051528
O O5 0.138325 0.364002 0.923762
O O6 0.285103 0.487243 0.878458
O O7 0.358760 0.322535 0.004661
O O8 0.298324 0.459866 0.134364
O O9 0.000000 0.763830 0.250000
O O10 0.500000 0.242301 0.750000
O O11 0.636035 0.114439 0.699390
#
# Coordination Sequence:
#
# PCOD8153359 Si02
#       5
#     8   8   8   8   8
#     4  11  25  45  68 102 140 184 232 288 353 422
#     4  11  26  43  73 107 145 186 238 294 352 422
#     4  11  23  45  73 103 143 191 236 290 356 424
#     4  11  26  45  70 100 141 182 233 293 351 416
#     4  12  24  46  69 110 136 186 236 293 350 415
#
# _framework density 23.758778
#
# number of rings (size 3 to 8) (size 9 to 14) (size 15 to 20)
#    0.000    0.800    4.000    2.400    8.400    1.600 
#    0.000    7.000    0.000    0.000    0.000    0.000 
#    0.000    0.000    0.000    0.000    0.000    0.000 
#
# Total GULP energy -247899.099656 kJ/mol
# GULP energy per Si atom -12394.954983 kJ/mol
# Density = 2.370470 g / cm^3
# Si number density = 23.758778 Si / 1000 Ang^3
#
#
#
# Elastic Constant Matrix: (Units=GPa)
#
#
# Indices 1 2 3 4 5 6 
#
# 1 105.6107 33.1011 8.7784 0.0000 16.6707 0.0000
# 2 33.1011 56.3520 5.1971 0.0000 12.3348 0.0000
# 3 8.7784 5.1971 88.5613 0.0000 -13.9179 0.0000
# 4 0.0000 0.0000 0.0000 37.8755 0.0000 -0.7605
# 5 16.6707 12.3348 -13.9179 0.0000 36.7877 0.0000
# 6 0.0000 0.0000 0.0000 -0.7605 0.0000 10.4069
#
#
#
# Elastic Compliance Matrix: (Units=1/GPa)
#
#
# Indices 1 2 3 4 5 6 
#
# 1 0.012142 -0.006119 -0.001474 0.000000 -0.004008 0.000000
# 2 -0.006119 0.022673 -0.001577 0.000000 -0.005426 0.000000
# 3 -0.001474 -0.001577 0.012459 0.000000 0.005911 0.000000
# 4 0.000000 0.000000 0.000000 0.026441 0.000000 0.001932
# 5 -0.004008 -0.005426 0.005911 0.000000 0.033055 0.000000
# 6 0.000000 0.000000 0.000000 0.001932 0.000000 0.096231
#
#
# Mechanical properties :
#
#
# Convention : Reuss Voigt Hill
#
# Bulk Modulus (GPa) = 34.56129 38.29744 36.42937
# Shear Modulus (GPa) = 21.64642 30.57717 26.11179
#
# Velocity S-wave (km/s) = 3.02170 3.59135 3.31877
# Velocity P-wave (km/s) = 5.17229 5.77506 5.48197
#
# Compressibility (1/GPa) = 0.02893410
#
# Stress axis : x y z
#
# Youngs Moduli (GPa) = 82.36035 44.10568 80.26220
#
# Poissons Ratio (x) = 0.26987 0.11834
# Poissons Ratio (y) = 0.50394 0.12655
# Poissons Ratio (z) = 0.12143 0.06954
#
# Static dielectric constant tensor:
#      x y z
#    x 4.114500 0.000000 -0.342380 
#    y 0.000000 4.188460 0.000000 
#    z -0.342380 0.000000 4.479380 
# 
# 
# High freq. dielectric constant tensor:
#      x y z
#    x 1.918480 0.000000 -0.025810 
#    y 0.000000 1.931670 0.000000 
#    z -0.025810 0.000000 1.963140 
# 
# From -- ./inp_files/85951.got.cif
#   From: 2010.06.25/outbox.cif.g09.slc.cpg/sg15_43_cif.got.tgz:85951.got - 2010.06.28 07:06:18.
