data_PCOD8153523
_publ_section_title
;
Structure prediction by ZEFSAII (Michael W. Deem and Ramdas Pophale) SiO2 
 PCOD8153523
Probable space group: C 2/C
;
_chemical_formula_sum "Si O2"
_cell_formula_units_Z 56
_cell_length_a 12.127003
_cell_length_b 13.011275
_cell_length_c 19.034572
_cell_angle_alpha 90.000000
_cell_angle_beta 72.058094
_cell_angle_gamma 90.000000
_cell_volume 2857.364288
_symmetry_space_group_name_H-M "C 2/C"
_symmetry_group_IT_number 15
_symmetry_cell_setting 'monoclinic'
loop_
_space_group_symop_operation_xyz
x,y,z
-x,y,1/2-z
-x,-y,-z
x,-y,1/2+z
1/2+x,1/2+y,z
1/2-x,1/2+y,1/2-z
1/2-x,1/2-y,-z
1/2+x,1/2-y,1/2+z
loop_
_atom_site_type_symbol
_atom_site_label
_atom_site_fract_x
_atom_site_fract_y
_atom_site_fract_z
Si Si1 0.121074 0.748974 0.756011
Si Si2 0.812763 0.357939 0.474483
Si Si3 0.074018 0.707275 0.922103
Si Si4 0.751300 0.042717 0.919487
Si Si5 0.463370 0.606305 0.971460
Si Si6 0.804495 0.116203 0.642262
Si Si7 0.628346 0.511027 0.242193
O O1 0.131937 0.727202 0.835831
O O2 0.233990 0.703630 0.696251
O O3 0.124359 0.867813 0.737890
O O4 0.000000 0.702242 0.750000
O O5 0.750000 0.250000 0.500000
O O6 0.788484 0.431857 0.544643
O O7 0.766468 0.415931 0.413629
O O8 0.947035 0.337837 0.437646
O O9 0.148113 0.623726 0.950096
O O10 0.076772 0.815253 0.961271
O O11 0.780579 0.031992 0.831797
O O12 0.861834 0.085826 0.937513
O O13 0.570429 0.657656 0.908135
O O14 0.500000 0.500000 0.000000
O O15 0.826976 0.019936 0.689163
O O16 0.500000 0.466690 0.250000
#
# Coordination Sequence:
#
# PCOD8153523 Si02
#       7
#     8   8   8   8   8   8   8
#     4  11  24  40  67  95 129 173 221 269 326 394
#     4  12  24  42  70  96 127 175 226 274 325 402
#     4  12  25  43  65  98 136 171 217 278 341 396
#     4  12  25  43  65  98 136 171 217 278 341 396
#     4  12  24  42  70  96 127 175 226 274 325 402
#     4  12  22  42  68  98 129 162 226 273 320 386
#     4  11  24  40  67  95 129 173 221 269 326 394
#
# _framework density 19.598481
#
# number of rings (size 3 to 8) (size 9 to 14) (size 15 to 20)
#    0.000    0.286    7.143    2.571    4.000    0.000 
#    0.000    0.000    0.000    1.714    0.000    0.000 
#    0.000    0.000    0.000    0.000    0.000    0.000 
#
# Total GULP energy -347290.337217 kJ/mol
# GULP energy per Si atom -12403.226329 kJ/mol
# Density = 1.955387 g / cm^3
# Si number density = 19.598481 Si / 1000 Ang^3
#
#
#
# Elastic Constant Matrix: (Units=GPa)
#
#
# Indices 1 2 3 4 5 6 
#
# 1 112.8844 43.9414 32.7916 0.0000 -10.0867 0.0000
# 2 43.9414 100.6885 43.0161 0.0000 -11.3234 0.0000
# 3 32.7916 43.0161 121.4925 0.0000 -5.9403 0.0000
# 4 0.0000 0.0000 0.0000 37.1465 0.0000 -0.2112
# 5 -10.0867 -11.3234 -5.9403 0.0000 24.5753 0.0000
# 6 0.0000 0.0000 0.0000 -0.2112 0.0000 27.0414
#
#
#
# Elastic Compliance Matrix: (Units=1/GPa)
#
#
# Indices 1 2 3 4 5 6 
#
# 1 0.011022 -0.003915 -0.001473 0.000000 0.002364 0.000000
# 2 -0.003915 0.013592 -0.003570 0.000000 0.003793 0.000000
# 3 -0.001473 -0.003570 0.009900 0.000000 0.000143 0.000000
# 4 0.000000 0.000000 0.000000 0.026922 0.000000 0.000210
# 5 0.002364 0.003793 0.000143 0.000000 0.043444 0.000000
# 6 0.000000 0.000000 0.000000 0.000210 0.000000 0.036982
#
#
# Mechanical properties :
#
#
# Convention : Reuss Voigt Hill
#
# Bulk Modulus (GPa) = 60.25272 63.84040 62.04656
# Shear Modulus (GPa) = 30.24635 32.10707 31.17671
#
# Velocity S-wave (km/s) = 3.93275 4.05191 3.99278
# Velocity P-wave (km/s) = 7.17163 7.38482 7.27901
#
# Compressibility (1/GPa) = 0.01659676
#
# Stress axis : x y z
#
# Youngs Moduli (GPa) = 90.73076 73.57321 101.01311
#
# Poissons Ratio (x) = 0.28802 0.14881
# Poissons Ratio (y) = 0.35519 0.36065
# Poissons Ratio (z) = 0.13366 0.26268
#
# Static dielectric constant tensor:
#      x y z
#    x 3.826650 0.000000 -0.023950 
#    y 0.000000 3.449130 0.000000 
#    z -0.023950 0.000000 3.796800 
# 
# 
# High freq. dielectric constant tensor:
#      x y z
#    x 1.773250 0.000000 -0.002370 
#    y 0.000000 1.753210 0.000000 
#    z -0.002370 0.000000 1.783910 
# 
# From -- ./inp_files/197781.got.cif
#   From: 2010.06.25/outbox.cif.g09.slc.cpg/sg15_99_cif.got.tgz:197781.got - 2010.06.28 07:06:18.
