data_PCOD8153310
_publ_section_title
;
Structure prediction by ZEFSAII (Michael W. Deem and Ramdas Pophale) SiO2 
 PCOD8153310
Probable space group: C 2/C
;
_chemical_formula_sum "Si O2"
_cell_formula_units_Z 28
_cell_length_a 9.495947
_cell_length_b 9.119344
_cell_length_c 23.762453
_cell_angle_alpha 90.000000
_cell_angle_beta 144.733502
_cell_angle_gamma 90.000000
_cell_volume 1188.105820
_symmetry_space_group_name_H-M "C 2/C"
_symmetry_group_IT_number 15
_symmetry_cell_setting 'monoclinic'
loop_
_space_group_symop_operation_xyz
x,y,z
-x,y,1/2-z
-x,-y,-z
x,-y,1/2+z
1/2+x,1/2+y,z
1/2-x,1/2+y,1/2-z
1/2-x,1/2-y,-z
1/2+x,1/2-y,1/2+z
loop_
_atom_site_type_symbol
_atom_site_label
_atom_site_fract_x
_atom_site_fract_y
_atom_site_fract_z
Si Si1 0.278878 0.303703 0.945080
Si Si2 0.634297 0.062966 0.597403
Si Si3 0.836184 0.629244 0.601121
Si Si4 0.000000 0.825707 0.750000
O O1 0.175257 0.180558 0.867833
O O2 0.143895 0.453174 0.885324
O O3 0.250000 0.250000 0.000000
O O4 0.565653 0.316104 0.024581
O O5 0.439095 0.152396 0.571776
O O6 0.500000 0.000000 0.500000
O O7 0.764718 0.931914 0.673753
O O8 0.015255 0.718765 0.701110
#
# Coordination Sequence:
#
# PCOD8153310 Si02
#       4
#     8   8   8   4
#     4  11  23  44  75 104 138 192 241 298 375 438
#     4  12  25  47  74 104 145 194 245 308 365 440
#     4  11  25  45  72 105 145 189 247 303 370 438
#     4  12  28  42  70 110 146 186 250 306 372 438
#
# _framework density 23.566924
#
# number of rings (size 3 to 8) (size 9 to 14) (size 15 to 20)
#    0.000    0.571    5.714    0.857    0.000    8.000 
#    0.000    0.000    0.000    0.000    0.000    0.000 
#    0.000    0.000    0.000    0.000    0.000    0.000 
#
# Total GULP energy -173442.408333 kJ/mol
# GULP energy per Si atom -12388.743452 kJ/mol
# Density = 2.351328 g / cm^3
# Si number density = 23.566924 Si / 1000 Ang^3
#
#
#
# Elastic Constant Matrix: (Units=GPa)
#
#
# Indices 1 2 3 4 5 6 
#
# 1 181.7845 63.3146 53.5206 0.0000 -35.5396 0.0000
# 2 63.3146 175.7902 51.0102 0.0000 -21.5614 0.0000
# 3 53.5206 51.0102 93.0550 0.0000 -15.2962 0.0000
# 4 0.0000 0.0000 0.0000 62.7609 0.0000 -5.3531
# 5 -35.5396 -21.5614 -15.2962 0.0000 33.2401 0.0000
# 6 0.0000 0.0000 0.0000 -5.3531 0.0000 43.7711
#
#
#
# Elastic Compliance Matrix: (Units=1/GPa)
#
#
# Indices 1 2 3 4 5 6 
#
# 1 0.008054 -0.001275 -0.002871 0.000000 0.006463 0.000000
# 2 -0.001275 0.007235 -0.002905 0.000000 0.001993 0.000000
# 3 -0.002871 -0.002905 0.014254 0.000000 0.001605 0.000000
# 4 0.000000 0.000000 0.000000 0.016101 0.000000 0.001969
# 5 0.006463 0.001993 0.001605 0.000000 0.039026 0.000000
# 6 0.000000 0.000000 0.000000 0.001969 0.000000 0.023087
#
#
# Mechanical properties :
#
#
# Convention : Reuss Voigt Hill
#
# Bulk Modulus (GPa) = 64.76333 87.36895 76.06614
# Shear Modulus (GPa) = 39.36809 46.80672 43.08740
#
# Velocity S-wave (km/s) = 4.09159 4.46142 4.28050
# Velocity P-wave (km/s) = 7.06128 7.98074 7.53505
#
# Compressibility (1/GPa) = 0.01544084
#
# Stress axis : x y z
#
# Youngs Moduli (GPa) = 124.16419 138.21092 70.15585
#
# Poissons Ratio (x) = 0.17622 0.20141
# Poissons Ratio (y) = 0.15831 0.20382
# Poissons Ratio (z) = 0.35646 0.40154
#
# Static dielectric constant tensor:
#      x y z
#    x 4.679760 0.000000 -0.209540 
#    y 0.000000 5.694440 0.000000 
#    z -0.209540 0.000000 4.095830 
# 
# 
# High freq. dielectric constant tensor:
#      x y z
#    x 1.945980 0.000000 -0.016970 
#    y 0.000000 1.971100 0.000000 
#    z -0.016970 0.000000 1.897760 
# 
# From -- ./inp_files/229361.got.cif
#   From: 2010.06.25/outbox.cif.g09.slc.cpg/sg15_115_cif.got.tgz:229361.got - 2010.06.28 07:06:18.
