data_PCOD8153250
_publ_section_title
;
Structure prediction by ZEFSAII (Michael W. Deem and Ramdas Pophale) SiO2 
 PCOD8153250
Probable space group: C 2/C
;
_chemical_formula_sum "Si O2"
_cell_formula_units_Z 60
_cell_length_a 10.761927
_cell_length_b 29.066198
_cell_length_c 16.649570
_cell_angle_alpha 90.000000
_cell_angle_beta 149.405919
_cell_angle_gamma 90.000000
_cell_volume 2650.687544
_symmetry_space_group_name_H-M "C 2/C"
_symmetry_group_IT_number 15
_symmetry_cell_setting 'monoclinic'
loop_
_space_group_symop_operation_xyz
x,y,z
-x,y,1/2-z
-x,-y,-z
x,-y,1/2+z
1/2+x,1/2+y,z
1/2-x,1/2+y,1/2-z
1/2-x,1/2-y,-z
1/2+x,1/2-y,1/2+z
loop_
_atom_site_type_symbol
_atom_site_label
_atom_site_fract_x
_atom_site_fract_y
_atom_site_fract_z
Si Si1 0.000000 0.664850 0.750000
Si Si2 0.553218 0.459227 0.643177
Si Si3 0.418281 0.907635 0.082173
Si Si4 0.474678 0.284531 0.481202
Si Si5 0.574784 0.556632 0.607437
Si Si6 0.399620 0.116284 0.396605
Si Si7 0.781703 0.637771 0.069799
Si Si8 0.339851 0.291515 0.737303
O O1 0.851473 0.635749 0.600423
O O2 0.791660 0.692906 0.679494
O O3 0.316939 0.440051 0.557752
O O4 0.559868 0.514285 0.662842
O O5 0.546876 0.454702 0.544521
O O6 0.795189 0.432390 0.806383
O O7 0.640859 0.933421 0.249573
O O8 0.510336 0.891946 0.046002
O O9 0.677518 0.313292 0.544203
O O10 0.539566 0.279036 0.610657
O O11 0.427398 0.233617 0.417703
O O12 0.435898 0.601485 0.561091
O O13 0.606372 0.139878 0.456761
O O14 0.181770 0.153318 0.279742
O O15 0.000000 0.621352 0.250000
O O16 0.500000 0.274640 0.750000
#
# Coordination Sequence:
#
# PCOD8153250 Si02
#       8
#     4   8   8   8   8   8   8   8
#     4  12  22  46  74 100 142 176 234 290 360 418
#     4  11  23  44  69 104 136 186 237 294 358 420
#     4  12  24  44  71 103 138 182 241 301 343 422
#     4  12  26  44  74 104 140 185 230 301 347 422
#     4  11  24  41  74  99 134 190 238 285 358 431
#     4  12  27  45  73 100 146 191 233 298 362 422
#     4  12  24  50  68  96 146 193 228 287 363 425
#     4  12  25  44  73 110 139 181 239 291 355 416
#
# _framework density 22.635636999999999
#
# number of rings (size 3 to 8) (size 9 to 14) (size 15 to 20)
#    0.000    0.267    6.000    3.200    3.733    1.600 
#    2.400    0.000    0.000    0.000    0.000    0.000 
#    0.000    0.000    0.000    0.000    0.000    0.000 
#
# Total GULP energy -371981.000372 kJ/mol
# GULP energy per Si atom -12399.366679 kJ/mol
# Density = 2.258412 g / cm^3
# Si number density = 22.635637 Si / 1000 Ang^3
#
#
#
# Elastic Constant Matrix: (Units=GPa)
#
#
# Indices 1 2 3 4 5 6 
#
# 1 119.6454 22.7150 11.9495 0.0000 -2.0893 0.0000
# 2 22.7150 102.3524 22.7380 0.0000 -4.3279 0.0000
# 3 11.9495 22.7380 59.6126 -0.0001 0.6056 -0.0003
# 4 0.0000 0.0000 -0.0001 29.0666 0.0000 1.8070
# 5 -2.0893 -4.3279 0.6056 0.0000 38.9158 -0.0001
# 6 0.0000 0.0000 -0.0003 1.8070 -0.0001 19.4821
#
#
#
# Elastic Compliance Matrix: (Units=1/GPa)
#
#
# Indices 1 2 3 4 5 6 
#
# 1 0.008796 -0.001690 -0.001122 0.000000 0.000302 0.000000
# 2 -0.001690 0.011061 -0.003892 0.000000 0.001200 0.000000
# 3 -0.001122 -0.003892 0.018492 0.000000 -0.000781 0.000000
# 4 0.000000 0.000000 0.000000 0.034603 0.000000 -0.003210
# 5 0.000302 0.001200 -0.000781 0.000000 0.025858 0.000000
# 6 0.000000 0.000000 0.000000 -0.003210 0.000000 0.051627
#
#
# Mechanical properties :
#
#
# Convention : Reuss Voigt Hill
#
# Bulk Modulus (GPa) = 40.09439 44.04615 42.07027
# Shear Modulus (GPa) = 29.04283 32.44009 30.74146
#
# Velocity S-wave (km/s) = 3.58587 3.78979 3.68924
# Velocity P-wave (km/s) = 5.90728 6.21700 6.06412
#
# Compressibility (1/GPa) = 0.02494115
#
# Stress axis : x y z
#
# Youngs Moduli (GPa) = 113.68531 90.41022 54.07639
#
# Poissons Ratio (x) = 0.15281 0.06065
# Poissons Ratio (y) = 0.19215 0.21048
# Poissons Ratio (z) = 0.12751 0.35190
#
# Static dielectric constant tensor:
#      x y z
#    x 3.935120 0.000000 -0.026770 
#    y 0.000000 4.432040 0.000000 
#    z -0.026770 0.000000 3.941850 
# 
# 
# High freq. dielectric constant tensor:
#      x y z
#    x 1.884630 0.000000 -0.002870 
#    y 0.000000 1.899660 0.000000 
#    z -0.002870 0.000000 1.887160 
# 
# From -- ./inp_files/201426.got.cif
#   From: 2010.06.25/outbox.cif.g09.slc.cpg/sg15_101_cif.got.tgz:201426.got - 2010.06.28 07:06:18.
