data_PCOD8153526
_publ_section_title
;
Structure prediction by ZEFSAII (Michael W. Deem and Ramdas Pophale) SiO2 
 PCOD8153526
Probable space group: C 2/C
;
_chemical_formula_sum "Si O2"
_cell_formula_units_Z 60
_cell_length_a 8.001731
_cell_length_b 16.079190
_cell_length_c 23.771228
_cell_angle_alpha 90.000000
_cell_angle_beta 113.430510
_cell_angle_gamma 90.000000
_cell_volume 2806.248751
_symmetry_space_group_name_H-M "C 2/C"
_symmetry_group_IT_number 15
_symmetry_cell_setting 'monoclinic'
loop_
_space_group_symop_operation_xyz
x,y,z
-x,y,1/2-z
-x,-y,-z
x,-y,1/2+z
1/2+x,1/2+y,z
1/2-x,1/2+y,1/2-z
1/2-x,1/2-y,-z
1/2+x,1/2-y,1/2+z
loop_
_atom_site_type_symbol
_atom_site_label
_atom_site_fract_x
_atom_site_fract_y
_atom_site_fract_z
Si Si1 0.110984 0.193725 0.945568
Si Si2 0.874033 0.829890 0.514836
Si Si3 0.374127 0.939781 0.950291
Si Si4 0.086757 0.044215 0.868910
Si Si5 0.811511 0.781121 0.751399
Si Si6 0.000000 0.154711 0.750000
Si Si7 0.510985 0.160764 0.133667
Si Si8 0.153202 0.891463 0.638292
O O1 0.171985 0.105238 0.928583
O O2 0.052304 0.243728 0.881588
O O3 0.250000 0.250000 0.000000
O O4 0.939022 0.165930 0.959687
O O5 0.750000 0.750000 0.500000
O O6 0.751307 0.907195 0.516059
O O7 0.048836 0.832154 0.579529
O O8 0.481360 0.869107 0.930502
O O9 0.256736 0.981889 0.884159
O O10 0.500000 0.000000 0.000000
O O11 0.039225 0.093159 0.806590
O O12 0.916250 0.987189 0.867374
O O13 0.678316 0.710727 0.760072
O O14 0.704228 0.835782 0.690724
O O15 0.873334 0.847136 0.805901
O O16 0.000000 0.743426 0.750000
O O17 0.366196 0.106364 0.149421
#
# Coordination Sequence:
#
# PCOD8153526 Si02
#       8
#     8   8   8   8   8   4   8   8
#     4  12  23  43  72  98 140 183 229 288 352 422
#     4  11  24  40  68 102 135 179 238 280 353 427
#     4  11  26  43  66 103 143 184 228 293 362 420
#     4  11  27  45  68 105 144 181 235 303 352 417
#     4  12  25  48  78 101 137 189 249 291 358 437
#     4  12  26  52  70 108 144 186 244 300 358 428
#     4  12  23  47  70 102 135 193 239 284 362 435
#     4  11  25  44  74 100 141 190 231 301 359 417
#
# _framework density 21.380856000000001
#
# number of rings (size 3 to 8) (size 9 to 14) (size 15 to 20)
#    0.000    0.533    5.333    2.400    4.667    1.067 
#    2.400    0.000    0.000    0.000    0.000    0.000 
#    0.000    0.000    0.000    0.000    0.000    0.000 
#
# Total GULP energy -371724.875791 kJ/mol
# GULP energy per Si atom -12390.829193 kJ/mol
# Density = 2.133219 g / cm^3
# Si number density = 21.380856 Si / 1000 Ang^3
#
#
#
# Elastic Constant Matrix: (Units=GPa)
#
#
# Indices 1 2 3 4 5 6 
#
# 1 142.0967 43.0240 30.4496 0.0000 -1.2459 0.0000
# 2 43.0240 109.8469 44.9487 0.0000 2.7757 0.0000
# 3 30.4496 44.9487 80.5993 0.0000 4.6211 0.0000
# 4 0.0000 0.0000 0.0000 53.1230 0.0000 3.0341
# 5 -1.2459 2.7757 4.6211 0.0000 36.0606 0.0000
# 6 0.0000 0.0000 0.0000 3.0341 0.0000 23.7531
#
#
#
# Elastic Compliance Matrix: (Units=1/GPa)
#
#
# Indices 1 2 3 4 5 6 
#
# 1 0.008174 -0.002513 -0.001727 0.000000 0.000697 0.000000
# 2 -0.002513 0.012568 -0.006044 0.000000 -0.000280 0.000000
# 3 -0.001727 -0.006044 0.016528 0.000000 -0.001713 0.000000
# 4 0.000000 0.000000 0.000000 0.018963 0.000000 -0.002422
# 5 0.000697 -0.000280 -0.001713 0.000000 0.027996 0.000000
# 6 0.000000 0.000000 0.000000 -0.002422 0.000000 0.042409
#
#
# Mechanical properties :
#
#
# Convention : Reuss Voigt Hill
#
# Bulk Modulus (GPa) = 59.86590 63.26529 61.56559
# Shear Modulus (GPa) = 32.72846 36.86205 34.79525
#
# Velocity S-wave (km/s) = 3.91671 4.15669 4.03848
# Velocity P-wave (km/s) = 6.96525 7.25888 7.11358
#
# Compressibility (1/GPa) = 0.01670400
#
# Stress axis : x y z
#
# Youngs Moduli (GPa) = 122.33287 79.56867 60.50337
#
# Poissons Ratio (x) = 0.19993 0.10448
# Poissons Ratio (y) = 0.30738 0.36565
# Poissons Ratio (z) = 0.21126 0.48087
#
# Static dielectric constant tensor:
#      x y z
#    x 3.539490 0.000000 0.540310 
#    y 0.000000 4.011350 0.000000 
#    z 0.540310 0.000000 3.358950 
# 
# 
# High freq. dielectric constant tensor:
#      x y z
#    x 1.844360 0.000000 0.000850 
#    y 0.000000 1.842640 0.000000 
#    z 0.000850 0.000000 1.848280 
# 
# From -- ./inp_files/264758.got.cif
#   From: 2010.06.25/outbox.cif.g09.slc.cpg/sg15_133_cif.got.tgz:264758.got - 2010.06.28 07:06:18.
