data_PCOD8153722
_publ_section_title
;
Structure prediction by ZEFSAII (Michael W. Deem and Ramdas Pophale) SiO2 
 PCOD8153722
Probable space group: C 2/C
;
_chemical_formula_sum "Si O2"
_cell_formula_units_Z 40
_cell_length_a 8.838030
_cell_length_b 23.167091
_cell_length_c 16.684797
_cell_angle_alpha 90.000000
_cell_angle_beta 32.978621
_cell_angle_gamma 90.000000
_cell_volume 1859.546447
_symmetry_space_group_name_H-M "C 2/C"
_symmetry_group_IT_number 15
_symmetry_cell_setting 'monoclinic'
loop_
_space_group_symop_operation_xyz
x,y,z
-x,y,1/2-z
-x,-y,-z
x,-y,1/2+z
1/2+x,1/2+y,z
1/2-x,1/2+y,1/2-z
1/2-x,1/2-y,-z
1/2+x,1/2-y,1/2+z
loop_
_atom_site_type_symbol
_atom_site_label
_atom_site_fract_x
_atom_site_fract_y
_atom_site_fract_z
Si Si1 0.625707 0.891556 0.343131
Si Si2 0.745499 0.091525 0.968812
Si Si3 0.455093 0.205598 0.364132
Si Si4 0.523363 0.232267 0.831335
Si Si5 0.704366 0.012037 0.591067
O O1 0.593320 0.899380 0.452353
O O2 0.637234 0.823487 0.325645
O O3 0.371927 0.923172 0.407786
O O4 0.921843 0.915050 0.182420
O O5 0.655549 0.141430 0.070920
O O6 0.640889 0.030029 0.045635
O O7 0.500000 0.217888 0.250000
O O8 0.762120 0.214471 0.263521
O O9 0.250000 0.250000 0.500000
O O10 0.500000 0.213723 0.750000
O O11 0.250000 0.250000 0.000000
O O12 0.500000 0.992945 0.750000
O O13 0.000000 0.000000 0.500000
#
# Coordination Sequence:
#
# PCOD8153722 Si02
#       5
#     8   8   8   8   8
#     4  11  24  45  70  99 141 184 228 291 359 408
#     4  11  24  44  71 100 138 182 234 291 348 422
#     4  12  24  44  72 103 137 184 236 282 348 419
#     4  12  26  43  68 102 142 181 229 288 346 414
#     4  12  25  45  70 101 137 181 236 287 350 420
#
# _framework density 21.510621
#
# number of rings (size 3 to 8) (size 9 to 14) (size 15 to 20)
#    0.000    0.400    4.000    5.400    0.000    1.600 
#    0.000    2.000    0.000    0.000    0.000    0.000 
#    0.000    0.000    0.000    0.000    0.000    0.000 
#
# Total GULP energy -247912.924678 kJ/mol
# GULP energy per Si atom -12395.646234 kJ/mol
# Density = 2.146166 g / cm^3
# Si number density = 21.510621 Si / 1000 Ang^3
#
#
#
# Elastic Constant Matrix: (Units=GPa)
#
#
# Indices 1 2 3 4 5 6 
#
# 1 123.0244 22.6023 46.7911 0.0002 9.2541 0.0013
# 2 22.6023 84.3567 21.9684 0.0006 9.3738 0.0023
# 3 46.7911 21.9684 132.3682 0.0105 14.1306 0.0055
# 4 0.0002 0.0006 0.0105 36.9484 -0.0012 -1.7741
# 5 9.2541 9.3738 14.1306 -0.0012 48.8453 -0.0014
# 6 0.0013 0.0023 0.0055 -1.7741 -0.0014 40.6148
#
#
#
# Elastic Compliance Matrix: (Units=1/GPa)
#
#
# Indices 1 2 3 4 5 6 
#
# 1 0.009655 -0.001722 -0.003062 0.000001 -0.000613 0.000000
# 2 -0.001722 0.012859 -0.001338 0.000000 -0.001754 -0.000001
# 3 -0.003062 -0.001338 0.009049 -0.000003 -0.001781 -0.000001
# 4 0.000001 0.000000 -0.000003 0.027122 0.000001 0.001185
# 5 -0.000613 -0.001754 -0.001781 0.000001 0.021441 0.000001
# 6 0.000000 -0.000001 -0.000001 0.001185 0.000001 0.024673
#
#
# Mechanical properties :
#
#
# Convention : Reuss Voigt Hill
#
# Bulk Modulus (GPa) = 51.75901 58.05253 54.90577
# Shear Modulus (GPa) = 40.49123 41.84086 41.16604
#
# Velocity S-wave (km/s) = 4.34335 4.41514 4.37939
# Velocity P-wave (km/s) = 7.01906 7.28270 7.15210
#
# Compressibility (1/GPa) = 0.01932031
#
# Stress axis : x y z
#
# Youngs Moduli (GPa) = 103.56838 77.76551 110.50581
#
# Poissons Ratio (x) = 0.13387 0.33836
# Poissons Ratio (y) = 0.17829 0.14789
# Poissons Ratio (z) = 0.31712 0.10408
#
# Static dielectric constant tensor:
#      x y z
#    x 3.872790 0.000000 0.302960 
#    y 0.000000 3.911700 0.000040 
#    z 0.302960 0.000040 3.873060 
# 
# 
# High freq. dielectric constant tensor:
#      x y z
#    x 1.855940 0.000000 0.013580 
#    y 0.000000 1.845770 0.000000 
#    z 0.013580 0.000000 1.857640 
# 
# From -- ./inp_files/193424.got.cif
#   From: 2010.06.25/outbox.cif.g09.slc.cpg/sg15_97_cif.got.tgz:193424.got - 2010.06.28 07:06:18.
