data_PCOD8153777
_publ_section_title
;
Structure prediction by ZEFSAII (Michael W. Deem and Ramdas Pophale) SiO2 
 PCOD8153777
Probable space group: C 2/C
;
_chemical_formula_sum "Si O2"
_cell_formula_units_Z 52
_cell_length_a 14.650222
_cell_length_b 13.183022
_cell_length_c 13.983592
_cell_angle_alpha 90.000000
_cell_angle_beta 62.119602
_cell_angle_gamma 90.000000
_cell_volume 2387.226744
_symmetry_space_group_name_H-M "C 2/C"
_symmetry_group_IT_number 15
_symmetry_cell_setting 'monoclinic'
loop_
_space_group_symop_operation_xyz
x,y,z
-x,y,1/2-z
-x,-y,-z
x,-y,1/2+z
1/2+x,1/2+y,z
1/2-x,1/2+y,1/2-z
1/2-x,1/2-y,-z
1/2+x,1/2-y,1/2+z
loop_
_atom_site_type_symbol
_atom_site_label
_atom_site_fract_x
_atom_site_fract_y
_atom_site_fract_z
Si Si1 0.708990 0.554119 0.661184
Si Si2 0.657731 0.554202 0.361033
Si Si3 0.925395 0.950687 0.920715
Si Si4 0.152857 0.257884 0.981246
Si Si5 0.814147 0.274460 0.758502
Si Si6 0.912650 0.518514 0.967302
Si Si7 0.000000 0.596973 0.250000
O O1 0.732724 0.513238 0.756948
O O2 0.616041 0.484501 0.662855
O O3 0.682161 0.672833 0.679575
O O4 0.809945 0.538768 0.549206
O O5 0.649616 0.516672 0.473362
O O6 0.546245 0.529888 0.369277
O O7 0.706596 0.667149 0.335951
O O8 0.920683 0.833042 0.951144
O O9 0.183532 0.250230 0.855090
O O10 0.250000 0.250000 0.000000
O O11 0.097373 0.361426 0.034814
O O12 0.916909 0.335776 0.734373
O O13 0.939279 0.475246 0.851244
O O14 0.000000 0.500000 0.000000
#
# Coordination Sequence:
#
# PCOD8153777 Si02
#       7
#     8   8   8   8   8   8   4
#     4  12  25  46  73 103 148 188 247 306 371 442
#     4  11  24  45  68 102 140 186 244 298 363 441
#     4  11  25  43  71 101 142 189 242 302 363 439
#     4  12  24  47  72 104 145 195 244 304 375 443
#     4  12  27  45  77 107 145 196 249 308 381 445
#     4  12  26  47  74 106 151 196 250 311 379 452
#     4  12  28  48  74 108 152 190 256 314 374 452
#
# _framework density 21.782596999999999
#
# number of rings (size 3 to 8) (size 9 to 14) (size 15 to 20)
#    0.000    0.308    6.154    1.385    4.308    3.692 
#    2.769    0.000    0.000    0.000    0.000    0.000 
#    0.000    0.000    0.000    0.000    0.000    0.000 
#
# Total GULP energy -322359.916034 kJ/mol
# GULP energy per Si atom -12398.458309 kJ/mol
# Density = 2.173302 g / cm^3
# Si number density = 21.782597 Si / 1000 Ang^3
#
#
#
# Elastic Constant Matrix: (Units=GPa)
#
#
# Indices 1 2 3 4 5 6 
#
# 1 100.8174 29.1431 19.4421 0.0000 8.4134 0.0000
# 2 29.1431 171.2647 54.4381 0.0000 0.1100 0.0000
# 3 19.4421 54.4381 120.9306 0.0000 6.7559 0.0000
# 4 0.0000 0.0000 0.0000 36.4654 0.0000 6.3916
# 5 8.4134 0.1100 6.7559 0.0000 31.8091 0.0000
# 6 0.0000 0.0000 0.0000 6.3916 0.0000 36.2310
#
#
#
# Elastic Compliance Matrix: (Units=1/GPa)
#
#
# Indices 1 2 3 4 5 6 
#
# 1 0.010758 -0.001548 -0.000885 0.000000 -0.002652 0.000000
# 2 -0.001548 0.007049 -0.002981 0.000000 0.001018 0.000000
# 3 -0.000885 -0.002981 0.009857 0.000000 -0.001849 0.000000
# 4 0.000000 0.000000 0.000000 0.028298 0.000000 -0.004992
# 5 -0.002652 0.001018 -0.001849 0.000000 0.032528 0.000000
# 6 0.000000 0.000000 0.000000 -0.004992 0.000000 0.028481
#
#
# Mechanical properties :
#
#
# Convention : Reuss Voigt Hill
#
# Bulk Modulus (GPa) = 59.39383 66.56213 62.97798
# Shear Modulus (GPa) = 37.47785 40.23373 38.85579
#
# Velocity S-wave (km/s) = 4.15244 4.30240 4.22809
# Velocity P-wave (km/s) = 7.09339 7.43672 7.26708
#
# Compressibility (1/GPa) = 0.01683677
#
# Stress axis : x y z
#
# Youngs Moduli (GPa) = 92.95164 141.85833 101.45243
#
# Poissons Ratio (x) = 0.21956 0.08976
# Poissons Ratio (y) = 0.14387 0.30247
# Poissons Ratio (z) = 0.08224 0.42293
#
# Static dielectric constant tensor:
#      x y z
#    x 3.900790 0.000000 0.137090 
#    y 0.000000 3.620110 0.000000 
#    z 0.137090 0.000000 3.914620 
# 
# 
# High freq. dielectric constant tensor:
#      x y z
#    x 1.865470 0.000000 0.005970 
#    y 0.000000 1.861890 0.000000 
#    z 0.005970 0.000000 1.873870 
# 
# From -- ./inp_files/153874.got.cif
#   From: 2010.06.25/outbox.cif.g09.slc.cpg/sg15_77_cif.got.tgz:153874.got - 2010.06.28 07:06:18.
