data_PCOD8153111
_publ_section_title
;
Structure prediction by ZEFSAII (Michael W. Deem and Ramdas Pophale) SiO2 
 PCOD8153111
Probable space group: C 2/C
;
_chemical_formula_sum "Si O2"
_cell_formula_units_Z 44
_cell_length_a 22.727798
_cell_length_b 6.841543
_cell_length_c 23.042750
_cell_angle_alpha 90.000000
_cell_angle_beta 34.415630
_cell_angle_gamma 90.000000
_cell_volume 2025.078155
_symmetry_space_group_name_H-M "C 2/C"
_symmetry_group_IT_number 15
_symmetry_cell_setting 'monoclinic'
loop_
_space_group_symop_operation_xyz
x,y,z
-x,y,1/2-z
-x,-y,-z
x,-y,1/2+z
1/2+x,1/2+y,z
1/2-x,1/2+y,1/2-z
1/2-x,1/2-y,-z
1/2+x,1/2-y,1/2+z
loop_
_atom_site_type_symbol
_atom_site_label
_atom_site_fract_x
_atom_site_fract_y
_atom_site_fract_z
Si Si1 0.991792 0.687378 0.932930
Si Si2 0.331499 0.438729 0.868581
Si Si3 0.110138 0.324757 0.869070
Si Si4 0.000000 0.263473 0.750000
Si Si5 0.112652 0.596635 0.597307
Si Si6 0.820297 0.047996 0.245180
O O1 0.929968 0.717395 0.923203
O O2 0.015426 0.458174 0.923591
O O3 0.101270 0.793620 0.843260
O O4 0.922938 0.770734 0.042160
O O5 0.405270 0.627798 0.806907
O O6 0.389934 0.245377 0.845656
O O7 0.295455 0.403663 0.832178
O O8 0.230204 0.477816 0.990427
O O9 0.215396 0.447724 0.793000
O O10 0.127808 0.163353 0.805480
O O11 0.041351 0.406332 0.665609
#
# Coordination Sequence:
#
# PCOD8153111 Si02
#       6
#     8   8   8   4   8   8
#     4  11  23  43  65  92 134 169 220 273 325 397
#     4  11  25  43  67  97 135 172 225 274 326 406
#     4  11  24  40  64  96 128 170 220 271 327 387
#     4  12  22  42  66 100 128 174 222 272 332 388
#     4  11  24  44  67  97 133 179 218 274 341 389
#     4  12  22  43  65  95 128 172 219 268 329 389
#
# _framework density 21.727557999999998
#
# number of rings (size 3 to 8) (size 9 to 14) (size 15 to 20)
#    0.000    0.727    3.636    4.909    0.000    0.000 
#    0.000    1.818    0.000    0.000    0.000    0.000 
#    0.000    0.000    0.000    0.000    0.000    0.000 
#
# Total GULP energy -272873.847857 kJ/mol
# GULP energy per Si atom -12403.356721 kJ/mol
# Density = 2.167810 g / cm^3
# Si number density = 21.727558 Si / 1000 Ang^3
#
#
#
# Elastic Constant Matrix: (Units=GPa)
#
#
# Indices 1 2 3 4 5 6 
#
# 1 93.0384 26.8204 16.7135 -0.1474 6.5059 0.1223
# 2 26.8204 92.8308 43.1312 -0.1279 10.4164 0.1055
# 3 16.7135 43.1312 103.9652 -0.0347 -2.7300 0.0354
# 4 -0.1474 -0.1279 -0.0347 29.5470 0.1415 4.3820
# 5 6.5059 10.4164 -2.7300 0.1415 32.0196 -0.1253
# 6 0.1223 0.1055 0.0354 4.3820 -0.1253 26.3194
#
#
#
# Elastic Compliance Matrix: (Units=1/GPa)
#
#
# Indices 1 2 3 4 5 6 
#
# 1 0.011824 -0.002903 -0.000736 0.000062 -0.001521 -0.000060
# 2 -0.002903 0.014845 -0.005816 0.000077 -0.004736 -0.000074
# 3 -0.000736 -0.005816 0.012231 -0.000034 0.003085 0.000031
# 4 0.000062 0.000077 -0.000034 0.034703 -0.000216 -0.005779
# 5 -0.001521 -0.004736 0.003085 -0.000216 0.033345 0.000217
# 6 -0.000060 -0.000074 0.000031 -0.005779 0.000217 0.038959
#
#
# Mechanical properties :
#
#
# Convention : Reuss Voigt Hill
#
# Bulk Modulus (GPa) = 50.02893 51.46273 50.74583
# Shear Modulus (GPa) = 29.15770 31.12183 30.13976
#
# Velocity S-wave (km/s) = 3.66726 3.78877 3.72851
# Velocity P-wave (km/s) = 6.40370 6.54802 6.47626
#
# Compressibility (1/GPa) = 0.01998844
#
# Stress axis : x y z
#
# Youngs Moduli (GPa) = 84.57388 67.36270 81.76026
#
# Poissons Ratio (x) = 0.19557 0.06020
# Poissons Ratio (y) = 0.24553 0.47554
# Poissons Ratio (z) = 0.06227 0.39180
#
# Static dielectric constant tensor:
#      x y z
#    x 3.697340 -0.000060 -0.026150 
#    y -0.000060 3.696560 0.000050 
#    z -0.026150 0.000050 4.081220 
# 
# 
# High freq. dielectric constant tensor:
#      x y z
#    x 1.850670 -0.000010 -0.005730 
#    y -0.000010 1.840410 0.000010 
#    z -0.005730 0.000010 1.874480 
# 
# From -- ./inp_files/175371.got.cif
#   From: 2010.06.25/outbox.cif.g09.slc.cpg/sg15_88_cif.got.tgz:175371.got - 2010.06.28 07:06:18.
