data_PCOD8153541
_publ_section_title
;
Structure prediction by ZEFSAII (Michael W. Deem and Ramdas Pophale) SiO2 
 PCOD8153541
Probable space group: C 2/C
;
_chemical_formula_sum "Si O2"
_cell_formula_units_Z 64
_cell_length_a 30.537575
_cell_length_b 8.642803
_cell_length_c 11.107499
_cell_angle_alpha 90.000000
_cell_angle_beta 95.233496
_cell_angle_gamma 90.000000
_cell_volume 2919.383783
_symmetry_space_group_name_H-M "C 2/C"
_symmetry_group_IT_number 15
_symmetry_cell_setting 'monoclinic'
loop_
_space_group_symop_operation_xyz
x,y,z
-x,y,1/2-z
-x,-y,-z
x,-y,1/2+z
1/2+x,1/2+y,z
1/2-x,1/2+y,1/2-z
1/2-x,1/2-y,-z
1/2+x,1/2-y,1/2+z
loop_
_atom_site_type_symbol
_atom_site_label
_atom_site_fract_x
_atom_site_fract_y
_atom_site_fract_z
Si Si1 0.479563 0.666587 0.868814
Si Si2 0.818038 0.408450 0.518973
Si Si3 0.840302 0.273747 0.104297
Si Si4 0.519435 0.303589 0.628202
Si Si5 0.121118 0.212057 0.133466
Si Si6 0.241493 0.099534 0.372258
Si Si7 0.201000 0.805807 0.276768
Si Si8 0.881382 0.858884 0.393770
O O1 0.500000 0.738331 0.750000
O O2 0.490287 0.485492 0.874093
O O3 0.427380 0.685852 0.846195
O O4 0.497297 0.752318 0.995401
O O5 0.838762 0.540117 0.609761
O O6 0.855595 0.342474 0.441061
O O7 0.777796 0.492119 0.442397
O O8 0.799487 0.266874 0.590630
O O9 0.853755 0.207366 0.234887
O O10 0.792625 0.197835 0.051031
O O11 0.877657 0.224408 0.020657
O O12 0.500000 0.234543 0.750000
O O13 0.569889 0.248873 0.636924
O O14 0.124844 0.040550 0.079402
O O15 0.261263 0.224233 0.288469
O O16 0.211352 0.986422 0.285470
O O17 0.153845 0.784708 0.204532
#
# Coordination Sequence:
#
# PCOD8153541 Si02
#       8
#     8   8   8   8   8   8   8   8
#     4   9  19  35  64  99 134 163 212 276 334 398
#     4  12  26  42  63  93 133 179 225 273 325 392
#     4  12  25  44  66  94 136 176 225 270 326 398
#     4   9  18  36  64  97 131 168 210 273 340 395
#     4  11  24  42  68 100 132 171 219 277 334 391
#     4  12  25  43  65  94 131 177 223 274 330 386
#     4  12  25  41  66  94 132 173 225 271 332 392
#     4  11  24  41  67 100 131 171 218 275 335 390
#
# _framework density 21.922435
#
# number of rings (size 3 to 8) (size 9 to 14) (size 15 to 20)
#    0.000    1.000    2.500    4.500    3.500    2.000 
#    0.000    0.000    0.000    3.750    0.000    0.000 
#    0.000    0.000    0.000    0.000    0.000    0.000 
#
# Total GULP energy -396737.223407 kJ/mol
# GULP energy per Si atom -12398.038231 kJ/mol
# Density = 2.187254 g / cm^3
# Si number density = 21.922435 Si / 1000 Ang^3
#
#
#
# Elastic Constant Matrix: (Units=GPa)
#
#
# Indices 1 2 3 4 5 6 
#
# 1 108.8723 44.1597 48.0599 0.0000 -20.4634 0.0000
# 2 44.1597 73.6962 19.5347 0.0000 -10.0767 0.0000
# 3 48.0599 19.5347 109.9088 0.0000 -19.4229 0.0000
# 4 0.0000 0.0000 0.0000 25.5587 0.0000 -10.1718
# 5 -20.4634 -10.0767 -19.4229 0.0000 27.8965 0.0000
# 6 0.0000 0.0000 0.0000 -10.1718 0.0000 21.9732
#
#
#
# Elastic Compliance Matrix: (Units=1/GPa)
#
#
# Indices 1 2 3 4 5 6 
#
# 1 0.014997 -0.007095 -0.004339 0.000000 0.005417 0.000000
# 2 -0.007095 0.017970 0.000155 0.000000 0.001394 0.000000
# 3 -0.004339 0.000155 0.011877 0.000000 0.005142 0.000000
# 4 0.000000 0.000000 0.000000 0.047962 0.000000 0.022202
# 5 0.005417 0.001394 0.005142 0.000000 0.043904 0.000000
# 6 0.000000 0.000000 0.000000 0.022202 0.000000 0.055788
#
#
# Mechanical properties :
#
#
# Convention : Reuss Voigt Hill
#
# Bulk Modulus (GPa) = 44.87342 57.33176 51.10259
# Shear Modulus (GPa) = 22.47338 27.13386 24.80362
#
# Velocity S-wave (km/s) = 3.20524 3.52194 3.36732
# Velocity P-wave (km/s) = 5.84908 6.53817 6.20320
#
# Compressibility (1/GPa) = 0.02228491
#
# Stress axis : x y z
#
# Youngs Moduli (GPa) = 66.68181 55.64706 84.19571
#
# Poissons Ratio (x) = 0.39483 0.36535
# Poissons Ratio (y) = 0.47313 -0.01305
# Poissons Ratio (z) = 0.28935 -0.00863
#
# Static dielectric constant tensor:
#      x y z
#    x 4.056160 0.000000 -0.073210 
#    y 0.000000 4.018890 0.000000 
#    z -0.073210 0.000000 4.066100 
# 
# 
# High freq. dielectric constant tensor:
#      x y z
#    x 1.871450 0.000000 -0.003480 
#    y 0.000000 1.842290 0.000000 
#    z -0.003480 0.000000 1.867410 
# 
# From -- ./inp_files/125927.got.cif
#   From: 2010.06.25/outbox.cif.g09.slc.cpg/sg15_63_cif.got.tgz:125927.got - 2010.06.28 07:06:18.
