data_PCOD8153088
_publ_section_title
;
Structure prediction by ZEFSAII (Michael W. Deem and Ramdas Pophale) SiO2 
 PCOD8153088
Probable space group: C 2/C
;
_chemical_formula_sum "Si O2"
_cell_formula_units_Z 64
_cell_length_a 14.067695
_cell_length_b 11.483191
_cell_length_c 23.682544
_cell_angle_alpha 90.000000
_cell_angle_beta 136.065393
_cell_angle_gamma 90.000000
_cell_volume 2654.430080
_symmetry_space_group_name_H-M "C 2/C"
_symmetry_group_IT_number 15
_symmetry_cell_setting 'monoclinic'
loop_
_space_group_symop_operation_xyz
x,y,z
-x,y,1/2-z
-x,-y,-z
x,-y,1/2+z
1/2+x,1/2+y,z
1/2-x,1/2+y,1/2-z
1/2-x,1/2-y,-z
1/2+x,1/2-y,1/2+z
loop_
_atom_site_type_symbol
_atom_site_label
_atom_site_fract_x
_atom_site_fract_y
_atom_site_fract_z
Si Si1 0.375467 0.068293 0.806510
Si Si2 0.583908 0.373771 0.146802
Si Si3 0.409587 0.832778 0.766813
Si Si4 0.417303 0.512438 0.159628
Si Si5 0.369147 0.339436 0.913685
Si Si6 0.133247 0.576956 0.569290
Si Si7 0.421367 0.214379 0.660747
Si Si8 0.858175 0.085291 0.951886
O O1 0.448147 0.956489 0.809854
O O2 0.244247 0.097504 0.713595
O O3 0.327020 0.049384 0.849305
O O4 0.485471 0.173853 0.852216
O O5 0.550656 0.256931 0.166896
O O6 0.496741 0.476926 0.137318
O O7 0.559228 0.367985 0.069258
O O8 0.500000 0.807075 0.750000
O O9 0.246887 0.822441 0.684229
O O10 0.500000 0.465495 0.250000
O O11 0.264087 0.462091 0.089121
O O12 0.403484 0.649677 0.156139
O O13 0.388304 0.214172 0.952549
O O14 0.318386 0.447871 0.932138
O O15 0.516809 0.383607 0.950903
O O16 0.000000 0.500000 0.500000
O O17 0.500000 0.166596 0.750000
O O18 0.273050 0.159215 0.589222
#
# Coordination Sequence:
#
# PCOD8153088 Si02
#       8
#     8   8   8   8   8   8   8   8
#     4  12  25  42  74 102 133 185 235 281 351 413
#     4  12  24  42  73 104 131 185 235 278 349 415
#     4  12  25  45  72 103 140 180 237 289 340 417
#     4  11  24  43  70 101 141 177 232 286 351 412
#     4  11  23  44  71  94 147 180 227 292 351 400
#     4  12  27  48  68 104 146 185 231 297 352 416
#     4  11  23  42  71 104 141 177 232 291 338 424
#     4  11  25  44  70 105 140 185 231 290 353 411
#
# _framework density 24.110636
#
# number of rings (size 3 to 8) (size 9 to 14) (size 15 to 20)
#    0.000    0.500    5.000    3.000    7.000    0.000 
#    6.750    2.500    0.000    0.000    0.000    0.000 
#    0.000    0.000    0.000    0.000    0.000    0.000 
#
# Total GULP energy -396687.819091 kJ/mol
# GULP energy per Si atom -12396.494347 kJ/mol
# Density = 2.405576 g / cm^3
# Si number density = 24.110636 Si / 1000 Ang^3
#
#
#
# Elastic Constant Matrix: (Units=GPa)
#
#
# Indices 1 2 3 4 5 6 
#
# 1 110.8999 26.0606 18.0799 0.0000 19.9077 0.0000
# 2 26.0606 151.4872 19.4829 0.0000 11.1159 0.0000
# 3 18.0799 19.4829 77.2159 0.0000 28.9634 0.0000
# 4 0.0000 0.0000 0.0000 39.2167 0.0000 7.5124
# 5 19.9077 11.1159 28.9634 0.0000 44.5390 0.0000
# 6 0.0000 0.0000 0.0000 7.5124 0.0000 31.8017
#
#
#
# Elastic Compliance Matrix: (Units=1/GPa)
#
#
# Indices 1 2 3 4 5 6 
#
# 1 0.010121 -0.001386 -0.000599 0.000000 -0.003788 0.000000
# 2 -0.001386 0.007033 -0.001354 0.000000 -0.000255 0.000000
# 3 -0.000599 -0.001354 0.017466 0.000000 -0.010752 0.000000
# 4 0.000000 0.000000 0.000000 0.026708 0.000000 -0.006309
# 5 -0.003788 -0.000255 -0.010752 0.000000 0.031201 0.000000
# 6 0.000000 0.000000 0.000000 -0.006309 0.000000 0.032935
#
#
# Mechanical properties :
#
#
# Convention : Reuss Voigt Hill
#
# Bulk Modulus (GPa) = 35.79083 51.87219 43.83151
# Shear Modulus (GPa) = 35.34688 41.51012 38.42850
#
# Velocity S-wave (km/s) = 3.83303 4.15378 3.99662
# Velocity P-wave (km/s) = 5.87079 6.67579 6.28619
#
# Compressibility (1/GPa) = 0.02794012
#
# Stress axis : x y z
#
# Youngs Moduli (GPa) = 98.80922 142.19613 57.25484
#
# Poissons Ratio (x) = 0.19709 0.03430
# Poissons Ratio (y) = 0.13695 0.07754
# Poissons Ratio (z) = 0.05919 0.19257
#
# Static dielectric constant tensor:
#      x y z
#    x 4.084450 0.000000 0.008840 
#    y 0.000000 4.502220 0.000000 
#    z 0.008840 0.000000 4.614620 
# 
# 
# High freq. dielectric constant tensor:
#      x y z
#    x 1.943990 0.000000 0.015850 
#    y 0.000000 1.977260 0.000000 
#    z 0.015850 0.000000 1.959910 
# 
# From -- ./inp_files/296156.got.cif
#   From: 2010.06.25/outbox.cif.g09.slc.cpg/sg15_149_cif.got.tgz:296156.got - 2010.06.28 07:06:18.
