data_PCOD8153828
_publ_section_title
;
Structure prediction by ZEFSAII (Michael W. Deem and Ramdas Pophale) SiO2 
 PCOD8153828
Probable space group: C 2/C
;
_chemical_formula_sum "Si O2"
_cell_formula_units_Z 40
_cell_length_a 23.424322
_cell_length_b 8.624498
_cell_length_c 9.155181
_cell_angle_alpha 90.000000
_cell_angle_beta 66.077642
_cell_angle_gamma 90.000000
_cell_volume 1690.672541
_symmetry_space_group_name_H-M "C 2/C"
_symmetry_group_IT_number 15
_symmetry_cell_setting 'monoclinic'
loop_
_space_group_symop_operation_xyz
x,y,z
-x,y,1/2-z
-x,-y,-z
x,-y,1/2+z
1/2+x,1/2+y,z
1/2-x,1/2+y,1/2-z
1/2-x,1/2-y,-z
1/2+x,1/2-y,1/2+z
loop_
_atom_site_type_symbol
_atom_site_label
_atom_site_fract_x
_atom_site_fract_y
_atom_site_fract_z
Si Si1 0.179624 0.365486 0.447266
Si Si2 0.002528 0.333114 0.921513
Si Si3 0.882970 0.314012 0.510583
Si Si4 0.109991 0.817652 0.803826
Si Si5 0.320376 0.632528 0.791081
O O1 0.129734 0.504700 0.502711
O O2 0.169872 0.274536 0.305259
O O3 0.249939 0.431122 0.384204
O O4 0.163408 0.249533 0.595016
O O5 0.000000 0.348477 0.750000
O O6 0.068649 0.270370 0.910038
O O7 0.948523 0.213325 0.028251
O O8 0.000000 0.500000 0.000000
O O9 0.908773 0.245716 0.334365
O O10 0.821480 0.225743 0.635239
O O11 0.128789 0.996192 0.767202
#
# Coordination Sequence:
#
# PCOD8153828 Si02
#       5
#     8   8   8   8   8
#     4  11  24  45  72 104 149 198 246 306 366 454
#     4  12  26  47  75 107 139 189 248 301 366 452
#     4  12  25  44  74 105 141 196 249 301 372 445
#     4  12  25  44  72 106 147 191 248 315 366 439
#     4  11  26  45  69 109 150 193 248 309 375 430
#
# _framework density 23.659223000000001
#
# number of rings (size 3 to 8) (size 9 to 14) (size 15 to 20)
#    0.000    0.400    2.000    6.600    0.000    7.200 
#    0.000    2.000    0.000    0.000    0.000    0.000 
#    0.000    0.000    0.000    0.000    0.000    0.000 
#
# Total GULP energy -247989.301419 kJ/mol
# GULP energy per Si atom -12399.465071 kJ/mol
# Density = 2.360537 g / cm^3
# Si number density = 23.659223 Si / 1000 Ang^3
#
#
#
# Elastic Constant Matrix: (Units=GPa)
#
#
# Indices 1 2 3 4 5 6 
#
# 1 123.0466 59.4180 68.0459 0.0000 3.1869 0.0000
# 2 59.4180 150.1735 62.9325 0.0000 -9.9254 0.0000
# 3 68.0459 62.9325 181.2237 0.0000 15.5560 0.0000
# 4 0.0000 0.0000 0.0000 42.9799 0.0000 -6.3332
# 5 3.1869 -9.9254 15.5560 0.0000 38.5231 0.0000
# 6 0.0000 0.0000 0.0000 -6.3332 0.0000 32.6460
#
#
#
# Elastic Compliance Matrix: (Units=1/GPa)
#
#
# Indices 1 2 3 4 5 6 
#
# 1 0.011436 -0.003252 -0.003120 0.000000 -0.000524 0.000000
# 2 -0.003252 0.009121 -0.002249 0.000000 0.003527 0.000000
# 3 -0.003120 -0.002249 0.007767 0.000000 -0.003458 0.000000
# 4 0.000000 0.000000 0.000000 0.023951 0.000000 0.004646
# 5 -0.000524 0.003527 -0.003458 0.000000 0.028307 0.000000
# 6 0.000000 0.000000 0.000000 0.004646 0.000000 0.031533
#
#
# Mechanical properties :
#
#
# Convention : Reuss Voigt Hill
#
# Bulk Modulus (GPa) = 90.22988 92.80407 91.51697
# Shear Modulus (GPa) = 37.57905 40.43297 39.00601
#
# Velocity S-wave (km/s) = 3.98973 4.13846 4.06477
# Velocity P-wave (km/s) = 7.70999 7.88329 7.79712
#
# Compressibility (1/GPa) = 0.01108280
#
# Stress axis : x y z
#
# Youngs Moduli (GPa) = 87.44114 109.63194 128.74441
#
# Poissons Ratio (x) = 0.35654 0.40165
# Poissons Ratio (y) = 0.28437 0.28957
# Poissons Ratio (z) = 0.27279 0.24658
#
# Static dielectric constant tensor:
#      x y z
#    x 4.603550 0.000000 0.097090 
#    y 0.000000 4.189510 0.000000 
#    z 0.097090 0.000000 4.267400 
# 
# 
# High freq. dielectric constant tensor:
#      x y z
#    x 1.945970 0.000000 0.001100 
#    y 0.000000 1.936420 0.000000 
#    z 0.001100 0.000000 1.949580 
# 
# From -- ./inp_files/59922.got.cif
#   From: 2010.06.25/outbox.cif.g09.slc.cpg/sg15_30_cif.got.tgz:59922.got - 2010.06.28 07:06:18.
