data_PCOD8153532
_publ_section_title
;
Structure prediction by ZEFSAII (Michael W. Deem and Ramdas Pophale) SiO2 
 PCOD8153532
Probable space group: C 2/C
;
_chemical_formula_sum "Si O2"
_cell_formula_units_Z 48
_cell_length_a 16.382541
_cell_length_b 14.757757
_cell_length_c 14.036181
_cell_angle_alpha 90.000000
_cell_angle_beta 38.165526
_cell_angle_gamma 90.000000
_cell_volume 2096.977091
_symmetry_space_group_name_H-M "C 2/C"
_symmetry_group_IT_number 15
_symmetry_cell_setting 'monoclinic'
loop_
_space_group_symop_operation_xyz
x,y,z
-x,y,1/2-z
-x,-y,-z
x,-y,1/2+z
1/2+x,1/2+y,z
1/2-x,1/2+y,1/2-z
1/2-x,1/2-y,-z
1/2+x,1/2-y,1/2+z
loop_
_atom_site_type_symbol
_atom_site_label
_atom_site_fract_x
_atom_site_fract_y
_atom_site_fract_z
Si Si1 0.500000 0.567111 0.250000
Si Si2 0.624355 0.495847 0.954932
Si Si3 0.063745 0.659741 0.033207
Si Si4 0.876914 0.594870 0.714755
Si Si5 0.268697 0.809519 0.780573
Si Si6 0.678748 0.721369 0.161183
Si Si7 0.500000 0.040762 0.250000
O O1 0.421608 0.501850 0.393318
O O2 0.594844 0.630982 0.224960
O O3 0.718465 0.582384 0.846660
O O4 0.709148 0.405904 0.862849
O O5 0.500000 0.500000 0.000000
O O6 0.099343 0.603372 0.096243
O O7 0.917458 0.702171 0.182851
O O8 0.055715 0.589950 0.950977
O O9 0.175753 0.733988 0.913581
O O10 0.912430 0.693350 0.725668
O O11 0.920191 0.517870 0.747855
O O12 0.277564 0.799006 0.657831
O O13 0.750000 0.750000 0.000000
#
# Coordination Sequence:
#
# PCOD8153532 Si02
#       7
#     4   8   8   8   8   8   4
#     4  12  25  43  70 110 138 192 236 301 359 440
#     4  12  26  46  69 110 149 190 241 301 376 429
#     4  11  28  48  76 105 147 196 247 302 374 431
#     4  11  26  44  74 107 143 187 245 307 363 433
#     4  11  27  49  71 106 152 192 243 308 366 438
#     4  11  24  40  71 102 141 180 239 294 371 421
#     4  12  25  47  72 104 140 196 250 295 361 448
#
# _framework density 22.890091999999999
#
# number of rings (size 3 to 8) (size 9 to 14) (size 15 to 20)
#    0.000    0.667    5.000    1.000   11.667    2.667 
#    0.000    0.000    0.000    0.000    0.000    0.000 
#    0.000    0.000    0.000    0.000    0.000    0.000 
#
# Total GULP energy -297567.448518 kJ/mol
# GULP energy per Si atom -12398.643688 kJ/mol
# Density = 2.283799 g / cm^3
# Si number density = 22.890092 Si / 1000 Ang^3
#
#
#
# Elastic Constant Matrix: (Units=GPa)
#
#
# Indices 1 2 3 4 5 6 
#
# 1 84.2217 42.4177 50.8810 0.0002 5.0229 -0.0001
# 2 42.4177 96.5786 58.8517 0.0001 18.3325 -0.0001
# 3 50.8810 58.8517 151.0395 0.0002 19.1561 -0.0001
# 4 0.0002 0.0001 0.0002 40.6733 -0.0002 16.2662
# 5 5.0229 18.3325 19.1561 -0.0002 53.4347 0.0001
# 6 -0.0001 -0.0001 -0.0001 16.2662 0.0001 31.1226
#
#
#
# Elastic Compliance Matrix: (Units=1/GPa)
#
#
# Indices 1 2 3 4 5 6 
#
# 1 0.016753 -0.005378 -0.003753 0.000000 0.001616 0.000000
# 2 -0.005378 0.015745 -0.003879 0.000000 -0.003506 0.000000
# 3 -0.003753 -0.003879 0.009620 0.000000 -0.001765 0.000000
# 4 0.000000 0.000000 0.000000 0.031083 0.000000 -0.016246
# 5 0.001616 -0.003506 -0.001765 0.000000 0.020398 0.000000
# 6 0.000000 0.000000 0.000000 -0.016246 0.000000 0.040622
#
#
# Mechanical properties :
#
#
# Convention : Reuss Voigt Hill
#
# Bulk Modulus (GPa) = 62.11433 70.68228 66.39831
# Shear Modulus (GPa) = 30.19199 37.02543 33.60871
#
# Velocity S-wave (km/s) = 3.63574 4.02622 3.83595
# Velocity P-wave (km/s) = 6.69475 7.24982 6.97781
#
# Compressibility (1/GPa) = 0.01609934
#
# Stress axis : x y z
#
# Youngs Moduli (GPa) = 59.69145 63.51135 103.94613
#
# Poissons Ratio (x) = 0.34154 0.39012
# Poissons Ratio (y) = 0.32099 0.40319
# Poissons Ratio (z) = 0.22403 0.24635
#
# Static dielectric constant tensor:
#      x y z
#    x 4.272130 0.000000 0.178330 
#    y 0.000000 4.320330 0.000000 
#    z 0.178330 0.000000 4.331490 
# 
# 
# High freq. dielectric constant tensor:
#      x y z
#    x 1.901750 0.000000 0.014850 
#    y 0.000000 1.910190 0.000000 
#    z 0.014850 0.000000 1.913360 
# 
# From -- ./inp_files/162170.got.cif
#   From: 2010.06.25/outbox.cif.g09.slc.cpg/sg15_82_cif.got.tgz:162170.got - 2010.06.28 07:06:18.
