data_PCOD8153673
_publ_section_title
;
Structure prediction by ZEFSAII (Michael W. Deem and Ramdas Pophale) SiO2 
 PCOD8153673
Probable space group: C 2/C
;
_chemical_formula_sum "Si O2"
_cell_formula_units_Z 36
_cell_length_a 21.579661
_cell_length_b 7.435322
_cell_length_c 8.822460
_cell_angle_alpha 90.000000
_cell_angle_beta 89.516642
_cell_angle_gamma 90.000000
_cell_volume 1415.528581
_symmetry_space_group_name_H-M "C 2/C"
_symmetry_group_IT_number 15
_symmetry_cell_setting 'monoclinic'
loop_
_space_group_symop_operation_xyz
x,y,z
-x,y,1/2-z
-x,-y,-z
x,-y,1/2+z
1/2+x,1/2+y,z
1/2-x,1/2+y,1/2-z
1/2-x,1/2-y,-z
1/2+x,1/2-y,1/2+z
loop_
_atom_site_type_symbol
_atom_site_label
_atom_site_fract_x
_atom_site_fract_y
_atom_site_fract_z
Si Si1 0.396107 0.179490 0.439590
Si Si2 0.192371 0.820921 0.633477
Si Si3 0.676422 0.963210 0.823551
Si Si4 0.118484 0.962527 0.374828
Si Si5 0.000000 0.770764 0.250000
O O1 0.374565 0.022174 0.551101
O O2 0.392298 0.372608 0.512813
O O3 0.466741 0.146165 0.378904
O O4 0.353670 0.186833 0.286609
O O5 0.193942 0.631786 0.717928
O O6 0.160405 0.971631 0.736207
O O7 0.261979 0.889880 0.594356
O O8 0.154965 0.808681 0.473134
O O9 0.051440 0.898474 0.323341
#
# Coordination Sequence:
#
# PCOD8153673 Si02
#       5
#     8   8   8   8   4
#     4  11  26  47  72 106 145 188 239 291 355 422
#     4  11  24  43  76 107 145 181 237 298 364 424
#     4  11  26  46  73 113 144 182 236 298 367 427
#     4  11  24  46  74 106 138 197 238 295 350 423
#     4  12  26  48  76 100 146 194 250 284 346 430
#
# _framework density 25.432199000000001
#
# number of rings (size 3 to 8) (size 9 to 14) (size 15 to 20)
#    0.000    0.889    2.222    3.333    3.111    6.222 
#    0.000    0.000    0.000    0.000    0.000    0.000 
#    0.000    0.000    0.000    0.000    0.000    0.000 
#
# Total GULP energy -223278.447438 kJ/mol
# GULP energy per Si atom -12404.358191 kJ/mol
# Density = 2.537431 g / cm^3
# Si number density = 25.432199 Si / 1000 Ang^3
#
#
#
# Elastic Constant Matrix: (Units=GPa)
#
#
# Indices 1 2 3 4 5 6 
#
# 1 207.6523 78.4362 76.4591 0.0000 -11.0556 0.0000
# 2 78.4362 99.5893 42.8924 0.0000 11.2416 0.0000
# 3 76.4591 42.8924 136.7443 0.0000 -0.7442 0.0000
# 4 0.0000 0.0000 0.0000 42.6920 0.0000 3.6783
# 5 -11.0556 11.2416 -0.7442 0.0000 65.6608 0.0000
# 6 0.0000 0.0000 0.0000 3.6783 0.0000 33.0963
#
#
#
# Elastic Compliance Matrix: (Units=1/GPa)
#
#
# Indices 1 2 3 4 5 6 
#
# 1 0.007969 -0.005334 -0.002771 0.000000 0.002224 0.000000
# 2 -0.005334 0.015457 -0.001885 0.000000 -0.003566 0.000000
# 3 -0.002771 -0.001885 0.009453 0.000000 -0.000037 0.000000
# 4 0.000000 0.000000 0.000000 0.023650 0.000000 -0.002628
# 5 0.002224 -0.003566 -0.000037 0.000000 0.016214 0.000000
# 6 0.000000 0.000000 0.000000 -0.002628 0.000000 0.030507
#
#
# Mechanical properties :
#
#
# Convention : Reuss Voigt Hill
#
# Bulk Modulus (GPa) = 77.52376 93.28456 85.40416
# Shear Modulus (GPa) = 39.20634 44.70303 41.95468
#
# Velocity S-wave (km/s) = 3.93058 4.19708 4.06602
# Velocity P-wave (km/s) = 7.15178 7.76187 7.46307
#
# Compressibility (1/GPa) = 0.01289927
#
# Stress axis : x y z
#
# Youngs Moduli (GPa) = 125.48340 64.69600 105.78439
#
# Poissons Ratio (x) = 0.34510 0.29309
# Poissons Ratio (y) = 0.66936 0.19942
# Poissons Ratio (z) = 0.34766 0.12196
#
# Static dielectric constant tensor:
#      x y z
#    x 4.685860 0.000000 -0.204900 
#    y 0.000000 4.851300 0.000000 
#    z -0.204900 0.000000 5.293250 
# 
# 
# High freq. dielectric constant tensor:
#      x y z
#    x 2.014870 0.000000 -0.012400 
#    y 0.000000 2.041880 0.000000 
#    z -0.012400 0.000000 2.055360 
# 
# From -- ./inp_files/53603.got.cif
#   From: 2010.06.25/outbox.cif.g09.slc.cpg/sg15_27_cif.got.tgz:53603.got - 2010.06.28 07:06:18.
