data_PCOD8153394
_publ_section_title
;
Structure prediction by ZEFSAII (Michael W. Deem and Ramdas Pophale) SiO2 
 PCOD8153394
Probable space group: C 2/C
;
_chemical_formula_sum "Si O2"
_cell_formula_units_Z 48
_cell_length_a 8.416952
_cell_length_b 18.162731
_cell_length_c 14.837939
_cell_angle_alpha 90.000000
_cell_angle_beta 88.193924
_cell_angle_gamma 90.000000
_cell_volume 2267.220615
_symmetry_space_group_name_H-M "C 2/C"
_symmetry_group_IT_number 15
_symmetry_cell_setting 'monoclinic'
loop_
_space_group_symop_operation_xyz
x,y,z
-x,y,1/2-z
-x,-y,-z
x,-y,1/2+z
1/2+x,1/2+y,z
1/2-x,1/2+y,1/2-z
1/2-x,1/2-y,-z
1/2+x,1/2-y,1/2+z
loop_
_atom_site_type_symbol
_atom_site_label
_atom_site_fract_x
_atom_site_fract_y
_atom_site_fract_z
Si Si1 0.602743 0.319823 0.661324
Si Si2 0.090900 0.060757 0.437958
Si Si3 0.368593 0.924801 0.679820
Si Si4 0.827608 0.039132 0.725989
Si Si5 0.437989 0.081552 0.494918
Si Si6 0.594973 0.842512 0.157112
O O1 0.500000 0.305802 0.750000
O O2 0.525351 0.370381 0.583256
O O3 0.754172 0.357931 0.703295
O O4 0.648014 0.238842 0.622297
O O5 0.248151 0.089401 0.486200
O O6 0.149818 0.028268 0.342657
O O7 0.000000 0.000000 0.500000
O O8 0.500000 0.940100 0.750000
O O9 0.455818 0.893021 0.590408
O O10 0.267521 0.003218 0.685361
O O11 0.744331 0.104828 0.673266
O O12 0.000000 0.070058 0.750000
O O13 0.479807 0.125981 0.583184
O O14 0.500000 0.000000 0.500000
O O15 0.500000 0.837684 0.250000
#
# Coordination Sequence:
#
# PCOD8153394 Si02
#       6
#     8   8   8   8   8   8
#     4  11  23  46  66  95 142 184 217 283 356 402
#     4  12  24  41  69 100 130 178 230 278 340 414
#     4  12  21  40  70  96 132 175 232 275 335 420
#     4  12  23  41  69 100 131 179 232 279 337 410
#     4  12  23  40  68 100 132 174 227 284 340 402
#     4  11  27  44  65  99 140 176 227 288 346 409
#
# _framework density 21.171298
#
# number of rings (size 3 to 8) (size 9 to 14) (size 15 to 20)
#    0.000    0.333    6.667    2.500    2.333    2.000 
#    0.000    0.000    0.000    0.000    0.000    0.000 
#    0.000    0.000    0.000    0.000    0.000    0.000 
#
# Total GULP energy -297352.544075 kJ/mol
# GULP energy per Si atom -12389.689336 kJ/mol
# Density = 2.112311 g / cm^3
# Si number density = 21.171298 Si / 1000 Ang^3
#
#
#
# Elastic Constant Matrix: (Units=GPa)
#
#
# Indices 1 2 3 4 5 6 
#
# 1 139.2265 47.9080 28.9792 0.0000 18.9876 0.0000
# 2 47.9080 144.2753 30.6101 0.0000 12.8187 0.0000
# 3 28.9792 30.6101 86.5350 0.0000 5.6361 0.0000
# 4 0.0000 0.0000 0.0000 38.7999 0.0000 20.9943
# 5 18.9876 12.8187 5.6361 0.0000 33.7469 0.0000
# 6 0.0000 0.0000 0.0000 20.9943 0.0000 18.1175
#
#
#
# Elastic Compliance Matrix: (Units=1/GPa)
#
#
# Indices 1 2 3 4 5 6 
#
# 1 0.008863 -0.002190 -0.001944 0.000000 -0.003830 0.000000
# 2 -0.002190 0.008237 -0.002079 0.000000 -0.001549 0.000000
# 3 -0.001944 -0.002079 0.012961 0.000000 -0.000281 0.000000
# 4 0.000000 0.000000 0.000000 0.069099 0.000000 -0.080071
# 5 -0.003830 -0.001549 -0.000281 0.000000 0.032423 0.000000
# 6 0.000000 0.000000 0.000000 -0.080071 0.000000 0.147981
#
#
# Mechanical properties :
#
#
# Convention : Reuss Voigt Hill
#
# Bulk Modulus (GPa) = 56.70822 65.00351 60.85586
# Shear Modulus (GPa) = 16.78586 35.63550 26.21068
#
# Velocity S-wave (km/s) = 2.81883 4.10713 3.52238
# Velocity P-wave (km/s) = 6.11866 7.29806 6.73423
#
# Compressibility (1/GPa) = 0.01763413
#
# Stress axis : x y z
#
# Youngs Moduli (GPa) = 112.82580 121.39826 77.15548
#
# Poissons Ratio (x) = 0.26591 0.14998
# Poissons Ratio (y) = 0.24713 0.16044
# Poissons Ratio (z) = 0.21932 0.25243
#
# Static dielectric constant tensor:
#      x y z
#    x 3.528100 0.000000 0.310610 
#    y 0.000000 4.143270 0.000000 
#    z 0.310610 0.000000 3.683670 
# 
# 
# High freq. dielectric constant tensor:
#      x y z
#    x 1.844880 0.000000 0.000610 
#    y 0.000000 1.817250 0.000000 
#    z 0.000610 0.000000 1.834190 
# 
# From -- ./inp_files/134819.got.cif
#   From: 2010.06.25/outbox.cif.g09.slc.cpg/sg15_68_cif.got.tgz:134819.got - 2010.06.28 07:06:18.
