data_PCOD8153402
_publ_section_title
;
Structure prediction by ZEFSAII (Michael W. Deem and Ramdas Pophale) SiO2 
 PCOD8153402
Probable space group: C 2/C
;
_chemical_formula_sum "Si O2"
_cell_formula_units_Z 60
_cell_length_a 15.782394
_cell_length_b 17.627008
_cell_length_c 11.839650
_cell_angle_alpha 90.000000
_cell_angle_beta 62.006024
_cell_angle_gamma 90.000000
_cell_volume 2908.369283
_symmetry_space_group_name_H-M "C 2/C"
_symmetry_group_IT_number 15
_symmetry_cell_setting 'monoclinic'
loop_
_space_group_symop_operation_xyz
x,y,z
-x,y,1/2-z
-x,-y,-z
x,-y,1/2+z
1/2+x,1/2+y,z
1/2-x,1/2+y,1/2-z
1/2-x,1/2-y,-z
1/2+x,1/2-y,1/2+z
loop_
_atom_site_type_symbol
_atom_site_label
_atom_site_fract_x
_atom_site_fract_y
_atom_site_fract_z
Si Si1 0.311885 0.821366 0.427284
Si Si2 0.314746 0.433309 0.604033
Si Si3 0.649908 0.083320 0.378152
Si Si4 0.177152 0.900266 0.337912
Si Si5 0.974407 0.665155 0.390998
Si Si6 0.000000 0.758180 0.750000
Si Si7 0.207498 0.427352 0.445208
Si Si8 0.987059 0.818423 0.516068
O O1 0.250000 0.750000 0.500000
O O2 0.342123 0.860851 0.522801
O O3 0.253046 0.879184 0.387220
O O4 0.406915 0.795396 0.301702
O O5 0.234220 0.398660 0.736693
O O6 0.353934 0.511929 0.631064
O O7 0.273759 0.454005 0.506755
O O8 0.399228 0.372655 0.539996
O O9 0.548574 0.099605 0.382039
O O10 0.653931 0.996879 0.417161
O O11 0.225908 0.884446 0.186870
O O12 0.083216 0.849626 0.400139
O O13 0.869067 0.630215 0.456277
O O14 0.971690 0.734855 0.478208
O O15 0.000000 0.694394 0.250000
O O16 0.998973 0.813848 0.858091
#
# Coordination Sequence:
#
# PCOD8153402 Si02
#       8
#     8   8   8   8   8   4   8   8
#     4  12  22  43  70  98 138 172 223 281 333 395
#     4  11  25  45  69  97 132 177 225 275 335 396
#     4  11  23  46  68  98 134 172 224 277 332 398
#     4  11  25  45  69  98 133 176 224 279 334 392
#     4  12  25  45  68 100 138 176 218 274 336 403
#     4  12  24  42  70 104 132 178 228 280 338 392
#     4  11  25  45  70  98 131 175 223 275 338 399
#     4  12  27  43  67 101 134 179 226 272 333 400
#
# _framework density 20.630118
#
# number of rings (size 3 to 8) (size 9 to 14) (size 15 to 20)
#    0.000    0.533    5.333    2.400    1.867    1.600 
#    1.200    0.000    0.000    0.000    0.000    0.000 
#    0.000    0.000    0.000    0.000    0.000    0.000 
#
# Total GULP energy -372208.407797 kJ/mol
# GULP energy per Si atom -12406.946927 kJ/mol
# Density = 2.058316 g / cm^3
# Si number density = 20.630118 Si / 1000 Ang^3
#
#
#
# Elastic Constant Matrix: (Units=GPa)
#
#
# Indices 1 2 3 4 5 6 
#
# 1 85.1663 27.8890 26.9836 0.0000 -16.5347 0.0000
# 2 27.8890 80.0461 24.7543 0.0000 -16.5199 0.0000
# 3 26.9836 24.7543 116.0732 0.0000 -9.8992 0.0000
# 4 0.0000 0.0000 0.0000 -29.3979 0.0000 -183.6317
# 5 -16.5347 -16.5199 -9.8992 0.0000 35.5571 0.0000
# 6 0.0000 0.0000 0.0000 -183.6317 0.0000 -494.3368
#
#
#
# Elastic Compliance Matrix: (Units=1/GPa)
#
#
# Indices 1 2 3 4 5 6 
#
# 1 0.014445 -0.003407 -0.002247 0.000000 0.004508 0.000000
# 2 -0.003407 0.015342 -0.002056 0.000000 0.004971 0.000000
# 3 -0.002247 -0.002056 0.009634 0.000000 0.000682 0.000000
# 4 0.000000 0.000000 0.000000 0.025763 0.000000 -0.009570
# 5 0.004508 0.004971 0.000682 0.000000 0.032720 0.000000
# 6 0.000000 0.000000 0.000000 -0.009570 0.000000 0.001532
#
#
# Mechanical properties :
#
#
# Convention : Reuss Voigt Hill
#
# Bulk Modulus (GPa) = 41.66571 48.94882 45.30726
# Shear Modulus (GPa) = 40.69835 -84.19162 -21.74663
#
# Velocity S-wave (km/s) = 4.44640 -6.39520 -3.25024
# Velocity P-wave (km/s) = 6.82649 5.54555 2.81495
#
# Compressibility (1/GPa) = 0.02400055
#
# Stress axis : x y z
#
# Youngs Moduli (GPa) = 69.22945 65.18210 103.79717
#
# Poissons Ratio (x) = 0.22210 0.23321
# Poissons Ratio (y) = 0.23590 0.21338
# Poissons Ratio (z) = 0.15554 0.13400
#
# Static dielectric constant tensor:
#      x y z
#    x 3.785270 0.000000 -0.003900 
#    y 0.000000 3.594170 0.000000 
#    z -0.003900 0.000000 3.941290 
# 
# 
# High freq. dielectric constant tensor:
#      x y z
#    x 1.812610 0.000000 -0.001170 
#    y 0.000000 1.807650 0.000000 
#    z -0.001170 0.000000 1.826110 
# 
# From -- ./inp_files/98753.got.cif
#   From: 2010.06.25/outbox.cif.g09.slc.cpg/sg15_50_cif.got.tgz:98753.got - 2010.06.28 07:06:18.
