data_PCOD8153968
_publ_section_title
;
Structure prediction by ZEFSAII (Michael W. Deem and Ramdas Pophale) SiO2 
 PCOD8153968
Probable space group: C 2/C
;
_chemical_formula_sum "Si O2"
_cell_formula_units_Z 40
_cell_length_a 21.110983
_cell_length_b 7.747590
_cell_length_c 11.264942
_cell_angle_alpha 90.000000
_cell_angle_beta 105.499733
_cell_angle_gamma 90.000000
_cell_volume 1775.477298
_symmetry_space_group_name_H-M "C 2/C"
_symmetry_group_IT_number 15
_symmetry_cell_setting 'monoclinic'
loop_
_space_group_symop_operation_xyz
x,y,z
-x,y,1/2-z
-x,-y,-z
x,-y,1/2+z
1/2+x,1/2+y,z
1/2-x,1/2+y,1/2-z
1/2-x,1/2-y,-z
1/2+x,1/2-y,1/2+z
loop_
_atom_site_type_symbol
_atom_site_label
_atom_site_fract_x
_atom_site_fract_y
_atom_site_fract_z
Si Si1 0.819850 0.284400 0.291583
Si Si2 0.429374 0.595080 0.660845
Si Si3 0.364067 0.747085 0.056835
Si Si4 0.680389 0.599916 0.699081
Si Si5 0.070239 0.571249 0.498370
O O1 0.818063 0.255790 0.148868
O O2 0.751460 0.372513 0.296702
O O3 0.881306 0.400937 0.364585
O O4 0.825289 0.095163 0.353255
O O5 0.500000 0.562775 0.750000
O O6 0.412714 0.416278 0.587273
O O7 0.376172 0.643884 0.734548
O O8 0.435372 0.748439 0.570781
O O9 0.401989 0.927646 0.076065
O O10 0.323517 0.728623 0.914701
O O11 0.000000 0.500000 0.500000
#
# Coordination Sequence:
#
# PCOD8153968 Si02
#       5
#     8   8   8   8   8
#     4  11  26  46  72 108 143 187 238 293 359 425
#     4  11  27  46  72 104 142 190 238 294 359 420
#     4  11  26  46  72 103 144 185 237 294 359 422
#     4  11  24  47  73 104 148 185 236 297 355 426
#     4  12  28  45  74 104 143 189 242 293 353 425
#
# _framework density 22.529152
#
# number of rings (size 3 to 8) (size 9 to 14) (size 15 to 20)
#    0.000    0.800    2.000    3.000   14.000    4.000 
#    0.000    0.000    0.000    0.000    0.000    0.000 
#    0.000    0.000    0.000    0.000    0.000    0.000 
#
# Total GULP energy -248046.260707 kJ/mol
# GULP energy per Si atom -12402.313035 kJ/mol
# Density = 2.247787 g / cm^3
# Si number density = 22.529152 Si / 1000 Ang^3
#
#
#
# Elastic Constant Matrix: (Units=GPa)
#
#
# Indices 1 2 3 4 5 6 
#
# 1 155.7565 37.3396 39.7341 0.0000 25.3196 0.0000
# 2 37.3396 122.7621 18.3995 0.0000 -0.7617 0.0000
# 3 39.7341 18.3995 79.8659 0.0000 11.3686 0.0000
# 4 0.0000 0.0000 0.0000 34.7841 0.0000 1.3797
# 5 25.3196 -0.7617 11.3686 0.0000 33.1445 0.0000
# 6 0.0000 0.0000 0.0000 1.3797 0.0000 37.3145
#
#
#
# Elastic Compliance Matrix: (Units=1/GPa)
#
#
# Indices 1 2 3 4 5 6 
#
# 1 0.008624 -0.002211 -0.002982 0.000000 -0.005616 0.000000
# 2 -0.002211 0.009030 -0.001314 0.000000 0.002347 0.000000
# 3 -0.002982 -0.001314 0.014705 0.000000 -0.002796 0.000000
# 4 0.000000 0.000000 0.000000 0.028791 0.000000 -0.001065
# 5 -0.005616 0.002347 -0.002796 0.000000 0.035474 0.000000
# 6 0.000000 0.000000 0.000000 -0.001065 0.000000 0.026839
#
#
# Mechanical properties :
#
#
# Convention : Reuss Voigt Hill
#
# Bulk Modulus (GPa) = 51.69350 61.03678 56.36514
# Shear Modulus (GPa) = 34.98327 38.57604 36.77965
#
# Velocity S-wave (km/s) = 3.94483 4.14245 4.04485
# Velocity P-wave (km/s) = 6.61392 7.07326 6.84744
#
# Compressibility (1/GPa) = 0.01934479
#
# Stress axis : x y z
#
# Youngs Moduli (GPa) = 115.95679 110.74298 68.00278
#
# Poissons Ratio (x) = 0.24486 0.20276
# Poissons Ratio (y) = 0.25638 0.08939
# Poissons Ratio (z) = 0.34575 0.14557
#
# Static dielectric constant tensor:
#      x y z
#    x 4.024680 0.000000 0.104550 
#    y 0.000000 4.498350 0.000000 
#    z 0.104550 0.000000 3.940310 
# 
# 
# High freq. dielectric constant tensor:
#      x y z
#    x 1.891320 0.000000 0.008470 
#    y 0.000000 1.908950 0.000000 
#    z 0.008470 0.000000 1.884590 
# 
# From -- ./inp_files/102847.got.cif
#   From: 2010.06.25/outbox.cif.g09.slc.cpg/sg15_52_cif.got.tgz:102847.got - 2010.06.28 07:06:18.
