data_PCOD8153591
_publ_section_title
;
Structure prediction by ZEFSAII (Michael W. Deem and Ramdas Pophale) SiO2 
 PCOD8153591
Probable space group: C 2/C
;
_chemical_formula_sum "Si O2"
_cell_formula_units_Z 52
_cell_length_a 19.619717
_cell_length_b 22.510161
_cell_length_c 4.985297
_cell_angle_alpha 90.000000
_cell_angle_beta 82.389583
_cell_angle_gamma 90.000000
_cell_volume 2182.327554
_symmetry_space_group_name_H-M "C 2/C"
_symmetry_group_IT_number 15
_symmetry_cell_setting 'monoclinic'
loop_
_space_group_symop_operation_xyz
x,y,z
-x,y,1/2-z
-x,-y,-z
x,-y,1/2+z
1/2+x,1/2+y,z
1/2-x,1/2+y,1/2-z
1/2-x,1/2-y,-z
1/2+x,1/2-y,1/2+z
loop_
_atom_site_type_symbol
_atom_site_label
_atom_site_fract_x
_atom_site_fract_y
_atom_site_fract_z
Si Si1 0.615795 0.038222 0.170240
Si Si2 0.293120 0.802448 0.346575
Si Si3 0.500000 0.406139 0.750000
Si Si4 0.738097 0.120857 0.151482
Si Si5 0.642712 0.538631 0.273903
Si Si6 0.941268 0.733687 0.594143
Si Si7 0.500000 0.672029 0.750000
Si Si8 0.000000 0.371100 0.750000
O O1 0.693183 0.062768 0.114626
O O2 0.563987 0.088566 0.301073
O O3 0.603219 0.983052 0.374075
O O4 0.250000 0.750000 0.500000
O O5 0.297116 0.853612 0.563625
O O6 0.237784 0.670236 0.913841
O O7 0.367936 0.774938 0.264348
O O8 0.437792 0.446078 0.671984
O O9 0.526419 0.367812 0.483370
O O10 0.815212 0.098661 0.176399
O O11 0.661152 0.485973 0.471056
O O12 0.000000 0.763139 0.750000
O O13 0.936199 0.783168 0.359718
O O14 0.971883 0.669739 0.501963
#
# Coordination Sequence:
#
# PCOD8153591 Si02
#       8
#     8   8   4   8   8   8   4   4
#     4  12  25  43  68 102 143 190 246 297 351 424
#     4  12  28  48  75 109 150 193 247 303 367 447
#     4  12  26  47  78 112 148 179 248 312 378 442
#     4  12  26  49  72 106 149 196 240 303 368 439
#     4  12  26  49  77 108 146 194 245 305 376 443
#     4  11  25  46  76 104 153 195 247 301 375 438
#     4  11  26  45  74 114 144 193 238 305 376 446
#     4  11  24  42  70 104 146 190 246 297 366 410
#
# _framework density 23.827769
#
# number of rings (size 3 to 8) (size 9 to 14) (size 15 to 20)
#    0.000    0.308    2.308    6.000    6.462    1.231 
#    0.000    0.000    0.000    0.000    0.000    0.000 
#    0.000    0.000    0.000    0.000    0.000    0.000 
#
# Total GULP energy -322370.194493 kJ/mol
# GULP energy per Si atom -12398.853634 kJ/mol
# Density = 2.377354 g / cm^3
# Si number density = 23.827769 Si / 1000 Ang^3
#
#
#
# Elastic Constant Matrix: (Units=GPa)
#
#
# Indices 1 2 3 4 5 6 
#
# 1 136.8817 37.4949 49.4655 0.0000 -10.3499 0.0000
# 2 37.4949 90.4337 42.8766 0.0000 -2.9203 0.0000
# 3 49.4655 42.8766 135.7633 0.0000 -1.4385 0.0000
# 4 0.0000 0.0000 0.0000 50.6856 0.0000 -1.3973
# 5 -10.3499 -2.9203 -1.4385 0.0000 39.1001 0.0000
# 6 0.0000 0.0000 0.0000 -1.3973 0.0000 40.2612
#
#
#
# Elastic Compliance Matrix: (Units=1/GPa)
#
#
# Indices 1 2 3 4 5 6 
#
# 1 0.009050 -0.002506 -0.002483 0.000000 0.002117 0.000000
# 2 -0.002506 0.013726 -0.003419 0.000000 0.000236 0.000000
# 3 -0.002483 -0.003419 0.009344 0.000000 -0.000569 0.000000
# 4 0.000000 0.000000 0.000000 0.019748 0.000000 0.000685
# 5 0.002117 0.000236 -0.000569 0.000000 0.026132 0.000000
# 6 0.000000 0.000000 0.000000 0.000685 0.000000 0.024862
#
#
# Mechanical properties :
#
#
# Convention : Reuss Voigt Hill
#
# Bulk Modulus (GPa) = 65.35032 69.19474 67.27253
# Shear Modulus (GPa) = 40.07049 41.55884 40.81467
#
# Velocity S-wave (km/s) = 4.10527 4.18081 4.14321
# Velocity P-wave (km/s) = 7.06800 7.23935 7.15419
#
# Compressibility (1/GPa) = 0.01530215
#
# Stress axis : x y z
#
# Youngs Moduli (GPa) = 110.50260 72.85605 107.01666
#
# Poissons Ratio (x) = 0.18260 0.26575
# Poissons Ratio (y) = 0.27696 0.36591
# Poissons Ratio (z) = 0.27440 0.24911
#
# Static dielectric constant tensor:
#      x y z
#    x 4.221900 0.000000 0.066900 
#    y 0.000000 4.464100 0.000000 
#    z 0.066900 0.000000 4.622310 
# 
# 
# High freq. dielectric constant tensor:
#      x y z
#    x 1.934860 0.000000 -0.003860 
#    y 0.000000 1.960750 0.000000 
#    z -0.003860 0.000000 1.959450 
# 
# From -- ./inp_files/13347.got.cif
#   From: 2010.06.25/outbox.cif.g09.slc.cpg/sg15_7_cif.got.tgz:13347.got - 2010.06.28 07:06:18.
