data_PCOD8153953
_publ_section_title
;
Structure prediction by ZEFSAII (Michael W. Deem and Ramdas Pophale) SiO2 
 PCOD8153953
Probable space group: C 2/C
;
_chemical_formula_sum "Si O2"
_cell_formula_units_Z 44
_cell_length_a 6.820228
_cell_length_b 26.161173
_cell_length_c 11.705691
_cell_angle_alpha 90.000000
_cell_angle_beta 105.800452
_cell_angle_gamma 90.000000
_cell_volume 2009.674242
_symmetry_space_group_name_H-M "C 2/C"
_symmetry_group_IT_number 15
_symmetry_cell_setting 'monoclinic'
loop_
_space_group_symop_operation_xyz
x,y,z
-x,y,1/2-z
-x,-y,-z
x,-y,1/2+z
1/2+x,1/2+y,z
1/2-x,1/2+y,1/2-z
1/2-x,1/2-y,-z
1/2+x,1/2-y,1/2+z
loop_
_atom_site_type_symbol
_atom_site_label
_atom_site_fract_x
_atom_site_fract_y
_atom_site_fract_z
Si Si1 0.345720 0.664659 0.325708
Si Si2 0.000000 0.037090 0.750000
Si Si3 0.500000 0.243119 0.250000
Si Si4 0.200112 0.600143 0.854016
Si Si5 0.000000 0.409936 0.750000
Si Si6 0.360476 0.294944 0.444758
Si Si7 0.685336 0.032307 0.072507
O O1 0.500000 0.647319 0.250000
O O2 0.212957 0.713371 0.267638
O O3 0.478950 0.674787 0.455642
O O4 0.180289 0.622624 0.336341
O O5 0.874125 0.076462 0.804847
O O6 0.879410 0.001948 0.638857
O O7 0.504464 0.275435 0.365928
O O8 0.205717 0.661917 0.872143
O O9 0.000000 0.586310 0.750000
O O10 0.227193 0.574839 0.983327
O O11 0.112733 0.443041 0.676588
O O12 0.250000 0.250000 0.500000
O O13 0.500000 0.000000 0.000000
#
# Coordination Sequence:
#
# PCOD8153953 Si02
#       7
#     8   4   4   8   4   8   8
#     4  11  24  47  71 103 145 189 247 301 368 435
#     4  12  27  52  79 112 150 199 246 313 388 444
#     4  11  25  46  70 102 140 192 248 303 365 432
#     4  12  28  49  75 112 152 196 252 312 373 449
#     4  11  28  44  73 110 146 191 240 308 373 446
#     4  12  27  45  76 104 148 200 247 310 367 441
#     4  12  26  49  78 109 151 193 249 307 377 456
#
# _framework density 21.894093999999999
#
# number of rings (size 3 to 8) (size 9 to 14) (size 15 to 20)
#    0.000    0.364    3.636    3.818   11.455    1.455 
#    0.000    0.000    0.000    0.000    0.000    0.000 
#    0.000    0.000    0.000    0.000    0.000    0.000 
#
# Total GULP energy -272672.146424 kJ/mol
# GULP energy per Si atom -12394.188474 kJ/mol
# Density = 2.184426 g / cm^3
# Si number density = 21.894094 Si / 1000 Ang^3
#
#
#
# Elastic Constant Matrix: (Units=GPa)
#
#
# Indices 1 2 3 4 5 6 
#
# 1 120.5677 44.5597 39.5372 0.0000 -2.8844 0.0000
# 2 44.5597 118.1278 34.6481 0.0000 -4.8198 0.0000
# 3 39.5372 34.6481 111.8721 0.0000 -2.1352 0.0000
# 4 0.0000 0.0000 0.0000 62.6036 0.0000 24.2079
# 5 -2.8844 -4.8198 -2.1352 0.0000 53.1511 0.0000
# 6 0.0000 0.0000 0.0000 24.2079 0.0000 50.4546
#
#
#
# Elastic Compliance Matrix: (Units=1/GPa)
#
#
# Indices 1 2 3 4 5 6 
#
# 1 0.010324 -0.003100 -0.002685 0.000000 0.000171 0.000000
# 2 -0.003100 0.010270 -0.002072 0.000000 0.000680 0.000000
# 3 -0.002685 -0.002072 0.010531 0.000000 0.000089 0.000000
# 4 0.000000 0.000000 0.000000 0.019612 0.000000 -0.009410
# 5 0.000171 0.000680 0.000089 0.000000 0.018889 0.000000
# 6 0.000000 0.000000 0.000000 -0.009410 0.000000 0.024335
#
#
# Mechanical properties :
#
#
# Convention : Reuss Voigt Hill
#
# Bulk Modulus (GPa) = 64.88947 65.33973 65.11460
# Shear Modulus (GPa) = 43.54866 48.69670 46.12268
#
# Velocity S-wave (km/s) = 4.46473 4.72125 4.59478
# Velocity P-wave (km/s) = 7.50204 7.72196 7.61279
#
# Compressibility (1/GPa) = 0.01541082
#
# Stress axis : x y z
#
# Youngs Moduli (GPa) = 96.85706 97.36810 94.95420
#
# Poissons Ratio (x) = 0.30183 0.25500
# Poissons Ratio (y) = 0.30025 0.19677
# Poissons Ratio (z) = 0.26011 0.20178
#
# Static dielectric constant tensor:
#      x y z
#    x 4.114140 0.000000 -0.121990 
#    y 0.000000 4.137990 0.000000 
#    z -0.121990 0.000000 4.175860 
# 
# 
# High freq. dielectric constant tensor:
#      x y z
#    x 1.873380 0.000000 0.000900 
#    y 0.000000 1.872250 0.000000 
#    z 0.000900 0.000000 1.877550 
# 
# From -- ./inp_files/73929.got.cif
#   From: 2010.06.25/outbox.cif.g09.slc.cpg/sg15_37_cif.got.tgz:73929.got - 2010.06.28 07:06:18.
