data_PCOD8153604
_publ_section_title
;
Structure prediction by ZEFSAII (Michael W. Deem and Ramdas Pophale) SiO2 
 PCOD8153604
Probable space group: C 2/C
;
_chemical_formula_sum "Si O2"
_cell_formula_units_Z 48
_cell_length_a 9.816507
_cell_length_b 9.139451
_cell_length_c 25.864656
_cell_angle_alpha 90.000000
_cell_angle_beta 90.570466
_cell_angle_gamma 90.000000
_cell_volume 2320.396862
_symmetry_space_group_name_H-M "C 2/C"
_symmetry_group_IT_number 15
_symmetry_cell_setting 'monoclinic'
loop_
_space_group_symop_operation_xyz
x,y,z
-x,y,1/2-z
-x,-y,-z
x,-y,1/2+z
1/2+x,1/2+y,z
1/2-x,1/2+y,1/2-z
1/2-x,1/2-y,-z
1/2+x,1/2-y,1/2+z
loop_
_atom_site_type_symbol
_atom_site_label
_atom_site_fract_x
_atom_site_fract_y
_atom_site_fract_z
Si Si1 0.399884 0.908206 0.963856
Si Si2 0.284531 0.525996 0.309513
Si Si3 0.899694 0.884767 0.522878
Si Si4 0.230923 0.309921 0.707149
Si Si5 0.016306 0.188203 0.363851
Si Si6 0.510863 0.981098 0.648705
O O1 0.244697 0.966625 0.967757
O O2 0.452354 0.911349 0.905827
O O3 0.390334 0.739932 0.979808
O O4 0.500000 0.000000 0.000000
O O5 0.289605 0.637964 0.261964
O O6 0.303329 0.361405 0.289097
O O7 0.409392 0.563623 0.347669
O O8 0.147943 0.545410 0.341949
O O9 0.959158 0.815146 0.575144
O O10 0.000000 0.000000 0.500000
O O11 0.341267 0.342304 0.663565
O O12 0.095256 0.401448 0.694049
O O13 0.955545 0.346698 0.349115
#
# Coordination Sequence:
#
# PCOD8153604 Si02
#       6
#     8   8   8   8   8   8
#     4  11  24  45  66  93 134 170 209 270 318 379
#     4  11  26  41  70  94 130 167 219 262 326 383
#     4  11  26  41  67  97 131 168 219 263 321 383
#     4  11  24  46  64  95 129 171 210 271 318 380
#     4  11  24  43  64  97 131 169 209 270 319 378
#     4  11  24  43  67  94 130 170 216 261 326 382
#
# _framework density 20.686118
#
# number of rings (size 3 to 8) (size 9 to 14) (size 15 to 20)
#    0.000    1.000    3.333    2.000    4.667    8.667 
#    0.000    0.000    0.000    0.000    0.000    0.000 
#    0.000    0.000    0.000    0.000    0.000    0.000 
#
# Total GULP energy -297771.592183 kJ/mol
# GULP energy per Si atom -12407.149674 kJ/mol
# Density = 2.063904 g / cm^3
# Si number density = 20.686118 Si / 1000 Ang^3
#
#
#
# Elastic Constant Matrix: (Units=GPa)
#
#
# Indices 1 2 3 4 5 6 
#
# 1 89.2628 58.9796 21.1290 0.0000 8.7325 0.0000
# 2 58.9796 104.2660 25.7558 0.0000 -7.5571 0.0000
# 3 21.1290 25.7558 82.0158 0.0000 -7.1376 0.0000
# 4 0.0000 0.0000 0.0000 37.9795 0.0000 3.9430
# 5 8.7325 -7.5571 -7.1376 0.0000 37.1972 0.0000
# 6 0.0000 0.0000 0.0000 3.9430 0.0000 37.9795
#
#
#
# Elastic Compliance Matrix: (Units=1/GPa)
#
#
# Indices 1 2 3 4 5 6 
#
# 1 0.019867 -0.011220 -0.002236 0.000000 -0.007373 0.000000
# 2 -0.011220 0.016818 -0.001896 0.000000 0.005687 0.000000
# 3 -0.002236 -0.001896 0.013604 0.000000 0.002750 0.000000
# 4 0.000000 0.000000 0.000000 0.026617 0.000000 -0.002763
# 5 -0.007373 0.005687 0.002750 0.000000 0.030298 0.000000
# 6 0.000000 0.000000 0.000000 -0.002763 0.000000 0.026617
#
#
# Mechanical properties :
#
#
# Convention : Reuss Voigt Hill
#
# Bulk Modulus (GPa) = 51.06187 54.14151 52.60169
# Shear Modulus (GPa) = 29.23069 33.94324 31.58696
#
# Velocity S-wave (km/s) = 3.76314 4.05516 3.91188
# Velocity P-wave (km/s) = 6.60450 6.93941 6.77403
#
# Compressibility (1/GPa) = 0.01958409
#
# Stress axis : x y z
#
# Youngs Moduli (GPa) = 50.33468 59.45946 73.50966
#
# Poissons Ratio (x) = 0.66714 0.16439
# Poissons Ratio (y) = 0.56476 0.13938
# Poissons Ratio (z) = 0.11256 0.11274
#
# Static dielectric constant tensor:
#      x y z
#    x 3.905630 0.000000 -0.077630 
#    y 0.000000 3.711280 0.000000 
#    z -0.077630 0.000000 3.666080 
# 
# 
# High freq. dielectric constant tensor:
#      x y z
#    x 1.822780 0.000000 -0.001470 
#    y 0.000000 1.810500 0.000000 
#    z -0.001470 0.000000 1.821850 
# 
# From -- ./inp_files/306657.got.cif
#   From: 2010.06.25/outbox.cif.g09.slc.cpg/sg15_154_cif.got.tgz:306657.got - 2010.06.28 07:06:18.
