data_PCOD8153225
_publ_section_title
;
Structure prediction by ZEFSAII (Michael W. Deem and Ramdas Pophale) SiO2 
 PCOD8153225
Probable space group: C 2/C
;
_chemical_formula_sum "Si O2"
_cell_formula_units_Z 60
_cell_length_a 11.744709
_cell_length_b 20.601690
_cell_length_c 20.196392
_cell_angle_alpha 90.000000
_cell_angle_beta 143.897061
_cell_angle_gamma 90.000000
_cell_volume 2879.449733
_symmetry_space_group_name_H-M "C 2/C"
_symmetry_group_IT_number 15
_symmetry_cell_setting 'monoclinic'
loop_
_space_group_symop_operation_xyz
x,y,z
-x,y,1/2-z
-x,-y,-z
x,-y,1/2+z
1/2+x,1/2+y,z
1/2-x,1/2+y,1/2-z
1/2-x,1/2-y,-z
1/2+x,1/2-y,1/2+z
loop_
_atom_site_type_symbol
_atom_site_label
_atom_site_fract_x
_atom_site_fract_y
_atom_site_fract_z
Si Si1 0.869182 0.740658 0.748163
Si Si2 0.000000 0.944463 0.750000
Si Si3 0.047032 0.627931 0.375434
Si Si4 0.531236 0.135217 0.616215
Si Si5 0.795154 0.155110 0.377458
Si Si6 0.041497 0.287956 0.991035
Si Si7 0.594452 0.356340 0.916967
Si Si8 0.387511 0.994950 0.879397
O O1 0.680798 0.773364 0.629475
O O2 0.000000 0.716770 0.750000
O O3 0.820700 0.677388 0.769684
O O4 0.991434 0.788495 0.852654
O O5 0.908965 0.901440 0.649159
O O6 0.837268 0.987906 0.707947
O O7 0.871312 0.664312 0.255720
O O8 0.967221 0.563259 0.372131
O O9 0.215655 0.611257 0.401291
O O10 0.134463 0.678977 0.469552
O O11 0.546771 0.155209 0.547353
O O12 0.315873 0.150706 0.542155
O O13 0.585995 0.060140 0.650624
O O14 0.844066 0.225411 0.430796
O O15 0.977346 0.119222 0.427643
O O16 0.500000 0.000000 0.000000
#
# Coordination Sequence:
#
# PCOD8153225 Si02
#       8
#     8   4   8   8   8   8   8   8
#     4  12  22  37  62 103 137 162 213 282 336 390
#     4  12  22  42  72  98 124 174 228 272 332 388
#     4  11  23  44  64  95 135 180 227 263 330 405
#     4  12  24  40  68 100 132 173 223 274 335 391
#     4  11  24  39  67  94 133 180 213 271 342 396
#     4  12  20  40  67  97 134 168 222 279 333 392
#     4  12  19  39  68  97 128 172 223 271 335 399
#     4  12  24  46  72  94 131 177 227 275 318 403
#
# _framework density 20.837313999999999
#
# number of rings (size 3 to 8) (size 9 to 14) (size 15 to 20)
#    0.000    0.267    8.667    1.600    0.000    0.000 
#    4.800    2.000    0.000    0.000    0.000    0.000 
#    0.000    0.000    0.000    0.000    0.000    0.000 
#
# Total GULP energy -371966.315755 kJ/mol
# GULP energy per Si atom -12398.877192 kJ/mol
# Density = 2.078989 g / cm^3
# Si number density = 20.837314 Si / 1000 Ang^3
#
#
#
# Elastic Constant Matrix: (Units=GPa)
#
#
# Indices 1 2 3 4 5 6 
#
# 1 138.2190 33.3504 23.1986 -0.0002 -11.0693 -0.0002
# 2 33.3504 116.3937 32.0973 -0.0002 -5.6988 0.0000
# 3 23.1986 32.0973 48.4928 -0.0048 -10.8887 -0.0006
# 4 -0.0002 -0.0002 -0.0048 27.1490 -0.0005 -3.2175
# 5 -11.0693 -5.6988 -10.8887 -0.0005 27.5528 -0.0003
# 6 -0.0002 0.0000 -0.0006 -3.2175 -0.0003 29.0575
#
#
#
# Elastic Compliance Matrix: (Units=1/GPa)
#
#
# Indices 1 2 3 4 5 6 
#
# 1 0.008183 -0.001579 -0.002419 0.000000 0.002005 0.000000
# 2 -0.001579 0.010825 -0.006638 -0.000001 -0.001019 0.000000
# 3 -0.002419 -0.006638 0.028143 0.000005 0.008777 0.000001
# 4 0.000000 -0.000001 0.000005 0.037324 0.000002 0.004133
# 5 0.002005 -0.001019 0.008777 0.000002 0.040357 0.000001
# 6 0.000000 0.000000 0.000001 0.004133 0.000001 0.034872
#
#
# Mechanical properties :
#
#
# Convention : Reuss Voigt Hill
#
# Bulk Modulus (GPa) = 38.64302 53.37757 46.01030
# Shear Modulus (GPa) = 26.37096 31.04916 28.71006
#
# Velocity S-wave (km/s) = 3.56134 3.86434 3.71593
# Velocity P-wave (km/s) = 5.95787 6.75150 6.36706
#
# Compressibility (1/GPa) = 0.02587789
#
# Stress axis : x y z
#
# Youngs Moduli (GPa) = 122.21194 92.38100 35.53219
#
# Poissons Ratio (x) = 0.14590 0.08595
# Poissons Ratio (y) = 0.19301 0.23587
# Poissons Ratio (z) = 0.29563 0.61324
#
# Static dielectric constant tensor:
#      x y z
#    x 4.422470 0.000000 0.032230 
#    y 0.000000 3.736130 0.000000 
#    z 0.032230 0.000000 3.936780 
# 
# 
# High freq. dielectric constant tensor:
#      x y z
#    x 1.835350 0.000000 -0.011130 
#    y 0.000000 1.794840 0.000000 
#    z -0.011130 0.000000 1.807830 
# 
# From -- ./inp_files/240000.got.cif
#   From: 2010.06.25/outbox.cif.g09.slc.cpg/sg15_120_cif.got.tgz:240000.got - 2010.06.28 07:06:18.
