data_PCOD8153462
_publ_section_title
;
Structure prediction by ZEFSAII (Michael W. Deem and Ramdas Pophale) SiO2 
 PCOD8153462
Probable space group: C 2/C
;
_chemical_formula_sum "Si O2"
_cell_formula_units_Z 52
_cell_length_a 9.065720
_cell_length_b 20.754171
_cell_length_c 17.326395
_cell_angle_alpha 90.000000
_cell_angle_beta 133.347982
_cell_angle_gamma 90.000000
_cell_volume 2370.656766
_symmetry_space_group_name_H-M "C 2/C"
_symmetry_group_IT_number 15
_symmetry_cell_setting 'monoclinic'
loop_
_space_group_symop_operation_xyz
x,y,z
-x,y,1/2-z
-x,-y,-z
x,-y,1/2+z
1/2+x,1/2+y,z
1/2-x,1/2+y,1/2-z
1/2-x,1/2-y,-z
1/2+x,1/2-y,1/2+z
loop_
_atom_site_type_symbol
_atom_site_label
_atom_site_fract_x
_atom_site_fract_y
_atom_site_fract_z
Si Si1 0.891520 0.198920 0.869626
Si Si2 0.156946 0.426126 0.244447
Si Si3 0.815581 0.823374 0.632889
Si Si4 0.898319 0.168592 0.401009
Si Si5 0.098455 0.438955 0.496623
Si Si6 0.500000 0.249714 0.250000
Si Si7 0.463129 0.473207 0.903059
O O1 0.728204 0.143133 0.799399
O O2 0.772023 0.261286 0.856153
O O3 0.014954 0.208118 0.833595
O O4 0.053332 0.177495 0.991575
O O5 0.341390 0.476928 0.305134
O O6 0.000000 0.455101 0.250000
O O7 0.047101 0.416232 0.124059
O O8 0.633636 0.876163 0.563406
O O9 0.000000 0.852166 0.750000
O O10 0.908093 0.807837 0.580849
O O11 0.700042 0.208119 0.308715
O O12 0.844360 0.094345 0.364618
O O13 0.317854 0.461972 0.551909
O O14 0.000000 0.500000 0.500000
O O15 0.500000 0.500000 0.000000
#
# Coordination Sequence:
#
# PCOD8153462 Si02
#       7
#     8   8   8   8   8   4   8
#     4  12  26  46  72 103 146 183 241 291 353 434
#     4  12  25  46  74 104 141 190 240 291 359 424
#     4  11  24  47  74 101 141 188 241 285 353 427
#     4  11  25  46  71 102 139 187 242 289 348 427
#     4  11  28  44  75 108 144 186 237 300 361 418
#     4  12  28  42  68 106 140 190 220 300 366 410
#     4  11  23  47  72 104 137 185 238 290 352 424
#
# _framework density 21.934850000000001
#
# number of rings (size 3 to 8) (size 9 to 14) (size 15 to 20)
#    0.000    0.615    4.615    2.308    7.538    2.462 
#    0.000    0.000    0.000    0.000    0.000    0.000 
#    0.000    0.000    0.000    0.000    0.000    0.000 
#
# Total GULP energy -322442.817627 kJ/mol
# GULP energy per Si atom -12401.646832 kJ/mol
# Density = 2.188493 g / cm^3
# Si number density = 21.934850 Si / 1000 Ang^3
#
#
#
# Elastic Constant Matrix: (Units=GPa)
#
#
# Indices 1 2 3 4 5 6 
#
# 1 74.3929 38.9605 18.3465 0.0000 -13.6008 0.0000
# 2 38.9605 132.5511 61.6246 0.0000 1.6060 0.0000
# 3 18.3465 61.6246 147.8756 0.0001 -3.7489 0.0000
# 4 0.0000 0.0000 0.0001 20.9077 0.0000 -8.8825
# 5 -13.6008 1.6060 -3.7489 0.0000 38.2674 0.0000
# 6 0.0000 0.0000 0.0000 -8.8825 0.0000 30.6806
#
#
#
# Elastic Compliance Matrix: (Units=1/GPa)
#
#
# Indices 1 2 3 4 5 6 
#
# 1 0.017317 -0.005264 0.000207 0.000000 0.006396 0.000000
# 2 -0.005264 0.010980 -0.003992 0.000000 -0.002723 0.000000
# 3 0.000207 -0.003992 0.008427 0.000000 0.001067 0.000000
# 4 0.000000 0.000000 0.000000 0.054537 0.000000 0.015789
# 5 0.006396 -0.002723 0.001067 0.000000 0.028624 0.000000
# 6 0.000000 0.000000 0.000000 0.015789 0.000000 0.037165
#
#
# Mechanical properties :
#
#
# Convention : Reuss Voigt Hill
#
# Bulk Modulus (GPa) = 53.68279 65.85363 59.76821
# Shear Modulus (GPa) = 27.56992 33.69701 30.63347
#
# Velocity S-wave (km/s) = 3.54913 3.92373 3.74112
# Velocity P-wave (km/s) = 6.42821 7.11443 6.78001
#
# Compressibility (1/GPa) = 0.01862794
#
# Stress axis : x y z
#
# Youngs Moduli (GPa) = 57.74641 91.07241 118.66223
#
# Poissons Ratio (x) = 0.47939 -0.02460
# Poissons Ratio (y) = 0.30397 0.47368
# Poissons Ratio (z) = -0.01197 0.36354
#
# Static dielectric constant tensor:
#      x y z
#    x 4.394000 0.000000 -0.300820 
#    y 0.000000 3.676370 0.000000 
#    z -0.300820 0.000000 4.169820 
# 
# 
# High freq. dielectric constant tensor:
#      x y z
#    x 1.855790 0.000000 -0.004980 
#    y 0.000000 1.871800 0.000000 
#    z -0.004980 0.000000 1.879970 
# 
# From -- ./inp_files/192593.got.cif
#   From: 2010.06.25/outbox.cif.g09.slc.cpg/sg15_97_cif.got.tgz:192593.got - 2010.06.28 07:06:18.
