data_PCOD8153785
_publ_section_title
;
Structure prediction by ZEFSAII (Michael W. Deem and Ramdas Pophale) SiO2 
 PCOD8153785
Probable space group: C 2/C
;
_chemical_formula_sum "Si O2"
_cell_formula_units_Z 48
_cell_length_a 27.215033
_cell_length_b 12.210205
_cell_length_c 21.180557
_cell_angle_alpha 90.000000
_cell_angle_beta 17.324167
_cell_angle_gamma 90.000000
_cell_volume 2095.854668
_symmetry_space_group_name_H-M "C 2/C"
_symmetry_group_IT_number 15
_symmetry_cell_setting 'monoclinic'
loop_
_space_group_symop_operation_xyz
x,y,z
-x,y,1/2-z
-x,-y,-z
x,-y,1/2+z
1/2+x,1/2+y,z
1/2-x,1/2+y,1/2-z
1/2-x,1/2-y,-z
1/2+x,1/2-y,1/2+z
loop_
_atom_site_type_symbol
_atom_site_label
_atom_site_fract_x
_atom_site_fract_y
_atom_site_fract_z
Si Si1 0.784568 0.526609 0.871963
Si Si2 0.633296 0.084428 0.500024
Si Si3 0.853721 0.284970 0.811486
Si Si4 0.774825 0.648825 0.640002
Si Si5 0.838205 0.820397 0.081974
Si Si6 0.689657 0.363832 0.600531
O O1 0.785189 0.396256 0.863096
O O2 0.766042 0.586092 0.827185
O O3 0.945407 0.574947 0.709602
O O4 0.644578 0.559981 0.095103
O O5 0.707739 0.201240 0.388150
O O6 0.663805 0.080389 0.538084
O O7 0.731874 0.982665 0.349093
O O8 0.843064 0.191417 0.771392
O O9 0.043091 0.303858 0.598479
O O10 0.750000 0.250000 0.000000
O O11 0.708801 0.687725 0.787760
O O12 0.029412 0.849975 0.840421
O O13 0.750000 0.250000 0.500000
#
# Coordination Sequence:
#
# PCOD8153785 Si02
#       6
#     8   8   8   8   8   8
#     4  11  25  43  72 101 140 185 226 287 344 409
#     4  11  24  45  68  97 142 180 228 276 355 400
#     4  11  26  51  74 100 137 182 240 283 348 412
#     4  11  29  46  73 100 139 186 226 290 346 414
#     4  12  26  43  67 108 140 181 230 283 347 410
#     4  12  23  41  68 105 138 176 230 278 338 407
#
# _framework density 22.902350999999999
#
# number of rings (size 3 to 8) (size 9 to 14) (size 15 to 20)
#    0.000    0.667    3.333    2.500    7.000    8.667 
#    0.000    0.000    0.000    0.000    0.000    0.000 
#    0.000    0.000    0.000    0.000    0.000    0.000 
#
# Total GULP energy -297576.347867 kJ/mol
# GULP energy per Si atom -12399.014494 kJ/mol
# Density = 2.285022 g / cm^3
# Si number density = 22.902351 Si / 1000 Ang^3
#
#
#
# Elastic Constant Matrix: (Units=GPa)
#
#
# Indices 1 2 3 4 5 6 
#
# 1 115.9537 16.8429 14.0923 -0.0123 9.0414 0.0010
# 2 16.8429 115.7668 12.1281 -0.0170 -6.5564 0.0031
# 3 14.0923 12.1281 65.2746 -0.0263 7.4071 -0.0015
# 4 -0.0123 -0.0170 -0.0263 21.1300 0.0060 -8.5580
# 5 9.0414 -6.5564 7.4071 0.0060 43.1840 0.0033
# 6 0.0010 0.0031 -0.0015 -8.5580 0.0033 38.7131
#
#
#
# Elastic Compliance Matrix: (Units=1/GPa)
#
#
# Indices 1 2 3 4 5 6 
#
# 1 0.009139 -0.001274 -0.001527 0.000003 -0.001845 0.000001
# 2 -0.001274 0.009104 -0.001635 0.000004 0.001929 0.000000
# 3 -0.001527 -0.001635 0.016262 0.000021 -0.002718 0.000006
# 4 0.000003 0.000004 0.000021 0.051980 -0.000012 0.011491
# 5 -0.001845 0.001929 -0.002718 -0.000012 0.024302 -0.000005
# 6 0.000001 0.000000 0.000006 0.011491 -0.000005 0.028371
#
#
# Mechanical properties :
#
#
# Convention : Reuss Voigt Hill
#
# Bulk Modulus (GPa) = 39.01422 42.56908 40.79165
# Shear Modulus (GPa) = 31.93367 37.53422 34.73394
#
# Velocity S-wave (km/s) = 3.73814 4.05270 3.89859
# Velocity P-wave (km/s) = 5.97525 6.36606 6.17375
#
# Compressibility (1/GPa) = 0.02563168
#
# Stress axis : x y z
#
# Youngs Moduli (GPa) = 109.42569 109.84141 61.49374
#
# Poissons Ratio (x) = 0.13995 0.09389
# Poissons Ratio (y) = 0.13942 0.10057
# Poissons Ratio (z) = 0.16708 0.17964
#
# Static dielectric constant tensor:
#      x y z
#    x 6.989830 0.002080 0.428740 
#    y 0.002080 4.565050 0.000420 
#    z 0.428740 0.000420 4.245710 
# 
# 
# High freq. dielectric constant tensor:
#      x y z
#    x 1.915670 0.000000 -0.004330 
#    y 0.000000 1.914190 0.000000 
#    z -0.004330 0.000000 1.894330 
# 
# From -- ./inp_files/257602.got.cif
#   From: 2010.06.25/outbox.cif.g09.slc.cpg/sg15_129_cif.got.tgz:257602.got - 2010.06.28 07:06:18.
