data_PCOD8153002
_publ_section_title
;
Structure prediction by ZEFSAII (Michael W. Deem and Ramdas Pophale) SiO2 
 PCOD8153002
Probable space group: C 2/C
;
_chemical_formula_sum "Si O2"
_cell_formula_units_Z 48
_cell_length_a 21.296170
_cell_length_b 6.370051
_cell_length_c 27.358571
_cell_angle_alpha 90.000000
_cell_angle_beta 141.715395
_cell_angle_gamma 90.000000
_cell_volume 2299.465534
_symmetry_space_group_name_H-M "C 2/C"
_symmetry_group_IT_number 15
_symmetry_cell_setting 'monoclinic'
loop_
_space_group_symop_operation_xyz
x,y,z
-x,y,1/2-z
-x,-y,-z
x,-y,1/2+z
1/2+x,1/2+y,z
1/2-x,1/2+y,1/2-z
1/2-x,1/2-y,-z
1/2+x,1/2-y,1/2+z
loop_
_atom_site_type_symbol
_atom_site_label
_atom_site_fract_x
_atom_site_fract_y
_atom_site_fract_z
Si Si1 0.596725 0.921883 0.531974
Si Si2 0.408975 0.256199 0.573421
Si Si3 0.728786 0.741920 0.851779
Si Si4 0.120383 0.952342 0.715009
Si Si5 0.279010 0.942602 0.551935
Si Si6 0.293462 0.620308 0.828552
O O1 0.555897 0.850935 0.454856
O O2 0.643804 0.730299 0.590525
O O3 0.500000 0.000000 0.500000
O O4 0.674912 0.109800 0.571806
O O5 0.505027 0.381184 0.652953
O O6 0.318589 0.411292 0.504534
O O7 0.373660 0.077615 0.589909
O O8 0.644480 0.585472 0.778491
O O9 0.687038 0.864573 0.873621
O O10 0.759441 0.894764 0.826791
O O11 0.194023 0.752932 0.754337
O O12 0.135249 0.093431 0.675485
O O13 0.250000 0.750000 0.500000
#
# Coordination Sequence:
#
# PCOD8153002 Si02
#       6
#     8   8   8   8   8   8
#     4  11  24  38  70 104 134 174 230 278 350 405
#     4  11  25  43  71 104 130 180 239 283 328 411
#     4  11  23  44  67  95 140 183 218 282 345 401
#     4  11  25  41  68 103 142 176 225 279 353 410
#     4  11  24  47  72  93 135 182 234 284 331 397
#     4  11  23  42  63 101 145 177 216 285 344 422
#
# _framework density 20.874414999999999
#
# number of rings (size 3 to 8) (size 9 to 14) (size 15 to 20)
#    0.000    1.000    5.000    1.000    4.667    2.667 
#    0.000    5.000    0.000    0.000    0.000    0.000 
#    0.000    0.000    0.000    0.000    0.000    0.000 
#
# Total GULP energy -297707.715529 kJ/mol
# GULP energy per Si atom -12404.488147 kJ/mol
# Density = 2.082690 g / cm^3
# Si number density = 20.874415 Si / 1000 Ang^3
#
#
#
# Elastic Constant Matrix: (Units=GPa)
#
#
# Indices 1 2 3 4 5 6 
#
# 1 129.6759 46.8359 62.2320 -0.0016 -7.0611 0.0034
# 2 46.8359 102.6130 40.8555 -0.0031 -2.1216 -0.0061
# 3 62.2320 40.8555 104.0713 0.0013 3.3796 -0.0001
# 4 -0.0016 -0.0031 0.0013 28.2024 0.0014 -5.9421
# 5 -7.0611 -2.1216 3.3796 0.0014 35.3710 0.0004
# 6 0.0034 -0.0061 -0.0001 -5.9421 0.0004 40.4012
#
#
#
# Elastic Compliance Matrix: (Units=1/GPa)
#
#
# Indices 1 2 3 4 5 6 
#
# 1 0.011799 -0.002944 -0.005989 0.000000 0.002751 -0.000001
# 2 -0.002944 0.012330 -0.003095 0.000002 0.000448 0.000002
# 3 -0.005989 -0.003095 0.014495 -0.000001 -0.002766 0.000000
# 4 0.000000 0.000002 -0.000001 0.036592 -0.000001 0.005382
# 5 0.002751 0.000448 -0.002766 -0.000001 0.029112 -0.000001
# 6 -0.000001 0.000002 0.000000 0.005382 -0.000001 0.025543
#
#
# Mechanical properties :
#
#
# Convention : Reuss Voigt Hill
#
# Bulk Modulus (GPa) = 68.64027 70.68969 69.66498
# Shear Modulus (GPa) = 31.48952 33.22402 32.35677
#
# Velocity S-wave (km/s) = 3.88818 3.99383 3.94136
# Velocity P-wave (km/s) = 7.28774 7.43003 7.35923
#
# Compressibility (1/GPa) = 0.01456871
#
# Stress axis : x y z
#
# Youngs Moduli (GPa) = 84.75468 81.09976 68.99018
#
# Poissons Ratio (x) = 0.23875 0.41318
# Poissons Ratio (y) = 0.24951 0.21351
# Poissons Ratio (z) = 0.50760 0.25098
#
# Static dielectric constant tensor:
#      x y z
#    x 3.778180 -0.000010 -0.128120 
#    y -0.000010 3.905460 0.000050 
#    z -0.128120 0.000050 3.450260 
# 
# 
# High freq. dielectric constant tensor:
#      x y z
#    x 1.820340 0.000000 -0.012600 
#    y 0.000000 1.836450 0.000000 
#    z -0.012600 0.000000 1.812470 
# 
# From -- ./inp_files/317067.got.cif
#   From: 2010.06.25/outbox.cif.g09.slc.cpg/sg15_159_cif.got.tgz:317067.got - 2010.06.28 07:06:18.
