data_PCOD8153447
_publ_section_title
;
Structure prediction by ZEFSAII (Michael W. Deem and Ramdas Pophale) SiO2 
 PCOD8153447
Probable space group: C 2/C
;
_chemical_formula_sum "Si O2"
_cell_formula_units_Z 32
_cell_length_a 9.042559
_cell_length_b 17.423419
_cell_length_c 13.448165
_cell_angle_alpha 90.000000
_cell_angle_beta 132.083638
_cell_angle_gamma 90.000000
_cell_volume 1572.496023
_symmetry_space_group_name_H-M "C 2/C"
_symmetry_group_IT_number 15
_symmetry_cell_setting 'monoclinic'
loop_
_space_group_symop_operation_xyz
x,y,z
-x,y,1/2-z
-x,-y,-z
x,-y,1/2+z
1/2+x,1/2+y,z
1/2-x,1/2+y,1/2-z
1/2-x,1/2-y,-z
1/2+x,1/2-y,1/2+z
loop_
_atom_site_type_symbol
_atom_site_label
_atom_site_fract_x
_atom_site_fract_y
_atom_site_fract_z
Si Si1 0.845265 0.805137 0.269355
Si Si2 0.604671 0.208924 0.011193
Si Si3 0.706475 0.039289 0.102667
Si Si4 0.049601 0.024241 0.631788
O O1 0.620348 0.792983 0.130259
O O2 0.893090 0.746305 0.379178
O O3 0.868478 0.889628 0.325357
O O4 0.000000 0.789493 0.250000
O O5 0.750000 0.250000 0.000000
O O6 0.700553 0.125083 0.061513
O O7 0.783740 0.035146 0.251421
O O8 0.849451 0.983556 0.104691
O O9 0.500000 0.000000 0.000000
O O10 0.000000 0.000000 0.500000
#
# Coordination Sequence:
#
# PCOD8153447 Si02
#       4
#     8   8   8   8
#     4  12  25  48  68 103 141 184 227 285 344 415
#     4  12  27  44  73 103 139 179 232 284 346 405
#     4  11  23  47  67  98 136 176 227 282 333 406
#     4  11  24  42  71  96 138 177 229 275 339 402
#
# _framework density 20.349812
#
# number of rings (size 3 to 8) (size 9 to 14) (size 15 to 20)
#    0.000    0.500    5.000    3.000   10.500    1.000 
#    0.000    0.000    0.000    0.000    0.000    0.000 
#    0.000    0.000    0.000    0.000    0.000    0.000 
#
# Total GULP energy -198396.044490 kJ/mol
# GULP energy per Si atom -12399.752781 kJ/mol
# Density = 2.030349 g / cm^3
# Si number density = 20.349812 Si / 1000 Ang^3
#
#
#
# Elastic Constant Matrix: (Units=GPa)
#
#
# Indices 1 2 3 4 5 6 
#
# 1 113.7854 41.4643 81.4613 0.0000 8.1832 0.0000
# 2 41.4643 120.7147 54.8051 0.0000 7.5532 0.0000
# 3 81.4613 54.8051 202.1765 0.0001 8.5193 0.0000
# 4 0.0000 0.0000 0.0001 44.5462 0.0000 2.4360
# 5 8.1832 7.5532 8.5193 0.0000 47.8571 0.0000
# 6 0.0000 0.0000 0.0000 2.4360 0.0000 30.1765
#
#
#
# Elastic Compliance Matrix: (Units=1/GPa)
#
#
# Indices 1 2 3 4 5 6 
#
# 1 0.012969 -0.002323 -0.004552 0.000000 -0.001041 0.000000
# 2 -0.002323 0.009915 -0.001715 0.000000 -0.000862 0.000000
# 3 -0.004552 -0.001715 0.007255 0.000000 -0.000243 0.000000
# 4 0.000000 0.000000 0.000000 0.022548 0.000000 -0.001820
# 5 -0.001041 -0.000862 -0.000243 0.000000 0.021253 0.000000
# 6 0.000000 0.000000 0.000000 -0.001820 0.000000 0.033285
#
#
# Mechanical properties :
#
#
# Convention : Reuss Voigt Hill
#
# Bulk Modulus (GPa) = 77.16942 88.01533 82.59237
# Shear Modulus (GPa) = 38.84273 41.77900 40.31087
#
# Velocity S-wave (km/s) = 4.37367 4.53597 4.45555
# Velocity P-wave (km/s) = 7.96926 8.41299 8.19413
#
# Compressibility (1/GPa) = 0.01295850
#
# Stress axis : x y z
#
# Youngs Moduli (GPa) = 77.10989 100.86121 137.82886
#
# Poissons Ratio (x) = 0.23429 0.62736
# Poissons Ratio (y) = 0.17912 0.23642
# Poissons Ratio (z) = 0.35099 0.17301
#
# Static dielectric constant tensor:
#      x y z
#    x 3.904440 0.000000 0.016330 
#    y 0.000000 3.601920 0.000000 
#    z 0.016330 0.000000 3.934910 
# 
# 
# High freq. dielectric constant tensor:
#      x y z
#    x 1.799090 0.000000 0.005440 
#    y 0.000000 1.807610 0.000000 
#    z 0.005440 0.000000 1.825700 
# 
# From -- ./inp_files/134080.got.cif
#   From: 2010.06.25/outbox.cif.g09.slc.cpg/sg15_68_cif.got.tgz:134080.got - 2010.06.28 07:06:18.
