data_PCOD8153498
_publ_section_title
;
Structure prediction by ZEFSAII (Michael W. Deem and Ramdas Pophale) SiO2 
 PCOD8153498
Probable space group: C 2/C
;
_chemical_formula_sum "Si O2"
_cell_formula_units_Z 52
_cell_length_a 11.025941
_cell_length_b 16.385885
_cell_length_c 24.185077
_cell_angle_alpha 90.000000
_cell_angle_beta 147.925627
_cell_angle_gamma 90.000000
_cell_volume 2320.297203
_symmetry_space_group_name_H-M "C 2/C"
_symmetry_group_IT_number 15
_symmetry_cell_setting 'monoclinic'
loop_
_space_group_symop_operation_xyz
x,y,z
-x,y,1/2-z
-x,-y,-z
x,-y,1/2+z
1/2+x,1/2+y,z
1/2-x,1/2+y,1/2-z
1/2-x,1/2-y,-z
1/2+x,1/2-y,1/2+z
loop_
_atom_site_type_symbol
_atom_site_label
_atom_site_fract_x
_atom_site_fract_y
_atom_site_fract_z
Si Si1 0.624075 0.918387 0.394041
Si Si2 0.875172 0.495352 0.393613
Si Si3 0.500000 0.636504 0.750000
Si Si4 0.500000 0.032174 0.250000
Si Si5 0.396059 0.254594 0.803124
Si Si6 0.500000 0.630919 0.250000
Si Si7 0.377305 0.351185 0.900953
Si Si8 0.388175 0.239552 0.109713
O O1 0.571932 0.979340 0.424746
O O2 0.613548 0.975264 0.338036
O O3 0.458779 0.840364 0.321594
O O4 0.883487 0.891437 0.495552
O O5 0.718773 0.417453 0.322995
O O6 0.725387 0.576522 0.326677
O O7 0.000000 0.500000 0.500000
O O8 0.567658 0.685466 0.831359
O O9 0.295587 0.087107 0.196970
O O10 0.551975 0.311437 0.823516
O O11 0.424632 0.274174 0.879372
O O12 0.141294 0.280344 0.685996
O O13 0.248505 0.328283 0.908212
O O14 0.250000 0.250000 0.000000
#
# Coordination Sequence:
#
# PCOD8153498 Si02
#       8
#     8   8   4   4   8   4   8   8
#     4  12  27  44  76 106 143 191 247 301 370 446
#     4  11  25  45  70 103 146 194 240 306 375 437
#     4  11  23  50  67 109 148 190 252 307 363 446
#     4  12  26  48  68 102 152 180 236 304 370 434
#     4  12  24  50  72 106 148 189 246 317 355 440
#     4  11  27  42  73 105 142 188 252 299 367 454
#     4  12  25  49  74 105 146 196 241 305 376 437
#     4  12  26  44  79 105 148 200 247 305 378 439
#
# _framework density 22.410921999999999
#
# number of rings (size 3 to 8) (size 9 to 14) (size 15 to 20)
#    0.000    0.308    4.615    3.231    6.462    1.231 
#    0.000    0.000    0.000    0.000    0.000    0.000 
#    0.000    0.000    0.000    0.000    0.000    0.000 
#
# Total GULP energy -322218.585557 kJ/mol
# GULP energy per Si atom -12393.022521 kJ/mol
# Density = 2.235991 g / cm^3
# Si number density = 22.410922 Si / 1000 Ang^3
#
#
#
# Elastic Constant Matrix: (Units=GPa)
#
#
# Indices 1 2 3 4 5 6 
#
# 1 94.1941 34.4334 40.0096 0.0003 6.6783 0.0000
# 2 34.4334 80.1091 11.4364 0.0002 3.6277 0.0001
# 3 40.0096 11.4364 114.1543 0.0003 2.7602 0.0006
# 4 0.0003 0.0002 0.0003 5.9208 0.0003 1.3326
# 5 6.6783 3.6277 2.7602 0.0003 47.5666 0.0000
# 6 0.0000 0.0001 0.0006 1.3326 0.0000 23.0284
#
#
#
# Elastic Compliance Matrix: (Units=1/GPa)
#
#
# Indices 1 2 3 4 5 6 
#
# 1 0.014698 -0.005605 -0.004557 0.000000 -0.001372 0.000000
# 2 -0.005605 0.014840 0.000487 0.000000 -0.000373 0.000000
# 3 -0.004557 0.000487 0.010308 0.000000 0.000004 0.000000
# 4 0.000000 0.000000 0.000000 0.171125 -0.000001 -0.009903
# 5 -0.001372 -0.000373 0.000004 -0.000001 0.021244 0.000000
# 6 0.000000 0.000000 0.000000 -0.009903 0.000000 0.043998
#
#
# Mechanical properties :
#
#
# Convention : Reuss Voigt Hill
#
# Bulk Modulus (GPa) = 48.79009 51.13514 49.96262
# Shear Modulus (GPa) = 16.53469 28.80838 22.67154
#
# Velocity S-wave (km/s) = 2.71919 3.58922 3.18406
# Velocity P-wave (km/s) = 5.62819 6.32798 5.98832
#
# Compressibility (1/GPa) = 0.02049596
#
# Stress axis : x y z
#
# Youngs Moduli (GPa) = 68.03581 67.38729 97.00930
#
# Poissons Ratio (x) = 0.37771 0.44205
# Poissons Ratio (y) = 0.38135 -0.04723
# Poissons Ratio (z) = 0.31003 -0.03281
#
# Static dielectric constant tensor:
#      x y z
#    x 4.022810 0.000000 0.112020 
#    y 0.000000 4.288500 0.000000 
#    z 0.112020 0.000000 4.033390 
# 
# 
# High freq. dielectric constant tensor:
#      x y z
#    x 1.896000 0.000000 0.007550 
#    y 0.000000 1.892790 0.000000 
#    z 0.007550 0.000000 1.888310 
# 
# From -- ./inp_files/293503.got.cif
#   From: 2010.06.25/outbox.cif.g09.slc.cpg/sg15_147_cif.got.tgz:293503.got - 2010.06.28 07:06:18.
