data_PCOD8153214
_publ_section_title
;
Structure prediction by ZEFSAII (Michael W. Deem and Ramdas Pophale) SiO2 
 PCOD8153214
Probable space group: C 2/C
;
_chemical_formula_sum "Si O2"
_cell_formula_units_Z 40
_cell_length_a 5.164341
_cell_length_b 17.099505
_cell_length_c 18.797159
_cell_angle_alpha 90.000000
_cell_angle_beta 84.790655
_cell_angle_gamma 90.000000
_cell_volume 1653.077219
_symmetry_space_group_name_H-M "C 2/C"
_symmetry_group_IT_number 15
_symmetry_cell_setting 'monoclinic'
loop_
_space_group_symop_operation_xyz
x,y,z
-x,y,1/2-z
-x,-y,-z
x,-y,1/2+z
1/2+x,1/2+y,z
1/2-x,1/2+y,1/2-z
1/2-x,1/2-y,-z
1/2+x,1/2-y,1/2+z
loop_
_atom_site_type_symbol
_atom_site_label
_atom_site_fract_x
_atom_site_fract_y
_atom_site_fract_z
Si Si1 0.606184 0.799042 0.618286
Si Si2 0.191207 0.567178 0.017253
Si Si3 0.500000 0.507228 0.750000
Si Si4 0.000000 0.594036 0.250000
Si Si5 0.889733 0.936374 0.101444
Si Si6 0.354358 0.783729 0.423545
O O1 0.560866 0.853882 0.549630
O O2 0.626607 0.852988 0.686397
O O3 0.355891 0.743435 0.630829
O O4 0.865603 0.748655 0.603638
O O5 0.354837 0.526759 0.077489
O O6 0.362739 0.596902 0.947086
O O7 0.000000 0.500000 0.000000
O O8 0.239628 0.457472 0.774377
O O9 0.561788 0.563167 0.815438
O O10 0.648808 0.879106 0.083489
O O11 0.250000 0.750000 0.500000
#
# Coordination Sequence:
#
# PCOD8153214 Si02
#       6
#     8   8   4   4   8   8
#     4  12  26  46  75 102 143 197 242 299 373 442
#     4  11  23  43  75 107 140 196 249 304 355 447
#     4  12  26  47  72 111 146 194 248 322 374 447
#     4  12  26  49  74 105 146 198 252 306 370 457
#     4  11  26  43  73 108 148 189 250 305 378 435
#     4  12  26  46  72 110 148 190 243 311 372 443
#
# _framework density 24.197295
#
# number of rings (size 3 to 8) (size 9 to 14) (size 15 to 20)
#    0.000    0.400    4.000    4.200    5.600    0.800 
#    0.000    0.000    0.000    0.000    0.000    0.000 
#    0.000    0.000    0.000    0.000    0.000    0.000 
#
# Total GULP energy -248008.059393 kJ/mol
# GULP energy per Si atom -12400.402970 kJ/mol
# Density = 2.414222 g / cm^3
# Si number density = 24.197295 Si / 1000 Ang^3
#
#
#
# Elastic Constant Matrix: (Units=GPa)
#
#
# Indices 1 2 3 4 5 6 
#
# 1 137.6281 52.5882 11.6953 0.0000 0.7816 0.0000
# 2 52.5882 125.9012 35.9872 0.0000 -9.7833 0.0000
# 3 11.6953 35.9872 113.6916 0.0000 -6.2656 0.0000
# 4 0.0000 0.0000 0.0000 9.3451 0.0000 7.3111
# 5 0.7816 -9.7833 -6.2656 0.0000 26.0590 0.0000
# 6 0.0000 0.0000 0.0000 7.3111 0.0000 58.9562
#
#
#
# Elastic Compliance Matrix: (Units=1/GPa)
#
#
# Indices 1 2 3 4 5 6 
#
# 1 0.008722 -0.003836 0.000226 0.000000 -0.001647 0.000000
# 2 -0.003836 0.010604 -0.002773 0.000000 0.003429 0.000000
# 3 0.000226 -0.002773 0.009721 0.000000 0.001290 0.000000
# 4 0.000000 0.000000 0.000000 0.118505 0.000000 -0.014696
# 5 -0.001647 0.003429 0.001290 0.000000 0.040021 0.000000
# 6 0.000000 0.000000 0.000000 -0.014696 0.000000 0.018784
#
#
# Mechanical properties :
#
#
# Convention : Reuss Voigt Hill
#
# Bulk Modulus (GPa) = 61.41742 64.19581 62.80661
# Shear Modulus (GPa) = 22.26678 37.33540 29.80109
#
# Velocity S-wave (km/s) = 3.03680 3.93231 3.51321
# Velocity P-wave (km/s) = 6.14274 6.87060 6.51684
#
# Compressibility (1/GPa) = 0.01628202
#
# Stress axis : x y z
#
# Youngs Moduli (GPa) = 114.65643 94.30444 102.86725
#
# Poissons Ratio (x) = 0.36172 -0.02326
# Poissons Ratio (y) = 0.43978 0.28525
# Poissons Ratio (z) = -0.02593 0.26150
#
# Static dielectric constant tensor:
#      x y z
#    x 4.890190 0.000000 0.314400 
#    y 0.000000 5.100030 0.000000 
#    z 0.314400 0.000000 4.438940 
# 
# 
# High freq. dielectric constant tensor:
#      x y z
#    x 1.971880 0.000000 0.010800 
#    y 0.000000 1.974660 0.000000 
#    z 0.010800 0.000000 1.953770 
# 
# From -- ./inp_files/184367.got.cif
#   From: 2010.06.25/outbox.cif.g09.slc.cpg/sg15_93_cif.got.tgz:184367.got - 2010.06.28 07:06:18.
