data_PCOD8153221
_publ_section_title
;
Structure prediction by ZEFSAII (Michael W. Deem and Ramdas Pophale) SiO2 
 PCOD8153221
Probable space group: C 2/C
;
_chemical_formula_sum "Si O2"
_cell_formula_units_Z 44
_cell_length_a 18.966713
_cell_length_b 6.797820
_cell_length_c 18.110455
_cell_angle_alpha 90.000000
_cell_angle_beta 58.575377
_cell_angle_gamma 90.000000
_cell_volume 1992.537424
_symmetry_space_group_name_H-M "C 2/C"
_symmetry_group_IT_number 15
_symmetry_cell_setting 'monoclinic'
loop_
_space_group_symop_operation_xyz
x,y,z
-x,y,1/2-z
-x,-y,-z
x,-y,1/2+z
1/2+x,1/2+y,z
1/2-x,1/2+y,1/2-z
1/2-x,1/2-y,-z
1/2+x,1/2-y,1/2+z
loop_
_atom_site_type_symbol
_atom_site_label
_atom_site_fract_x
_atom_site_fract_y
_atom_site_fract_z
Si Si1 0.586727 0.899279 0.440219
Si Si2 0.500000 0.555539 0.750000
Si Si3 0.257805 0.451523 0.036296
Si Si4 0.625948 0.393104 0.793324
Si Si5 0.625593 0.761146 0.580717
Si Si6 0.197724 0.767351 0.342275
O O1 0.578881 0.729588 0.382656
O O2 0.611462 0.800352 0.502791
O O3 0.500000 0.000000 0.500000
O O4 0.653858 0.061139 0.380773
O O5 0.565133 0.414998 0.756481
O O6 0.542589 0.700592 0.667782
O O7 0.167699 0.551128 0.097852
O O8 0.304368 0.417455 0.087831
O O9 0.250000 0.250000 0.000000
O O10 0.310376 0.581529 0.950578
O O11 0.707138 0.271182 0.728390
O O12 0.650549 0.615137 0.803558
#
# Coordination Sequence:
#
# PCOD8153221 Si02
#       6
#     8   4   8   8   8   8
#     4  12  27  46  76 109 147 194 252 307 373 439
#     4  12  30  46  74 110 158 192 242 314 382 432
#     4  11  23  43  76 103 139 188 245 295 363 433
#     4  12  28  49  74 113 153 197 248 307 373 446
#     4  11  26  46  70 109 145 187 243 302 361 443
#     4  12  25  46  79 107 148 203 250 305 368 451
#
# _framework density 22.082395000000002
#
# number of rings (size 3 to 8) (size 9 to 14) (size 15 to 20)
#    0.000    0.364    5.455    2.182    7.636    4.364 
#    0.000    1.818    0.000    0.000    0.000    0.000 
#    0.000    0.000    0.000    0.000    0.000    0.000 
#
# Total GULP energy -272891.392143 kJ/mol
# GULP energy per Si atom -12404.154188 kJ/mol
# Density = 2.203213 g / cm^3
# Si number density = 22.082395 Si / 1000 Ang^3
#
#
#
# Elastic Constant Matrix: (Units=GPa)
#
#
# Indices 1 2 3 4 5 6 
#
# 1 132.6277 53.3785 41.9319 -0.0006 6.5444 -0.0001
# 2 53.3785 129.0606 52.8741 -0.0040 0.1140 0.0021
# 3 41.9319 52.8741 93.5877 -0.0010 -9.3483 0.0008
# 4 -0.0006 -0.0040 -0.0010 43.5210 0.0002 -4.0012
# 5 6.5444 0.1140 -9.3483 0.0002 43.9452 -0.0007
# 6 -0.0001 0.0021 0.0008 -4.0012 -0.0007 38.6654
#
#
#
# Elastic Compliance Matrix: (Units=1/GPa)
#
#
# Indices 1 2 3 4 5 6 
#
# 1 0.009708 -0.002793 -0.002979 0.000000 -0.002072 0.000000
# 2 -0.002793 0.010955 -0.005005 0.000001 -0.000677 0.000000
# 3 -0.002979 -0.005005 0.015217 0.000000 0.003694 0.000000
# 4 0.000000 0.000001 0.000000 0.023198 0.000000 0.002401
# 5 -0.002072 -0.000677 0.003694 0.000000 0.023852 0.000000
# 6 0.000000 0.000000 0.000000 0.002401 0.000000 0.026111
#
#
# Mechanical properties :
#
#
# Convention : Reuss Voigt Hill
#
# Bulk Modulus (GPa) = 69.80683 72.40499 71.10591
# Shear Modulus (GPa) = 36.93602 39.03243 37.98423
#
# Velocity S-wave (km/s) = 4.09424 4.20882 4.15192
# Velocity P-wave (km/s) = 7.35058 7.51523 7.43336
#
# Compressibility (1/GPa) = 0.01432525
#
# Stress axis : x y z
#
# Youngs Moduli (GPa) = 103.00786 91.28556 65.71813
#
# Poissons Ratio (x) = 0.25496 0.19575
# Poissons Ratio (y) = 0.28770 0.32894
# Poissons Ratio (z) = 0.30683 0.45691
#
# Static dielectric constant tensor:
#      x y z
#    x 2.965750 0.000000 -0.512490 
#    y 0.000000 3.937880 0.000000 
#    z -0.512490 0.000000 3.870820 
# 
# 
# High freq. dielectric constant tensor:
#      x y z
#    x 1.876390 0.000000 0.002450 
#    y 0.000000 1.883530 0.000000 
#    z 0.002450 0.000000 1.872660 
# 
# From -- ./inp_files/250751.got.cif
#   From: 2010.06.25/outbox.cif.g09.slc.cpg/sg15_126_cif.got.tgz:250751.got - 2010.06.28 07:06:18.
