data_PCOD8153631
_publ_section_title
;
Structure prediction by ZEFSAII (Michael W. Deem and Ramdas Pophale) SiO2 
 PCOD8153631
Probable space group: C 2/C
;
_chemical_formula_sum "Si O2"
_cell_formula_units_Z 56
_cell_length_a 11.689853
_cell_length_b 17.059022
_cell_length_c 13.296433
_cell_angle_alpha 90.000000
_cell_angle_beta 110.575860
_cell_angle_gamma 90.000000
_cell_volume 2482.392975
_symmetry_space_group_name_H-M "C 2/C"
_symmetry_group_IT_number 15
_symmetry_cell_setting 'monoclinic'
loop_
_space_group_symop_operation_xyz
x,y,z
-x,y,1/2-z
-x,-y,-z
x,-y,1/2+z
1/2+x,1/2+y,z
1/2-x,1/2+y,1/2-z
1/2-x,1/2-y,-z
1/2+x,1/2-y,1/2+z
loop_
_atom_site_type_symbol
_atom_site_label
_atom_site_fract_x
_atom_site_fract_y
_atom_site_fract_z
Si Si1 0.819051 0.019986 0.545110
Si Si2 0.923175 0.244120 0.959412
Si Si3 0.113583 0.352831 0.721436
Si Si4 0.500000 0.105720 0.750000
Si Si5 0.889948 0.507423 0.890790
Si Si6 0.212957 0.359819 0.441866
Si Si7 0.500000 0.436161 0.750000
Si Si8 0.867305 0.145904 0.388383
O O1 0.720554 0.057493 0.591750
O O2 0.734494 0.951072 0.471234
O O3 0.929700 0.989305 0.647314
O O4 0.870363 0.078274 0.475697
O O5 0.939717 0.275473 0.851418
O O6 0.843922 0.165522 0.939614
O O7 0.836988 0.311741 0.979216
O O8 0.053527 0.221622 0.050393
O O9 0.156502 0.421776 0.659139
O O10 0.227131 0.328332 0.828026
O O11 0.000000 0.386098 0.750000
O O12 0.392848 0.158268 0.671372
O O13 0.433107 0.053805 0.809502
O O14 0.000000 0.500000 0.000000
O O15 0.585048 0.382151 0.706068
#
# Coordination Sequence:
#
# PCOD8153631 Si02
#       8
#     8   8   8   4   8   8   4   8
#     4  12  24  45  71 111 145 184 247 315 369 437
#     4  11  26  46  67 104 150 192 245 292 371 456
#     4  12  25  48  71  99 149 195 237 299 378 437
#     4  12  24  39  74 103 134 182 248 300 356 428
#     4  12  22  41  71 104 137 179 239 306 360 418
#     4  11  24  43  69 102 141 183 245 304 353 441
#     4  12  24  43  74 103 146 194 236 310 380 432
#     4  12  27  46  77 108 146 198 249 306 376 449
#
# _framework density 22.558879999999998
#
# number of rings (size 3 to 8) (size 9 to 14) (size 15 to 20)
#    0.000    0.286    6.429    2.143    4.000    0.571 
#    3.857    0.000    0.000    0.000    0.000    0.000 
#    0.000    0.000    0.000    0.000    0.000    0.000 
#
# Total GULP energy -346996.017855 kJ/mol
# GULP energy per Si atom -12392.714923 kJ/mol
# Density = 2.250753 g / cm^3
# Si number density = 22.558880 Si / 1000 Ang^3
#
#
#
# Elastic Constant Matrix: (Units=GPa)
#
#
# Indices 1 2 3 4 5 6 
#
# 1 111.9610 14.0017 37.4003 0.0000 0.3138 0.0000
# 2 14.0017 47.1281 26.0807 0.0000 -7.4063 0.0000
# 3 37.4003 26.0807 112.8828 0.0000 17.7339 0.0000
# 4 0.0000 0.0000 0.0000 31.8727 0.0000 17.2377
# 5 0.3138 -7.4063 17.7339 0.0000 58.6023 0.0000
# 6 0.0000 0.0000 0.0000 17.2377 0.0000 16.2421
#
#
#
# Elastic Compliance Matrix: (Units=1/GPa)
#
#
# Indices 1 2 3 4 5 6 
#
# 1 0.010146 -0.001104 -0.003230 0.000000 0.000783 0.000000
# 2 -0.001104 0.025939 -0.006450 0.000000 0.005236 0.000000
# 3 -0.003230 -0.006450 0.012121 0.000000 -0.004466 0.000000
# 4 0.000000 0.000000 0.000000 0.073647 0.000000 -0.078161
# 5 0.000783 0.005236 -0.004466 0.000000 0.019073 0.000000
# 6 0.000000 0.000000 0.000000 -0.078161 0.000000 0.144521
#
#
# Mechanical properties :
#
#
# Convention : Reuss Voigt Hill
#
# Bulk Modulus (GPa) = 37.53918 47.43747 42.48833
# Shear Modulus (GPa) = 15.82811 34.30937 25.06874
#
# Velocity S-wave (km/s) = 2.65171 3.90408 3.33717
# Velocity P-wave (km/s) = 5.10413 6.43400 5.80726
#
# Compressibility (1/GPa) = 0.02663883
#
# Stress axis : x y z
#
# Youngs Moduli (GPa) = 98.55677 38.55219 82.50461
#
# Poissons Ratio (x) = 0.04256 0.26647
# Poissons Ratio (y) = 0.10881 0.53213
# Poissons Ratio (z) = 0.31831 0.24865
#
# Static dielectric constant tensor:
#      x y z
#    x 4.332510 0.000000 -0.016330 
#    y 0.000000 3.811740 0.000000 
#    z -0.016330 0.000000 4.123610 
# 
# 
# High freq. dielectric constant tensor:
#      x y z
#    x 1.908440 0.000000 0.002330 
#    y 0.000000 1.860150 0.000000 
#    z 0.002330 0.000000 1.902820 
# 
# From -- ./inp_files/145777.got.cif
#   From: 2010.06.25/outbox.cif.g09.slc.cpg/sg15_73_cif.got.tgz:145777.got - 2010.06.28 07:06:18.
