data_PCOD8153261
_publ_section_title
;
Structure prediction by ZEFSAII (Michael W. Deem and Ramdas Pophale) SiO2 
 PCOD8153261
Probable space group: C 2/C
;
_chemical_formula_sum "Si O2"
_cell_formula_units_Z 48
_cell_length_a 23.884437
_cell_length_b 8.365589
_cell_length_c 14.736280
_cell_angle_alpha 90.000000
_cell_angle_beta 44.715014
_cell_angle_gamma 90.000000
_cell_volume 2071.636064
_symmetry_space_group_name_H-M "C 2/C"
_symmetry_group_IT_number 15
_symmetry_cell_setting 'monoclinic'
loop_
_space_group_symop_operation_xyz
x,y,z
-x,y,1/2-z
-x,-y,-z
x,-y,1/2+z
1/2+x,1/2+y,z
1/2-x,1/2+y,1/2-z
1/2-x,1/2-y,-z
1/2+x,1/2-y,1/2+z
loop_
_atom_site_type_symbol
_atom_site_label
_atom_site_fract_x
_atom_site_fract_y
_atom_site_fract_z
Si Si1 0.837588 0.556407 0.797521
Si Si2 0.831248 0.952879 0.438494
Si Si3 0.089395 0.628282 0.129779
Si Si4 0.113709 0.916444 0.800951
Si Si5 0.420926 0.945506 0.540048
Si Si6 0.567044 0.415712 0.528410
O O1 0.895021 0.512389 0.815551
O O2 0.861136 0.732546 0.735987
O O3 0.851326 0.442779 0.695032
O O4 0.747104 0.531735 0.929319
O O5 0.842372 0.762700 0.436922
O O6 0.829650 0.986863 0.332868
O O7 0.904090 0.042663 0.403945
O O8 0.000000 0.694762 0.250000
O O9 0.098615 0.567787 0.017333
O O10 0.121537 0.981460 0.894873
O O11 0.024672 0.961559 0.873348
O O12 0.426087 0.771296 0.493728
O O13 0.500000 0.000000 0.500000
#
# Coordination Sequence:
#
# PCOD8153261 Si02
#       6
#     8   8   8   8   8   8
#     4  12  26  45  68 103 140 185 227 290 358 414
#     4  12  27  42  67 105 143 177 232 290 356 410
#     4  12  24  44  74  99 137 190 239 288 347 413
#     4  11  23  44  70  95 142 179 235 285 342 417
#     4  12  24  44  72  98 137 179 238 287 344 416
#     4  11  24  42  71 102 131 185 232 287 345 413
#
# _framework density 23.170092
#
# number of rings (size 3 to 8) (size 9 to 14) (size 15 to 20)
#    0.000    0.333    3.333    5.500    2.333    4.000 
#    0.000    0.000    0.000    0.000    0.000    0.000 
#    0.000    0.000    0.000    0.000    0.000    0.000 
#
# Total GULP energy -297649.051532 kJ/mol
# GULP energy per Si atom -12402.043814 kJ/mol
# Density = 2.311736 g / cm^3
# Si number density = 23.170092 Si / 1000 Ang^3
#
#
#
# Elastic Constant Matrix: (Units=GPa)
#
#
# Indices 1 2 3 4 5 6 
#
# 1 51.5719 7.9613 9.3830 0.0007 10.0520 -0.0005
# 2 7.9613 106.2315 5.5626 0.0053 7.6554 -0.0069
# 3 9.3830 5.5626 119.8470 0.0022 4.6866 -0.0032
# 4 0.0007 0.0053 0.0022 43.4710 -0.0013 5.0385
# 5 10.0520 7.6554 4.6866 -0.0013 42.6186 0.0013
# 6 -0.0005 -0.0069 -0.0032 5.0385 0.0013 22.0274
#
#
#
# Elastic Compliance Matrix: (Units=1/GPa)
#
#
# Indices 1 2 3 4 5 6 
#
# 1 0.020703 -0.001153 -0.001390 0.000000 -0.004523 0.000000
# 2 -0.001153 0.009618 -0.000301 -0.000002 -0.001423 0.000003
# 3 -0.001390 -0.000301 0.008488 -0.000001 -0.000551 0.000001
# 4 0.000000 -0.000002 -0.000001 0.023630 0.000001 -0.005405
# 5 -0.004523 -0.001423 -0.000551 0.000001 0.024847 -0.000002
# 6 0.000000 0.000003 0.000001 -0.005405 -0.000002 0.046634
#
#
# Mechanical properties :
#
#
# Convention : Reuss Voigt Hill
#
# Bulk Modulus (GPa) = 30.19165 35.94048 33.06606
# Shear Modulus (GPa) = 33.18971 38.60629 35.89800
#
# Velocity S-wave (km/s) = 3.78886 4.08635 3.94042
# Velocity P-wave (km/s) = 5.67445 6.14896 5.91646
#
# Compressibility (1/GPa) = 0.03312174
#
# Stress axis : x y z
#
# Youngs Moduli (GPa) = 48.30233 103.97105 117.80852
#
# Poissons Ratio (x) = 0.11986 0.16381
# Poissons Ratio (y) = 0.05568 0.03540
# Poissons Ratio (z) = 0.06716 0.03125
#
# Static dielectric constant tensor:
#      x y z
#    x 4.093340 0.000010 0.198340 
#    y 0.000010 4.095370 0.000010 
#    z 0.198340 0.000010 4.501790 
# 
# 
# High freq. dielectric constant tensor:
#      x y z
#    x 1.909170 0.000000 0.014660 
#    y 0.000000 1.921250 0.000000 
#    z 0.014660 0.000000 1.934750 
# 
# From -- ./inp_files/176864.got.cif
#   From: 2010.06.25/outbox.cif.g09.slc.cpg/sg15_89_cif.got.tgz:176864.got - 2010.06.28 07:06:18.
