data_PCOD8153949
_publ_section_title
;
Structure prediction by ZEFSAII (Michael W. Deem and Ramdas Pophale) SiO2 
 PCOD8153949
Probable space group: C 2/C
;
_chemical_formula_sum "Si O2"
_cell_formula_units_Z 56
_cell_length_a 29.439077
_cell_length_b 11.100860
_cell_length_c 9.512578
_cell_angle_alpha 90.000000
_cell_angle_beta 54.589272
_cell_angle_gamma 90.000000
_cell_volume 2533.651910
_symmetry_space_group_name_H-M "C 2/C"
_symmetry_group_IT_number 15
_symmetry_cell_setting 'monoclinic'
loop_
_space_group_symop_operation_xyz
x,y,z
-x,y,1/2-z
-x,-y,-z
x,-y,1/2+z
1/2+x,1/2+y,z
1/2-x,1/2+y,1/2-z
1/2-x,1/2-y,-z
1/2+x,1/2-y,1/2+z
loop_
_atom_site_type_symbol
_atom_site_label
_atom_site_fract_x
_atom_site_fract_y
_atom_site_fract_z
Si Si1 0.632636 0.982373 0.051770
Si Si2 0.558966 0.042830 0.953146
Si Si3 0.941555 0.193462 0.910459
Si Si4 0.348695 0.654548 0.843737
Si Si5 0.703482 0.216532 0.837557
Si Si6 0.360236 0.383634 0.764033
Si Si7 0.327717 0.262584 0.087316
O O1 0.608926 0.972871 0.251527
O O2 0.677306 0.876294 0.949497
O O3 0.578708 0.961045 0.048535
O O4 0.663567 0.105559 0.952678
O O5 0.552923 0.176079 0.028238
O O6 0.500000 0.000000 0.000000
O O7 0.901344 0.185821 0.847591
O O8 0.000000 0.144599 0.750000
O O9 0.918825 0.107158 0.075521
O O10 0.337158 0.517831 0.818964
O O11 0.355496 0.731264 0.690297
O O12 0.294528 0.695234 0.030151
O O13 0.679721 0.290714 0.747435
O O14 0.766391 0.176062 0.692402
O O15 0.367972 0.333276 0.907421
#
# Coordination Sequence:
#
# PCOD8153949 Si02
#       7
#     8   8   8   8   8   8   8
#     4  12  24  44  72 106 145 180 244 289 356 434
#     4  12  25  44  73 104 138 190 222 300 367 416
#     4  11  24  48  70  99 140 177 230 295 364 414
#     4  11  25  45  70  98 141 186 236 289 345 421
#     4  11  25  46  68 102 147 190 223 300 351 408
#     4  11  24  47  70  97 139 188 240 287 340 423
#     4  12  25  42  70 107 138 187 244 282 356 422
#
# _framework density 22.102484
#
# number of rings (size 3 to 8) (size 9 to 14) (size 15 to 20)
#    0.000    0.571    4.286    4.714    6.000    0.571 
#    0.000    0.714    0.000    0.000    0.000    0.000 
#    0.000    0.000    0.000    0.000    0.000    0.000 
#
# Total GULP energy -347015.480840 kJ/mol
# GULP energy per Si atom -12393.410030 kJ/mol
# Density = 2.205218 g / cm^3
# Si number density = 22.102484 Si / 1000 Ang^3
#
#
#
# Elastic Constant Matrix: (Units=GPa)
#
#
# Indices 1 2 3 4 5 6 
#
# 1 81.5015 16.7644 49.2402 0.0000 -1.0725 0.0000
# 2 16.7644 102.8123 32.1916 0.0000 -1.8492 0.0000
# 3 49.2402 32.1916 154.4005 0.0000 8.7339 0.0000
# 4 0.0000 0.0000 0.0000 31.4052 0.0000 1.9258
# 5 -1.0725 -1.8492 8.7339 0.0000 37.8987 0.0000
# 6 0.0000 0.0000 0.0000 1.9258 0.0000 27.3583
#
#
#
# Elastic Compliance Matrix: (Units=1/GPa)
#
#
# Indices 1 2 3 4 5 6 
#
# 1 0.015382 -0.000983 -0.004785 0.000000 0.001490 0.000000
# 2 -0.000983 0.010508 -0.001930 0.000000 0.000930 0.000000
# 3 -0.004785 -0.001930 0.008529 0.000000 -0.002195 0.000000
# 4 0.000000 0.000000 0.000000 0.031980 0.000000 -0.002251
# 5 0.001490 0.000930 -0.002195 0.000000 0.026980 0.000000
# 6 0.000000 0.000000 0.000000 -0.002251 0.000000 0.036710
#
#
# Mechanical properties :
#
#
# Convention : Reuss Voigt Hill
#
# Bulk Modulus (GPa) = 52.56687 59.45631 56.01159
# Shear Modulus (GPa) = 32.93235 35.36697 34.14966
#
# Velocity S-wave (km/s) = 3.86422 4.00451 3.93499
# Velocity P-wave (km/s) = 6.61396 6.95271 6.78545
#
# Compressibility (1/GPa) = 0.01902339
#
# Stress axis : x y z
#
# Youngs Moduli (GPa) = 65.00911 95.16777 117.24463
#
# Poissons Ratio (x) = 0.09357 0.56101
# Poissons Ratio (y) = 0.06392 0.22626
# Poissons Ratio (z) = 0.31107 0.18366
#
# Static dielectric constant tensor:
#      x y z
#    x 3.853220 0.000000 0.127320 
#    y 0.000000 3.973940 0.000000 
#    z 0.127320 0.000000 4.537680 
# 
# 
# High freq. dielectric constant tensor:
#      x y z
#    x 1.854030 0.000000 0.015370 
#    y 0.000000 1.866090 0.000000 
#    z 0.015370 0.000000 1.897130 
# 
# From -- ./inp_files/69308.got.cif
#   From: 2010.06.25/outbox.cif.g09.slc.cpg/sg15_35_cif.got.tgz:69308.got - 2010.06.28 07:06:18.
