data_PCOD8153878
_publ_section_title
;
Structure prediction by ZEFSAII (Michael W. Deem and Ramdas Pophale) SiO2 
 PCOD8153878
Probable space group: C 2/C
;
_chemical_formula_sum "Si O2"
_cell_formula_units_Z 40
_cell_length_a 11.447105
_cell_length_b 22.592483
_cell_length_c 14.039505
_cell_angle_alpha 90.000000
_cell_angle_beta 151.546333
_cell_angle_gamma 90.000000
_cell_volume 1729.923416
_symmetry_space_group_name_H-M "C 2/C"
_symmetry_group_IT_number 15
_symmetry_cell_setting 'monoclinic'
loop_
_space_group_symop_operation_xyz
x,y,z
-x,y,1/2-z
-x,-y,-z
x,-y,1/2+z
1/2+x,1/2+y,z
1/2-x,1/2+y,1/2-z
1/2-x,1/2-y,-z
1/2+x,1/2-y,1/2+z
loop_
_atom_site_type_symbol
_atom_site_label
_atom_site_fract_x
_atom_site_fract_y
_atom_site_fract_z
Si Si1 0.000000 0.477454 0.750000
Si Si2 0.283003 0.926846 0.961524
Si Si3 0.474427 0.694143 0.993177
Si Si4 0.000000 0.668682 0.750000
Si Si5 0.219323 0.190991 0.840354
Si Si6 0.124547 0.603476 0.174695
O O1 0.818117 0.516073 0.554199
O O2 0.840851 0.437321 0.707729
O O3 0.387730 0.936300 0.929710
O O4 0.000000 0.912418 0.750000
O O5 0.426781 0.871405 0.107790
O O6 0.232804 0.708183 0.884190
O O7 0.397518 0.663622 0.838685
O O8 0.609609 0.755103 0.068884
O O9 0.645584 0.647732 0.170629
O O10 0.000000 0.214636 0.750000
O O11 0.374550 0.141302 0.006929
#
# Coordination Sequence:
#
# PCOD8153878 Si02
#       6
#     4   8   8   4   8   8
#     4  11  28  44  72 106 132 186 244 295 358 418
#     4  11  24  48  72 100 139 181 240 305 350 415
#     4  12  25  43  73 104 144 192 232 287 351 427
#     4  11  24  46  70 106 142 186 244 287 354 418
#     4  12  26  44  70 108 150 186 234 286 351 431
#     4  12  25  47  72 105 143 188 231 294 360 412
#
# _framework density 23.122411
#
# number of rings (size 3 to 8) (size 9 to 14) (size 15 to 20)
#    0.000    0.400    6.000    2.400    1.400    4.000 
#    1.800    0.000    0.000    0.000    0.000    0.000 
#    0.000    0.000    0.000    0.000    0.000    0.000 
#
# Total GULP energy -248036.139843 kJ/mol
# GULP energy per Si atom -12401.806992 kJ/mol
# Density = 2.306978 g / cm^3
# Si number density = 23.122411 Si / 1000 Ang^3
#
#
#
# Elastic Constant Matrix: (Units=GPa)
#
#
# Indices 1 2 3 4 5 6 
#
# 1 183.9294 56.7341 54.0396 -0.0008 2.8957 -0.0006
# 2 56.7341 93.2144 39.4001 -0.0004 1.7099 -0.0003
# 3 54.0396 39.4001 118.2714 -0.0019 2.6884 -0.0024
# 4 -0.0008 -0.0004 -0.0019 7.4649 -0.0010 -12.0839
# 5 2.8957 1.7099 2.6884 -0.0010 49.0240 -0.0012
# 6 -0.0006 -0.0003 -0.0024 -12.0839 -0.0012 25.8734
#
#
#
# Elastic Compliance Matrix: (Units=1/GPa)
#
#
# Indices 1 2 3 4 5 6 
#
# 1 0.007119 -0.003441 -0.002102 0.000000 -0.000185 0.000000
# 2 -0.003441 0.014151 -0.003139 -0.000003 -0.000118 -0.000002
# 3 -0.002102 -0.003139 0.010469 0.000015 -0.000340 0.000008
# 4 0.000000 -0.000003 0.000015 0.549077 0.000016 0.256441
# 5 -0.000185 -0.000118 -0.000340 0.000016 0.020432 0.000009
# 6 0.000000 -0.000002 0.000008 0.256441 0.000009 0.158418
#
#
# Mechanical properties :
#
#
# Convention : Reuss Voigt Hill
#
# Bulk Modulus (GPa) = 69.56789 77.30697 73.43743
# Shear Modulus (GPa) = 6.39531 32.82188 19.60860
#
# Velocity S-wave (km/s) = 1.66489 3.77169 2.91526
# Velocity P-wave (km/s) = 5.81790 7.24389 6.56970
#
# Compressibility (1/GPa) = 0.01437445
#
# Stress axis : x y z
#
# Youngs Moduli (GPa) = 140.47382 70.66468 95.51795
#
# Poissons Ratio (x) = 0.24314 0.20080
# Poissons Ratio (y) = 0.48335 0.29987
# Poissons Ratio (z) = 0.29530 0.22185
#
# Static dielectric constant tensor:
#      x y z
#    x 4.255950 0.000000 -0.210880 
#    y 0.000000 3.836180 0.000000 
#    z -0.210880 0.000000 4.592030 
# 
# 
# High freq. dielectric constant tensor:
#      x y z
#    x 1.927830 0.000000 -0.010610 
#    y 0.000000 1.890750 0.000000 
#    z -0.010610 0.000000 1.930690 
# 
# From -- ./inp_files/148198.got.cif
#   From: 2010.06.25/outbox.cif.g09.slc.cpg/sg15_75_cif.got.tgz:148198.got - 2010.06.28 07:06:18.
