data_PCOD8153741
_publ_section_title
;
Structure prediction by ZEFSAII (Michael W. Deem and Ramdas Pophale) SiO2 
 PCOD8153741
Probable space group: C 2/C
;
_chemical_formula_sum "Si O2"
_cell_formula_units_Z 64
_cell_length_a 16.596144
_cell_length_b 8.535437
_cell_length_c 29.571511
_cell_angle_alpha 90.000000
_cell_angle_beta 139.972461
_cell_angle_gamma 90.000000
_cell_volume 2694.155236
_symmetry_space_group_name_H-M "C 2/C"
_symmetry_group_IT_number 15
_symmetry_cell_setting 'monoclinic'
loop_
_space_group_symop_operation_xyz
x,y,z
-x,y,1/2-z
-x,-y,-z
x,-y,1/2+z
1/2+x,1/2+y,z
1/2-x,1/2+y,1/2-z
1/2-x,1/2-y,-z
1/2+x,1/2-y,1/2+z
loop_
_atom_site_type_symbol
_atom_site_label
_atom_site_fract_x
_atom_site_fract_y
_atom_site_fract_z
Si Si1 0.003780 0.581556 0.933846
Si Si2 0.754872 0.423582 0.586120
Si Si3 0.245820 0.940211 0.177854
Si Si4 0.136368 0.133869 0.461506
Si Si5 0.454348 0.444875 0.331712
Si Si6 0.200885 0.425769 0.076707
Si Si7 0.025559 0.584174 0.169908
Si Si8 0.366740 0.376107 0.708754
O O1 0.016340 0.756523 0.919894
O O2 0.900230 0.588675 0.927327
O O3 0.961621 0.459949 0.877173
O O4 0.140779 0.530386 0.011194
O O5 0.723473 0.453292 0.624713
O O6 0.661911 0.522868 0.515065
O O7 0.735271 0.239676 0.568947
O O8 0.895179 0.478061 0.634220
O O9 0.121809 0.947302 0.154352
O O10 0.267043 0.762430 0.170717
O O11 0.365022 0.999994 0.256290
O O12 0.250000 0.250000 0.500000
O O13 0.091561 0.023559 0.400229
O O14 0.469889 0.269422 0.320784
O O15 0.376170 0.537648 0.260714
O O16 0.324031 0.504465 0.151032
O O17 0.500000 0.308228 0.750000
#
# Coordination Sequence:
#
# PCOD8153741 Si02
#       8
#     8   8   8   8   8   8   8   8
#     4  11  24  44  72  97 141 183 231 293 346 429
#     4  12  26  44  71 100 142 178 233 297 345 427
#     4  12  26  46  70 103 142 186 234 290 356 427
#     4  12  27  45  71 102 136 187 238 292 357 422
#     4  12  27  45  72 101 142 186 237 291 357 423
#     4  11  25  44  69 105 138 182 234 287 358 413
#     4  12  25  45  70 104 140 184 234 291 357 416
#     4  12  26  44  74 104 145 188 235 295 353 429
#
# _framework density 23.755127000000002
#
# number of rings (size 3 to 8) (size 9 to 14) (size 15 to 20)
#    0.000    0.250    1.250    7.875    5.250    5.000 
#    0.000    0.000    0.000    0.000    0.000    0.000 
#    0.000    0.000    0.000    0.000    0.000    0.000 
#
# Total GULP energy -397071.590953 kJ/mol
# GULP energy per Si atom -12408.487217 kJ/mol
# Density = 2.370106 g / cm^3
# Si number density = 23.755127 Si / 1000 Ang^3
#
#
#
# Elastic Constant Matrix: (Units=GPa)
#
#
# Indices 1 2 3 4 5 6 
#
# 1 47.0741 9.8757 5.3451 0.0000 -6.2896 0.0000
# 2 9.8757 104.3433 15.8976 0.0000 0.1985 -0.0001
# 3 5.3451 15.8976 107.2127 0.0000 -10.1042 0.0000
# 4 0.0000 0.0000 0.0000 27.2779 0.0000 -5.0538
# 5 -6.2896 0.1985 -10.1042 0.0000 36.0298 0.0000
# 6 0.0000 -0.0001 0.0000 -5.0538 0.0000 40.1124
#
#
#
# Elastic Compliance Matrix: (Units=1/GPa)
#
#
# Indices 1 2 3 4 5 6 
#
# 1 0.022226 -0.002042 -0.000450 0.000000 0.003765 0.000000
# 2 -0.002042 0.010001 -0.001458 0.000000 -0.000821 0.000000
# 3 -0.000450 -0.001458 0.009819 0.000000 0.002683 0.000000
# 4 0.000000 0.000000 0.000000 0.037536 0.000000 0.004729
# 5 0.003765 -0.000821 0.002683 0.000000 0.029169 0.000000
# 6 0.000000 0.000000 0.000000 0.004729 0.000000 0.025526
#
#
# Mechanical properties :
#
#
# Convention : Reuss Voigt Hill
#
# Bulk Modulus (GPa) = 29.28833 35.65187 32.47010
# Shear Modulus (GPa) = 32.56078 35.85147 34.20613
#
# Velocity S-wave (km/s) = 3.70629 3.88907 3.79878
# Velocity P-wave (km/s) = 5.53819 5.93356 5.73928
#
# Compressibility (1/GPa) = 0.03414330
#
# Stress axis : x y z
#
# Youngs Moduli (GPa) = 44.99299 99.99211 101.84514
#
# Poissons Ratio (x) = 0.20419 0.04588
# Poissons Ratio (y) = 0.09188 0.14854
# Poissons Ratio (z) = 0.02027 0.14583
#
# Static dielectric constant tensor:
#      x y z
#    x 4.288290 0.000000 -0.019750 
#    y 0.000000 4.453540 0.000000 
#    z -0.019750 0.000000 4.351380 
# 
# 
# High freq. dielectric constant tensor:
#      x y z
#    x 1.956010 0.000000 -0.001420 
#    y 0.000000 1.954050 0.000000 
#    z -0.001420 0.000000 1.948480 
# 
# From -- ./inp_files/315736.got.cif
#   From: 2010.06.25/outbox.cif.g09.slc.cpg/sg15_158_cif.got.tgz:315736.got - 2010.06.28 07:06:18.
