data_PCOD8153884
_publ_section_title
;
Structure prediction by ZEFSAII (Michael W. Deem and Ramdas Pophale) SiO2 
 PCOD8153884
Probable space group: C 2/C
;
_chemical_formula_sum "Si O2"
_cell_formula_units_Z 44
_cell_length_a 17.443118
_cell_length_b 11.714402
_cell_length_c 11.819272
_cell_angle_alpha 90.000000
_cell_angle_beta 123.222980
_cell_angle_gamma 90.000000
_cell_volume 2020.338249
_symmetry_space_group_name_H-M "C 2/C"
_symmetry_group_IT_number 15
_symmetry_cell_setting 'monoclinic'
loop_
_space_group_symop_operation_xyz
x,y,z
-x,y,1/2-z
-x,-y,-z
x,-y,1/2+z
1/2+x,1/2+y,z
1/2-x,1/2+y,1/2-z
1/2-x,1/2-y,-z
1/2+x,1/2-y,1/2+z
loop_
_atom_site_type_symbol
_atom_site_label
_atom_site_fract_x
_atom_site_fract_y
_atom_site_fract_z
Si Si1 0.041361 0.702928 0.628041
Si Si2 0.500000 0.991412 0.250000
Si Si3 0.834875 0.760182 0.418308
Si Si4 0.375153 0.177402 0.043751
Si Si5 0.835545 0.874312 0.649944
Si Si6 0.670957 0.365177 0.332169
O O1 0.100533 0.712801 0.563241
O O2 0.075476 0.804761 0.736119
O O3 0.059362 0.585727 0.711046
O O4 0.934145 0.704618 0.513042
O O5 0.431914 0.067506 0.123337
O O6 0.816712 0.851765 0.502351
O O7 0.756901 0.661719 0.357131
O O8 0.830018 0.825800 0.297198
O O9 0.394341 0.283150 0.144855
O O10 0.270684 0.139617 0.967694
O O11 0.863027 0.005164 0.690775
#
# Coordination Sequence:
#
# PCOD8153884 Si02
#       6
#     8   4   8   8   8   8
#     4  12  24  48  71 105 137 186 239 289 346 416
#     4  12  24  46  74 102 138 182 244 290 344 420
#     4  11  24  46  71 102 138 188 236 280 356 415
#     4  11  26  45  68 108 138 181 238 288 358 410
#     4  11  25  45  71 104 137 185 238 285 351 417
#     4  11  26  44  71 101 147 185 225 296 353 414
#
# _framework density 21.77853
#
# number of rings (size 3 to 8) (size 9 to 14) (size 15 to 20)
#    0.000    0.727    3.636    2.727    5.091    2.182 
#    6.545    0.000    0.000    0.000    0.000    0.000 
#    0.000    0.000    0.000    0.000    0.000    0.000 
#
# Total GULP energy -272902.751000 kJ/mol
# GULP energy per Si atom -12404.670500 kJ/mol
# Density = 2.172896 g / cm^3
# Si number density = 21.778530 Si / 1000 Ang^3
#
#
#
# Elastic Constant Matrix: (Units=GPa)
#
#
# Indices 1 2 3 4 5 6 
#
# 1 77.8768 38.0809 20.3173 0.0000 -17.3021 0.0000
# 2 38.0809 172.5774 55.5155 0.0000 -20.8630 0.0000
# 3 20.3173 55.5155 105.9396 0.0000 -21.8206 0.0000
# 4 0.0000 0.0000 0.0000 27.5547 0.0000 6.6839
# 5 -17.3021 -20.8630 -21.8206 0.0000 56.6800 0.0000
# 6 0.0000 0.0000 0.0000 6.6839 0.0000 31.3638
#
#
#
# Elastic Compliance Matrix: (Units=1/GPa)
#
#
# Indices 1 2 3 4 5 6 
#
# 1 0.015094 -0.002668 -0.000814 0.000000 0.003312 0.000000
# 2 -0.002668 0.007525 -0.003290 0.000000 0.000689 0.000000
# 3 -0.000814 -0.003290 0.011968 0.000000 0.003148 0.000000
# 4 0.000000 0.000000 0.000000 0.038270 0.000000 -0.008156
# 5 0.003312 0.000689 0.003148 0.000000 0.020119 0.000000
# 6 0.000000 0.000000 0.000000 -0.008156 0.000000 0.033622
#
#
# Mechanical properties :
#
#
# Convention : Reuss Voigt Hill
#
# Bulk Modulus (GPa) = 47.52411 64.91346 56.21879
# Shear Modulus (GPa) = 33.97762 39.28502 36.63132
#
# Velocity S-wave (km/s) = 3.95415 4.25177 4.10566
# Velocity P-wave (km/s) = 6.53575 7.34672 6.95307
#
# Compressibility (1/GPa) = 0.02104195
#
# Stress axis : x y z
#
# Youngs Moduli (GPa) = 66.25231 132.89455 83.55790
#
# Poissons Ratio (x) = 0.35460 0.06804
# Poissons Ratio (y) = 0.17678 0.27487
# Poissons Ratio (z) = 0.05395 0.43717
#
# Static dielectric constant tensor:
#      x y z
#    x 4.041940 0.000000 -0.074390 
#    y 0.000000 3.880650 0.000000 
#    z -0.074390 0.000000 4.100600 
# 
# 
# High freq. dielectric constant tensor:
#      x y z
#    x 1.860380 0.000000 -0.003340 
#    y 0.000000 1.851390 0.000000 
#    z -0.003340 0.000000 1.874070 
# 
# From -- ./inp_files/104369.got.cif
#   From: 2010.06.25/outbox.cif.g09.slc.cpg/sg15_53_cif.got.tgz:104369.got - 2010.06.28 07:06:18.
