data_PCOD8153200
_publ_section_title
;
Structure prediction by ZEFSAII (Michael W. Deem and Ramdas Pophale) SiO2 
 PCOD8153200
Probable space group: C 2/C
;
_chemical_formula_sum "Si O2"
_cell_formula_units_Z 60
_cell_length_a 10.988893
_cell_length_b 25.930431
_cell_length_c 19.359626
_cell_angle_alpha 90.000000
_cell_angle_beta 151.053495
_cell_angle_gamma 90.000000
_cell_volume 2669.928010
_symmetry_space_group_name_H-M "C 2/C"
_symmetry_group_IT_number 15
_symmetry_cell_setting 'monoclinic'
loop_
_space_group_symop_operation_xyz
x,y,z
-x,y,1/2-z
-x,-y,-z
x,-y,1/2+z
1/2+x,1/2+y,z
1/2-x,1/2+y,1/2-z
1/2-x,1/2-y,-z
1/2+x,1/2-y,1/2+z
loop_
_atom_site_type_symbol
_atom_site_label
_atom_site_fract_x
_atom_site_fract_y
_atom_site_fract_z
Si Si1 0.540451 0.643992 0.659300
Si Si2 0.782960 0.790820 0.372342
Si Si3 0.493844 0.810904 0.572368
Si Si4 0.770267 0.956033 0.012114
Si Si5 0.578372 0.901885 0.049816
Si Si6 0.500000 0.077047 0.250000
Si Si7 0.371684 0.646228 0.359928
Si Si8 0.891927 0.062311 0.120079
O O1 0.727573 0.672627 0.700050
O O2 0.301523 0.681313 0.556136
O O3 0.453543 0.590441 0.581549
O O4 0.683355 0.627927 0.800046
O O5 0.500000 0.773389 0.250000
O O6 0.960430 0.742172 0.444756
O O7 0.901550 0.820728 0.495916
O O8 0.585000 0.857901 0.569272
O O9 0.666493 0.814143 0.726436
O O10 0.558657 0.958201 0.846558
O O11 0.656189 0.944342 0.031349
O O12 0.923004 0.009574 0.091683
O O13 0.408617 0.928233 0.023959
O O14 0.739637 0.113099 0.353906
O O15 0.477592 0.608972 0.353700
O O16 0.000000 0.054814 0.250000
#
# Coordination Sequence:
#
# PCOD8153200 Si02
#       8
#     8   8   8   8   8   4   8   8
#     4  11  23  47  69 106 142 181 241 298 348 430
#     4  12  28  45  70 107 144 187 235 296 368 420
#     4  11  24  45  74  99 137 191 235 292 355 425
#     4  11  23  43  73 104 139 189 235 294 350 427
#     4  11  23  44  72 105 141 173 245 298 350 418
#     4  12  22  48  68 100 144 184 244 286 350 426
#     4  12  25  48  72  99 145 189 235 298 350 431
#     4  12  24  44  73 105 142 188 237 291 364 422
#
# _framework density 22.472515999999999
#
# number of rings (size 3 to 8) (size 9 to 14) (size 15 to 20)
#    0.000    0.533    5.333    4.000    3.733    2.133 
#    6.000    0.000    0.000    0.000    0.000    0.000 
#    0.000    0.000    0.000    0.000    0.000    0.000 
#
# Total GULP energy -371966.005493 kJ/mol
# GULP energy per Si atom -12398.866850 kJ/mol
# Density = 2.242137 g / cm^3
# Si number density = 22.472516 Si / 1000 Ang^3
#
#
#
# Elastic Constant Matrix: (Units=GPa)
#
#
# Indices 1 2 3 4 5 6 
#
# 1 89.4474 31.7648 42.2152 -0.0325 2.0859 0.0001
# 2 31.7648 96.6002 33.9786 -0.0544 -1.7479 0.0059
# 3 42.2152 33.9786 135.2093 -0.1693 -7.6720 -0.0816
# 4 -0.0325 -0.0544 -0.1693 21.1334 -0.0149 -5.9054
# 5 2.0859 -1.7479 -7.6720 -0.0149 36.5974 0.0062
# 6 0.0001 0.0059 -0.0816 -5.9054 0.0062 17.6672
#
#
#
# Elastic Compliance Matrix: (Units=1/GPa)
#
#
# Indices 1 2 3 4 5 6 
#
# 1 0.014156 -0.003397 -0.003665 -0.000024 -0.001737 -0.000023
# 2 -0.003397 0.012171 -0.001977 0.000007 0.000360 -0.000011
# 3 -0.003665 -0.001977 0.009153 0.000084 0.002033 0.000070
# 4 -0.000024 0.000007 0.000084 0.052194 0.000037 0.017447
# 5 -0.001737 0.000360 0.002033 0.000037 0.027867 0.000012
# 6 -0.000023 -0.000011 0.000070 0.017447 0.000012 0.062434
#
#
# Mechanical properties :
#
#
# Convention : Reuss Voigt Hill
#
# Bulk Modulus (GPa) = 57.46827 59.68601 58.57714
# Shear Modulus (GPa) = 24.77026 29.29947 27.03487
#
# Velocity S-wave (km/s) = 3.32361 3.61472 3.47222
# Velocity P-wave (km/s) = 6.35270 6.63618 6.49598
#
# Compressibility (1/GPa) = 0.01740091
#
# Stress axis : x y z
#
# Youngs Moduli (GPa) = 70.63971 82.16116 109.25840
#
# Poissons Ratio (x) = 0.27913 0.40041
# Poissons Ratio (y) = 0.23999 0.21606
# Poissons Ratio (z) = 0.25888 0.16247
#
# Static dielectric constant tensor:
#      x y z
#    x 3.951890 -0.000010 -0.087060 
#    y -0.000010 3.963490 -0.000330 
#    z -0.087060 -0.000330 4.128830 
# 
# 
# High freq. dielectric constant tensor:
#      x y z
#    x 1.881450 0.000000 -0.007500 
#    y 0.000000 1.880410 -0.000020 
#    z -0.007500 -0.000020 1.893030 
# 
# From -- ./inp_files/240869.got.cif
#   From: 2010.06.25/outbox.cif.g09.slc.cpg/sg15_121_cif.got.tgz:240869.got - 2010.06.28 07:06:18.
