data_PCOD8153717
_publ_section_title
;
Structure prediction by ZEFSAII (Michael W. Deem and Ramdas Pophale) SiO2 
 PCOD8153717
Probable space group: C 2/C
;
_chemical_formula_sum "Si O2"
_cell_formula_units_Z 44
_cell_length_a 11.439660
_cell_length_b 24.002478
_cell_length_c 10.409479
_cell_angle_alpha 90.000000
_cell_angle_beta 39.047605
_cell_angle_gamma 90.000000
_cell_volume 1800.591585
_symmetry_space_group_name_H-M "C 2/C"
_symmetry_group_IT_number 15
_symmetry_cell_setting 'monoclinic'
loop_
_space_group_symop_operation_xyz
x,y,z
-x,y,1/2-z
-x,-y,-z
x,-y,1/2+z
1/2+x,1/2+y,z
1/2-x,1/2+y,1/2-z
1/2-x,1/2-y,-z
1/2+x,1/2-y,1/2+z
loop_
_atom_site_type_symbol
_atom_site_label
_atom_site_fract_x
_atom_site_fract_y
_atom_site_fract_z
Si Si1 0.389126 0.175975 0.529264
Si Si2 0.314413 0.704555 0.159045
Si Si3 0.804420 0.388683 0.349461
Si Si4 0.000000 0.175504 0.250000
Si Si5 0.834936 0.893054 0.479751
Si Si6 0.372979 0.993955 0.735343
O O1 0.307382 0.238421 0.584322
O O2 0.610420 0.179097 0.348704
O O3 0.309006 0.153507 0.729136
O O4 0.670600 0.135565 0.035991
O O5 0.422052 0.714979 0.202326
O O6 0.427518 0.656577 0.985562
O O7 0.662397 0.365960 0.573605
O O8 0.746275 0.450527 0.350653
O O9 0.000000 0.394978 0.250000
O O10 0.759540 0.939707 0.643926
O O11 0.000000 0.917908 0.250000
O O12 0.500000 0.987860 0.750000
O O13 0.500000 0.000000 0.500000
#
# Coordination Sequence:
#
# PCOD8153717 Si02
#       6
#     8   8   8   4   8   8
#     4  12  25  48  72 107 146 198 242 316 369 451
#     4  12  26  44  75 104 152 192 251 302 381 440
#     4  11  24  44  70 105 148 193 250 307 380 436
#     4  12  26  44  70 112 144 198 252 304 370 462
#     4  12  26  47  73 112 147 196 252 309 375 453
#     4  11  25  46  76 105 149 197 252 311 380 443
#
# _framework density 24.436411
#
# number of rings (size 3 to 8) (size 9 to 14) (size 15 to 20)
#    0.000    0.364    1.818    7.636    5.091    1.455 
#    0.000    2.727    0.000    0.000    0.000    0.000 
#    0.000    0.000    0.000    0.000    0.000    0.000 
#
# Total GULP energy -272793.048268 kJ/mol
# GULP energy per Si atom -12399.684012 kJ/mol
# Density = 2.438079 g / cm^3
# Si number density = 24.436411 Si / 1000 Ang^3
#
#
#
# Elastic Constant Matrix: (Units=GPa)
#
#
# Indices 1 2 3 4 5 6 
#
# 1 95.3824 3.8075 28.6182 0.0000 6.1355 0.0000
# 2 3.8075 165.4320 62.6331 0.0000 7.0208 0.0000
# 3 28.6182 62.6331 125.4928 0.0000 9.3649 0.0000
# 4 0.0000 0.0000 0.0000 29.2696 0.0000 10.2607
# 5 6.1355 7.0208 9.3649 0.0000 41.1944 0.0000
# 6 0.0000 0.0000 0.0000 10.2607 0.0000 29.8022
#
#
#
# Elastic Compliance Matrix: (Units=1/GPa)
#
#
# Indices 1 2 3 4 5 6 
#
# 1 0.011415 0.000912 -0.002970 0.000000 -0.001180 0.000000
# 2 0.000912 0.007534 -0.003929 0.000000 -0.000527 0.000000
# 3 -0.002970 -0.003929 0.010705 0.000000 -0.001322 0.000000
# 4 0.000000 0.000000 0.000000 0.038855 0.000000 -0.013377
# 5 -0.001180 -0.000527 -0.001322 0.000000 0.024841 0.000000
# 6 0.000000 0.000000 0.000000 -0.013377 0.000000 0.038160
#
#
# Mechanical properties :
#
#
# Convention : Reuss Voigt Hill
#
# Bulk Modulus (GPa) = 56.56143 64.04720 60.30431
# Shear Modulus (GPa) = 33.47236 39.46978 36.47107
#
# Velocity S-wave (km/s) = 3.70506 4.02332 3.86747
# Velocity P-wave (km/s) = 6.44204 6.91733 6.68391
#
# Compressibility (1/GPa) = 0.01767989
#
# Stress axis : x y z
#
# Youngs Moduli (GPa) = 87.60560 132.73985 93.41154
#
# Poissons Ratio (x) = -0.12104 0.27745
# Poissons Ratio (y) = -0.07989 0.36698
# Poissons Ratio (z) = 0.26020 0.52148
#
# Static dielectric constant tensor:
#      x y z
#    x 4.027260 0.000000 -0.033960 
#    y 0.000000 4.798460 0.000000 
#    z -0.033960 0.000000 4.345090 
# 
# 
# High freq. dielectric constant tensor:
#      x y z
#    x 1.968890 0.000000 0.006180 
#    y 0.000000 1.981480 0.000000 
#    z 0.006180 0.000000 1.983320 
# 
# From -- ./inp_files/101042.got.cif
#   From: 2010.06.25/outbox.cif.g09.slc.cpg/sg15_51_cif.got.tgz:101042.got - 2010.06.28 07:06:18.
