data_PCOD8153185
_publ_section_title
;
Structure prediction by ZEFSAII (Michael W. Deem and Ramdas Pophale) SiO2 
 PCOD8153185
Probable space group: C 2/C
;
_chemical_formula_sum "Si O2"
_cell_formula_units_Z 64
_cell_length_a 12.232141
_cell_length_b 14.496682
_cell_length_c 30.392066
_cell_angle_alpha 90.000000
_cell_angle_beta 35.248153
_cell_angle_gamma 90.000000
_cell_volume 3110.259211
_symmetry_space_group_name_H-M "C 2/C"
_symmetry_group_IT_number 15
_symmetry_cell_setting 'monoclinic'
loop_
_space_group_symop_operation_xyz
x,y,z
-x,y,1/2-z
-x,-y,-z
x,-y,1/2+z
1/2+x,1/2+y,z
1/2-x,1/2+y,1/2-z
1/2-x,1/2-y,-z
1/2+x,1/2-y,1/2+z
loop_
_atom_site_type_symbol
_atom_site_label
_atom_site_fract_x
_atom_site_fract_y
_atom_site_fract_z
Si Si1 0.323620 0.153021 0.703452
Si Si2 0.063982 0.678982 0.278275
Si Si3 0.281181 0.930951 0.926002
Si Si4 0.131592 0.070672 0.906713
Si Si5 0.746058 0.574436 0.091368
Si Si6 0.505902 0.039537 0.570108
Si Si7 0.880763 0.741580 0.830345
Si Si8 0.650027 0.482628 0.808777
O O1 0.135755 0.216235 0.760810
O O2 0.400923 0.122340 0.630287
O O3 0.489106 0.209034 0.672513
O O4 0.276083 0.063073 0.747058
O O5 0.236476 0.611794 0.232459
O O6 0.000000 0.661112 0.250000
O O7 0.888090 0.655774 0.368401
O O8 0.259158 0.017150 0.900331
O O9 0.401836 0.964591 0.927863
O O10 0.071835 0.897445 0.008071
O O11 0.245854 0.161532 0.855898
O O12 0.100249 0.004925 0.875436
O O13 0.855949 0.509222 0.088281
O O14 0.750136 0.676786 0.109293
O O15 0.537967 0.531024 0.157572
O O16 0.832354 0.581885 0.014133
O O17 0.000000 0.778643 0.750000
#
# Coordination Sequence:
#
# PCOD8153185 Si02
#       8
#     8   8   8   8   8   8   8   8
#     4  12  27  43  72 101 139 180 231 281 340 411
#     4  12  26  44  68 106 138 175 232 288 341 406
#     4  11  23  43  72 101 134 180 227 286 346 399
#     4  11  23  43  72 101 135 177 229 290 342 403
#     4  11  28  46  68  96 142 188 225 279 345 414
#     4  11  25  48  68  97 139 184 229 275 347 416
#     4  12  25  44  69 105 133 179 232 282 340 411
#     4  12  23  45  69 101 136 182 228 286 340 408
#
# _framework density 20.577062999999999
#
# number of rings (size 3 to 8) (size 9 to 14) (size 15 to 20)
#    0.000    0.500    7.500    0.000    5.250    1.500 
#    2.250    1.250    0.000    0.000    0.000    0.000 
#    0.000    0.000    0.000    0.000    0.000    0.000 
#
# Total GULP energy -397010.955017 kJ/mol
# GULP energy per Si atom -12406.592344 kJ/mol
# Density = 2.053023 g / cm^3
# Si number density = 20.577063 Si / 1000 Ang^3
#
#
#
# Elastic Constant Matrix: (Units=GPa)
#
#
# Indices 1 2 3 4 5 6 
#
# 1 88.4543 10.9835 28.6765 -0.0004 3.4115 0.0003
# 2 10.9835 68.1555 30.8186 -0.0003 2.9511 0.0006
# 3 28.6765 30.8186 99.7726 0.0003 10.1934 0.0002
# 4 -0.0004 -0.0003 0.0003 34.1696 -0.0001 0.5145
# 5 3.4115 2.9511 10.1934 -0.0001 36.6190 0.0001
# 6 0.0003 0.0006 0.0002 0.5145 0.0001 25.6009
#
#
#
# Elastic Compliance Matrix: (Units=1/GPa)
#
#
# Indices 1 2 3 4 5 6 
#
# 1 0.012480 -0.000453 -0.003430 0.000000 -0.000172 0.000000
# 2 -0.000453 0.017071 -0.005153 0.000000 0.000101 0.000000
# 3 -0.003430 -0.005153 0.012892 0.000000 -0.002854 0.000000
# 4 0.000000 0.000000 0.000000 0.029275 0.000000 -0.000588
# 5 -0.000172 0.000101 -0.002854 0.000000 0.028111 0.000000
# 6 0.000000 0.000000 0.000000 -0.000588 0.000000 0.039073
#
#
# Mechanical properties :
#
#
# Convention : Reuss Voigt Hill
#
# Bulk Modulus (GPa) = 41.03150 44.14883 42.59017
# Shear Modulus (GPa) = 30.28534 31.67147 30.97841
#
# Velocity S-wave (km/s) = 3.84057 3.92747 3.88426
# Velocity P-wave (km/s) = 6.29685 6.48604 6.39214
#
# Compressibility (1/GPa) = 0.02437152
#
# Stress axis : x y z
#
# Youngs Moduli (GPa) = 80.12836 58.57841 77.56851
#
# Poissons Ratio (x) = 0.02654 0.26602
# Poissons Ratio (y) = 0.03630 0.39972
# Poissons Ratio (z) = 0.27480 0.30187
#
# Static dielectric constant tensor:
#      x y z
#    x 3.751930 0.000000 0.040090 
#    y 0.000000 3.725150 0.000000 
#    z 0.040090 0.000000 3.955970 
# 
# 
# High freq. dielectric constant tensor:
#      x y z
#    x 1.819200 0.000000 -0.000260 
#    y 0.000000 1.796190 0.000000 
#    z -0.000260 0.000000 1.817170 
# 
# From -- ./inp_files/311191.got.cif
#   From: 2010.06.25/outbox.cif.g09.slc.cpg/sg15_156_cif.got.tgz:311191.got - 2010.06.28 07:06:18.
