data_PCOD8153289
_publ_section_title
;
Structure prediction by ZEFSAII (Michael W. Deem and Ramdas Pophale) SiO2 
 PCOD8153289
Probable space group: C 2/C
;
_chemical_formula_sum "Si O2"
_cell_formula_units_Z 44
_cell_length_a 17.448811
_cell_length_b 16.562812
_cell_length_c 9.377637
_cell_angle_alpha 90.000000
_cell_angle_beta 134.480157
_cell_angle_gamma 90.000000
_cell_volume 1933.673457
_symmetry_space_group_name_H-M "C 2/C"
_symmetry_group_IT_number 15
_symmetry_cell_setting 'monoclinic'
loop_
_space_group_symop_operation_xyz
x,y,z
-x,y,1/2-z
-x,-y,-z
x,-y,1/2+z
1/2+x,1/2+y,z
1/2-x,1/2+y,1/2-z
1/2-x,1/2-y,-z
1/2+x,1/2-y,1/2+z
loop_
_atom_site_type_symbol
_atom_site_label
_atom_site_fract_x
_atom_site_fract_y
_atom_site_fract_z
Si Si1 0.200071 0.067316 0.446721
Si Si2 0.383856 0.818521 0.804339
Si Si3 0.060392 0.384248 0.197425
Si Si4 0.176870 0.089561 0.082792
Si Si5 0.860092 0.234194 0.067996
Si Si6 0.500000 0.702258 0.750000
O O1 0.320974 0.080102 0.669291
O O2 0.206172 0.064148 0.282733
O O3 0.119384 0.138308 0.393958
O O4 0.149897 0.987717 0.450061
O O5 0.277055 0.869249 0.631288
O O6 0.414675 0.758550 0.718755
O O7 0.481733 0.884081 0.957402
O O8 0.352153 0.764481 0.897610
O O9 0.058334 0.287145 0.230720
O O10 0.000000 0.429783 0.250000
O O11 0.071762 0.146713 0.948312
O O12 0.750000 0.250000 0.000000
#
# Coordination Sequence:
#
# PCOD8153289 Si02
#       6
#     8   8   8   8   8   4
#     4  11  24  42  70 101 144 179 225 289 350 417
#     4  11  23  44  73 103 134 178 240 287 341 414
#     4   9  17  39  70 100 123 173 233 277 336 411
#     4  12  27  48  66 104 142 184 233 286 357 408
#     4   9  17  38  72  98 128 178 232 275 326 416
#     4  12  30  46  68  98 144 186 238 290 340 410
#
# _framework density 22.754619000000002
#
# number of rings (size 3 to 8) (size 9 to 14) (size 15 to 20)
#    0.000    1.455    5.455    1.636    5.091    2.909 
#    6.545    0.000    0.000    0.000    0.000    0.000 
#    0.000    0.000    0.000    0.000    0.000    0.000 
#
# Total GULP energy -272568.363826 kJ/mol
# GULP energy per Si atom -12389.471083 kJ/mol
# Density = 2.270283 g / cm^3
# Si number density = 22.754619 Si / 1000 Ang^3
#
#
#
# Elastic Constant Matrix: (Units=GPa)
#
#
# Indices 1 2 3 4 5 6 
#
# 1 50.8166 9.7718 6.6201 0.0000 -10.8473 0.0000
# 2 9.7718 80.4650 12.7265 0.0000 -15.6917 0.0000
# 3 6.6201 12.7265 76.0265 0.0000 6.2893 0.0000
# 4 0.0000 0.0000 0.0000 30.0035 0.0000 2.5201
# 5 -10.8473 -15.6917 6.2893 0.0000 33.2421 0.0000
# 6 0.0000 0.0000 0.0000 2.5201 0.0000 31.0236
#
#
#
# Elastic Compliance Matrix: (Units=1/GPa)
#
#
# Indices 1 2 3 4 5 6 
#
# 1 0.021665 -0.000880 -0.002326 0.000000 0.007095 0.000000
# 2 -0.000880 0.014369 -0.002912 0.000000 0.007047 0.000000
# 3 -0.002326 -0.002912 0.014243 0.000000 -0.004828 0.000000
# 4 0.000000 0.000000 0.000000 0.033558 0.000000 -0.002726
# 5 0.007095 0.007047 -0.004828 0.000000 0.036637 0.000000
# 6 0.000000 0.000000 0.000000 -0.002726 0.000000 0.032455
#
#
# Mechanical properties :
#
#
# Convention : Reuss Voigt Hill
#
# Bulk Modulus (GPa) = 26.28659 29.50497 27.89578
# Shear Modulus (GPa) = 28.11460 30.73316 29.42388
#
# Velocity S-wave (km/s) = 3.51886 3.67908 3.59986
# Velocity P-wave (km/s) = 5.29973 5.57156 5.43734
#
# Compressibility (1/GPa) = 0.03804221
#
# Stress axis : x y z
#
# Youngs Moduli (GPa) = 46.15695 69.59268 70.21154
#
# Poissons Ratio (x) = 0.06122 0.16332
# Poissons Ratio (y) = 0.04060 0.20444
# Poissons Ratio (z) = 0.10737 0.20263
#
# Static dielectric constant tensor:
#      x y z
#    x 1.448080 0.000000 -1.021540 
#    y 0.000000 4.081970 0.000000 
#    z -1.021540 0.000000 3.245690 
# 
# 
# High freq. dielectric constant tensor:
#      x y z
#    x 1.903750 0.000000 0.019870 
#    y 0.000000 1.886030 0.000000 
#    z 0.019870 0.000000 1.887820 
# 
# From -- ./inp_files/49274.got.cif
#   From: 2010.06.25/outbox.cif.g09.slc.cpg/sg15_25_cif.got.tgz:49274.got - 2010.06.28 07:06:18.
