data_PCOD8153241
_publ_section_title
;
Structure prediction by ZEFSAII (Michael W. Deem and Ramdas Pophale) SiO2 
 PCOD8153241
Probable space group: C 2/C
;
_chemical_formula_sum "Si O2"
_cell_formula_units_Z 48
_cell_length_a 8.524660
_cell_length_b 18.465077
_cell_length_c 24.583976
_cell_angle_alpha 90.000000
_cell_angle_beta 147.961791
_cell_angle_gamma 90.000000
_cell_volume 2052.830844
_symmetry_space_group_name_H-M "C 2/C"
_symmetry_group_IT_number 15
_symmetry_cell_setting 'monoclinic'
loop_
_space_group_symop_operation_xyz
x,y,z
-x,y,1/2-z
-x,-y,-z
x,-y,1/2+z
1/2+x,1/2+y,z
1/2-x,1/2+y,1/2-z
1/2-x,1/2-y,-z
1/2+x,1/2-y,1/2+z
loop_
_atom_site_type_symbol
_atom_site_label
_atom_site_fract_x
_atom_site_fract_y
_atom_site_fract_z
Si Si1 0.372921 0.843009 0.476816
Si Si2 0.158707 0.877991 0.966827
Si Si3 0.586258 0.030090 0.865398
Si Si4 0.891502 0.718152 0.161348
Si Si5 0.832209 0.615104 0.331773
Si Si6 0.460446 0.474914 0.372276
O O1 0.620160 0.830182 0.503571
O O2 0.141171 0.779676 0.394502
O O3 0.518897 0.833970 0.578626
O O4 0.224917 0.922386 0.432553
O O5 0.900886 0.829770 0.916137
O O6 0.358133 0.907590 0.074865
O O7 0.050374 0.940875 0.892614
O O8 0.304704 0.046657 0.745302
O O9 0.873615 0.028337 0.910784
O O10 0.531686 0.956076 0.882276
O O11 0.000000 0.752890 0.250000
O O12 0.152619 0.663783 0.218291
O O13 0.500000 0.592982 0.250000
#
# Coordination Sequence:
#
# PCOD8153241 Si02
#       6
#     8   8   8   8   8   8
#     4  12  27  44  69 107 142 185 237 290 354 424
#     4  12  24  45  73 103 140 184 235 292 355 420
#     4  11  24  41  74 102 140 180 231 294 357 410
#     4  12  27  49  72  98 146 192 236 287 358 428
#     4  12  25  46  73 104 139 187 237 293 352 426
#     4  11  23  44  68 106 139 181 235 294 351 416
#
# _framework density 23.382345000000001
#
# number of rings (size 3 to 8) (size 9 to 14) (size 15 to 20)
#    0.000    0.333    3.333    6.000    4.667    0.000 
#    3.000    0.000    0.000    0.000    0.000    0.000 
#    0.000    0.000    0.000    0.000    0.000    0.000 
#
# Total GULP energy -297621.126221 kJ/mol
# GULP energy per Si atom -12400.880259 kJ/mol
# Density = 2.332913 g / cm^3
# Si number density = 23.382345 Si / 1000 Ang^3
#
#
#
# Elastic Constant Matrix: (Units=GPa)
#
#
# Indices 1 2 3 4 5 6 
#
# 1 111.7326 21.8764 25.2029 0.0039 1.2993 -0.0046
# 2 21.8764 85.5279 20.4392 0.0117 -3.7362 0.0034
# 3 25.2029 20.4392 79.0663 0.0209 -11.2576 0.0106
# 4 0.0039 0.0117 0.0209 29.2414 0.0032 -1.1513
# 5 1.2993 -3.7362 -11.2576 0.0032 45.0964 -0.0022
# 6 -0.0046 0.0034 0.0106 -1.1513 -0.0022 34.9702
#
#
#
# Elastic Compliance Matrix: (Units=1/GPa)
#
#
# Indices 1 2 3 4 5 6 
#
# 1 0.009983 -0.001923 -0.002850 0.000002 -0.001158 0.000002
# 2 -0.001923 0.012835 -0.002639 -0.000003 0.000460 -0.000001
# 3 -0.002850 -0.002639 0.014743 -0.000010 0.003544 -0.000005
# 4 0.000002 -0.000003 -0.000010 0.034242 -0.000005 0.001127
# 5 -0.001158 0.000460 0.003544 -0.000005 0.023131 0.000000
# 6 0.000002 -0.000001 -0.000005 0.001127 0.000000 0.028633
#
#
# Mechanical properties :
#
#
# Convention : Reuss Voigt Hill
#
# Bulk Modulus (GPa) = 43.98333 45.70707 44.84520
# Shear Modulus (GPa) = 34.25364 35.78215 35.01789
#
# Velocity S-wave (km/s) = 3.83160 3.91616 3.87411
# Velocity P-wave (km/s) = 6.19889 6.32760 6.26357
#
# Compressibility (1/GPa) = 0.02273588
#
# Stress axis : x y z
#
# Youngs Moduli (GPa) = 100.17290 77.91313 67.82914
#
# Poissons Ratio (x) = 0.14982 0.19331
# Poissons Ratio (y) = 0.19263 0.17903
# Poissons Ratio (z) = 0.28548 0.20565
#
# Static dielectric constant tensor:
#      x y z
#    x 4.356950 0.000000 -0.060620 
#    y 0.000000 3.879190 -0.000010 
#    z -0.060620 -0.000010 4.194900 
# 
# 
# High freq. dielectric constant tensor:
#      x y z
#    x 1.940160 0.000000 -0.008240 
#    y 0.000000 1.905990 0.000000 
#    z -0.008240 0.000000 1.937290 
# 
# From -- ./inp_files/290145.got.cif
#   From: 2010.06.25/outbox.cif.g09.slc.cpg/sg15_146_cif.got.tgz:290145.got - 2010.06.28 07:06:18.
