data_PCOD8153574
_publ_section_title
;
Structure prediction by ZEFSAII (Michael W. Deem and Ramdas Pophale) SiO2 
 PCOD8153574
Probable space group: C 2/C
;
_chemical_formula_sum "Si O2"
_cell_formula_units_Z 64
_cell_length_a 22.158955
_cell_length_b 16.479143
_cell_length_c 16.641971
_cell_angle_alpha 90.000000
_cell_angle_beta 150.571865
_cell_angle_gamma 90.000000
_cell_volume 2985.817570
_symmetry_space_group_name_H-M "C 2/C"
_symmetry_group_IT_number 15
_symmetry_cell_setting 'monoclinic'
loop_
_space_group_symop_operation_xyz
x,y,z
-x,y,1/2-z
-x,-y,-z
x,-y,1/2+z
1/2+x,1/2+y,z
1/2-x,1/2+y,1/2-z
1/2-x,1/2-y,-z
1/2+x,1/2-y,1/2+z
loop_
_atom_site_type_symbol
_atom_site_label
_atom_site_fract_x
_atom_site_fract_y
_atom_site_fract_z
Si Si1 0.678467 0.621057 0.287570
Si Si2 0.605690 0.753797 0.311392
Si Si3 0.548558 0.107504 0.927843
Si Si4 0.844762 0.945420 0.179811
Si Si5 0.451201 0.170127 0.396368
Si Si6 0.553491 0.662355 0.985586
Si Si7 0.927255 0.427115 0.586727
Si Si8 0.786005 0.176493 0.479792
O O1 0.595599 0.693964 0.224263
O O2 0.825143 0.636004 0.469490
O O3 0.638881 0.542391 0.294085
O O4 0.650820 0.620636 0.159644
O O5 0.500000 0.722424 0.250000
O O6 0.750000 0.750000 0.500000
O O7 0.568354 0.844451 0.242154
O O8 0.519705 0.014781 0.875284
O O9 0.564761 0.122270 0.040176
O O10 0.957350 0.908206 0.358139
O O11 0.717148 0.924338 0.072417
O O12 0.839278 0.904277 0.085122
O O13 0.478140 0.264949 0.440456
O O14 0.562891 0.132433 0.476818
O O15 0.334212 0.151046 0.206401
O O16 0.613745 0.698250 0.972913
O O17 0.000000 0.395666 0.750000
O O18 0.750000 0.250000 0.500000
#
# Coordination Sequence:
#
# PCOD8153574 Si02
#       8
#     8   8   8   8   8   8   8   8
#     4  11  25  47  69  99 138 189 231 292 358 425
#     4  12  25  44  73 102 135 183 238 289 350 419
#     4  11  24  46  68  97 139 181 235 292 354 415
#     4  11  25  43  66  96 141 180 235 288 349 416
#     4  12  24  40  69  98 135 179 226 284 352 422
#     4  12  25  43  71  97 143 183 228 289 357 425
#     4  11  24  42  67  98 134 181 235 290 349 424
#     4  12  24  41  67 102 137 180 229 278 354 423
#
# _framework density 21.434664999999999
#
# number of rings (size 3 to 8) (size 9 to 14) (size 15 to 20)
#    0.000    0.500    6.250    2.250    1.750    1.000 
#    2.250    0.000    0.000    0.000    0.000    0.000 
#    0.000    0.000    0.000    0.000    0.000    0.000 
#
# Total GULP energy -396590.891072 kJ/mol
# GULP energy per Si atom -12393.465346 kJ/mol
# Density = 2.138588 g / cm^3
# Si number density = 21.434665 Si / 1000 Ang^3
#
#
#
# Elastic Constant Matrix: (Units=GPa)
#
#
# Indices 1 2 3 4 5 6 
#
# 1 104.8206 35.1620 28.3553 0.0000 -7.4056 -0.0001
# 2 35.1620 67.5216 26.0809 0.0000 3.6486 0.0000
# 3 28.3553 26.0809 124.5637 0.0000 1.3214 -0.0002
# 4 0.0000 0.0000 0.0000 7.5292 0.0000 4.6667
# 5 -7.4056 3.6486 1.3214 0.0000 35.1672 -0.0001
# 6 -0.0001 0.0000 -0.0002 4.6667 -0.0001 38.1942
#
#
#
# Elastic Compliance Matrix: (Units=1/GPa)
#
#
# Indices 1 2 3 4 5 6 
#
# 1 0.012175 -0.005909 -0.001569 0.000000 0.003236 0.000000
# 2 -0.005909 0.019066 -0.002614 0.000000 -0.003124 0.000000
# 3 -0.001569 -0.002614 0.008937 0.000000 -0.000395 0.000000
# 4 0.000000 0.000000 0.000000 0.143699 0.000000 -0.017557
# 5 0.003236 -0.003124 -0.000395 0.000000 0.029456 0.000000
# 6 0.000000 0.000000 0.000000 -0.017557 0.000000 0.028327
#
#
# Mechanical properties :
#
#
# Convention : Reuss Voigt Hill
#
# Bulk Modulus (GPa) = 50.01372 52.90025 51.45698
# Shear Modulus (GPa) = 18.62148 29.99864 24.31006
#
# Velocity S-wave (km/s) = 2.95066 3.74510 3.37136
# Velocity P-wave (km/s) = 5.91543 6.59048 6.26206
#
# Compressibility (1/GPa) = 0.01999452
#
# Stress axis : x y z
#
# Youngs Moduli (GPa) = 82.13328 52.45016 111.90041
#
# Poissons Ratio (x) = 0.30994 0.17553
# Poissons Ratio (y) = 0.48535 0.29247
# Poissons Ratio (z) = 0.12883 0.13708
#
# Static dielectric constant tensor:
#      x y z
#    x 4.342060 0.000000 0.036350 
#    y 0.000000 4.097170 0.000000 
#    z 0.036350 0.000000 3.972110 
# 
# 
# High freq. dielectric constant tensor:
#      x y z
#    x 1.846880 0.000000 -0.000900 
#    y 0.000000 1.838870 0.000000 
#    z -0.000900 0.000000 1.852190 
# 
# From -- ./inp_files/211423.got.cif
#   From: 2010.06.25/outbox.cif.g09.slc.cpg/sg15_106_cif.got.tgz:211423.got - 2010.06.28 07:06:18.
