data_PCOD8153571
_publ_section_title
;
Structure prediction by ZEFSAII (Michael W. Deem and Ramdas Pophale) SiO2 
 PCOD8153571
Probable space group: C 2/C
;
_chemical_formula_sum "Si O2"
_cell_formula_units_Z 48
_cell_length_a 6.946504
_cell_length_b 17.745195
_cell_length_c 27.700207
_cell_angle_alpha 90.000000
_cell_angle_beta 136.660328
_cell_angle_gamma 90.000000
_cell_volume 2343.462814
_symmetry_space_group_name_H-M "C 2/C"
_symmetry_group_IT_number 15
_symmetry_cell_setting 'monoclinic'
loop_
_space_group_symop_operation_xyz
x,y,z
-x,y,1/2-z
-x,-y,-z
x,-y,1/2+z
1/2+x,1/2+y,z
1/2-x,1/2+y,1/2-z
1/2-x,1/2-y,-z
1/2+x,1/2-y,1/2+z
loop_
_atom_site_type_symbol
_atom_site_label
_atom_site_fract_x
_atom_site_fract_y
_atom_site_fract_z
Si Si1 0.259929 0.835305 0.170252
Si Si2 0.813587 0.836315 0.670406
Si Si3 0.670225 0.554043 0.177852
Si Si4 0.730080 0.417566 0.578670
Si Si5 0.223253 0.415339 0.425767
Si Si6 0.593133 0.403743 0.322565
O O1 0.500000 0.865604 0.250000
O O2 0.311150 0.752469 0.158595
O O3 0.222778 0.895109 0.120485
O O4 0.998081 0.835448 0.159077
O O5 0.498736 0.864098 0.623010
O O6 0.000000 0.856910 0.750000
O O7 0.977009 0.875003 0.656658
O O8 0.642602 0.556685 0.115772
O O9 0.531607 0.481280 0.178170
O O10 0.000000 0.562517 0.250000
O O11 0.468318 0.378026 0.503236
O O12 0.795022 0.496343 0.564813
O O13 0.920320 0.387781 0.385894
O O14 0.500000 0.395616 0.250000
#
# Coordination Sequence:
#
# PCOD8153571 Si02
#       6
#     8   8   8   8   8   8
#     4  11  24  43  65  95 131 170 214 266 320 375
#     4  11  24  43  65  95 131 170 214 266 320 375
#     4  12  22  39  70  96 123 171 223 266 313 375
#     4  11  24  42  66  99 130 166 216 266 317 381
#     4  11  24  42  66  99 130 166 216 266 317 381
#     4  12  22  39  70  96 123 171 223 266 313 375
#
# _framework density 20.482509
#
# number of rings (size 3 to 8) (size 9 to 14) (size 15 to 20)
#    0.000    0.667    6.667    2.000    0.000    4.000 
#    0.000    1.667    0.000    0.000    0.000    0.000 
#    0.000    0.000    0.000    0.000    0.000    0.000 
#
# Total GULP energy -297393.491613 kJ/mol
# GULP energy per Si atom -12391.395484 kJ/mol
# Density = 2.043589 g / cm^3
# Si number density = 20.482509 Si / 1000 Ang^3
#
#
#
# Elastic Constant Matrix: (Units=GPa)
#
#
# Indices 1 2 3 4 5 6 
#
# 1 122.8908 17.8565 53.0446 0.0002 17.5725 0.0000
# 2 17.8565 58.0979 25.3894 -0.0001 4.8539 -0.0005
# 3 53.0446 25.3894 152.4352 0.0001 23.4375 -0.0007
# 4 0.0002 -0.0001 0.0001 9.9749 0.0006 -3.9997
# 5 17.5725 4.8539 23.4375 0.0006 35.3944 0.0002
# 6 0.0000 -0.0005 -0.0007 -3.9997 0.0002 18.5257
#
#
#
# Elastic Compliance Matrix: (Units=1/GPa)
#
#
# Indices 1 2 3 4 5 6 
#
# 1 0.009978 -0.001620 -0.002755 0.000000 -0.002907 0.000000
# 2 -0.001620 0.018836 -0.002561 0.000000 -0.000083 0.000001
# 3 -0.002755 -0.002561 0.008552 0.000000 -0.003944 0.000000
# 4 0.000000 0.000000 0.000000 0.109753 -0.000002 0.023696
# 5 -0.002907 -0.000083 -0.003944 -0.000002 0.032319 -0.000001
# 6 0.000000 0.000001 0.000000 0.023696 -0.000001 0.059095
#
#
# Mechanical properties :
#
#
# Convention : Reuss Voigt Hill
#
# Bulk Modulus (GPa) = 42.56414 58.44500 50.50457
# Shear Modulus (GPa) = 19.21333 28.58790 23.90061
#
# Velocity S-wave (km/s) = 3.06606 3.73999 3.41967
# Velocity P-wave (km/s) = 5.77582 6.87358 6.34847
#
# Compressibility (1/GPa) = 0.02349395
#
# Stress axis : x y z
#
# Youngs Moduli (GPa) = 100.22419 53.08917 116.93365
#
# Poissons Ratio (x) = 0.08599 0.32219
# Poissons Ratio (y) = 0.16233 0.29946
# Poissons Ratio (z) = 0.27615 0.13596
#
# Static dielectric constant tensor:
#      x y z
#    x 4.045350 0.000000 0.226300 
#    y 0.000000 3.552080 0.000000 
#    z 0.226300 0.000000 4.113250 
# 
# 
# High freq. dielectric constant tensor:
#      x y z
#    x 1.819200 0.000000 0.005650 
#    y 0.000000 1.787280 0.000000 
#    z 0.005650 0.000000 1.801940 
# 
# From -- ./inp_files/260842.got.cif
#   From: 2010.06.25/outbox.cif.g09.slc.cpg/sg15_131_cif.got.tgz:260842.got - 2010.06.28 07:06:18.
