data_PCOD8153245
_publ_section_title
;
Structure prediction by ZEFSAII (Michael W. Deem and Ramdas Pophale) SiO2 
 PCOD8153245
Probable space group: C 2/C
;
_chemical_formula_sum "Si O2"
_cell_formula_units_Z 52
_cell_length_a 28.081381
_cell_length_b 14.990034
_cell_length_c 17.222013
_cell_angle_alpha 90.000000
_cell_angle_beta 19.879815
_cell_angle_gamma 90.000000
_cell_volume 2465.162559
_symmetry_space_group_name_H-M "C 2/C"
_symmetry_group_IT_number 15
_symmetry_cell_setting 'monoclinic'
loop_
_space_group_symop_operation_xyz
x,y,z
-x,y,1/2-z
-x,-y,-z
x,-y,1/2+z
1/2+x,1/2+y,z
1/2-x,1/2+y,1/2-z
1/2-x,1/2-y,-z
1/2+x,1/2-y,1/2+z
loop_
_atom_site_type_symbol
_atom_site_label
_atom_site_fract_x
_atom_site_fract_y
_atom_site_fract_z
Si Si1 0.425701 0.884595 0.546766
Si Si2 0.475303 0.553814 0.196967
Si Si3 0.775821 0.323844 0.024674
Si Si4 0.999981 0.814240 0.972413
Si Si5 0.861372 0.888252 0.596975
Si Si6 0.836411 0.515338 0.335361
Si Si7 0.000000 0.213640 0.750000
O O1 0.483412 0.792190 0.493068
O O2 0.300078 0.870890 0.678277
O O3 0.363167 0.946678 0.709215
O O4 0.558160 0.934852 0.305145
O O5 0.500000 0.571366 0.250000
O O6 0.479475 0.648107 0.145612
O O7 0.323470 0.513349 0.415987
O O8 0.596643 0.492635 0.971587
O O9 0.635264 0.358416 0.280175
O O10 0.750000 0.250000 0.000000
O O11 0.861455 0.407222 0.859679
O O12 0.864959 0.275967 0.954178
O O13 0.126053 0.844035 0.836741
O O14 0.976872 0.846039 0.361458
#
# Coordination Sequence:
#
# PCOD8153245 Si02
#       7
#     8   8   8   8   8   8   4
#     4  11  24  44  70 102 141 188 231 286 348 414
#     4  12  25  45  72  97 137 193 233 279 359 428
#     4  12  21  40  69 109 132 170 230 296 340 401
#     4  12  26  42  73 105 137 182 240 289 343 425
#     4  12  21  42  71 103 138 178 237 287 349 411
#     4  11  23  44  68  99 143 182 230 287 346 408
#     4  12  20  36  74 100 134 176 222 290 350 402
#
# _framework density 21.093942999999999
#
# number of rings (size 3 to 8) (size 9 to 14) (size 15 to 20)
#    0.000    0.308    8.462    0.462    0.000    3.077 
#    0.000    0.000    0.000    0.000    0.000    0.000 
#    0.000    0.000    0.000    0.000    0.000    0.000 
#
# Total GULP energy -322431.808067 kJ/mol
# GULP energy per Si atom -12401.223387 kJ/mol
# Density = 2.104593 g / cm^3
# Si number density = 21.093943 Si / 1000 Ang^3
#
#
#
# Elastic Constant Matrix: (Units=GPa)
#
#
# Indices 1 2 3 4 5 6 
#
# 1 107.3412 49.6652 40.1365 -0.0001 -11.7084 0.0002
# 2 49.6652 91.7973 41.6599 -0.0002 -1.0954 0.0001
# 3 40.1365 41.6599 59.3126 -0.0002 -8.3282 0.0003
# 4 -0.0001 -0.0002 -0.0002 35.3633 0.0002 3.0886
# 5 -11.7084 -1.0954 -8.3282 0.0002 31.1674 -0.0003
# 6 0.0002 0.0001 0.0003 3.0886 -0.0003 32.3621
#
#
#
# Elastic Compliance Matrix: (Units=1/GPa)
#
#
# Indices 1 2 3 4 5 6 
#
# 1 0.014124 -0.005129 -0.005439 0.000000 0.003672 0.000000
# 2 -0.005129 0.018048 -0.009753 0.000000 -0.003899 0.000000
# 3 -0.005439 -0.009753 0.028111 0.000000 0.005125 0.000000
# 4 0.000000 0.000000 0.000000 0.028516 0.000000 -0.002722
# 5 0.003672 -0.003899 0.005125 0.000000 0.034697 0.000000
# 6 0.000000 0.000000 0.000000 -0.002722 0.000000 0.031160
#
#
# Mechanical properties :
#
#
# Convention : Reuss Voigt Hill
#
# Bulk Modulus (GPa) = 50.91819 57.93049 54.42434
# Shear Modulus (GPa) = 24.77150 28.24452 26.50801
#
# Velocity S-wave (km/s) = 3.43058 3.66319 3.54879
# Velocity P-wave (km/s) = 6.31530 6.73904 6.53061
#
# Compressibility (1/GPa) = 0.01963935
#
# Stress axis : x y z
#
# Youngs Moduli (GPa) = 70.80383 55.40669 35.57355
#
# Poissons Ratio (x) = 0.28418 0.19349
# Poissons Ratio (y) = 0.36315 0.34696
# Poissons Ratio (z) = 0.38512 0.54041
#
# Static dielectric constant tensor:
#      x y z
#    x 3.541380 0.000000 0.143670 
#    y 0.000000 3.889920 0.000000 
#    z 0.143670 0.000000 3.806810 
# 
# 
# High freq. dielectric constant tensor:
#      x y z
#    x 1.823730 0.000000 -0.010520 
#    y 0.000000 1.827300 0.000000 
#    z -0.010520 0.000000 1.819790 
# 
# From -- ./inp_files/225462.got.cif
#   From: 2010.06.25/outbox.cif.g09.slc.cpg/sg15_113_cif.got.tgz:225462.got - 2010.06.28 07:06:18.
