data_PCOD8153576
_publ_section_title
;
Structure prediction by ZEFSAII (Michael W. Deem and Ramdas Pophale) SiO2 
 PCOD8153576
Probable space group: C 2/C
;
_chemical_formula_sum "Si O2"
_cell_formula_units_Z 40
_cell_length_a 11.345077
_cell_length_b 17.064362
_cell_length_c 17.671629
_cell_angle_alpha 90.000000
_cell_angle_beta 151.627622
_cell_angle_gamma 90.000000
_cell_volume 1625.738137
_symmetry_space_group_name_H-M "C 2/C"
_symmetry_group_IT_number 15
_symmetry_cell_setting 'monoclinic'
loop_
_space_group_symop_operation_xyz
x,y,z
-x,y,1/2-z
-x,-y,-z
x,-y,1/2+z
1/2+x,1/2+y,z
1/2-x,1/2+y,1/2-z
1/2-x,1/2-y,-z
1/2+x,1/2-y,1/2+z
loop_
_atom_site_type_symbol
_atom_site_label
_atom_site_fract_x
_atom_site_fract_y
_atom_site_fract_z
Si Si1 0.011464 0.157506 0.091938
Si Si2 0.278687 0.444802 0.903582
Si Si3 0.225652 0.893152 0.435201
Si Si4 0.750907 0.064240 0.061769
Si Si5 0.385366 0.799392 0.919826
O O1 0.237393 0.119659 0.172502
O O2 0.120793 0.200326 0.227916
O O3 0.815977 0.091199 0.011661
O O4 0.881250 0.219142 0.963150
O O5 0.000000 0.481923 0.750000
O O6 0.500000 0.500000 0.000000
O O7 0.364776 0.398805 0.028547
O O8 0.396942 0.816243 0.518236
O O9 0.000000 0.885061 0.250000
O O10 0.370573 0.977447 0.506326
O O11 0.572107 0.128455 0.997762
O O12 0.000000 0.058594 0.250000
#
# Coordination Sequence:
#
# PCOD8153576 Si02
#       5
#     8   8   8   8   8
#     4  11  24  44  67 102 145 192 235 300 365 434
#     4  12  26  49  74 107 146 189 243 307 367 435
#     4  11  24  43  72 102 139 187 244 295 364 433
#     4   9  20  42  67  98 138 181 240 294 351 425
#     4  11  24  42  68 100 143 188 238 297 363 437
#
# _framework density 24.604209000000001
#
# number of rings (size 3 to 8) (size 9 to 14) (size 15 to 20)
#    0.000    1.200    4.000    1.200    2.800    3.200 
#    0.000    1.000    0.000    0.000    0.000    0.000 
#    0.000    0.000    0.000    0.000    0.000    0.000 
#
# Total GULP energy -247779.956483 kJ/mol
# GULP energy per Si atom -12388.997824 kJ/mol
# Density = 2.454821 g / cm^3
# Si number density = 24.604209 Si / 1000 Ang^3
#
#
#
# Elastic Constant Matrix: (Units=GPa)
#
#
# Indices 1 2 3 4 5 6 
#
# 1 105.5364 -0.7624 23.4712 0.0155 -21.1536 0.0060
# 2 -0.7624 42.5283 2.2601 0.0216 -3.5776 0.0096
# 3 23.4712 2.2601 83.8287 0.0394 -8.8585 0.0180
# 4 0.0155 0.0216 0.0394 27.9422 0.0134 -12.3845
# 5 -21.1536 -3.5776 -8.8585 0.0134 38.1187 0.0045
# 6 0.0060 0.0096 0.0180 -12.3845 0.0045 45.2527
#
#
#
# Elastic Compliance Matrix: (Units=1/GPa)
#
#
# Indices 1 2 3 4 5 6 
#
# 1 0.011190 0.000815 -0.002554 -0.000007 0.005693 -0.000003
# 2 0.000815 0.023774 -0.000600 -0.000024 0.002544 -0.000012
# 3 -0.002554 -0.000600 0.012819 -0.000022 0.001506 -0.000011
# 4 -0.000007 -0.000024 -0.000022 0.040729 -0.000027 0.011146
# 5 0.005693 0.002544 0.001506 -0.000027 0.029982 -0.000012
# 6 -0.000003 -0.000012 -0.000011 0.011146 -0.000012 0.025149
#
#
# Mechanical properties :
#
#
# Convention : Reuss Voigt Hill
#
# Bulk Modulus (GPa) = 23.19829 31.31458 27.25643
# Shear Modulus (GPa) = 30.73344 36.05769 33.39556
#
# Velocity S-wave (km/s) = 3.53811 3.83235 3.68817
# Velocity P-wave (km/s) = 5.11273 5.68661 5.40729
#
# Compressibility (1/GPa) = 0.04310662
#
# Stress axis : x y z
#
# Youngs Moduli (GPa) = 89.36314 42.06220 78.00693
#
# Poissons Ratio (x) = -0.03429 0.19919
# Poissons Ratio (y) = -0.07285 0.04683
# Poissons Ratio (z) = 0.22819 0.02525
#
# Static dielectric constant tensor:
#      x y z
#    x 4.889820 -0.000010 -0.410160 
#    y -0.000010 4.459540 -0.000030 
#    z -0.410160 -0.000030 3.944730 
# 
# 
# High freq. dielectric constant tensor:
#      x y z
#    x 1.998720 0.000000 -0.024820 
#    y 0.000000 1.966110 0.000000 
#    z -0.024820 0.000000 1.955340 
# 
# From -- ./inp_files/106892.got.cif
#   From: 2010.06.25/outbox.cif.g09.slc.cpg/sg15_54_cif.got.tgz:106892.got - 2010.06.28 07:06:18.
