data_PCOD8153836
_publ_section_title
;
Structure prediction by ZEFSAII (Michael W. Deem and Ramdas Pophale) SiO2 
 PCOD8153836
Probable space group: C 2/C
;
_chemical_formula_sum "Si O2"
_cell_formula_units_Z 40
_cell_length_a 25.361915
_cell_length_b 11.488304
_cell_length_c 12.011723
_cell_angle_alpha 90.000000
_cell_angle_beta 148.984301
_cell_angle_gamma 90.000000
_cell_volume 1803.352342
_symmetry_space_group_name_H-M "C 2/C"
_symmetry_group_IT_number 15
_symmetry_cell_setting 'monoclinic'
loop_
_space_group_symop_operation_xyz
x,y,z
-x,y,1/2-z
-x,-y,-z
x,-y,1/2+z
1/2+x,1/2+y,z
1/2-x,1/2+y,1/2-z
1/2-x,1/2-y,-z
1/2+x,1/2-y,1/2+z
loop_
_atom_site_type_symbol
_atom_site_label
_atom_site_fract_x
_atom_site_fract_y
_atom_site_fract_z
Si Si1 0.392520 0.262329 0.116869
Si Si2 0.328111 0.271552 0.356166
Si Si3 0.112931 0.044146 0.718476
Si Si4 0.855955 0.202392 0.159772
Si Si5 0.961239 0.367923 0.941198
O O1 0.500000 0.270278 0.250000
O O2 0.371864 0.380819 0.143920
O O3 0.397949 0.155520 0.213885
O O4 0.295249 0.244102 0.859517
O O5 0.351451 0.385908 0.325701
O O6 0.375836 0.292445 0.563600
O O7 0.383569 0.156449 0.403658
O O8 0.171088 0.925085 0.843041
O O9 0.000000 0.000000 0.500000
O O10 0.947910 0.271856 0.386937
O O11 0.750000 0.250000 0.000000
O O12 0.000000 0.500000 0.000000
#
# Coordination Sequence:
#
# PCOD8153836 Si02
#       5
#     8   8   8   8   8
#     4  11  25  46  70 101 138 188 234 283 356 418
#     4  11  26  47  73 101 147 188 228 298 352 412
#     4  11  24  45  74 100 138 183 239 292 347 416
#     4  12  27  44  72 110 139 182 242 286 350 420
#     4  11  25  46  68  99 144 187 231 283 351 420
#
# _framework density 22.180910999999998
#
# number of rings (size 3 to 8) (size 9 to 14) (size 15 to 20)
#    0.000    0.800    4.000    4.200    8.400    1.600 
#    0.000    0.000    0.000    0.000    0.000    0.000 
#    0.000    0.000    0.000    0.000    0.000    0.000 
#
# Total GULP energy -247835.953625 kJ/mol
# GULP energy per Si atom -12391.797681 kJ/mol
# Density = 2.213043 g / cm^3
# Si number density = 22.180911 Si / 1000 Ang^3
#
#
#
# Elastic Constant Matrix: (Units=GPa)
#
#
# Indices 1 2 3 4 5 6 
#
# 1 94.6569 32.5095 5.4212 0.0000 8.4836 0.0000
# 2 32.5095 170.4518 20.9318 0.0000 -1.6662 0.0000
# 3 5.4212 20.9318 81.1284 0.0000 9.9206 0.0000
# 4 0.0000 0.0000 0.0000 33.2719 0.0000 10.7647
# 5 8.4836 -1.6662 9.9206 0.0000 46.9222 0.0000
# 6 0.0000 0.0000 0.0000 10.7647 0.0000 24.1313
#
#
#
# Elastic Compliance Matrix: (Units=1/GPa)
#
#
# Indices 1 2 3 4 5 6 
#
# 1 0.011520 -0.002227 0.000071 0.000000 -0.002177 0.000000
# 2 -0.002227 0.006504 -0.001649 0.000000 0.000982 0.000000
# 3 0.000071 -0.001649 0.013094 0.000000 -0.002840 0.000000
# 4 0.000000 0.000000 0.000000 0.035125 0.000000 -0.015669
# 5 -0.002177 0.000982 -0.002840 0.000000 0.022341 0.000000
# 6 0.000000 0.000000 0.000000 -0.015669 0.000000 0.048430
#
#
# Mechanical properties :
#
#
# Convention : Reuss Voigt Hill
#
# Bulk Modulus (GPa) = 42.53998 51.55137 47.04568
# Shear Modulus (GPa) = 32.79540 40.02339 36.40940
#
# Velocity S-wave (km/s) = 3.84935 4.25244 4.05591
# Velocity P-wave (km/s) = 6.24315 6.88497 6.57190
#
# Compressibility (1/GPa) = 0.02350730
#
# Stress axis : x y z
#
# Youngs Moduli (GPa) = 86.80208 153.75878 76.36976
#
# Poissons Ratio (x) = 0.34246 -0.00542
# Poissons Ratio (y) = 0.19333 0.12596
# Poissons Ratio (z) = -0.00617 0.25359
#
# Static dielectric constant tensor:
#      x y z
#    x 3.651610 0.000000 0.555790 
#    y 0.000000 3.426680 0.000000 
#    z 0.555790 0.000000 3.546110 
# 
# 
# High freq. dielectric constant tensor:
#      x y z
#    x 1.874640 0.000000 0.006860 
#    y 0.000000 1.876490 0.000000 
#    z 0.006860 0.000000 1.891850 
# 
# From -- ./inp_files/122855.got.cif
#   From: 2010.06.25/outbox.cif.g09.slc.cpg/sg15_62_cif.got.tgz:122855.got - 2010.06.28 07:06:18.
