data_PCOD8153528
_publ_section_title
;
Structure prediction by ZEFSAII (Michael W. Deem and Ramdas Pophale) SiO2 
 PCOD8153528
Probable space group: C 2/C
;
_chemical_formula_sum "Si O2"
_cell_formula_units_Z 52
_cell_length_a 11.224793
_cell_length_b 15.111949
_cell_length_c 16.531571
_cell_angle_alpha 90.000000
_cell_angle_beta 126.047526
_cell_angle_gamma 90.000000
_cell_volume 2267.298145
_symmetry_space_group_name_H-M "C 2/C"
_symmetry_group_IT_number 15
_symmetry_cell_setting 'monoclinic'
loop_
_space_group_symop_operation_xyz
x,y,z
-x,y,1/2-z
-x,-y,-z
x,-y,1/2+z
1/2+x,1/2+y,z
1/2-x,1/2+y,1/2-z
1/2-x,1/2-y,-z
1/2+x,1/2-y,1/2+z
loop_
_atom_site_type_symbol
_atom_site_label
_atom_site_fract_x
_atom_site_fract_y
_atom_site_fract_z
Si Si1 0.075082 0.722694 0.080883
Si Si2 0.000000 0.015815 0.250000
Si Si3 0.172188 0.652307 0.812304
Si Si4 0.377781 0.370314 0.088172
Si Si5 0.176963 0.987160 0.572119
Si Si6 0.729440 0.618444 0.244476
Si Si7 0.662836 0.198820 0.636900
O O1 0.239165 0.759171 0.126570
O O2 0.107225 0.641906 0.155753
O O3 0.986318 0.801213 0.089149
O O4 0.995533 0.685209 0.969360
O O5 0.867247 0.080735 0.220295
O O6 0.964764 0.952579 0.160462
O O7 0.235465 0.579431 0.900013
O O8 0.195282 0.631905 0.724473
O O9 0.000000 0.670376 0.750000
O O10 0.284978 0.316070 0.116611
O O11 0.276537 0.416677 0.978736
O O12 0.242508 0.956146 0.682997
O O13 0.000000 0.000000 0.500000
O O14 0.658614 0.702884 0.171066
#
# Coordination Sequence:
#
# PCOD8153528 Si02
#       7
#     8   4   8   8   8   8   8
#     4  11  24  44  71 105 141 186 232 299 364 426
#     4  12  24  42  68 104 134 198 228 284 350 434
#     4  11  26  45  68 104 148 189 235 299 359 435
#     4  12  24  46  76  98 144 185 240 291 362 424
#     4  12  22  46  72 102 140 192 242 290 362 431
#     4  11  24  40  69 103 139 176 246 282 354 427
#     4  11  25  46  70 104 143 181 238 300 360 423
#
# _framework density 22.934785999999999
#
# number of rings (size 3 to 8) (size 9 to 14) (size 15 to 20)
#    0.000    0.615    4.615    3.231    4.308    3.077 
#    0.000    2.308    0.000    0.000    0.000    0.000 
#    0.000    0.000    0.000    0.000    0.000    0.000 
#
# Total GULP energy -322190.295058 kJ/mol
# GULP energy per Si atom -12391.934425 kJ/mol
# Density = 2.288259 g / cm^3
# Si number density = 22.934786 Si / 1000 Ang^3
#
#
#
# Elastic Constant Matrix: (Units=GPa)
#
#
# Indices 1 2 3 4 5 6 
#
# 1 65.6519 19.0335 6.8113 0.0000 7.5938 0.0000
# 2 19.0335 80.6749 30.3219 0.0000 3.2896 0.0000
# 3 6.8113 30.3219 125.6480 0.0000 14.6819 0.0000
# 4 0.0000 0.0000 0.0000 55.9360 0.0000 0.3769
# 5 7.5938 3.2896 14.6819 0.0000 41.4722 0.0000
# 6 0.0000 0.0000 0.0000 0.3769 0.0000 28.0060
#
#
#
# Elastic Compliance Matrix: (Units=1/GPa)
#
#
# Indices 1 2 3 4 5 6 
#
# 1 0.016673 -0.003962 0.000388 0.000000 -0.002876 0.000000
# 2 -0.003962 0.014574 -0.003392 0.000000 0.000770 0.000000
# 3 0.000388 -0.003392 0.009110 0.000000 -0.003027 0.000000
# 4 0.000000 0.000000 0.000000 0.017879 0.000000 -0.000241
# 5 -0.002876 0.000770 -0.003027 0.000000 0.025650 0.000000
# 6 0.000000 0.000000 0.000000 -0.000241 0.000000 0.035710
#
#
# Mechanical properties :
#
#
# Convention : Reuss Voigt Hill
#
# Bulk Modulus (GPa) = 37.84358 42.70092 40.27225
# Shear Modulus (GPa) = 35.12811 39.47005 37.29908
#
# Velocity S-wave (km/s) = 3.91788 4.15296 4.03713
# Velocity P-wave (km/s) = 6.08298 6.45406 6.27127
#
# Compressibility (1/GPa) = 0.02642456
#
# Stress axis : x y z
#
# Youngs Moduli (GPa) = 59.97727 68.61610 109.76908
#
# Poissons Ratio (x) = 0.27188 -0.04264
# Poissons Ratio (y) = 0.23765 0.37236
# Poissons Ratio (z) = -0.02330 0.23276
#
# Static dielectric constant tensor:
#      x y z
#    x 3.992640 0.000000 -0.121680 
#    y 0.000000 4.201130 0.000000 
#    z -0.121680 0.000000 4.660820 
# 
# 
# High freq. dielectric constant tensor:
#      x y z
#    x 1.880050 0.000000 -0.004030 
#    y 0.000000 1.908360 0.000000 
#    z -0.004030 0.000000 1.926700 
# 
# From -- ./inp_files/198026.got.cif
#   From: 2010.06.25/outbox.cif.g09.slc.cpg/sg15_100_cif.got.tgz:198026.got - 2010.06.28 07:06:18.
