data_PCOD8153873
_publ_section_title
;
Structure prediction by ZEFSAII (Michael W. Deem and Ramdas Pophale) SiO2 
 PCOD8153873
Probable space group: C 2/C
;
_chemical_formula_sum "Si O2"
_cell_formula_units_Z 40
_cell_length_a 15.470006
_cell_length_b 11.238075
_cell_length_c 14.676056
_cell_angle_alpha 90.000000
_cell_angle_beta 134.727780
_cell_angle_gamma 90.000000
_cell_volume 1812.718596
_symmetry_space_group_name_H-M "C 2/C"
_symmetry_group_IT_number 15
_symmetry_cell_setting 'monoclinic'
loop_
_space_group_symop_operation_xyz
x,y,z
-x,y,1/2-z
-x,-y,-z
x,-y,1/2+z
1/2+x,1/2+y,z
1/2-x,1/2+y,1/2-z
1/2-x,1/2-y,-z
1/2+x,1/2-y,1/2+z
loop_
_atom_site_type_symbol
_atom_site_label
_atom_site_fract_x
_atom_site_fract_y
_atom_site_fract_z
Si Si1 0.299332 0.670066 0.329822
Si Si2 0.811486 0.113110 0.654426
Si Si3 0.991122 0.228594 0.139238
Si Si4 0.449233 0.458118 0.084578
Si Si5 0.880381 0.430647 0.939068
O O1 0.251294 0.762211 0.369021
O O2 0.373650 0.733677 0.303701
O O3 0.394670 0.576927 0.446026
O O4 0.182459 0.604466 0.202745
O O5 0.878277 0.119836 0.607249
O O6 0.907913 0.076329 0.804894
O O7 0.707474 0.014382 0.568132
O O8 0.000000 0.272047 0.250000
O O9 0.932082 0.097420 0.092524
O O10 0.904838 0.316023 0.018931
O O11 0.000000 0.500000 0.000000
#
# Coordination Sequence:
#
# PCOD8153873 Si02
#       5
#     8   8   8   8   8
#     4  12  25  44  75 101 147 192 236 300 362 428
#     4  11  24  46  69 107 140 188 244 298 350 439
#     4  12  25  46  73 104 140 196 241 294 357 436
#     4  11  24  48  73 104 143 192 247 284 368 432
#     4  12  27  44  69 108 146 180 247 300 364 421
#
# _framework density 22.066305
#
# number of rings (size 3 to 8) (size 9 to 14) (size 15 to 20)
#    0.000    0.400    6.000    2.400    2.800    4.800 
#    0.000    0.000    0.000    0.000    0.000    0.000 
#    0.000    0.000    0.000    0.000    0.000    0.000 
#
# Total GULP energy -248129.488553 kJ/mol
# GULP energy per Si atom -12406.474428 kJ/mol
# Density = 2.201608 g / cm^3
# Si number density = 22.066305 Si / 1000 Ang^3
#
#
#
# Elastic Constant Matrix: (Units=GPa)
#
#
# Indices 1 2 3 4 5 6 
#
# 1 100.3552 5.1508 30.7683 0.0000 13.4612 0.0000
# 2 5.1508 79.6923 43.9355 0.0000 14.7286 0.0000
# 3 30.7683 43.9355 156.8759 0.0000 11.3050 0.0000
# 4 0.0000 0.0000 0.0000 47.4342 0.0000 4.8999
# 5 13.4612 14.7286 11.3050 0.0000 37.9838 0.0000
# 6 0.0000 0.0000 0.0000 4.8999 0.0000 36.9633
#
#
#
# Elastic Compliance Matrix: (Units=1/GPa)
#
#
# Indices 1 2 3 4 5 6 
#
# 1 0.011092 0.001211 -0.002246 0.000000 -0.003732 0.000000
# 2 0.001211 0.015808 -0.004284 0.000000 -0.005284 0.000000
# 3 -0.002246 -0.004284 0.008009 0.000000 0.000073 0.000000
# 4 0.000000 0.000000 0.000000 0.021375 0.000000 -0.002833
# 5 -0.003732 -0.005284 0.000073 0.000000 0.029677 0.000000
# 6 0.000000 0.000000 0.000000 -0.002833 0.000000 0.027429
#
#
# Mechanical properties :
#
#
# Convention : Reuss Voigt Hill
#
# Bulk Modulus (GPa) = 41.20013 55.18141 48.19077
# Shear Modulus (GPa) = 37.84484 41.61417 39.72950
#
# Velocity S-wave (km/s) = 4.14581 4.34737 4.24779
# Velocity P-wave (km/s) = 6.45202 7.08949 6.77825
#
# Compressibility (1/GPa) = 0.02427177
#
# Stress axis : x y z
#
# Youngs Moduli (GPa) = 90.15890 63.25728 124.85243
#
# Poissons Ratio (x) = -0.07660 0.28037
# Poissons Ratio (y) = -0.10917 0.53488
# Poissons Ratio (z) = 0.20246 0.27100
#
# Static dielectric constant tensor:
#      x y z
#    x 4.008020 0.000000 0.141010 
#    y 0.000000 3.953140 0.000000 
#    z 0.141010 0.000000 4.210990 
# 
# 
# High freq. dielectric constant tensor:
#      x y z
#    x 1.877960 0.000000 0.004320 
#    y 0.000000 1.867790 0.000000 
#    z 0.004320 0.000000 1.874430 
# 
# From -- ./inp_files/152295.got.cif
#   From: 2010.06.25/outbox.cif.g09.slc.cpg/sg15_77_cif.got.tgz:152295.got - 2010.06.28 07:06:18.
