data_PCOD8153917
_publ_section_title
;
Structure prediction by ZEFSAII (Michael W. Deem and Ramdas Pophale) SiO2 
 PCOD8153917
Probable space group: C 2/C
;
_chemical_formula_sum "Si O2"
_cell_formula_units_Z 40
_cell_length_a 10.937442
_cell_length_b 11.633985
_cell_length_c 20.497267
_cell_angle_alpha 90.000000
_cell_angle_beta 38.744110
_cell_angle_gamma 90.000000
_cell_volume 1632.321970
_symmetry_space_group_name_H-M "C 2/C"
_symmetry_group_IT_number 15
_symmetry_cell_setting 'monoclinic'
loop_
_space_group_symop_operation_xyz
x,y,z
-x,y,1/2-z
-x,-y,-z
x,-y,1/2+z
1/2+x,1/2+y,z
1/2-x,1/2+y,1/2-z
1/2-x,1/2-y,-z
1/2+x,1/2-y,1/2+z
loop_
_atom_site_type_symbol
_atom_site_label
_atom_site_fract_x
_atom_site_fract_y
_atom_site_fract_z
Si Si1 0.363881 0.109183 0.931959
Si Si2 0.632700 0.083469 0.301048
Si Si3 0.801140 0.976860 0.863372
Si Si4 0.170072 0.238214 0.604711
Si Si5 0.044684 0.172700 0.410296
O O1 0.512771 0.214752 0.878325
O O2 0.476067 0.012269 0.843729
O O3 0.166502 0.134947 0.973196
O O4 0.273081 0.082917 0.040958
O O5 0.547796 0.206121 0.309968
O O6 0.850178 0.075697 0.179832
O O7 0.636603 0.054757 0.377349
O O8 0.836661 0.111452 0.862751
O O9 0.000000 0.924713 0.750000
O O10 0.250000 0.250000 0.500000
O O11 0.315778 0.313098 0.586755
#
# Coordination Sequence:
#
# PCOD8153917 Si02
#       5
#     8   8   8   8   8
#     4  11  24  46  74 107 154 197 247 326 389 451
#     4  12  24  44  77 109 148 202 251 317 388 460
#     4  12  23  47  77 108 148 201 255 317 389 458
#     4  12  25  45  75 109 151 201 257 318 382 464
#     4  11  25  45  73 109 151 194 261 316 381 473
#
# _framework density 24.50497
#
# number of rings (size 3 to 8) (size 9 to 14) (size 15 to 20)
#    0.000    0.400    6.000    3.600    0.000    0.800 
#    0.000    0.000   17.600    0.000    0.000    0.000 
#    0.000    0.000    0.000    0.000    0.000    0.000 
#
# Total GULP energy -247822.472946 kJ/mol
# GULP energy per Si atom -12391.123647 kJ/mol
# Density = 2.444920 g / cm^3
# Si number density = 24.504970 Si / 1000 Ang^3
#
#
#
# Elastic Constant Matrix: (Units=GPa)
#
#
# Indices 1 2 3 4 5 6 
#
# 1 107.6802 33.5896 29.7822 -0.0001 -2.9376 0.0001
# 2 33.5896 105.7300 37.5310 -0.0001 -11.0866 0.0001
# 3 29.7822 37.5310 122.2151 -0.0002 -20.6282 0.0001
# 4 -0.0001 -0.0001 -0.0002 41.5610 0.0001 -2.3937
# 5 -2.9376 -11.0866 -20.6282 0.0001 35.1643 -0.0001
# 6 0.0001 0.0001 0.0001 -2.3937 -0.0001 32.8278
#
#
#
# Elastic Compliance Matrix: (Units=1/GPa)
#
#
# Indices 1 2 3 4 5 6 
#
# 1 0.010669 -0.002825 -0.001923 0.000000 -0.001127 0.000000
# 2 -0.002825 0.011444 -0.002505 0.000000 0.001903 0.000000
# 3 -0.001923 -0.002505 0.010277 0.000000 0.005079 0.000000
# 4 0.000000 0.000000 0.000000 0.024162 0.000000 0.001762
# 5 -0.001127 0.001903 0.005079 0.000000 0.031923 0.000000
# 6 0.000000 0.000000 0.000000 0.001762 0.000000 0.030590
#
#
# Mechanical properties :
#
#
# Convention : Reuss Voigt Hill
#
# Bulk Modulus (GPa) = 55.91183 59.71457 57.81320
# Shear Modulus (GPa) = 35.83375 37.55878 36.69627
#
# Velocity S-wave (km/s) = 3.82816 3.91922 3.87396
# Velocity P-wave (km/s) = 6.51197 6.70087 6.60710
#
# Compressibility (1/GPa) = 0.01788530
#
# Stress axis : x y z
#
# Youngs Moduli (GPa) = 93.72909 87.38010 97.30297
#
# Poissons Ratio (x) = 0.24687 0.18707
# Poissons Ratio (y) = 0.26481 0.24372
# Poissons Ratio (z) = 0.18020 0.21887
#
# Static dielectric constant tensor:
#      x y z
#    x 5.084330 0.000000 -0.489490 
#    y 0.000000 4.430060 0.000000 
#    z -0.489490 0.000000 4.663740 
# 
# 
# High freq. dielectric constant tensor:
#      x y z
#    x 1.992660 0.000000 -0.023080 
#    y 0.000000 1.956860 0.000000 
#    z -0.023080 0.000000 1.980070 
# 
# From -- ./inp_files/237357.got.cif
#   From: 2010.06.25/outbox.cif.g09.slc.cpg/sg15_119_cif.got.tgz:237357.got - 2010.06.28 07:06:18.
