data_PCOD8153380
_publ_section_title
;
Structure prediction by ZEFSAII (Michael W. Deem and Ramdas Pophale) SiO2 
 PCOD8153380
Probable space group: C 2/C
;
_chemical_formula_sum "Si O2"
_cell_formula_units_Z 36
_cell_length_a 21.200863
_cell_length_b 6.285390
_cell_length_c 11.328368
_cell_angle_alpha 90.000000
_cell_angle_beta 110.722191
_cell_angle_gamma 90.000000
_cell_volume 1411.911027
_symmetry_space_group_name_H-M "C 2/C"
_symmetry_group_IT_number 15
_symmetry_cell_setting 'monoclinic'
loop_
_space_group_symop_operation_xyz
x,y,z
-x,y,1/2-z
-x,-y,-z
x,-y,1/2+z
1/2+x,1/2+y,z
1/2-x,1/2+y,1/2-z
1/2-x,1/2-y,-z
1/2+x,1/2-y,1/2+z
loop_
_atom_site_type_symbol
_atom_site_label
_atom_site_fract_x
_atom_site_fract_y
_atom_site_fract_z
Si Si1 0.611805 0.634613 0.973689
Si Si2 0.110779 0.584604 0.695685
Si Si3 0.500000 0.847929 0.750000
Si Si4 0.295712 0.592220 0.130578
Si Si5 0.824449 0.194713 0.852389
O O1 0.550657 0.681196 0.845766
O O2 0.683138 0.587374 0.951693
O O3 0.615102 0.833721 0.063942
O O4 0.607083 0.416023 0.048332
O O5 0.140557 0.747792 0.811419
O O6 0.154877 0.372184 0.726812
O O7 0.036019 0.509952 0.683316
O O8 0.223489 0.720212 0.069432
O O9 0.282925 0.479015 0.249381
#
# Coordination Sequence:
#
# PCOD8153380 Si02
#       5
#     8   8   4   8   8
#     4  11  27  45  75 111 139 195 243 293 357 429
#     4  11  26  47  72 107 143 196 240 291 364 423
#     4  12  26  52  70 100 156 194 240 298 344 424
#     4  11  23  47  73 109 147 182 236 305 360 426
#     4  11  23  45  75 109 145 184 241 295 367 431
#
# _framework density 25.497354999999999
#
# number of rings (size 3 to 8) (size 9 to 14) (size 15 to 20)
#    0.000    0.889    4.444    1.333    3.111    2.667 
#    0.000    0.000    0.000    0.000    0.000    0.000 
#    0.000    0.000    0.000    0.000    0.000    0.000 
#
# Total GULP energy -222993.933929 kJ/mol
# GULP energy per Si atom -12388.551885 kJ/mol
# Density = 2.543932 g / cm^3
# Si number density = 25.497355 Si / 1000 Ang^3
#
#
#
# Elastic Constant Matrix: (Units=GPa)
#
#
# Indices 1 2 3 4 5 6 
#
# 1 136.7475 73.3321 34.6759 0.0000 -8.4550 0.0000
# 2 73.3321 121.2873 48.7106 0.0000 -5.2596 0.0000
# 3 34.6759 48.7106 83.2665 0.0000 8.5897 0.0000
# 4 0.0000 0.0000 0.0000 15.2905 0.0000 1.2699
# 5 -8.4550 -5.2596 8.5897 0.0000 40.2796 0.0000
# 6 0.0000 0.0000 0.0000 1.2699 0.0000 54.6373
#
#
#
# Elastic Compliance Matrix: (Units=1/GPa)
#
#
# Indices 1 2 3 4 5 6 
#
# 1 0.010990 -0.006087 -0.001198 0.000000 0.001768 0.000000
# 2 -0.006087 0.014469 -0.006127 0.000000 0.001918 0.000000
# 3 -0.001198 -0.006127 0.016566 0.000000 -0.004584 0.000000
# 4 0.000000 0.000000 0.000000 0.065527 0.000000 -0.001523
# 5 0.001768 0.001918 -0.004584 0.000000 0.026426 0.000000
# 6 0.000000 0.000000 0.000000 -0.001523 0.000000 0.018338
#
#
# Mechanical properties :
#
#
# Convention : Reuss Voigt Hill
#
# Bulk Modulus (GPa) = 65.78913 72.74874 69.26893
# Shear Modulus (GPa) = 27.14332 34.34699 30.74515
#
# Velocity S-wave (km/s) = 3.26629 3.67424 3.47626
# Velocity P-wave (km/s) = 6.33113 6.82597 6.58320
#
# Compressibility (1/GPa) = 0.01520008
#
# Stress axis : x y z
#
# Youngs Moduli (GPa) = 90.99168 69.11270 60.36418
#
# Poissons Ratio (x) = 0.42068 0.07234
# Poissons Ratio (y) = 0.55385 0.36988
# Poissons Ratio (z) = 0.10904 0.42348
#
# Static dielectric constant tensor:
#      x y z
#    x 4.358520 0.000000 -0.244740 
#    y 0.000000 4.730790 0.000000 
#    z -0.244740 0.000000 4.672720 
# 
# 
# High freq. dielectric constant tensor:
#      x y z
#    x 1.995390 0.000000 -0.021910 
#    y 0.000000 2.033370 0.000000 
#    z -0.021910 0.000000 2.034110 
# 
# From -- ./inp_files/115624.got.cif
#   From: 2010.06.25/outbox.cif.g09.slc.cpg/sg15_58_cif.got.tgz:115624.got - 2010.06.28 07:06:18.
