data_PCOD8153440
_publ_section_title
;
Structure prediction by ZEFSAII (Michael W. Deem and Ramdas Pophale) SiO2 
 PCOD8153440
Probable space group: C 2/C
;
_chemical_formula_sum "Si O2"
_cell_formula_units_Z 60
_cell_length_a 8.816339
_cell_length_b 16.058596
_cell_length_c 17.889536
_cell_angle_alpha 90.000000
_cell_angle_beta 84.999172
_cell_angle_gamma 90.000000
_cell_volume 2523.124070
_symmetry_space_group_name_H-M "C 2/C"
_symmetry_group_IT_number 15
_symmetry_cell_setting 'monoclinic'
loop_
_space_group_symop_operation_xyz
x,y,z
-x,y,1/2-z
-x,-y,-z
x,-y,1/2+z
1/2+x,1/2+y,z
1/2-x,1/2+y,1/2-z
1/2-x,1/2-y,-z
1/2+x,1/2-y,1/2+z
loop_
_atom_site_type_symbol
_atom_site_label
_atom_site_fract_x
_atom_site_fract_y
_atom_site_fract_z
Si Si1 0.098643 0.871620 0.621920
Si Si2 0.869984 0.397061 0.069027
Si Si3 0.500000 0.500829 0.250000
Si Si4 0.484370 0.032968 0.338432
Si Si5 0.049446 0.698550 0.670455
Si Si6 0.064280 0.333228 0.933062
Si Si7 0.798430 0.070984 0.640098
Si Si8 0.034160 0.143212 0.527017
O O1 0.070355 0.796003 0.679436
O O2 0.255800 0.852090 0.571235
O O3 0.972471 0.873140 0.561631
O O4 0.083586 0.949249 0.678740
O O5 0.889805 0.479996 0.119171
O O6 0.700368 0.380581 0.048629
O O7 0.917481 0.317246 0.116101
O O8 0.986963 0.396964 0.994859
O O9 0.626810 0.442139 0.281578
O O10 0.500000 0.016696 0.250000
O O11 0.316430 0.004719 0.371760
O O12 0.507038 0.131287 0.354814
O O13 0.209320 0.658114 0.640362
O O14 0.000000 0.656663 0.750000
O O15 0.013761 0.237982 0.948661
O O16 0.924643 0.075721 0.570440
#
# Coordination Sequence:
#
# PCOD8153440 Si02
#       8
#     8   8   4   8   8   8   8   8
#     4  12  25  48  74 107 144 192 234 299 360 427
#     4  11  25  45  75 107 144 189 243 297 352 431
#     4  12  30  46  76 108 150 178 248 296 364 418
#     4  11  26  50  72 103 149 194 239 289 368 428
#     4  11  23  46  76 102 146 192 236 288 367 424
#     4  12  25  48  74 107 142 192 242 297 354 429
#     4  11  26  48  71 108 142 191 234 301 352 433
#     4  12  27  46  77 109 145 183 249 298 355 420
#
# _framework density 23.780044
#
# number of rings (size 3 to 8) (size 9 to 14) (size 15 to 20)
#    0.000    0.533    3.333    5.200    7.467    0.533 
#    3.600    0.000    0.000    0.000    0.000    0.000 
#    0.000    0.000    0.000    0.000    0.000    0.000 
#
# Total GULP energy -371814.295596 kJ/mol
# GULP energy per Si atom -12393.809853 kJ/mol
# Density = 2.372592 g / cm^3
# Si number density = 23.780044 Si / 1000 Ang^3
#
#
#
# Elastic Constant Matrix: (Units=GPa)
#
#
# Indices 1 2 3 4 5 6 
#
# 1 146.5610 12.0431 61.7008 0.0000 13.5284 0.0000
# 2 12.0431 61.2892 39.4674 0.0000 11.6990 0.0000
# 3 61.7008 39.4674 125.8105 0.0000 6.3535 0.0000
# 4 0.0000 0.0000 0.0000 40.9587 0.0000 1.5123
# 5 13.5284 11.6990 6.3535 0.0000 46.8401 0.0000
# 6 0.0000 0.0000 0.0000 1.5123 0.0000 17.6564
#
#
#
# Elastic Compliance Matrix: (Units=1/GPa)
#
#
# Indices 1 2 3 4 5 6 
#
# 1 0.008924 0.001806 -0.004823 0.000000 -0.002374 0.000000
# 2 0.001806 0.021695 -0.007442 0.000000 -0.004931 0.000000
# 3 -0.004823 -0.007442 0.012571 0.000000 0.001547 0.000000
# 4 0.000000 0.000000 0.000000 0.024492 0.000000 -0.002098
# 5 -0.002374 -0.004931 0.001547 0.000000 0.023057 0.000000
# 6 0.000000 0.000000 0.000000 -0.002098 0.000000 0.056816
#
#
# Mechanical properties :
#
#
# Convention : Reuss Voigt Hill
#
# Bulk Modulus (GPa) = 44.90379 62.23148 53.56764
# Shear Modulus (GPa) = 28.42544 35.78766 32.10655
#
# Velocity S-wave (km/s) = 3.46113 3.88357 3.67842
# Velocity P-wave (km/s) = 5.90733 6.80705 6.37309
#
# Compressibility (1/GPa) = 0.02226983
#
# Stress axis : x y z
#
# Youngs Moduli (GPa) = 112.05160 46.09358 79.55115
#
# Poissons Ratio (x) = -0.08322 0.38370
# Poissons Ratio (y) = -0.20232 0.59205
# Poissons Ratio (z) = 0.54046 0.34304
#
# Static dielectric constant tensor:
#      x y z
#    x 4.318570 0.000000 0.075220 
#    y 0.000000 4.280900 0.000000 
#    z 0.075220 0.000000 4.462870 
# 
# 
# High freq. dielectric constant tensor:
#      x y z
#    x 1.947210 0.000000 -0.000450 
#    y 0.000000 1.941480 0.000000 
#    z -0.000450 0.000000 1.953870 
# 
# From -- ./inp_files/190996.got.cif
#   From: 2010.06.25/outbox.cif.g09.slc.cpg/sg15_96_cif.got.tgz:190996.got - 2010.06.28 07:06:18.
