data_PCOD8153195
_publ_section_title
;
Structure prediction by ZEFSAII (Michael W. Deem and Ramdas Pophale) SiO2 
 PCOD8153195
Probable space group: C 2/C
;
_chemical_formula_sum "Si O2"
_cell_formula_units_Z 40
_cell_length_a 16.037955
_cell_length_b 16.932011
_cell_length_c 15.362046
_cell_angle_alpha 90.000000
_cell_angle_beta 26.106069
_cell_angle_gamma 90.000000
_cell_volume 1835.663677
_symmetry_space_group_name_H-M "C 2/C"
_symmetry_group_IT_number 15
_symmetry_cell_setting 'monoclinic'
loop_
_space_group_symop_operation_xyz
x,y,z
-x,y,1/2-z
-x,-y,-z
x,-y,1/2+z
1/2+x,1/2+y,z
1/2-x,1/2+y,1/2-z
1/2-x,1/2-y,-z
1/2+x,1/2-y,1/2+z
loop_
_atom_site_type_symbol
_atom_site_label
_atom_site_fract_x
_atom_site_fract_y
_atom_site_fract_z
Si Si1 0.352299 0.176421 0.570626
Si Si2 0.552068 0.662581 0.602451
Si Si3 0.781571 0.842262 0.965529
Si Si4 0.545760 0.894088 0.345556
Si Si5 0.900326 0.442506 0.757168
O O1 0.345169 0.268006 0.548816
O O2 0.433610 0.162188 0.590539
O O3 0.485323 0.134584 0.376584
O O4 0.141502 0.140664 0.765436
O O5 0.500000 0.688474 0.750000
O O6 0.684162 0.584687 0.477301
O O7 0.000000 0.865362 0.750000
O O8 0.750000 0.750000 0.000000
O O9 0.711281 0.876453 0.122214
O O10 0.663755 0.877674 0.995278
O O11 0.578281 0.987832 0.335121
O O12 0.000000 0.477729 0.750000
#
# Coordination Sequence:
#
# PCOD8153195 Si02
#       5
#     8   8   8   8   8
#     4  12  26  42  70 103 140 179 235 288 341 416
#     4  12  25  43  73 104 136 188 235 282 349 414
#     4  11  23  43  72  97 137 184 232 276 343 418
#     4  11  27  45  68 108 139 180 228 294 349 403
#     4  12  24  47  70  99 144 179 231 292 349 412
#
# _framework density 21.790483999999999
#
# number of rings (size 3 to 8) (size 9 to 14) (size 15 to 20)
#    0.000    0.400    8.000    1.800    2.800    4.800 
#    0.000    0.000    0.000    0.000    0.000    0.000 
#    0.000    0.000    0.000    0.000    0.000    0.000 
#
# Total GULP energy -248025.555724 kJ/mol
# GULP energy per Si atom -12401.277786 kJ/mol
# Density = 2.174089 g / cm^3
# Si number density = 21.790484 Si / 1000 Ang^3
#
#
#
# Elastic Constant Matrix: (Units=GPa)
#
#
# Indices 1 2 3 4 5 6 
#
# 1 119.3084 36.6891 50.4425 0.0061 -5.8097 -0.0050
# 2 36.6891 103.7246 28.1605 0.0135 -7.4153 0.0058
# 3 50.4425 28.1605 133.8575 0.0131 -35.9152 -0.0019
# 4 0.0061 0.0135 0.0131 32.7287 -0.0012 0.6744
# 5 -5.8097 -7.4153 -35.9152 -0.0012 33.4521 0.0012
# 6 -0.0050 0.0058 -0.0019 0.6744 0.0012 12.7388
#
#
#
# Elastic Compliance Matrix: (Units=1/GPa)
#
#
# Indices 1 2 3 4 5 6 
#
# 1 0.011005 -0.002929 -0.004484 0.000001 -0.003552 0.000005
# 2 -0.002929 0.011005 -0.000974 -0.000003 0.000885 -0.000006
# 3 -0.004484 -0.000974 0.012780 -0.000003 0.012726 0.000000
# 4 0.000001 -0.000003 -0.000003 0.030588 -0.000003 -0.001619
# 5 -0.003552 0.000885 0.012726 -0.000003 0.043136 -0.000004
# 6 0.000005 -0.000006 0.000000 -0.001619 -0.000004 0.078586
#
#
# Mechanical properties :
#
#
# Convention : Reuss Voigt Hill
#
# Bulk Modulus (GPa) = 55.50751 65.27495 60.39123
# Shear Modulus (GPa) = 23.82327 31.89049 27.85688
#
# Velocity S-wave (km/s) = 3.31008 3.82973 3.57935
# Velocity P-wave (km/s) = 6.33541 7.04106 6.69753
#
# Compressibility (1/GPa) = 0.01801558
#
# Stress axis : x y z
#
# Youngs Moduli (GPa) = 90.86549 90.87013 78.24858
#
# Poissons Ratio (x) = 0.26619 0.35087
# Poissons Ratio (y) = 0.26617 0.07619
# Poissons Ratio (z) = 0.40744 0.08849
#
# Static dielectric constant tensor:
#      x y z
#    x 3.887360 0.000070 -0.087150 
#    y 0.000070 3.499620 -0.000020 
#    z -0.087150 -0.000020 3.889390 
# 
# 
# High freq. dielectric constant tensor:
#      x y z
#    x 1.851340 0.000000 -0.008920 
#    y 0.000000 1.859890 0.000010 
#    z -0.008920 0.000010 1.865300 
# 
# From -- ./inp_files/155348.got.cif
#   From: 2010.06.25/outbox.cif.g09.slc.cpg/sg15_78_cif.got.tgz:155348.got - 2010.06.28 07:06:18.
