data_PCOD8153082
_publ_section_title
;
Structure prediction by ZEFSAII (Michael W. Deem and Ramdas Pophale) SiO2 
 PCOD8153082
Probable space group: C 2/C
;
_chemical_formula_sum "Si O2"
_cell_formula_units_Z 48
_cell_length_a 26.214330
_cell_length_b 11.488883
_cell_length_c 19.022868
_cell_angle_alpha 90.000000
_cell_angle_beta 160.532406
_cell_angle_gamma 90.000000
_cell_volume 1909.385187
_symmetry_space_group_name_H-M "C 2/C"
_symmetry_group_IT_number 15
_symmetry_cell_setting 'monoclinic'
loop_
_space_group_symop_operation_xyz
x,y,z
-x,y,1/2-z
-x,-y,-z
x,-y,1/2+z
1/2+x,1/2+y,z
1/2-x,1/2+y,1/2-z
1/2-x,1/2-y,-z
1/2+x,1/2-y,1/2+z
loop_
_atom_site_type_symbol
_atom_site_label
_atom_site_fract_x
_atom_site_fract_y
_atom_site_fract_z
Si Si1 0.000000 0.477334 0.750000
Si Si2 0.094800 0.340653 0.007063
Si Si3 0.771408 0.385604 0.038006
Si Si4 0.000000 0.011126 0.750000
Si Si5 0.831098 0.904841 0.912484
Si Si6 0.985141 0.352366 0.442165
Si Si7 0.926647 0.897790 0.448006
O O1 0.003237 0.397889 0.824188
O O2 0.148374 0.559459 0.927953
O O3 0.062650 0.202223 0.977800
O O4 0.270375 0.351600 0.210198
O O5 0.060707 0.397941 0.039206
O O6 0.879633 0.413817 0.246746
O O7 0.750000 0.250000 0.000000
O O8 0.600315 0.434943 0.825609
O O9 0.869078 0.094265 0.544847
O O10 0.661823 0.886584 0.662177
O O11 0.884770 0.036452 0.965395
O O12 0.961839 0.213002 0.398996
O O13 0.000000 0.000000 0.500000
#
# Coordination Sequence:
#
# PCOD8153082 Si02
#       7
#     4   8   8   4   8   8   8
#     4  12  28  46  72 106 150 192 246 312 376 444
#     4  11  25  44  73 105 142 193 243 304 367 448
#     4  12  28  48  74 107 148 196 250 312 381 445
#     4  12  26  44  72 104 150 192 246 314 372 444
#     4  11  24  44  72 108 144 191 245 305 373 444
#     4  11  25  49  74 105 148 199 252 301 376 460
#     4  11  23  42  71 101 140 182 242 301 362 442
#
# _framework density 25.138983
#
# number of rings (size 3 to 8) (size 9 to 14) (size 15 to 20)
#    0.000    0.667    1.667    5.000    4.667    6.000 
#    0.000    4.167    0.000    0.000    0.000    0.000 
#    0.000    0.000    0.000    0.000    0.000    0.000 
#
# Total GULP energy -297321.102887 kJ/mol
# GULP energy per Si atom -12388.379287 kJ/mol
# Density = 2.508177 g / cm^3
# Si number density = 25.138983 Si / 1000 Ang^3
#
#
#
# Elastic Constant Matrix: (Units=GPa)
#
#
# Indices 1 2 3 4 5 6 
#
# 1 105.6224 21.2415 30.6036 0.0000 1.7177 0.0000
# 2 21.2415 90.8734 20.2399 0.0000 -7.3184 0.0000
# 3 30.6036 20.2399 108.5687 -0.0001 -8.8413 0.0000
# 4 0.0000 0.0000 -0.0001 33.7352 -0.0001 7.6811
# 5 1.7177 -7.3184 -8.8413 -0.0001 50.3816 0.0000
# 6 0.0000 0.0000 0.0000 7.6811 0.0000 42.7496
#
#
#
# Elastic Compliance Matrix: (Units=1/GPa)
#
#
# Indices 1 2 3 4 5 6 
#
# 1 0.010676 -0.001978 -0.002733 0.000000 -0.001131 0.000000
# 2 -0.001978 0.011933 -0.001543 0.000000 0.001530 0.000000
# 3 -0.002733 -0.001543 0.010407 0.000000 0.001695 0.000000
# 4 0.000000 0.000000 0.000000 0.030907 0.000000 -0.005553
# 5 -0.001131 0.001530 0.001695 0.000000 0.020407 0.000000
# 6 0.000000 0.000000 0.000000 -0.005553 0.000000 0.024390
#
#
# Mechanical properties :
#
#
# Convention : Reuss Voigt Hill
#
# Bulk Modulus (GPa) = 48.75756 49.91495 49.33625
# Shear Modulus (GPa) = 39.04360 40.90526 39.97443
#
# Velocity S-wave (km/s) = 3.94523 4.03819 3.99198
# Velocity P-wave (km/s) = 6.33959 6.45301 6.39655
#
# Compressibility (1/GPa) = 0.02050964
#
# Stress axis : x y z
#
# Youngs Moduli (GPa) = 93.67154 83.79818 96.09226
#
# Poissons Ratio (x) = 0.16574 0.26258
# Poissons Ratio (y) = 0.18527 0.14823
# Poissons Ratio (z) = 0.25597 0.12926
#
# Static dielectric constant tensor:
#      x y z
#    x 2.902130 -0.000010 -0.519240 
#    y -0.000010 3.366500 0.000000 
#    z -0.519240 0.000000 4.325650 
# 
# 
# High freq. dielectric constant tensor:
#      x y z
#    x 1.990000 0.000000 -0.005100 
#    y 0.000000 2.026970 0.000000 
#    z -0.005100 0.000000 2.000660 
# 
# From -- ./inp_files/257679.got.cif
#   From: 2010.06.25/outbox.cif.g09.slc.cpg/sg15_129_cif.got.tgz:257679.got - 2010.06.28 07:06:18.
