data_PCOD8153305
_publ_section_title
;
Structure prediction by ZEFSAII (Michael W. Deem and Ramdas Pophale) SiO2 
 PCOD8153305
Probable space group: C 2/C
;
_chemical_formula_sum "Si O2"
_cell_formula_units_Z 64
_cell_length_a 27.597317
_cell_length_b 11.819668
_cell_length_c 13.653141
_cell_angle_alpha 90.000000
_cell_angle_beta 35.869055
_cell_angle_gamma 90.000000
_cell_volume 2609.480097
_symmetry_space_group_name_H-M "C 2/C"
_symmetry_group_IT_number 15
_symmetry_cell_setting 'monoclinic'
loop_
_space_group_symop_operation_xyz
x,y,z
-x,y,1/2-z
-x,-y,-z
x,-y,1/2+z
1/2+x,1/2+y,z
1/2-x,1/2+y,1/2-z
1/2-x,1/2-y,-z
1/2+x,1/2-y,1/2+z
loop_
_atom_site_type_symbol
_atom_site_label
_atom_site_fract_x
_atom_site_fract_y
_atom_site_fract_z
Si Si1 0.170698 0.970019 0.413064
Si Si2 0.342364 0.890233 0.834762
Si Si3 0.815245 0.447620 0.549507
Si Si4 0.836338 0.843115 0.426176
Si Si5 0.741243 0.219413 0.624281
Si Si6 0.550717 0.181030 0.926071
Si Si7 0.545342 0.038537 0.533835
Si Si8 0.060690 0.899973 0.418984
O O1 0.200932 0.888513 0.450797
O O2 0.098205 0.912501 0.467013
O O3 0.253478 0.974861 0.212590
O O4 0.136957 0.087200 0.518472
O O5 0.370637 0.787171 0.862717
O O6 0.400704 0.919467 0.648119
O O7 0.262270 0.842568 0.910354
O O8 0.322134 0.004257 0.928314
O O9 0.776814 0.323990 0.626458
O O10 0.908387 0.445442 0.440069
O O11 0.866717 0.909190 0.279462
O O12 0.750000 0.250000 0.500000
O O13 0.644032 0.206923 0.803677
O O14 0.520448 0.093542 0.061512
O O15 0.538548 0.115020 0.840179
O O16 0.491983 0.288176 0.014580
O O17 0.000000 0.000000 0.500000
#
# Coordination Sequence:
#
# PCOD8153305 Si02
#       8
#     8   8   8   8   8   8   8   8
#     4  12  26  45  74 107 140 194 247 290 363 446
#     4  11  23  44  74 106 139 186 244 301 356 428
#     4  12  24  42  77 106 137 189 247 294 351 437
#     4  11  24  44  73 104 143 188 243 298 356 446
#     4  12  27  47  73 105 144 190 247 297 359 439
#     4  11  24  46  73 102 148 190 228 310 371 422
#     4  11  23  47  75 106 143 184 243 303 367 424
#     4  12  27  47  72 107 152 192 233 304 381 436
#
# _framework density 24.525957999999999
#
# number of rings (size 3 to 8) (size 9 to 14) (size 15 to 20)
#    0.000    0.500    5.000    3.000    3.500    1.500 
#    0.000    8.125    0.000    0.000    0.000    0.000 
#    0.000    0.000    0.000    0.000    0.000    0.000 
#
# Total GULP energy -396471.264068 kJ/mol
# GULP energy per Si atom -12389.727002 kJ/mol
# Density = 2.447014 g / cm^3
# Si number density = 24.525958 Si / 1000 Ang^3
#
#
#
# Elastic Constant Matrix: (Units=GPa)
#
#
# Indices 1 2 3 4 5 6 
#
# 1 121.5941 32.1861 7.3507 0.0000 -21.1917 0.0000
# 2 32.1861 123.8904 15.0679 0.0000 -10.1545 0.0000
# 3 7.3507 15.0679 30.5094 0.0000 3.7971 0.0000
# 4 0.0000 0.0000 0.0000 38.0782 0.0000 -10.8838
# 5 -21.1917 -10.1545 3.7971 0.0000 40.7206 0.0000
# 6 0.0000 0.0000 0.0000 -10.8838 0.0000 49.4647
#
#
#
# Elastic Compliance Matrix: (Units=1/GPa)
#
#
# Indices 1 2 3 4 5 6 
#
# 1 0.009670 -0.001881 -0.001992 0.000000 0.004749 0.000000
# 2 -0.001881 0.009227 -0.004318 0.000000 0.001725 0.000000
# 3 -0.001992 -0.004318 0.036071 0.000000 -0.005477 0.000000
# 4 0.000000 0.000000 0.000000 0.028024 0.000000 0.006166
# 5 0.004749 0.001725 -0.005477 0.000000 0.027970 0.000000
# 6 0.000000 0.000000 0.000000 0.006166 0.000000 0.021573
#
#
# Mechanical properties :
#
#
# Convention : Reuss Voigt Hill
#
# Bulk Modulus (GPa) = 25.91641 42.80037 34.35839
# Shear Modulus (GPa) = 30.90621 40.41200 35.65911
#
# Velocity S-wave (km/s) = 3.55370 4.06362 3.81718
# Velocity P-wave (km/s) = 5.23720 6.28540 5.78509
#
# Compressibility (1/GPa) = 0.03858559
#
# Stress axis : x y z
#
# Youngs Moduli (GPa) = 103.41228 108.37940 27.72297
#
# Poissons Ratio (x) = 0.20383 0.05523
# Poissons Ratio (y) = 0.19449 0.11972
# Poissons Ratio (z) = 0.20600 0.46803
#
# Static dielectric constant tensor:
#      x y z
#    x 4.454940 0.000000 -0.133380 
#    y 0.000000 4.413090 0.000000 
#    z -0.133380 0.000000 4.392980 
# 
# 
# High freq. dielectric constant tensor:
#      x y z
#    x 1.976780 0.000000 -0.014940 
#    y 0.000000 1.990620 0.000000 
#    z -0.014940 0.000000 1.970440 
# 
# From -- ./inp_files/177805.got.cif
#   From: 2010.06.25/outbox.cif.g09.slc.cpg/sg15_89_cif.got.tgz:177805.got - 2010.06.28 07:06:18.
