data_PCOD8153921
_publ_section_title
;
Structure prediction by ZEFSAII (Michael W. Deem and Ramdas Pophale) SiO2 
 PCOD8153921
Probable space group: C 2/C
;
_chemical_formula_sum "Si O2"
_cell_formula_units_Z 52
_cell_length_a 20.557146
_cell_length_b 20.401778
_cell_length_c 11.070768
_cell_angle_alpha 90.000000
_cell_angle_beta 29.731694
_cell_angle_gamma 90.000000
_cell_volume 2302.697701
_symmetry_space_group_name_H-M "C 2/C"
_symmetry_group_IT_number 15
_symmetry_cell_setting 'monoclinic'
loop_
_space_group_symop_operation_xyz
x,y,z
-x,y,1/2-z
-x,-y,-z
x,-y,1/2+z
1/2+x,1/2+y,z
1/2-x,1/2+y,1/2-z
1/2-x,1/2-y,-z
1/2+x,1/2-y,1/2+z
loop_
_atom_site_type_symbol
_atom_site_label
_atom_site_fract_x
_atom_site_fract_y
_atom_site_fract_z
Si Si1 0.605265 0.977165 0.678568
Si Si2 0.467084 0.891368 0.096246
Si Si3 0.000000 0.879892 0.750000
Si Si4 0.099885 0.057690 0.856766
Si Si5 0.651119 0.780879 0.818397
Si Si6 0.089674 0.817394 0.220451
Si Si7 0.235898 0.201065 0.912795
O O1 0.500000 0.956166 0.750000
O O2 0.750823 0.963567 0.399160
O O3 0.600142 0.055698 0.708024
O O4 0.568872 0.932440 0.850828
O O5 0.353995 0.851177 0.207877
O O6 0.554709 0.837228 0.026620
O O7 0.086202 0.921112 0.517556
O O8 0.101303 0.835820 0.661611
O O9 0.058593 0.111793 0.825487
O O10 0.000000 0.000000 0.000000
O O11 0.759934 0.816362 0.562179
O O12 0.565452 0.735330 0.866252
O O13 0.720137 0.739507 0.812172
O O14 0.000000 0.801640 0.250000
O O15 0.250000 0.250000 0.000000
#
# Coordination Sequence:
#
# PCOD8153921 Si02
#       7
#     8   8   4   8   8   8   8
#     4  11  26  47  76 105 146 197 251 309 374 444
#     4  11  25  47  72 108 146 190 247 309 373 442
#     4  12  26  48  68 108 152 188 254 302 378 448
#     4  12  27  49  73 106 149 202 254 311 374 462
#     4  11  24  46  75 108 149 185 253 306 379 447
#     4  11  25  45  73 109 144 191 245 308 377 451
#     4  12  26  43  75 108 152 197 238 307 380 447
#
# _framework density 22.582208000000001
#
# number of rings (size 3 to 8) (size 9 to 14) (size 15 to 20)
#    0.000    0.615    3.077    3.692    5.385    3.077 
#    0.000    0.000    0.000    0.000    0.000    0.000 
#    0.000    0.000    0.000    0.000    0.000    0.000 
#
# Total GULP energy -322406.022599 kJ/mol
# GULP energy per Si atom -12400.231638 kJ/mol
# Density = 2.253081 g / cm^3
# Si number density = 22.582208 Si / 1000 Ang^3
#
#
#
# Elastic Constant Matrix: (Units=GPa)
#
#
# Indices 1 2 3 4 5 6 
#
# 1 116.4828 47.7011 30.1628 -0.0001 -0.5159 0.0000
# 2 47.7011 142.1442 64.6586 0.0000 -6.1545 0.0000
# 3 30.1628 64.6586 140.2827 0.0005 -6.5069 -0.0002
# 4 -0.0001 0.0000 0.0005 46.8292 -0.0003 -6.0224
# 5 -0.5159 -6.1545 -6.5069 -0.0003 40.0600 0.0001
# 6 0.0000 0.0000 -0.0002 -6.0224 0.0001 31.9809
#
#
#
# Elastic Compliance Matrix: (Units=1/GPa)
#
#
# Indices 1 2 3 4 5 6 
#
# 1 0.010026 -0.003029 -0.000781 0.000000 -0.000463 0.000000
# 2 -0.003029 0.009837 -0.003843 0.000000 0.000848 0.000000
# 3 -0.000781 -0.003843 0.009109 0.000000 0.000879 0.000000
# 4 0.000000 0.000000 0.000000 0.021884 0.000000 0.004121
# 5 -0.000463 0.000848 0.000879 0.000000 0.025230 0.000000
# 6 0.000000 0.000000 0.000000 0.004121 0.000000 0.032045
#
#
# Mechanical properties :
#
#
# Convention : Reuss Voigt Hill
#
# Bulk Modulus (GPa) = 73.18470 75.99498 74.58984
# Shear Modulus (GPa) = 39.06534 40.86648 39.96591
#
# Velocity S-wave (km/s) = 4.16374 4.25864 4.21146
# Velocity P-wave (km/s) = 7.45615 7.60967 7.53330
#
# Compressibility (1/GPa) = 0.01366406
#
# Stress axis : x y z
#
# Youngs Moduli (GPa) = 99.74422 101.66143 109.78733
#
# Poissons Ratio (x) = 0.30796 0.08573
# Poissons Ratio (y) = 0.30215 0.42193
# Poissons Ratio (z) = 0.07789 0.39070
#
# Static dielectric constant tensor:
#      x y z
#    x 3.873240 0.000000 0.044000 
#    y 0.000000 4.259510 0.000000 
#    z 0.044000 0.000000 4.134300 
# 
# 
# High freq. dielectric constant tensor:
#      x y z
#    x 1.885030 0.000000 -0.005800 
#    y 0.000000 1.907170 0.000000 
#    z -0.005800 0.000000 1.906260 
# 
# From -- ./inp_files/114360.got.cif
#   From: 2010.06.25/outbox.cif.g09.slc.cpg/sg15_58_cif.got.tgz:114360.got - 2010.06.28 07:06:18.
