data_PCOD8153228
_publ_section_title
;
Structure prediction by ZEFSAII (Michael W. Deem and Ramdas Pophale) SiO2 
 PCOD8153228
Probable space group: C 2/C
;
_chemical_formula_sum "Si O2"
_cell_formula_units_Z 64
_cell_length_a 26.449212
_cell_length_b 6.728871
_cell_length_c 27.096089
_cell_angle_alpha 90.000000
_cell_angle_beta 142.870072
_cell_angle_gamma 90.000000
_cell_volume 2910.907608
_symmetry_space_group_name_H-M "C 2/C"
_symmetry_group_IT_number 15
_symmetry_cell_setting 'monoclinic'
loop_
_space_group_symop_operation_xyz
x,y,z
-x,y,1/2-z
-x,-y,-z
x,-y,1/2+z
1/2+x,1/2+y,z
1/2-x,1/2+y,1/2-z
1/2-x,1/2-y,-z
1/2+x,1/2-y,1/2+z
loop_
_atom_site_type_symbol
_atom_site_label
_atom_site_fract_x
_atom_site_fract_y
_atom_site_fract_z
Si Si1 0.787648 0.975064 0.088475
Si Si2 0.609712 0.634821 0.171139
Si Si3 0.367768 0.844575 0.585640
Si Si4 0.909900 0.315726 0.181783
Si Si5 0.367882 0.017250 0.251731
Si Si6 0.009912 0.179502 0.891802
Si Si7 0.930901 0.668656 0.958179
Si Si8 0.760070 0.116359 0.676680
O O1 0.840288 0.160724 0.108980
O O2 0.791163 0.985369 0.150313
O O3 0.824264 0.767383 0.097140
O O4 0.693627 0.979671 0.995418
O O5 0.533389 0.537299 0.143064
O O6 0.577480 0.661052 0.090101
O O7 0.689891 0.487531 0.238900
O O8 0.636120 0.851119 0.209527
O O9 0.413656 0.682600 0.587118
O O10 0.427441 0.007906 0.656379
O O11 0.877194 0.408207 0.207137
O O12 0.000000 0.204175 0.250000
O O13 0.446657 0.154337 0.324038
O O14 0.282777 0.148625 0.190257
O O15 0.042172 0.221588 0.971469
O O16 0.838300 0.575240 0.892797
O O17 0.000000 0.500000 0.000000
#
# Coordination Sequence:
#
# PCOD8153228 Si02
#       8
#     8   8   8   8   8   8   8   8
#     4  11  24  43  65 100 140 184 230 275 350 421
#     4  11  26  45  71 102 136 184 234 291 359 423
#     4  11  24  43  65  99 143 183 224 285 343 418
#     4  12  24  38  69 103 140 184 231 281 342 418
#     4  11  23  44  65 102 140 179 231 285 347 419
#     4  11  24  45  71 100 139 180 231 289 353 417
#     4  12  26  49  73 102 137 182 239 304 357 417
#     4  11  25  45  72 100 142 186 232 294 358 424
#
# _framework density 21.986267999999999
#
# number of rings (size 3 to 8) (size 9 to 14) (size 15 to 20)
#    0.000    0.750    6.250    0.750    3.500    0.500 
#    2.250    2.500    0.000    0.000    0.000    0.000 
#    0.000    0.000    0.000    0.000    0.000    0.000 
#
# Total GULP energy -396720.609115 kJ/mol
# GULP energy per Si atom -12397.519035 kJ/mol
# Density = 2.193623 g / cm^3
# Si number density = 21.986268 Si / 1000 Ang^3
#
#
#
# Elastic Constant Matrix: (Units=GPa)
#
#
# Indices 1 2 3 4 5 6 
#
# 1 94.2917 27.8832 41.2636 -0.0038 11.3276 -0.0032
# 2 27.8832 71.7220 26.5849 -0.0086 1.9973 0.0176
# 3 41.2636 26.5849 107.2986 -0.0026 8.6940 0.0009
# 4 -0.0038 -0.0086 -0.0026 42.5185 -0.0017 -1.2876
# 5 11.3276 1.9973 8.6940 -0.0017 39.0971 -0.0009
# 6 -0.0032 0.0176 0.0009 -1.2876 -0.0009 34.4077
#
#
#
# Elastic Compliance Matrix: (Units=1/GPa)
#
#
# Indices 1 2 3 4 5 6 
#
# 1 0.013897 -0.003775 -0.004174 0.000000 -0.002905 0.000003
# 2 -0.003775 0.016378 -0.002675 0.000003 0.000852 -0.000009
# 3 -0.004174 -0.002675 0.011689 0.000000 -0.001253 0.000001
# 4 0.000000 0.000003 0.000000 0.023546 0.000001 0.000881
# 5 -0.002905 0.000852 -0.001253 0.000001 0.026654 0.000000
# 6 0.000003 -0.000009 0.000001 0.000881 0.000000 0.029096
#
#
# Mechanical properties :
#
#
# Convention : Reuss Voigt Hill
#
# Bulk Modulus (GPa) = 48.26965 51.64176 49.95570
# Shear Modulus (GPa) = 33.46400 35.04338 34.25369
#
# Velocity S-wave (km/s) = 3.90557 3.99667 3.95138
# Velocity P-wave (km/s) = 6.50692 6.69604 6.60216
#
# Compressibility (1/GPa) = 0.02071695
#
# Stress axis : x y z
#
# Youngs Moduli (GPa) = 71.95712 61.05691 85.54854
#
# Poissons Ratio (x) = 0.23048 0.35706
# Poissons Ratio (y) = 0.27162 0.22887
# Poissons Ratio (z) = 0.30033 0.16335
#
# Static dielectric constant tensor:
#      x y z
#    x 3.918850 -0.000020 -0.088890 
#    y -0.000020 3.860700 0.000000 
#    z -0.088890 0.000000 4.208930 
# 
# 
# High freq. dielectric constant tensor:
#      x y z
#    x 1.862470 0.000000 -0.005670 
#    y 0.000000 1.858270 0.000000 
#    z -0.005670 0.000000 1.880380 
# 
# From -- ./inp_files/319307.got.cif
#   From: 2010.06.25/outbox.cif.g09.slc.cpg/sg15_160_cif.got.tgz:319307.got - 2010.06.28 07:06:18.
