data_PCOD8153948
_publ_section_title
;
Structure prediction by ZEFSAII (Michael W. Deem and Ramdas Pophale) SiO2 
 PCOD8153948
Probable space group: C 2/C
;
_chemical_formula_sum "Si O2"
_cell_formula_units_Z 44
_cell_length_a 15.673202
_cell_length_b 7.688606
_cell_length_c 18.293563
_cell_angle_alpha 90.000000
_cell_angle_beta 123.662541
_cell_angle_gamma 90.000000
_cell_volume 1834.814831
_symmetry_space_group_name_H-M "C 2/C"
_symmetry_group_IT_number 15
_symmetry_cell_setting 'monoclinic'
loop_
_space_group_symop_operation_xyz
x,y,z
-x,y,1/2-z
-x,-y,-z
x,-y,1/2+z
1/2+x,1/2+y,z
1/2-x,1/2+y,1/2-z
1/2-x,1/2-y,-z
1/2+x,1/2-y,1/2+z
loop_
_atom_site_type_symbol
_atom_site_label
_atom_site_fract_x
_atom_site_fract_y
_atom_site_fract_z
Si Si1 0.042346 0.793059 0.044960
Si Si2 0.828567 0.527421 0.839062
Si Si3 0.631079 0.801192 0.435737
Si Si4 0.124904 0.089875 0.178316
Si Si5 0.500000 0.647841 0.250000
Si Si6 0.666587 0.843492 0.008148
O O1 0.918157 0.018587 0.910492
O O2 0.921225 0.784420 0.003708
O O3 0.064604 0.789306 0.968609
O O4 0.092255 0.630366 0.111325
O O5 0.885311 0.700065 0.834884
O O6 0.743413 0.462961 0.742187
O O7 0.778668 0.573121 0.894253
O O8 0.750000 0.750000 0.500000
O O9 0.585771 0.757504 0.334757
O O10 0.617865 0.007331 0.435273
O O11 0.061791 0.031915 0.220596
O O12 0.750000 0.750000 0.000000
#
# Coordination Sequence:
#
# PCOD8153948 Si02
#       6
#     8   8   8   8   4   8
#     4  11  25  50  73 102 149 198 237 301 371 439
#     4  11  24  47  70 105 140 193 238 300 366 444
#     4  11  26  49  76 107 152 193 247 308 372 440
#     4  12  26  44  76 103 148 187 247 298 372 434
#     4  12  26  44  72 112 142 192 248 304 366 444
#     4  11  26  46  71 105 145 191 248 298 371 441
#
# _framework density 23.980620999999999
#
# number of rings (size 3 to 8) (size 9 to 14) (size 15 to 20)
#    0.000    0.727    1.818    6.545    7.636    1.455 
#    3.273    0.909    0.000    0.000    0.000    0.000 
#    0.000    0.000    0.000    0.000    0.000    0.000 
#
# Total GULP energy -272782.938011 kJ/mol
# GULP energy per Si atom -12399.224455 kJ/mol
# Density = 2.392604 g / cm^3
# Si number density = 23.980621 Si / 1000 Ang^3
#
#
#
# Elastic Constant Matrix: (Units=GPa)
#
#
# Indices 1 2 3 4 5 6 
#
# 1 150.1539 35.2186 33.5813 0.0000 -8.8864 0.0000
# 2 35.2186 141.6133 27.7350 0.0000 -4.3591 0.0000
# 3 33.5813 27.7350 137.6980 0.0000 4.9201 0.0000
# 4 0.0000 0.0000 0.0000 40.3642 0.0000 -1.9503
# 5 -8.8864 -4.3591 4.9201 0.0000 38.2528 0.0000
# 6 0.0000 0.0000 0.0000 -1.9503 0.0000 39.9080
#
#
#
# Elastic Compliance Matrix: (Units=1/GPa)
#
#
# Indices 1 2 3 4 5 6 
#
# 1 0.007469 -0.001493 -0.001584 0.000000 0.001769 0.000000
# 2 -0.001493 0.007691 -0.001209 0.000000 0.000685 0.000000
# 3 -0.001584 -0.001209 0.007947 0.000000 -0.001528 0.000000
# 4 0.000000 0.000000 0.000000 0.024833 0.000000 0.001214
# 5 0.001769 0.000685 -0.001528 0.000000 0.026827 0.000000
# 6 0.000000 0.000000 0.000000 0.001214 0.000000 0.025117
#
#
# Mechanical properties :
#
#
# Convention : Reuss Voigt Hill
#
# Bulk Modulus (GPa) = 68.80514 69.17056 68.98785
# Shear Modulus (GPa) = 44.13026 45.90035 45.01530
#
# Velocity S-wave (km/s) = 4.29446 4.37974 4.33731
# Velocity P-wave (km/s) = 7.30371 7.38127 7.34259
#
# Compressibility (1/GPa) = 0.01453380
#
# Stress axis : x y z
#
# Youngs Moduli (GPa) = 133.88848 130.02706 125.83721
#
# Poissons Ratio (x) = 0.19411 0.19933
# Poissons Ratio (y) = 0.19987 0.15220
# Poissons Ratio (z) = 0.21208 0.15726
#
# Static dielectric constant tensor:
#      x y z
#    x 4.531650 0.000000 0.070600 
#    y 0.000000 4.438940 0.000000 
#    z 0.070600 0.000000 4.592620 
# 
# 
# High freq. dielectric constant tensor:
#      x y z
#    x 1.955200 0.000000 0.007510 
#    y 0.000000 1.955090 0.000000 
#    z 0.007510 0.000000 1.968370 
# 
# From -- ./inp_files/203085.got.cif
#   From: 2010.06.25/outbox.cif.g09.slc.cpg/sg15_102_cif.got.tgz:203085.got - 2010.06.28 07:06:18.
