data_PCOD8153517
_publ_section_title
;
Structure prediction by ZEFSAII (Michael W. Deem and Ramdas Pophale) SiO2 
 PCOD8153517
Probable space group: C 2/C
;
_chemical_formula_sum "Si O2"
_cell_formula_units_Z 32
_cell_length_a 25.369050
_cell_length_b 10.696872
_cell_length_c 14.189112
_cell_angle_alpha 90.000000
_cell_angle_beta 156.326039
_cell_angle_gamma 90.000000
_cell_volume 1546.094185
_symmetry_space_group_name_H-M "C 2/C"
_symmetry_group_IT_number 15
_symmetry_cell_setting 'monoclinic'
loop_
_space_group_symop_operation_xyz
x,y,z
-x,y,1/2-z
-x,-y,-z
x,-y,1/2+z
1/2+x,1/2+y,z
1/2-x,1/2+y,1/2-z
1/2-x,1/2-y,-z
1/2+x,1/2-y,1/2+z
loop_
_atom_site_type_symbol
_atom_site_label
_atom_site_fract_x
_atom_site_fract_y
_atom_site_fract_z
Si Si1 0.865365 0.246604 0.910984
Si Si2 0.652277 0.688665 0.411563
Si Si3 0.242374 0.582834 0.409878
Si Si4 0.636264 0.167831 0.421775
O O1 0.852168 0.378439 0.832875
O O2 0.756200 0.149353 0.692258
O O3 0.843298 0.270468 0.985800
O O4 0.008746 0.187799 0.129540
O O5 0.750000 0.750000 0.500000
O O6 0.690731 0.548240 0.501322
O O7 0.357608 0.688584 0.607860
O O8 0.156776 0.575950 0.366143
O O9 0.500000 0.137984 0.250000
#
# Coordination Sequence:
#
# PCOD8153517 Si02
#       4
#     8   8   8   8
#     4   9  23  41  60 100 124 175 230 252 342 403
#     4  11  24  40  63  95 134 176 219 275 331 391
#     4   9  22  42  64  93 131 172 221 272 326 394
#     4   9  20  42  65  95 126 171 223 269 333 390
#
# _framework density 20.697315
#
# number of rings (size 3 to 8) (size 9 to 14) (size 15 to 20)
#    1.500    1.000    0.000    0.000    7.000    4.000 
#    4.500    0.000    0.000    0.000    0.000    0.000 
#    0.000    0.000    0.000    0.000    0.000    0.000 
#
# Total GULP energy -198281.971694 kJ/mol
# GULP energy per Si atom -12392.623231 kJ/mol
# Density = 2.065021 g / cm^3
# Si number density = 20.697315 Si / 1000 Ang^3
#
#
#
# Elastic Constant Matrix: (Units=GPa)
#
#
# Indices 1 2 3 4 5 6 
#
# 1 139.5108 14.0083 85.7341 0.0000 16.6144 0.0000
# 2 14.0083 63.8211 48.5583 0.0000 -1.9244 0.0000
# 3 85.7341 48.5583 172.1329 0.0000 3.5374 0.0000
# 4 0.0000 0.0000 0.0000 32.0676 0.0000 -3.2777
# 5 16.6144 -1.9244 3.5374 0.0000 35.1777 0.0000
# 6 0.0000 0.0000 0.0000 -3.2777 0.0000 14.2567
#
#
#
# Elastic Compliance Matrix: (Units=1/GPa)
#
#
# Indices 1 2 3 4 5 6 
#
# 1 0.011246 0.002016 -0.006075 0.000000 -0.004590 0.000000
# 2 0.002016 0.020410 -0.006779 0.000000 0.000846 0.000000
# 3 -0.006075 -0.006779 0.010719 0.000000 0.001421 0.000000
# 4 0.000000 0.000000 0.000000 0.031935 0.000000 0.007342
# 5 -0.004590 0.000846 0.001421 0.000000 0.030498 0.000000
# 6 0.000000 0.000000 0.000000 0.007342 0.000000 0.071830
#
#
# Mechanical properties :
#
#
# Convention : Reuss Voigt Hill
#
# Bulk Modulus (GPa) = 48.31690 74.67403 61.49547
# Shear Modulus (GPa) = 24.36492 31.44469 27.90480
#
# Velocity S-wave (km/s) = 3.43476 3.90200 3.67581
# Velocity P-wave (km/s) = 6.25502 7.51387 6.91316
#
# Compressibility (1/GPa) = 0.02069669
#
# Stress axis : x y z
#
# Youngs Moduli (GPa) = 88.92283 48.99665 93.29612
#
# Poissons Ratio (x) = -0.09876 0.56682
# Poissons Ratio (y) = -0.17924 0.63244
# Poissons Ratio (z) = 0.54025 0.33214
#
# Static dielectric constant tensor:
#      x y z
#    x 3.777840 0.000000 -0.059090 
#    y 0.000000 3.463090 0.000000 
#    z -0.059090 0.000000 3.696620 
# 
# 
# High freq. dielectric constant tensor:
#      x y z
#    x 1.824440 0.000000 -0.002330 
#    y 0.000000 1.776990 0.000000 
#    z -0.002330 0.000000 1.802890 
# 
# From -- ./inp_files/141191.got.cif
#   From: 2010.06.25/outbox.cif.g09.slc.cpg/sg15_71_cif.got.tgz:141191.got - 2010.06.28 07:06:18.
