data_PCOD8153286
_publ_section_title
;
Structure prediction by ZEFSAII (Michael W. Deem and Ramdas Pophale) SiO2 
 PCOD8153286
Probable space group: C 2/C
;
_chemical_formula_sum "Si O2"
_cell_formula_units_Z 64
_cell_length_a 26.886856
_cell_length_b 15.372072
_cell_length_c 11.543517
_cell_angle_alpha 90.000000
_cell_angle_beta 142.617285
_cell_angle_gamma 90.000000
_cell_volume 2896.654332
_symmetry_space_group_name_H-M "C 2/C"
_symmetry_group_IT_number 15
_symmetry_cell_setting 'monoclinic'
loop_
_space_group_symop_operation_xyz
x,y,z
-x,y,1/2-z
-x,-y,-z
x,-y,1/2+z
1/2+x,1/2+y,z
1/2-x,1/2+y,1/2-z
1/2-x,1/2-y,-z
1/2+x,1/2-y,1/2+z
loop_
_atom_site_type_symbol
_atom_site_label
_atom_site_fract_x
_atom_site_fract_y
_atom_site_fract_z
Si Si1 0.358999 0.418941 0.266278
Si Si2 0.795545 0.661424 0.410648
Si Si3 0.275944 0.162643 0.114572
Si Si4 0.989279 0.183532 0.860390
Si Si5 0.939783 0.446781 0.239109
Si Si6 0.901659 0.170098 0.080820
Si Si7 0.141005 0.884996 0.758582
Si Si8 0.546581 0.871114 0.630971
O O1 0.424907 0.380780 0.299906
O O2 0.361954 0.362828 0.388728
O O3 0.372655 0.519677 0.322299
O O4 0.270667 0.413677 0.040383
O O5 0.749790 0.663831 0.201315
O O6 0.847645 0.574513 0.529986
O O7 0.860332 0.739542 0.541574
O O8 0.726952 0.659959 0.384091
O O9 0.372490 0.143564 0.296655
O O10 0.250000 0.250000 0.000000
O O11 0.000000 0.150777 0.750000
O O12 0.963517 0.284124 0.813417
O O13 0.073609 0.180011 0.084919
O O14 0.940805 0.550225 0.257321
O O15 0.000000 0.418116 0.250000
O O16 0.968469 0.393521 0.406223
O O17 0.874570 0.104256 0.132459
O O18 0.000000 0.179382 0.250000
#
# Coordination Sequence:
#
# PCOD8153286 Si02
#       8
#     8   8   8   8   8   8   8   8
#     4  12  27  47  71 105 139 196 237 290 358 428
#     4  12  25  47  72 106 143 187 239 300 367 423
#     4  12  23  44  71 101 142 188 242 291 360 434
#     4  12  25  44  72 103 146 185 235 285 359 431
#     4  11  23  44  73 101 146 186 245 305 362 426
#     4  12  26  47  76 102 141 190 243 291 357 440
#     4  12  29  45  71 109 144 183 241 301 355 417
#     4  11  24  44  70 109 136 191 244 293 359 434
#
# _framework density 22.094456000000001
#
# number of rings (size 3 to 8) (size 9 to 14) (size 15 to 20)
#    0.000    0.250    5.000    3.750    3.500    0.000 
#    0.000    0.000    0.000    0.000    0.000    0.000 
#    0.000    0.000    0.000    0.000    0.000    0.000 
#
# Total GULP energy -396884.686046 kJ/mol
# GULP energy per Si atom -12402.646439 kJ/mol
# Density = 2.204417 g / cm^3
# Si number density = 22.094456 Si / 1000 Ang^3
#
#
#
# Elastic Constant Matrix: (Units=GPa)
#
#
# Indices 1 2 3 4 5 6 
#
# 1 143.2348 34.7187 43.0011 0.0000 -1.0737 0.0000
# 2 34.7187 95.4360 30.7835 0.0000 9.7888 0.0000
# 3 43.0011 30.7835 107.9082 0.0000 0.6765 0.0000
# 4 0.0000 0.0000 0.0000 29.0940 0.0000 0.9720
# 5 -1.0737 9.7888 0.6765 0.0000 37.7387 0.0000
# 6 0.0000 0.0000 0.0000 0.9720 0.0000 26.8966
#
#
#
# Elastic Compliance Matrix: (Units=1/GPa)
#
#
# Indices 1 2 3 4 5 6 
#
# 1 0.008342 -0.002258 -0.002685 0.000000 0.000871 0.000000
# 2 -0.002258 0.012486 -0.002642 0.000000 -0.003255 0.000000
# 3 -0.002685 -0.002642 0.011088 0.000000 0.000410 0.000000
# 4 0.000000 0.000000 0.000000 0.034413 0.000000 -0.001244
# 5 0.000871 -0.003255 0.000410 0.000000 0.027360 0.000000
# 6 0.000000 0.000000 0.000000 -0.001244 0.000000 0.037224
#
#
# Mechanical properties :
#
#
# Convention : Reuss Voigt Hill
#
# Bulk Modulus (GPa) = 59.71702 62.62064 61.16883
# Shear Modulus (GPa) = 32.96757 34.61758 33.79257
#
# Velocity S-wave (km/s) = 3.86699 3.96258 3.91507
# Velocity P-wave (km/s) = 6.85747 7.02423 6.94135
#
# Compressibility (1/GPa) = 0.01674564
#
# Stress axis : x y z
#
# Youngs Moduli (GPa) = 119.88207 80.09250 90.18488
#
# Poissons Ratio (x) = 0.18082 0.24219
# Poissons Ratio (y) = 0.27066 0.23824
# Poissons Ratio (z) = 0.32194 0.21158
#
# Static dielectric constant tensor:
#      x y z
#    x 4.170040 0.000000 0.108930 
#    y 0.000000 3.964150 0.000000 
#    z 0.108930 0.000000 4.168500 
# 
# 
# High freq. dielectric constant tensor:
#      x y z
#    x 1.874730 0.000000 -0.000780 
#    y 0.000000 1.871990 0.000000 
#    z -0.000780 0.000000 1.877440 
# 
# From -- ./inp_files/123564.got.cif
#   From: 2010.06.25/outbox.cif.g09.slc.cpg/sg15_62_cif.got.tgz:123564.got - 2010.06.28 07:06:18.
