data_PCOD8153230
_publ_section_title
;
Structure prediction by ZEFSAII (Michael W. Deem and Ramdas Pophale) SiO2 
 PCOD8153230
Probable space group: C 2/C
;
_chemical_formula_sum "Si O2"
_cell_formula_units_Z 32
_cell_length_a 21.939420
_cell_length_b 9.475013
_cell_length_c 9.819407
_cell_angle_alpha 90.000000
_cell_angle_beta 47.988924
_cell_angle_gamma 90.000000
_cell_volume 1516.659425
_symmetry_space_group_name_H-M "C 2/C"
_symmetry_group_IT_number 15
_symmetry_cell_setting 'monoclinic'
loop_
_space_group_symop_operation_xyz
x,y,z
-x,y,1/2-z
-x,-y,-z
x,-y,1/2+z
1/2+x,1/2+y,z
1/2-x,1/2+y,1/2-z
1/2-x,1/2-y,-z
1/2+x,1/2-y,1/2+z
loop_
_atom_site_type_symbol
_atom_site_label
_atom_site_fract_x
_atom_site_fract_y
_atom_site_fract_z
Si Si1 0.455300 0.414100 0.181508
Si Si2 0.728149 0.440061 0.956393
Si Si3 0.292234 0.858414 0.135167
Si Si4 0.977190 0.386886 0.925478
O O1 0.500000 0.461414 0.250000
O O2 0.359884 0.448993 0.338739
O O3 0.465608 0.248678 0.136189
O O4 0.500000 0.500000 0.000000
O O5 0.741850 0.297997 0.846911
O O6 0.739065 0.569784 0.835401
O O7 0.790578 0.444339 0.993084
O O8 0.382366 0.843351 0.063691
O O9 0.000000 0.460362 0.750000
O O10 0.000000 0.500000 0.000000
#
# Coordination Sequence:
#
# PCOD8153230 Si02
#       4
#     8   8   8   8
#     4  11  23  45  65  94 132 175 220 271 329 393
#     4  11  24  44  67  97 135 173 220 273 333 390
#     4  11  24  43  68  98 132 176 219 275 331 393
#     4  11  23  44  66  95 134 173 223 270 330 393
#
# _framework density 21.099001999999999
#
# number of rings (size 3 to 8) (size 9 to 14) (size 15 to 20)
#    0.000    1.000    5.000    3.000    3.500    2.000 
#    4.500    0.000    0.000    0.000    0.000    0.000 
#    0.000    0.000    0.000    0.000    0.000    0.000 
#
# Total GULP energy -198341.377906 kJ/mol
# GULP energy per Si atom -12396.336119 kJ/mol
# Density = 2.105098 g / cm^3
# Si number density = 21.099002 Si / 1000 Ang^3
#
#
#
# Elastic Constant Matrix: (Units=GPa)
#
#
# Indices 1 2 3 4 5 6 
#
# 1 70.9782 33.4423 25.2961 0.0000 9.1521 0.0000
# 2 33.4423 68.0241 71.6270 0.0000 21.5610 0.0000
# 3 25.2961 71.6270 138.6279 0.0000 14.1065 0.0000
# 4 0.0000 0.0000 0.0000 47.7722 0.0000 14.7845
# 5 9.1521 21.5610 14.1065 0.0000 43.3059 0.0000
# 6 0.0000 0.0000 0.0000 14.7845 0.0000 35.8664
#
#
#
# Elastic Compliance Matrix: (Units=1/GPa)
#
#
# Indices 1 2 3 4 5 6 
#
# 1 0.018954 -0.013141 0.003178 0.000000 0.001501 0.000000
# 2 -0.013141 0.047351 -0.020635 0.000000 -0.014076 0.000000
# 3 0.003178 -0.020635 0.016878 0.000000 0.004104 0.000000
# 4 0.000000 0.000000 0.000000 0.023994 0.000000 -0.009890
# 5 0.001501 -0.014076 0.004104 0.000000 0.028445 0.000000
# 6 0.000000 0.000000 0.000000 -0.009890 0.000000 0.031958
#
#
# Mechanical properties :
#
#
# Convention : Reuss Voigt Hill
#
# Bulk Modulus (GPa) = 45.48125 59.81792 52.64958
# Shear Modulus (GPa) = 21.17712 35.20654 28.19183
#
# Velocity S-wave (km/s) = 3.17156 4.08932 3.65933
# Velocity P-wave (km/s) = 5.91732 7.12105 6.54691
#
# Compressibility (1/GPa) = 0.02198708
#
# Stress axis : x y z
#
# Youngs Moduli (GPa) = 52.75945 21.11906 59.24918
#
# Poissons Ratio (x) = 0.27752 -0.18830
# Poissons Ratio (y) = 0.69329 1.22262
# Poissons Ratio (z) = -0.16768 0.43580
#
# Static dielectric constant tensor:
#      x y z
#    x 4.601660 0.000000 0.284340 
#    y 0.000000 11.136840 0.000000 
#    z 0.284340 0.000000 3.987910 
# 
# 
# High freq. dielectric constant tensor:
#      x y z
#    x 1.846080 0.000000 0.001300 
#    y 0.000000 1.810920 0.000000 
#    z 0.001300 0.000000 1.833960 
# 
# From -- ./inp_files/53415.got.cif
#   From: 2010.06.25/outbox.cif.g09.slc.cpg/sg15_27_cif.got.tgz:53415.got - 2010.06.28 07:06:18.
