data_PCOD8153211
_publ_section_title
;
Structure prediction by ZEFSAII (Michael W. Deem and Ramdas Pophale) SiO2 
 PCOD8153211
Probable space group: C 2/C
;
_chemical_formula_sum "Si O2"
_cell_formula_units_Z 32
_cell_length_a 24.191047
_cell_length_b 7.584531
_cell_length_c 19.012534
_cell_angle_alpha 90.000000
_cell_angle_beta 156.234587
_cell_angle_gamma 90.000000
_cell_volume 1405.791120
_symmetry_space_group_name_H-M "C 2/C"
_symmetry_group_IT_number 15
_symmetry_cell_setting 'monoclinic'
loop_
_space_group_symop_operation_xyz
x,y,z
-x,y,1/2-z
-x,-y,-z
x,-y,1/2+z
1/2+x,1/2+y,z
1/2-x,1/2+y,1/2-z
1/2-x,1/2-y,-z
1/2+x,1/2-y,1/2+z
loop_
_atom_site_type_symbol
_atom_site_label
_atom_site_fract_x
_atom_site_fract_y
_atom_site_fract_z
Si Si1 0.943819 0.523090 0.357216
Si Si2 0.652318 0.541560 0.476505
Si Si3 0.885991 0.110571 0.714191
Si Si4 0.113815 0.571521 0.932146
O O1 0.935790 0.713342 0.310606
O O2 0.000000 0.500000 0.500000
O O3 0.048290 0.406852 0.432836
O O4 0.789652 0.451964 0.181703
O O5 0.659450 0.391475 0.422398
O O6 0.522832 0.509281 0.376626
O O7 0.639798 0.736217 0.428004
O O8 0.756175 0.034128 0.605228
O O9 0.000000 0.473330 0.750000
#
# Coordination Sequence:
#
# PCOD8153211 Si02
#       4
#     8   8   8   8
#     4  12  28  45  66 105 150 191 235 295 369 431
#     4  11  23  43  74 108 138 181 245 302 352 416
#     4  11  23  43  74 106 137 185 242 298 348 424
#     4  12  23  43  75 105 137 186 246 299 348 425
#
# _framework density 22.762982999999998
#
# number of rings (size 3 to 8) (size 9 to 14) (size 15 to 20)
#    0.000    0.500    5.000    4.500    3.500    4.000 
#    0.000    3.750    0.000    0.000    0.000    0.000 
#    0.000    0.000    0.000    0.000    0.000    0.000 
#
# Total GULP energy -198212.530445 kJ/mol
# GULP energy per Si atom -12388.283153 kJ/mol
# Density = 2.271117 g / cm^3
# Si number density = 22.762983 Si / 1000 Ang^3
#
#
#
# Elastic Constant Matrix: (Units=GPa)
#
#
# Indices 1 2 3 4 5 6 
#
# 1 129.6422 16.5620 93.3707 -0.0001 1.8857 0.0000
# 2 16.5620 92.7373 31.6475 0.0000 -12.9440 0.0000
# 3 93.3707 31.6475 193.8432 -0.0001 11.0598 0.0000
# 4 -0.0001 0.0000 -0.0001 -28.9541 -0.0001 -30.9396
# 5 1.8857 -12.9440 11.0598 -0.0001 54.5746 0.0000
# 6 0.0000 0.0000 0.0000 -30.9396 0.0000 0.3931
#
#
#
# Elastic Compliance Matrix: (Units=1/GPa)
#
#
# Indices 1 2 3 4 5 6 
#
# 1 0.011842 -0.000053 -0.005738 0.000000 0.000741 0.000000
# 2 -0.000053 0.011971 -0.002115 0.000000 0.003270 0.000000
# 3 -0.005738 -0.002115 0.008382 0.000000 -0.002002 0.000000
# 4 0.000000 0.000000 0.000000 -0.000406 0.000000 -0.031941
# 5 0.000741 0.003270 -0.002002 0.000000 0.019479 0.000000
# 6 0.000000 0.000000 0.000000 -0.031941 0.000000 0.029891
#
#
# Mechanical properties :
#
#
# Convention : Reuss Voigt Hill
#
# Bulk Modulus (GPa) = 61.04113 77.70923 69.37518
# Shear Modulus (GPa) = 48.81243 23.51222 36.16233
#
# Velocity S-wave (km/s) = 4.63577 3.21739 3.99011
# Velocity P-wave (km/s) = 7.45171 6.92926 7.19523
#
# Compressibility (1/GPa) = 0.01638240
#
# Stress axis : x y z
#
# Youngs Moduli (GPa) = 84.44605 83.53575 119.30244
#
# Poissons Ratio (x) = 0.00446 0.68451
# Poissons Ratio (y) = 0.00451 0.25235
# Poissons Ratio (z) = 0.48451 0.17670
#
# Static dielectric constant tensor:
#      x y z
#    x 4.336840 0.000000 0.652310 
#    y 0.000000 4.037720 0.000000 
#    z 0.652310 0.000000 4.288040 
# 
# 
# High freq. dielectric constant tensor:
#      x y z
#    x 1.885750 0.000000 0.046020 
#    y 0.000000 1.897280 0.000000 
#    z 0.046020 0.000000 1.903820 
# 
# From -- ./inp_files/208402.got.cif
#   From: 2010.06.25/outbox.cif.g09.slc.cpg/sg15_105_cif.got.tgz:208402.got - 2010.06.28 07:06:18.
