data_PCOD8153827
_publ_section_title
;
Structure prediction by ZEFSAII (Michael W. Deem and Ramdas Pophale) SiO2 
 PCOD8153827
Probable space group: C 2/C
;
_chemical_formula_sum "Si O2"
_cell_formula_units_Z 48
_cell_length_a 9.260949
_cell_length_b 21.503730
_cell_length_c 10.970149
_cell_angle_alpha 90.000000
_cell_angle_beta 96.118579
_cell_angle_gamma 90.000000
_cell_volume 2172.204738
_symmetry_space_group_name_H-M "C 2/C"
_symmetry_group_IT_number 15
_symmetry_cell_setting 'monoclinic'
loop_
_space_group_symop_operation_xyz
x,y,z
-x,y,1/2-z
-x,-y,-z
x,-y,1/2+z
1/2+x,1/2+y,z
1/2-x,1/2+y,1/2-z
1/2-x,1/2-y,-z
1/2+x,1/2-y,1/2+z
loop_
_atom_site_type_symbol
_atom_site_label
_atom_site_fract_x
_atom_site_fract_y
_atom_site_fract_z
Si Si1 0.129856 0.277821 0.571824
Si Si2 0.173636 0.870016 0.771510
Si Si3 0.484243 0.879556 0.394978
Si Si4 0.953723 0.855067 0.376781
Si Si5 0.746683 0.441560 0.009395
Si Si6 0.286477 0.583446 0.480726
O O1 0.250000 0.250000 0.500000
O O2 0.221231 0.313260 0.683315
O O3 0.042791 0.219938 0.621812
O O4 0.023053 0.318673 0.478282
O O5 0.253977 0.891741 0.655854
O O6 0.000000 0.852719 0.750000
O O7 0.194109 0.925696 0.869118
O O8 0.500000 0.868438 0.250000
O O9 0.580104 0.937570 0.453091
O O10 0.321098 0.898339 0.418655
O O11 0.802034 0.887008 0.400049
O O12 0.000000 0.879668 0.250000
O O13 0.061605 0.883155 0.485078
O O14 0.688718 0.509852 0.030837
#
# Coordination Sequence:
#
# PCOD8153827 Si02
#       6
#     8   8   8   8   8   8
#     4  11  24  48  69  99 146 184 234 291 354 409
#     4  11  24  45  72 103 137 188 235 289 350 415
#     4  11  26  47  70 104 142 190 231 292 353 413
#     4  12  26  45  71 105 140 185 235 295 344 414
#     4  11  25  48  68 103 143 185 226 295 354 407
#     4  12  27  43  74 105 136 186 241 281 357 422
#
# _framework density 22.097363999999999
#
# number of rings (size 3 to 8) (size 9 to 14) (size 15 to 20)
#    0.000    0.667    5.000    2.000    7.000    4.667 
#    0.000    0.000    0.000    0.000    0.000    0.000 
#    0.000    0.000    0.000    0.000    0.000    0.000 
#
# Total GULP energy -297428.545758 kJ/mol
# GULP energy per Si atom -12392.856073 kJ/mol
# Density = 2.204707 g / cm^3
# Si number density = 22.097364 Si / 1000 Ang^3
#
#
#
# Elastic Constant Matrix: (Units=GPa)
#
#
# Indices 1 2 3 4 5 6 
#
# 1 56.7840 28.1861 11.3609 0.0000 1.2737 0.0000
# 2 28.1861 164.5967 45.8413 0.0000 8.6917 0.0000
# 3 11.3609 45.8413 124.9693 0.0000 -18.1769 0.0000
# 4 0.0000 0.0000 0.0000 30.3757 0.0000 -6.1751
# 5 1.2737 8.6917 -18.1769 0.0000 44.9005 0.0000
# 6 0.0000 0.0000 0.0000 -6.1751 0.0000 40.1237
#
#
#
# Elastic Compliance Matrix: (Units=1/GPa)
#
#
# Indices 1 2 3 4 5 6 
#
# 1 0.019289 -0.003114 -0.000641 0.000000 -0.000204 0.000000
# 2 -0.003114 0.007535 -0.002848 0.000000 -0.002523 0.000000
# 3 -0.000641 -0.002848 0.009763 0.000000 0.004522 0.000000
# 4 0.000000 0.000000 0.000000 0.033984 0.000000 0.005230
# 5 -0.000204 -0.002523 0.004522 0.000000 0.024596 0.000000
# 6 0.000000 0.000000 0.000000 0.005230 0.000000 0.025728
#
#
# Mechanical properties :
#
#
# Convention : Reuss Voigt Hill
#
# Bulk Modulus (GPa) = 42.76947 57.45851 50.11399
# Shear Modulus (GPa) = 35.23747 40.47742 37.85744
#
# Velocity S-wave (km/s) = 3.99763 4.28457 4.14359
# Velocity P-wave (km/s) = 6.38006 7.10884 6.75428
#
# Compressibility (1/GPa) = 0.02338117
#
# Stress axis : x y z
#
# Youngs Moduli (GPa) = 51.84293 132.71230 102.43160
#
# Poissons Ratio (x) = 0.41324 0.06566
# Poissons Ratio (y) = 0.16143 0.29172
# Poissons Ratio (z) = 0.03323 0.37796
#
# Static dielectric constant tensor:
#      x y z
#    x 3.948990 0.000000 0.061710 
#    y 0.000000 -1.483280 0.000000 
#    z 0.061710 0.000000 3.933610 
# 
# 
# High freq. dielectric constant tensor:
#      x y z
#    x 1.875410 0.000000 -0.001870 
#    y 0.000000 1.869220 0.000000 
#    z -0.001870 0.000000 1.882690 
# 
# From -- ./inp_files/79354.got.cif
#   From: 2010.06.25/outbox.cif.g09.slc.cpg/sg15_40_cif.got.tgz:79354.got - 2010.06.28 07:06:18.
