data_PCOD8153783
_publ_section_title
;
Structure prediction by ZEFSAII (Michael W. Deem and Ramdas Pophale) SiO2 
 PCOD8153783
Probable space group: C 2/C
;
_chemical_formula_sum "Si O2"
_cell_formula_units_Z 44
_cell_length_a 17.071954
_cell_length_b 11.095375
_cell_length_c 8.785246
_cell_angle_alpha 90.000000
_cell_angle_beta 71.235015
_cell_angle_gamma 90.000000
_cell_volume 1575.645472
_symmetry_space_group_name_H-M "C 2/C"
_symmetry_group_IT_number 15
_symmetry_cell_setting 'monoclinic'
loop_
_space_group_symop_operation_xyz
x,y,z
-x,y,1/2-z
-x,-y,-z
x,-y,1/2+z
1/2+x,1/2+y,z
1/2-x,1/2+y,1/2-z
1/2-x,1/2-y,-z
1/2+x,1/2-y,1/2+z
loop_
_atom_site_type_symbol
_atom_site_label
_atom_site_fract_x
_atom_site_fract_y
_atom_site_fract_z
Si Si1 0.959144 0.245551 0.125063
Si Si2 0.639574 0.484717 0.452506
Si Si3 0.749587 0.414884 0.640051
Si Si4 0.607841 0.240653 0.335925
Si Si5 0.500000 0.509993 0.250000
Si Si6 0.674939 0.831383 0.491546
O O1 0.980651 0.705542 0.043512
O O2 0.953169 0.099253 0.156290
O O3 0.866427 0.286281 0.141727
O O4 0.000000 0.304621 0.250000
O O5 0.682419 0.393991 0.549374
O O6 0.706454 0.573258 0.334693
O O7 0.606910 0.389557 0.343217
O O8 0.568526 0.557751 0.599096
O O9 0.814723 0.306648 0.612440
O O10 0.797911 0.535106 0.562447
O O11 0.608526 0.181969 0.168719
O O12 0.750000 0.750000 0.500000
#
# Coordination Sequence:
#
# PCOD8153783 Si02
#       6
#     8   8   8   8   4   8
#     4   9  23  43  73 103 139 193 240 287 367 421
#     4  11  24  45  68 105 144 190 241 294 365 424
#     4  12  26  41  71 110 143 188 242 296 362 436
#     4  11  24  46  69 100 146 191 235 300 360 433
#     4   8  22  44  72  96 136 196 234 294 354 426
#     4  12  25  42  71 109 144 186 241 306 352 426
#
# _framework density 27.925066000000001
#
# number of rings (size 3 to 8) (size 9 to 14) (size 15 to 20)
#    0.545    0.727    3.636    1.091    5.091    1.455 
#    0.000    1.818    0.000    0.000    0.000    0.000 
#    0.000    0.000    0.000    0.000    0.000    0.000 
#
# Total GULP energy -272564.638549 kJ/mol
# GULP energy per Si atom -12389.301752 kJ/mol
# Density = 2.786151 g / cm^3
# Si number density = 27.925066 Si / 1000 Ang^3
#
#
#
# Elastic Constant Matrix: (Units=GPa)
#
#
# Indices 1 2 3 4 5 6 
#
# 1 120.2492 19.0023 52.6579 0.0000 -7.3748 0.0000
# 2 19.0023 81.6599 36.9015 0.0000 -32.5881 0.0000
# 3 52.6579 36.9015 160.2510 0.0000 -19.1230 0.0000
# 4 0.0000 0.0000 0.0000 26.9211 0.0000 -0.7814
# 5 -7.3748 -32.5881 -19.1230 0.0000 60.3199 0.0000
# 6 0.0000 0.0000 0.0000 -0.7814 0.0000 29.5137
#
#
#
# Elastic Compliance Matrix: (Units=1/GPa)
#
#
# Indices 1 2 3 4 5 6 
#
# 1 0.009780 -0.001044 -0.003012 0.000000 -0.000323 0.000000
# 2 -0.001044 0.016925 -0.002576 0.000000 0.008200 0.000000
# 3 -0.003012 -0.002576 0.007912 0.000000 0.000749 0.000000
# 4 0.000000 0.000000 0.000000 0.037174 0.000000 0.000984
# 5 -0.000323 0.008200 0.000749 0.000000 0.021206 0.000000
# 6 0.000000 0.000000 0.000000 0.000984 0.000000 0.033909
#
#
# Mechanical properties :
#
#
# Convention : Reuss Voigt Hill
#
# Bulk Modulus (GPa) = 46.82860 64.36485 55.59672
# Shear Modulus (GPa) = 33.94721 40.25751 37.10236
#
# Velocity S-wave (km/s) = 3.49041 3.80099 3.64901
# Velocity P-wave (km/s) = 5.74889 6.50865 6.14053
#
# Compressibility (1/GPa) = 0.02135447
#
# Stress axis : x y z
#
# Youngs Moduli (GPa) = 102.24816 59.08406 126.38355
#
# Poissons Ratio (x) = 0.06166 0.38066
# Poissons Ratio (y) = 0.10671 0.32556
# Poissons Ratio (z) = 0.30796 0.15220
#
# Static dielectric constant tensor:
#      x y z
#    x 5.376930 0.000000 0.016390 
#    y 0.000000 5.597320 0.000000 
#    z 0.016390 0.000000 5.303000 
# 
# 
# High freq. dielectric constant tensor:
#      x y z
#    x 2.150660 0.000000 0.016290 
#    y 0.000000 2.085230 0.000000 
#    z 0.016290 0.000000 2.162960 
# 
# From -- ./inp_files/47129.got.cif
#   From: 2010.06.25/outbox.cif.g09.slc.cpg/sg15_24_cif.got.tgz:47129.got - 2010.06.28 07:06:18.
