data_PCOD8153124
_publ_section_title
;
Structure prediction by ZEFSAII (Michael W. Deem and Ramdas Pophale) SiO2 
 PCOD8153124
Probable space group: C 2/C
;
_chemical_formula_sum "Si O2"
_cell_formula_units_Z 48
_cell_length_a 20.764159
_cell_length_b 6.778630
_cell_length_c 22.619105
_cell_angle_alpha 90.000000
_cell_angle_beta 131.913253
_cell_angle_gamma 90.000000
_cell_volume 2369.170372
_symmetry_space_group_name_H-M "C 2/C"
_symmetry_group_IT_number 15
_symmetry_cell_setting 'monoclinic'
loop_
_space_group_symop_operation_xyz
x,y,z
-x,y,1/2-z
-x,-y,-z
x,-y,1/2+z
1/2+x,1/2+y,z
1/2-x,1/2+y,1/2-z
1/2-x,1/2-y,-z
1/2+x,1/2-y,1/2+z
loop_
_atom_site_type_symbol
_atom_site_label
_atom_site_fract_x
_atom_site_fract_y
_atom_site_fract_z
Si Si1 0.091515 0.584901 0.775863
Si Si2 0.338088 0.914725 0.364038
Si Si3 0.135038 0.264449 0.990678
Si Si4 0.767354 0.460100 0.037475
Si Si5 0.839730 0.903068 0.765862
Si Si6 0.062608 0.297508 0.654632
O O1 0.165348 0.548194 0.868341
O O2 0.105103 0.788683 0.749360
O O3 0.094551 0.397186 0.734674
O O4 0.000000 0.605908 0.750000
O O5 0.371798 0.822773 0.445233
O O6 0.317547 0.737441 0.306883
O O7 0.249277 0.032243 0.319505
O O8 0.411382 0.063209 0.384428
O O9 0.177588 0.048594 0.008094
O O10 0.196084 0.415513 0.994256
O O11 0.039756 0.266030 0.905147
O O12 0.750000 0.250000 0.000000
O O13 0.893516 0.085382 0.824449
#
# Coordination Sequence:
#
# PCOD8153124 Si02
#       6
#     8   8   8   8   8   8
#     4  11  24  44  68  96 131 172 226 271 323 396
#     4  11  23  43  66  96 132 168 222 268 331 392
#     4  11  25  42  65  98 133 173 217 272 332 388
#     4  11  25  43  66  96 137 178 216 271 328 388
#     4  11  24  40  68  95 126 176 217 272 330 388
#     4  11  24  43  68  97 132 170 222 273 326 394
#
# _framework density 20.260255999999998
#
# number of rings (size 3 to 8) (size 9 to 14) (size 15 to 20)
#    0.000    1.000    3.333    2.500    4.667    4.000 
#    0.000    0.000    0.000    0.000    0.000    0.000 
#    0.000    0.000    0.000    0.000    0.000    0.000 
#
# Total GULP energy -297746.863191 kJ/mol
# GULP energy per Si atom -12406.119300 kJ/mol
# Density = 2.021414 g / cm^3
# Si number density = 20.260256 Si / 1000 Ang^3
#
#
#
# Elastic Constant Matrix: (Units=GPa)
#
#
# Indices 1 2 3 4 5 6 
#
# 1 94.3293 42.0307 17.2011 0.0000 4.0539 -0.0002
# 2 42.0307 125.3794 33.6452 -0.0001 2.8644 -0.0004
# 3 17.2011 33.6452 81.9679 0.0002 2.9260 -0.0002
# 4 0.0000 -0.0001 0.0002 22.9294 0.0000 0.8967
# 5 4.0539 2.8644 2.9260 0.0000 43.4817 0.0000
# 6 -0.0002 -0.0004 -0.0002 0.8967 0.0000 24.2814
#
#
#
# Elastic Compliance Matrix: (Units=1/GPa)
#
#
# Indices 1 2 3 4 5 6 
#
# 1 0.012569 -0.003927 -0.000995 0.000000 -0.000846 0.000000
# 2 -0.003927 0.010195 -0.003358 0.000000 -0.000080 0.000000
# 3 -0.000995 -0.003358 0.013809 0.000000 -0.000615 0.000000
# 4 0.000000 0.000000 0.000000 0.043675 0.000000 -0.001613
# 5 -0.000846 -0.000080 -0.000615 0.000000 0.023124 0.000000
# 6 0.000000 0.000000 0.000000 -0.001613 0.000000 0.041243
#
#
# Mechanical properties :
#
#
# Convention : Reuss Voigt Hill
#
# Bulk Modulus (GPa) = 49.96907 54.15896 52.06401
# Shear Modulus (GPa) = 29.78909 32.05846 30.92377
#
# Velocity S-wave (km/s) = 3.83864 3.98217 3.91106
# Velocity P-wave (km/s) = 6.66063 6.92338 6.79328
#
# Compressibility (1/GPa) = 0.02001238
#
# Stress axis : x y z
#
# Youngs Moduli (GPa) = 79.56208 98.08634 72.41627
#
# Poissons Ratio (x) = 0.38518 0.07209
# Poissons Ratio (y) = 0.31244 0.24316
# Poissons Ratio (z) = 0.07920 0.32936
#
# Static dielectric constant tensor:
#      x y z
#    x 3.841590 0.000000 -0.005800 
#    y 0.000000 3.931090 0.000000 
#    z -0.005800 0.000000 3.632480 
# 
# 
# High freq. dielectric constant tensor:
#      x y z
#    x 1.805300 0.000000 0.000390 
#    y 0.000000 1.802370 0.000000 
#    z 0.000390 0.000000 1.796200 
# 
# From -- ./inp_files/279045.got.cif
#   From: 2010.06.25/outbox.cif.g09.slc.cpg/sg15_140_cif.got.tgz:279045.got - 2010.06.28 07:06:18.
