data_PCOD8153468
_publ_section_title
;
Structure prediction by ZEFSAII (Michael W. Deem and Ramdas Pophale) SiO2 
 PCOD8153468
Probable space group: C 2/C
;
_chemical_formula_sum "Si O2"
_cell_formula_units_Z 60
_cell_length_a 24.212743
_cell_length_b 12.147748
_cell_length_c 16.396113
_cell_angle_alpha 90.000000
_cell_angle_beta 30.381651
_cell_angle_gamma 90.000000
_cell_volume 2439.062989
_symmetry_space_group_name_H-M "C 2/C"
_symmetry_group_IT_number 15
_symmetry_cell_setting 'monoclinic'
loop_
_space_group_symop_operation_xyz
x,y,z
-x,y,1/2-z
-x,-y,-z
x,-y,1/2+z
1/2+x,1/2+y,z
1/2-x,1/2+y,1/2-z
1/2-x,1/2-y,-z
1/2+x,1/2-y,1/2+z
loop_
_atom_site_type_symbol
_atom_site_label
_atom_site_fract_x
_atom_site_fract_y
_atom_site_fract_z
Si Si1 0.684000 0.460911 0.116414
Si Si2 0.170105 0.637961 0.325288
Si Si3 0.500000 0.357011 0.250000
Si Si4 0.322065 0.802171 0.050454
Si Si5 0.443209 0.172227 0.544395
Si Si6 0.577511 0.269143 0.575610
Si Si7 0.735864 0.942656 0.143883
Si Si8 0.057536 0.895669 0.887323
O O1 0.559899 0.430165 0.243648
O O2 0.751868 0.365668 0.073354
O O3 0.666448 0.561714 0.202254
O O4 0.763287 0.490306 0.940977
O O5 0.234916 0.747346 0.221011
O O6 0.132735 0.657209 0.467481
O O7 0.241684 0.527906 0.214564
O O8 0.066599 0.631882 0.395789
O O9 0.399843 0.285078 0.408448
O O10 0.397182 0.875464 0.016465
O O11 0.376112 0.124640 0.706801
O O12 0.419916 0.305339 0.570650
O O13 0.500000 0.236952 0.750000
O O14 0.663954 0.359852 0.492673
O O15 0.514133 0.324539 0.582626
O O16 0.000000 0.000000 0.000000
#
# Coordination Sequence:
#
# PCOD8153468 Si02
#       8
#     8   8   4   8   8   8   8   8
#     4  12  25  43  73 113 144 192 254 303 380 443
#     4  11  25  47  73 102 147 198 248 303 386 447
#     4  12  24  44  74 108 148 184 248 316 358 436
#     4  12  25  44  72 104 148 192 251 311 365 444
#     4  11  27  47  70 103 151 195 246 303 374 450
#     4  11  23  47  73 111 146 196 255 317 370 452
#     4  12  25  45  75 105 146 201 240 312 380 450
#     4  11  24  43  74 104 144 190 252 306 368 445
#
# _framework density 24.599610999999999
#
# number of rings (size 3 to 8) (size 9 to 14) (size 15 to 20)
#    0.000    0.533    4.000    4.800    3.733    0.533 
#    0.000    0.000    0.000    0.000    0.000    0.000 
#    0.000    0.000    0.000    0.000    0.000    0.000 
#
# Total GULP energy -371787.474926 kJ/mol
# GULP energy per Si atom -12392.915831 kJ/mol
# Density = 2.454362 g / cm^3
# Si number density = 24.599611 Si / 1000 Ang^3
#
#
#
# Elastic Constant Matrix: (Units=GPa)
#
#
# Indices 1 2 3 4 5 6 
#
# 1 98.8473 -7.1915 11.0791 0.0000 -14.4301 0.0000
# 2 -7.1915 42.2555 11.8961 0.0000 0.4478 0.0000
# 3 11.0791 11.8961 109.1368 0.0000 11.7571 0.0000
# 4 0.0000 0.0000 0.0000 17.9391 0.0000 -3.3296
# 5 -14.4301 0.4478 11.7571 0.0000 42.8775 0.0000
# 6 0.0000 0.0000 0.0000 -3.3296 0.0000 10.6431
#
#
#
# Elastic Compliance Matrix: (Units=1/GPa)
#
#
# Indices 1 2 3 4 5 6 
#
# 1 0.011111 0.002364 -0.001840 0.000000 0.004219 0.000000
# 2 0.002364 0.024928 -0.003107 0.000000 0.001387 0.000000
# 3 -0.001840 -0.003107 0.010048 0.000000 -0.003342 0.000000
# 4 0.000000 0.000000 0.000000 0.059180 0.000000 0.018514
# 5 0.004219 0.001387 -0.003342 0.000000 0.025644 0.000000
# 6 0.000000 0.000000 0.000000 0.018514 0.000000 0.099749
#
#
# Mechanical properties :
#
#
# Convention : Reuss Voigt Hill
#
# Bulk Modulus (GPa) = 24.43675 31.31188 27.87432
# Shear Modulus (GPa) = 20.04277 29.92235 24.98256
#
# Velocity S-wave (km/s) = 2.85750 3.49144 3.19025
# Velocity P-wave (km/s) = 4.56535 5.38607 4.99260
#
# Compressibility (1/GPa) = 0.04092197
#
# Stress axis : x y z
#
# Youngs Moduli (GPa) = 90.00252 40.11578 99.51956
#
# Poissons Ratio (x) = -0.09485 0.18313
# Poissons Ratio (y) = -0.21279 0.30917
# Poissons Ratio (z) = 0.16562 0.12462
#
# Static dielectric constant tensor:
#      x y z
#    x 4.957220 0.000000 -0.070110 
#    y 0.000000 4.741530 0.000000 
#    z -0.070110 0.000000 4.661110 
# 
# 
# High freq. dielectric constant tensor:
#      x y z
#    x 1.977510 0.000000 0.001040 
#    y 0.000000 1.974620 0.000000 
#    z 0.001040 0.000000 1.992600 
# 
# From -- ./inp_files/222533.got.cif
#   From: 2010.06.25/outbox.cif.g09.slc.cpg/sg15_112_cif.got.tgz:222533.got - 2010.06.28 07:06:18.
