data_PCOD8153632
_publ_section_title
;
Structure prediction by ZEFSAII (Michael W. Deem and Ramdas Pophale) SiO2 
 PCOD8153632
Probable space group: C 2/C
;
_chemical_formula_sum "Si O2"
_cell_formula_units_Z 56
_cell_length_a 18.015779
_cell_length_b 6.588901
_cell_length_c 23.343635
_cell_angle_alpha 90.000000
_cell_angle_beta 70.638667
_cell_angle_gamma 90.000000
_cell_volume 2614.278427
_symmetry_space_group_name_H-M "C 2/C"
_symmetry_group_IT_number 15
_symmetry_cell_setting 'monoclinic'
loop_
_space_group_symop_operation_xyz
x,y,z
-x,y,1/2-z
-x,-y,-z
x,-y,1/2+z
1/2+x,1/2+y,z
1/2-x,1/2+y,1/2-z
1/2-x,1/2-y,-z
1/2+x,1/2-y,1/2+z
loop_
_atom_site_type_symbol
_atom_site_label
_atom_site_fract_x
_atom_site_fract_y
_atom_site_fract_z
Si Si1 0.404277 0.370017 0.054527
Si Si2 0.087580 0.382112 0.737898
Si Si3 0.755072 0.894234 0.553223
Si Si4 0.129058 0.530396 0.353184
Si Si5 0.631124 0.191298 0.627599
Si Si6 0.001334 0.766483 0.927877
Si Si7 0.292830 0.413557 0.339219
O O1 0.340768 0.503113 0.035696
O O2 0.467762 0.504392 0.072643
O O3 0.362656 0.239277 0.114114
O O4 0.448747 0.222617 0.997877
O O5 0.089119 0.456805 0.802223
O O6 0.111965 0.563605 0.689392
O O7 0.140317 0.181478 0.717831
O O8 0.000000 0.306448 0.750000
O O9 0.750000 0.750000 0.500000
O O10 0.740791 0.756093 0.610954
O O11 0.687470 0.067209 0.569572
O O12 0.218681 0.465495 0.318337
O O13 0.076579 0.380062 0.405216
O O14 0.550719 0.247104 0.615953
O O15 0.674742 0.396791 0.633812
#
# Coordination Sequence:
#
# PCOD8153632 Si02
#       7
#     8   8   8   8   8   8   8
#     4  11  25  43  69 105 136 183 232 275 350 411
#     4  11  27  47  68 103 135 177 240 288 336 415
#     4  11  24  43  69 102 142 176 231 279 337 418
#     4  12  25  46  70  96 142 182 226 290 341 410
#     4  11  25  46  70 103 137 185 230 279 355 404
#     4  11  25  43  70 101 139 180 229 282 340 417
#     4  11  26  43  70  99 135 181 229 280 347 407
#
# _framework density 21.420826000000002
#
# number of rings (size 3 to 8) (size 9 to 14) (size 15 to 20)
#    0.000    0.857    4.286    1.286    6.000    5.143 
#    0.000    0.000    0.000    0.000    0.000    0.000 
#    0.000    0.000    0.000    0.000    0.000    0.000 
#
# Total GULP energy -347254.021014 kJ/mol
# GULP energy per Si atom -12401.929322 kJ/mol
# Density = 2.137207 g / cm^3
# Si number density = 21.420826 Si / 1000 Ang^3
#
#
#
# Elastic Constant Matrix: (Units=GPa)
#
#
# Indices 1 2 3 4 5 6 
#
# 1 154.7135 47.8174 37.5631 -0.0002 -5.1296 -0.0006
# 2 47.8174 93.7090 39.4962 -0.0010 -3.1592 -0.0011
# 3 37.5631 39.4962 93.3503 0.0004 -2.3122 -0.0002
# 4 -0.0002 -0.0010 0.0004 21.9524 -0.0004 8.7866
# 5 -5.1296 -3.1592 -2.3122 -0.0004 38.4446 -0.0004
# 6 -0.0006 -0.0011 -0.0002 8.7866 -0.0004 31.3634
#
#
#
# Elastic Compliance Matrix: (Units=1/GPa)
#
#
# Indices 1 2 3 4 5 6 
#
# 1 0.007932 -0.003269 -0.001791 0.000000 0.000682 0.000000
# 2 -0.003269 0.014356 -0.004747 0.000001 0.000458 0.000000
# 3 -0.001791 -0.004747 0.013446 -0.000001 0.000180 0.000000
# 4 0.000000 0.000001 -0.000001 0.051306 0.000000 -0.014374
# 5 0.000682 0.000458 0.000180 0.000000 0.026151 0.000000
# 6 0.000000 0.000000 0.000000 -0.014374 0.000000 0.035911
#
#
# Mechanical properties :
#
#
# Convention : Reuss Voigt Hill
#
# Bulk Modulus (GPa) = 62.04261 65.72511 63.88386
# Shear Modulus (GPa) = 28.72083 32.81183 30.76633
#
# Velocity S-wave (km/s) = 3.66565 3.91803 3.79394
# Velocity P-wave (km/s) = 6.85147 7.15663 7.00571
#
# Compressibility (1/GPa) = 0.01611795
#
# Stress axis : x y z
#
# Youngs Moduli (GPa) = 126.07891 69.65857 74.37098
#
# Poissons Ratio (x) = 0.22773 0.13323
# Poissons Ratio (y) = 0.41218 0.35304
# Poissons Ratio (z) = 0.22587 0.33067
#
# Static dielectric constant tensor:
#      x y z
#    x 4.044250 0.000000 -0.272700 
#    y 0.000000 3.952030 0.000000 
#    z -0.272700 0.000000 3.886520 
# 
# 
# High freq. dielectric constant tensor:
#      x y z
#    x 1.859180 0.000000 -0.008760 
#    y 0.000000 1.844200 0.000000 
#    z -0.008760 0.000000 1.839780 
# 
# From -- ./inp_files/297732.got.cif
#   From: 2010.06.25/outbox.cif.g09.slc.cpg/sg15_149_cif.got.tgz:297732.got - 2010.06.28 07:06:18.
