data_PCOD8153506
_publ_section_title
;
Structure prediction by ZEFSAII (Michael W. Deem and Ramdas Pophale) SiO2 
 PCOD8153506
Probable space group: C 2/C
;
_chemical_formula_sum "Si O2"
_cell_formula_units_Z 56
_cell_length_a 5.079317
_cell_length_b 17.988817
_cell_length_c 28.716837
_cell_angle_alpha 90.000000
_cell_angle_beta 72.188216
_cell_angle_gamma 90.000000
_cell_volume 2498.111445
_symmetry_space_group_name_H-M "C 2/C"
_symmetry_group_IT_number 15
_symmetry_cell_setting 'monoclinic'
loop_
_space_group_symop_operation_xyz
x,y,z
-x,y,1/2-z
-x,-y,-z
x,-y,1/2+z
1/2+x,1/2+y,z
1/2-x,1/2+y,1/2-z
1/2-x,1/2-y,-z
1/2+x,1/2-y,1/2+z
loop_
_atom_site_type_symbol
_atom_site_label
_atom_site_fract_x
_atom_site_fract_y
_atom_site_fract_z
Si Si1 0.937244 0.940643 0.375011
Si Si2 0.152775 0.066434 0.516649
Si Si3 0.692390 0.720076 0.282433
Si Si4 0.442270 0.394834 0.634731
Si Si5 0.475479 0.846162 0.359118
Si Si6 0.668717 0.715957 0.955900
Si Si7 0.544023 0.142172 0.073633
O O1 0.176680 0.879462 0.363127
O O2 0.787297 0.953737 0.433033
O O3 0.699295 0.911835 0.353241
O O4 0.072887 0.018020 0.351293
O O5 0.431289 0.087750 0.473054
O O6 0.961386 0.137961 0.525097
O O7 0.000000 0.000000 0.500000
O O8 0.500000 0.696884 0.250000
O O9 0.707795 0.650656 0.316617
O O10 0.567961 0.793674 0.312395
O O11 0.000000 0.739215 0.250000
O O12 0.301009 0.375638 0.593243
O O13 0.762399 0.373241 0.615725
O O14 0.438287 0.797080 0.408252
O O15 0.451838 0.771385 0.942040
O O16 0.750000 0.750000 0.000000
#
# Coordination Sequence:
#
# PCOD8153506 Si02
#       7
#     8   8   8   8   8   8   8
#     4  11  25  45  68 104 147 191 234 280 353 416
#     4  11  24  39  63 103 149 195 241 279 330 416
#     4  12  27  50  78 108 133 177 239 302 373 437
#     4  12  26  45  74 101 142 188 233 301 363 424
#     4  11  25  46  72 102 140 181 236 297 348 424
#     4  11  24  42  66 103 144 192 243 283 350 416
#     4  12  24  42  68 101 146 194 244 288 348 409
#
# _framework density 22.416936
#
# number of rings (size 3 to 8) (size 9 to 14) (size 15 to 20)
#    0.000    0.571    2.857    4.714    6.000    1.714 
#    0.000    4.286    0.000    0.000    0.000    0.000 
#    0.000    0.000    0.000    0.000    0.000    0.000 
#
# Total GULP energy -347310.463279 kJ/mol
# GULP energy per Si atom -12403.945117 kJ/mol
# Density = 2.236591 g / cm^3
# Si number density = 22.416936 Si / 1000 Ang^3
#
#
#
# Elastic Constant Matrix: (Units=GPa)
#
#
# Indices 1 2 3 4 5 6 
#
# 1 85.6512 18.1004 21.4148 0.0000 -5.9683 0.0000
# 2 18.1004 132.7895 34.1550 0.0000 -5.6082 0.0000
# 3 21.4148 34.1550 96.3248 0.0000 -15.5681 0.0000
# 4 0.0000 0.0000 0.0000 -41.0196 0.0000 3.6787
# 5 -5.9683 -5.6082 -15.5681 0.0000 34.7166 0.0000
# 6 0.0000 0.0000 0.0000 3.6787 0.0000 40.0377
#
#
#
# Elastic Compliance Matrix: (Units=1/GPa)
#
#
# Indices 1 2 3 4 5 6 
#
# 1 0.012534 -0.001091 -0.002243 0.000000 0.000973 0.000000
# 2 -0.001091 0.008381 -0.002739 0.000000 -0.000062 0.000000
# 3 -0.002243 -0.002739 0.012633 0.000000 0.004837 0.000000
# 4 0.000000 0.000000 0.000000 -0.024179 0.000000 0.002222
# 5 0.000973 -0.000062 0.004837 0.000000 0.031131 0.000000
# 6 0.000000 0.000000 0.000000 0.002222 0.000000 0.024772
#
#
# Mechanical properties :
#
#
# Convention : Reuss Voigt Hill
#
# Bulk Modulus (GPa) = 46.72132 51.34511 49.03321
# Shear Modulus (GPa) = 59.13465 22.81995 40.97730
#
# Velocity S-wave (km/s) = 5.14167 3.19404 4.28011
# Velocity P-wave (km/s) = 7.49241 6.04623 6.80783
#
# Compressibility (1/GPa) = 0.02140351
#
# Stress axis : x y z
#
# Youngs Moduli (GPa) = 79.78145 119.31218 79.15611
#
# Poissons Ratio (x) = 0.13012 0.17752
# Poissons Ratio (y) = 0.08701 0.21684
# Poissons Ratio (z) = 0.17892 0.32685
#
# Static dielectric constant tensor:
#      x y z
#    x 3.906530 0.000000 -0.109340 
#    y 0.000000 4.486520 0.000000 
#    z -0.109340 0.000000 4.237330 
# 
# 
# High freq. dielectric constant tensor:
#      x y z
#    x 1.882420 0.000000 -0.007010 
#    y 0.000000 1.903680 0.000000 
#    z -0.007010 0.000000 1.871470 
# 
# From -- ./inp_files/286014.got.cif
#   From: 2010.06.25/outbox.cif.g09.slc.cpg/sg15_144_cif.got.tgz:286014.got - 2010.06.28 07:06:18.
