data_PCOD8153491
_publ_section_title
;
Structure prediction by ZEFSAII (Michael W. Deem and Ramdas Pophale) SiO2 
 PCOD8153491
Probable space group: C 2/C
;
_chemical_formula_sum "Si O2"
_cell_formula_units_Z 48
_cell_length_a 11.453096
_cell_length_b 13.771230
_cell_length_c 13.627168
_cell_angle_alpha 90.000000
_cell_angle_beta 69.512300
_cell_angle_gamma 90.000000
_cell_volume 2013.370566
_symmetry_space_group_name_H-M "C 2/C"
_symmetry_group_IT_number 15
_symmetry_cell_setting 'monoclinic'
loop_
_space_group_symop_operation_xyz
x,y,z
-x,y,1/2-z
-x,-y,-z
x,-y,1/2+z
1/2+x,1/2+y,z
1/2-x,1/2+y,1/2-z
1/2-x,1/2-y,-z
1/2+x,1/2-y,1/2+z
loop_
_atom_site_type_symbol
_atom_site_label
_atom_site_fract_x
_atom_site_fract_y
_atom_site_fract_z
Si Si1 0.262911 0.138423 0.096616
Si Si2 0.262545 0.800258 0.237931
Si Si3 0.790592 0.014361 0.217077
Si Si4 0.468269 0.196908 0.528996
Si Si5 0.124153 0.646041 0.153974
Si Si6 0.484537 0.406731 0.938079
O O1 0.222990 0.233605 0.170437
O O2 0.282349 0.047165 0.163475
O O3 0.157145 0.112878 0.049954
O O4 0.391739 0.155942 0.001361
O O5 0.395751 0.829249 0.150973
O O6 0.181774 0.746256 0.178462
O O7 0.193663 0.898652 0.292345
O O8 0.716756 0.054890 0.143395
O O9 0.925159 0.069238 0.180899
O O10 0.400161 0.152882 0.454357
O O11 0.467727 0.313173 0.516468
O O12 0.000000 0.623853 0.250000
O O13 0.500000 0.500000 0.000000
#
# Coordination Sequence:
#
# PCOD8153491 Si02
#       6
#     8   8   8   8   8   8
#     4  11  25  50  68 110 155 187 252 310 369 439
#     4  11  25  46  78 106 148 200 239 311 379 433
#     4  11  25  46  71 108 147 195 242 310 367 441
#     4  12  24  47  75 108 147 201 239 311 375 446
#     4  11  23  48  72 104 153 186 248 303 371 441
#     4  12  27  46  74 109 145 196 257 303 368 445
#
# _framework density 23.840620000000001
#
# number of rings (size 3 to 8) (size 9 to 14) (size 15 to 20)
#    0.000    0.667    6.667    2.500    2.333    0.667 
#    6.000    0.000    0.000    0.000    0.000    0.000 
#    0.000    0.000    0.000    0.000    0.000    0.000 
#
# Total GULP energy -297619.502301 kJ/mol
# GULP energy per Si atom -12400.812596 kJ/mol
# Density = 2.378636 g / cm^3
# Si number density = 23.840620 Si / 1000 Ang^3
#
#
#
# Elastic Constant Matrix: (Units=GPa)
#
#
# Indices 1 2 3 4 5 6 
#
# 1 129.8264 30.0712 38.5801 0.0000 -5.1947 0.0000
# 2 30.0712 102.6179 -18.4365 0.0000 13.6380 0.0000
# 3 38.5801 -18.4365 44.6560 0.0000 -10.8799 0.0000
# 4 0.0000 0.0000 0.0000 32.1906 0.0000 -8.9213
# 5 -5.1947 13.6380 -10.8799 0.0000 41.2275 0.0000
# 6 0.0000 0.0000 0.0000 -8.9213 0.0000 21.1150
#
#
#
# Elastic Compliance Matrix: (Units=1/GPa)
#
#
# Indices 1 2 3 4 5 6 
#
# 1 0.013473 -0.006531 -0.014317 0.000000 0.000080 0.000000
# 2 -0.006531 0.013937 0.010765 0.000000 -0.002593 0.000000
# 3 -0.014317 0.010765 0.040503 0.000000 0.005324 0.000000
# 4 0.000000 0.000000 0.000000 0.035185 0.000000 0.014866
# 5 0.000080 -0.002593 0.005324 0.000000 0.026528 0.000000
# 6 0.000000 0.000000 0.000000 0.014866 0.000000 0.053641
#
#
# Mechanical properties :
#
#
# Convention : Reuss Voigt Hill
#
# Bulk Modulus (GPa) = 20.94326 41.94776 31.44551
# Shear Modulus (GPa) = 22.79468 34.03233 28.41350
#
# Velocity S-wave (km/s) = 3.09549 3.78232 3.45601
# Velocity P-wave (km/s) = 4.64541 6.05870 5.39850
#
# Compressibility (1/GPa) = 0.04774807
#
# Stress axis : x y z
#
# Youngs Moduli (GPa) = 74.22284 71.75009 24.68924
#
# Poissons Ratio (x) = 0.46859 0.35347
# Poissons Ratio (y) = 0.48474 -0.26577
# Poissons Ratio (z) = 1.06262 -0.77237
#
# Static dielectric constant tensor:
#      x y z
#    x 4.452190 0.000000 -0.501360 
#    y 0.000000 4.293440 0.000000 
#    z -0.501360 0.000000 4.652730 
# 
# 
# High freq. dielectric constant tensor:
#      x y z
#    x 1.941370 0.000000 -0.016970 
#    y 0.000000 1.946290 0.000000 
#    z -0.016970 0.000000 1.950330 
# 
# From -- ./inp_files/144049.got.cif
#   From: 2010.06.25/outbox.cif.g09.slc.cpg/sg15_73_cif.got.tgz:144049.got - 2010.06.28 07:06:18.
