data_PCOD8153578
_publ_section_title
;
Structure prediction by ZEFSAII (Michael W. Deem and Ramdas Pophale) SiO2 
 PCOD8153578
Probable space group: C 2/C
;
_chemical_formula_sum "Si O2"
_cell_formula_units_Z 32
_cell_length_a 4.966689
_cell_length_b 20.325395
_cell_length_c 12.288472
_cell_angle_alpha 90.000000
_cell_angle_beta 97.993307
_cell_angle_gamma 90.000000
_cell_volume 1228.467715
_symmetry_space_group_name_H-M "C 2/C"
_symmetry_group_IT_number 15
_symmetry_cell_setting 'monoclinic'
loop_
_space_group_symop_operation_xyz
x,y,z
-x,y,1/2-z
-x,-y,-z
x,-y,1/2+z
1/2+x,1/2+y,z
1/2-x,1/2+y,1/2-z
1/2-x,1/2-y,-z
1/2+x,1/2-y,1/2+z
loop_
_atom_site_type_symbol
_atom_site_label
_atom_site_fract_x
_atom_site_fract_y
_atom_site_fract_z
Si Si1 0.230388 0.588327 0.852266
Si Si2 0.000000 0.025773 0.250000
Si Si3 0.164393 0.621563 0.088780
Si Si4 0.677505 0.708522 0.101110
Si Si5 0.000000 0.197501 0.750000
O O1 0.376145 0.519025 0.838848
O O2 0.433980 0.650435 0.849695
O O3 0.000000 0.599193 0.750000
O O4 0.120648 0.587818 0.968731
O O5 0.231944 0.069376 0.318004
O O6 0.367381 0.684283 0.091577
O O7 0.871349 0.644442 0.115242
O O8 0.743103 0.756066 0.206725
O O9 0.750000 0.750000 0.000000
#
# Coordination Sequence:
#
# PCOD8153578 Si02
#       5
#     8   4   8   8   4
#     4  11  26  45  73 100 144 191 235 295 350 420
#     4  11  28  48  70 106 138 191 244 292 342 415
#     4  12  27  48  74 105 143 187 238 290 357 415
#     4  12  25  45  73 105 143 183 230 291 352 427
#     4  11  24  42  68 108 142 183 234 286 364 421
#
# _framework density 26.048708999999999
#
# number of rings (size 3 to 8) (size 9 to 14) (size 15 to 20)
#    0.000    0.500    2.500    4.500   10.500    1.000 
#    0.000    0.000    0.000    0.000    0.000    0.000 
#    0.000    0.000    0.000    0.000    0.000    0.000 
#
# Total GULP energy -198482.195668 kJ/mol
# GULP energy per Si atom -12405.137229 kJ/mol
# Density = 2.598942 g / cm^3
# Si number density = 26.048709 Si / 1000 Ang^3
#
#
#
# Elastic Constant Matrix: (Units=GPa)
#
#
# Indices 1 2 3 4 5 6 
#
# 1 51.6502 -1.0556 -11.7484 0.0000 6.8463 0.0000
# 2 -1.0556 117.0295 31.4241 0.0000 -1.5679 0.0000
# 3 -11.7484 31.4241 109.8811 0.0000 8.7588 0.0000
# 4 0.0000 0.0000 0.0000 39.0454 0.0000 6.6623
# 5 6.8463 -1.5679 8.7588 0.0000 35.0975 0.0000
# 6 0.0000 0.0000 0.0000 6.6623 0.0000 6.9152
#
#
#
# Elastic Compliance Matrix: (Units=1/GPa)
#
#
# Indices 1 2 3 4 5 6 
#
# 1 0.020603 -0.000618 0.002757 0.000000 -0.004735 0.000000
# 2 -0.000618 0.009316 -0.002829 0.000000 0.001243 0.000000
# 3 0.002757 -0.002829 0.010466 0.000000 -0.003276 0.000000
# 4 0.000000 0.000000 0.000000 0.030650 0.000000 -0.029529
# 5 -0.004735 0.001243 -0.003276 0.000000 0.030289 0.000000
# 6 0.000000 0.000000 0.000000 -0.029529 0.000000 0.173059
#
#
# Mechanical properties :
#
#
# Convention : Reuss Voigt Hill
#
# Bulk Modulus (GPa) = 25.63827 35.08898 30.36362
# Shear Modulus (GPa) = 17.31523 33.54100 25.42812
#
# Velocity S-wave (km/s) = 2.58102 3.59224 3.12777
# Velocity P-wave (km/s) = 4.32967 5.54124 4.97250
#
# Compressibility (1/GPa) = 0.03900419
#
# Stress axis : x y z
#
# Youngs Moduli (GPa) = 48.53644 107.34661 95.54960
#
# Poissons Ratio (x) = 0.06633 -0.26343
# Poissons Ratio (y) = 0.02999 0.27033
# Poissons Ratio (z) = -0.13381 0.30371
#
# Static dielectric constant tensor:
#      x y z
#    x 4.674100 0.000000 0.035410 
#    y 0.000000 4.963510 0.000000 
#    z 0.035410 0.000000 4.905810 
# 
# 
# High freq. dielectric constant tensor:
#      x y z
#    x 2.034350 0.000000 0.002470 
#    y 0.000000 2.056930 0.000000 
#    z 0.002470 0.000000 2.052090 
# 
# From -- ./inp_files/71935.got.cif
#   From: 2010.06.25/outbox.cif.g09.slc.cpg/sg15_36_cif.got.tgz:71935.got - 2010.06.28 07:06:18.
