data_PCOD8153231
_publ_section_title
;
Structure prediction by ZEFSAII (Michael W. Deem and Ramdas Pophale) SiO2 
 PCOD8153231
Probable space group: C 2/C
;
_chemical_formula_sum "Si O2"
_cell_formula_units_Z 36
_cell_length_a 17.101704
_cell_length_b 8.132555
_cell_length_c 30.781356
_cell_angle_alpha 90.000000
_cell_angle_beta 155.493343
_cell_angle_gamma 90.000000
_cell_volume 1775.790819
_symmetry_space_group_name_H-M "C 2/C"
_symmetry_group_IT_number 15
_symmetry_cell_setting 'monoclinic'
loop_
_space_group_symop_operation_xyz
x,y,z
-x,y,1/2-z
-x,-y,-z
x,-y,1/2+z
1/2+x,1/2+y,z
1/2-x,1/2+y,1/2-z
1/2-x,1/2-y,-z
1/2+x,1/2-y,1/2+z
loop_
_atom_site_type_symbol
_atom_site_label
_atom_site_fract_x
_atom_site_fract_y
_atom_site_fract_z
Si Si1 0.379874 0.585537 0.476411
Si Si2 0.500000 0.213371 0.250000
Si Si3 0.634283 0.600678 0.735093
Si Si4 0.193241 0.935980 0.972947
Si Si5 0.963542 0.358032 0.886419
O O1 0.500000 0.500000 0.500000
O O2 0.161551 0.600389 0.352536
O O3 0.393133 0.462891 0.523404
O O4 0.467300 0.760840 0.535566
O O5 0.394175 0.322053 0.232228
O O6 0.467211 0.470035 0.643663
O O7 0.830866 0.504818 0.834992
O O8 0.640206 0.737846 0.700134
O O9 0.250000 0.750000 0.000000
O O10 0.360392 0.064582 0.049742
#
# Coordination Sequence:
#
# PCOD8153231 Si02
#       5
#     8   4   8   8   8
#     4  11  26  43  68 100 137 173 219 281 337 400
#     4  12  24  44  66  94 138 170 214 280 330 390
#     4  11  24  41  69  94 132 176 220 277 334 399
#     4  11  23  44  66  97 132 175 224 280 333 400
#     4  11  23  45  65  99 131 178 227 268 341 403
#
# _framework density 20.272658
#
# number of rings (size 3 to 8) (size 9 to 14) (size 15 to 20)
#    0.000    0.889    4.444    2.667    9.333    4.444 
#    0.000    0.000    0.000    0.000    0.000    0.000 
#    0.000    0.000    0.000    0.000    0.000    0.000 
#
# Total GULP energy -223268.679251 kJ/mol
# GULP energy per Si atom -12403.815514 kJ/mol
# Density = 2.022652 g / cm^3
# Si number density = 20.272658 Si / 1000 Ang^3
#
#
#
# Elastic Constant Matrix: (Units=GPa)
#
#
# Indices 1 2 3 4 5 6 
#
# 1 112.0118 39.3436 20.1677 0.0012 8.3813 -0.0008
# 2 39.3436 90.5913 11.0883 -0.0027 1.5815 0.0007
# 3 20.1677 11.0883 75.6719 -0.0033 0.3790 -0.0005
# 4 0.0012 -0.0027 -0.0033 35.9493 -0.0003 16.1331
# 5 8.3813 1.5815 0.3790 -0.0003 30.6811 0.0002
# 6 -0.0008 0.0007 -0.0005 16.1331 0.0002 42.6124
#
#
#
# Elastic Compliance Matrix: (Units=1/GPa)
#
#
# Indices 1 2 3 4 5 6 
#
# 1 0.011131 -0.004505 -0.002292 -0.000001 -0.002780 0.000001
# 2 -0.004505 0.013073 -0.000718 0.000001 0.000566 -0.000001
# 3 -0.002292 -0.000718 0.013929 0.000002 0.000491 0.000000
# 4 -0.000001 0.000001 0.000002 0.033511 0.000001 -0.012687
# 5 -0.002780 0.000566 0.000491 0.000001 0.033318 0.000000
# 6 0.000001 -0.000001 0.000000 -0.012687 0.000000 0.028271
#
#
# Mechanical properties :
#
#
# Convention : Reuss Voigt Hill
#
# Bulk Modulus (GPa) = 43.28626 46.60824 44.94725
# Shear Modulus (GPa) = 32.05899 35.69358 33.87629
#
# Velocity S-wave (km/s) = 3.98098 4.20059 4.09226
# Velocity P-wave (km/s) = 6.52146 6.82402 6.67445
#
# Compressibility (1/GPa) = 0.02310202
#
# Stress axis : x y z
#
# Youngs Moduli (GPa) = 89.84119 76.49326 71.79451
#
# Poissons Ratio (x) = 0.34460 0.16459
# Poissons Ratio (y) = 0.40473 0.05153
# Poissons Ratio (z) = 0.20596 0.05491
#
# Static dielectric constant tensor:
#      x y z
#    x 3.649980 0.000000 0.025570 
#    y 0.000000 3.819850 0.000000 
#    z 0.025570 0.000000 3.853460 
# 
# 
# High freq. dielectric constant tensor:
#      x y z
#    x 1.798200 0.000000 0.003260 
#    y 0.000000 1.794030 0.000000 
#    z 0.003260 0.000000 1.803680 
# 
# From -- ./inp_files/102467.got.cif
#   From: 2010.06.25/outbox.cif.g09.slc.cpg/sg15_52_cif.got.tgz:102467.got - 2010.06.28 07:06:18.
