data_PCOD8153894
_publ_section_title
;
Structure prediction by ZEFSAII (Michael W. Deem and Ramdas Pophale) SiO2 
 PCOD8153894
Probable space group: C 2/C
;
_chemical_formula_sum "Si O2"
_cell_formula_units_Z 32
_cell_length_a 19.790371
_cell_length_b 8.826250
_cell_length_c 10.315300
_cell_angle_alpha 90.000000
_cell_angle_beta 44.478323
_cell_angle_gamma 90.000000
_cell_volume 1262.427826
_symmetry_space_group_name_H-M "C 2/C"
_symmetry_group_IT_number 15
_symmetry_cell_setting 'monoclinic'
loop_
_space_group_symop_operation_xyz
x,y,z
-x,y,1/2-z
-x,-y,-z
x,-y,1/2+z
1/2+x,1/2+y,z
1/2-x,1/2+y,1/2-z
1/2-x,1/2-y,-z
1/2+x,1/2-y,1/2+z
loop_
_atom_site_type_symbol
_atom_site_label
_atom_site_fract_x
_atom_site_fract_y
_atom_site_fract_z
Si Si1 0.184440 0.643130 0.502025
Si Si2 0.127213 0.862918 0.896011
Si Si3 0.354500 0.187022 0.375555
Si Si4 0.546295 0.309781 0.512801
O O1 0.250000 0.750000 0.500000
O O2 0.259052 0.605751 0.281988
O O3 0.149804 0.494854 0.625536
O O4 0.086609 0.711696 0.575839
O O5 0.078256 0.020442 0.002129
O O6 0.107655 0.741990 0.036455
O O7 0.071406 0.802095 0.840796
O O8 0.250000 0.250000 0.500000
O O9 0.419785 0.252756 0.173326
#
# Coordination Sequence:
#
# PCOD8153894 Si02
#       4
#     8   8   8   8
#     4  12  26  44  71 101 142 186 231 282 352 413
#     4  11  24  46  72 101 138 184 233 282 353 414
#     4  12  23  44  73 101 140 183 231 289 348 411
#     4  11  26  46  71 103 140 181 232 291 346 414
#
# _framework density 25.347982999999999
#
# number of rings (size 3 to 8) (size 9 to 14) (size 15 to 20)
#    0.000    0.500    5.000    2.250    3.500    2.000 
#    4.500    0.000    0.000    0.000    0.000    0.000 
#    0.000    0.000    0.000    0.000    0.000    0.000 
#
# Total GULP energy -198392.008731 kJ/mol
# GULP energy per Si atom -12399.500546 kJ/mol
# Density = 2.529029 g / cm^3
# Si number density = 25.347983 Si / 1000 Ang^3
#
#
#
# Elastic Constant Matrix: (Units=GPa)
#
#
# Indices 1 2 3 4 5 6 
#
# 1 169.7433 62.7650 13.4605 0.0000 -8.0438 0.0000
# 2 62.7650 164.9482 -3.7828 0.0000 7.7505 0.0000
# 3 13.4605 -3.7828 41.8058 0.0000 3.7547 0.0000
# 4 0.0000 0.0000 0.0000 21.7046 0.0000 6.5688
# 5 -8.0438 7.7505 3.7547 0.0000 48.4426 0.0000
# 6 0.0000 0.0000 0.0000 6.5688 0.0000 53.2252
#
#
#
# Elastic Compliance Matrix: (Units=1/GPa)
#
#
# Indices 1 2 3 4 5 6 
#
# 1 0.007282 -0.002924 -0.002779 0.000000 0.001892 0.000000
# 2 -0.002924 0.007300 0.001763 0.000000 -0.001790 0.000000
# 3 -0.002779 0.001763 0.025217 0.000000 -0.002698 0.000000
# 4 0.000000 0.000000 0.000000 0.047861 0.000000 -0.005907
# 5 0.001892 -0.001790 -0.002698 0.000000 0.021453 0.000000
# 6 0.000000 0.000000 0.000000 -0.005907 0.000000 0.019517
#
#
# Mechanical properties :
#
#
# Convention : Reuss Voigt Hill
#
# Bulk Modulus (GPa) = 31.33024 57.93141 44.63083
# Shear Modulus (GPa) = 33.97903 44.94476 39.46190
#
# Velocity S-wave (km/s) = 3.66526 4.21540 3.94992
# Velocity P-wave (km/s) = 5.50446 6.82619 6.20064
#
# Compressibility (1/GPa) = 0.03191805
#
# Stress axis : x y z
#
# Youngs Moduli (GPa) = 137.31725 136.99470 39.65607
#
# Poissons Ratio (x) = 0.40053 0.11022
# Poissons Ratio (y) = 0.40148 -0.06990
# Poissons Ratio (z) = 0.38164 -0.24147
#
# Static dielectric constant tensor:
#      x y z
#    x 5.018090 0.000000 -0.264630 
#    y 0.000000 4.223740 0.000000 
#    z -0.264630 0.000000 4.892070 
# 
# 
# High freq. dielectric constant tensor:
#      x y z
#    x 2.040120 0.000000 -0.009180 
#    y 0.000000 2.007960 0.000000 
#    z -0.009180 0.000000 2.017130 
# 
# From -- ./inp_files/102547.got.cif
#   From: 2010.06.25/outbox.cif.g09.slc.cpg/sg15_52_cif.got.tgz:102547.got - 2010.06.28 07:06:18.
