data_PCOD8153813
_publ_section_title
;
Structure prediction by ZEFSAII (Michael W. Deem and Ramdas Pophale) SiO2 
 PCOD8153813
Probable space group: C 2/C
;
_chemical_formula_sum "Si O2"
_cell_formula_units_Z 52
_cell_length_a 15.590127
_cell_length_b 16.407994
_cell_length_c 11.697415
_cell_angle_alpha 90.000000
_cell_angle_beta 125.032569
_cell_angle_gamma 90.000000
_cell_volume 2450.115711
_symmetry_space_group_name_H-M "C 2/C"
_symmetry_group_IT_number 15
_symmetry_cell_setting 'monoclinic'
loop_
_space_group_symop_operation_xyz
x,y,z
-x,y,1/2-z
-x,-y,-z
x,-y,1/2+z
1/2+x,1/2+y,z
1/2-x,1/2+y,1/2-z
1/2-x,1/2-y,-z
1/2+x,1/2-y,1/2+z
loop_
_atom_site_type_symbol
_atom_site_label
_atom_site_fract_x
_atom_site_fract_y
_atom_site_fract_z
Si Si1 0.690488 0.701160 0.550851
Si Si2 0.000000 0.236199 0.750000
Si Si3 0.047185 0.322587 0.556410
Si Si4 0.116937 0.062751 0.344916
Si Si5 0.767917 0.563259 0.254015
Si Si6 0.182095 0.380143 0.166304
Si Si7 0.180770 0.112771 0.948060
O O1 0.750000 0.750000 0.500000
O O2 0.583808 0.747616 0.504181
O O3 0.670157 0.611224 0.488444
O O4 0.761849 0.690473 0.717669
O O5 0.959582 0.293660 0.818940
O O6 0.903545 0.184709 0.624645
O O7 0.132056 0.394058 0.613394
O O8 0.940320 0.360221 0.427022
O O9 0.171068 0.076421 0.264786
O O10 0.000000 0.096031 0.250000
O O11 0.115864 0.968643 0.376880
O O12 0.796697 0.468289 0.260616
O O13 0.736346 0.608158 0.113084
O O14 0.226319 0.376096 0.071898
#
# Coordination Sequence:
#
# PCOD8153813 Si02
#       7
#     8   4   8   8   8   8   8
#     4  12  26  46  65 104 142 179 233 287 348 410
#     4  12  26  42  70 106 140 178 230 292 358 408
#     4  12  27  44  71 103 139 187 227 289 353 413
#     4  11  25  43  69 101 135 183 229 283 347 412
#     4  11  25  47  71  98 139 185 236 283 343 422
#     4  11  26  48  70 100 140 184 232 285 344 424
#     4  11  24  45  71 101 138 177 232 286 342 418
#
# _framework density 21.223489000000001
#
# number of rings (size 3 to 8) (size 9 to 14) (size 15 to 20)
#    0.000    0.615    5.385    1.385    6.462    1.846 
#    0.000    1.538    0.000    0.000    0.000    0.000 
#    0.000    0.000    0.000    0.000    0.000    0.000 
#
# Total GULP energy -322530.466792 kJ/mol
# GULP energy per Si atom -12405.017954 kJ/mol
# Density = 2.117518 g / cm^3
# Si number density = 21.223489 Si / 1000 Ang^3
#
#
#
# Elastic Constant Matrix: (Units=GPa)
#
#
# Indices 1 2 3 4 5 6 
#
# 1 116.1298 50.5814 48.9478 0.0000 9.3698 0.0000
# 2 50.5814 80.5597 31.4412 0.0000 1.8248 0.0000
# 3 48.9478 31.4412 116.7122 0.0000 8.9578 0.0000
# 4 0.0000 0.0000 0.0000 27.0053 0.0000 -3.6822
# 5 9.3698 1.8248 8.9578 0.0000 42.2185 0.0000
# 6 0.0000 0.0000 0.0000 -3.6822 0.0000 38.5635
#
#
#
# Elastic Compliance Matrix: (Units=1/GPa)
#
#
# Indices 1 2 3 4 5 6 
#
# 1 0.013270 -0.006899 -0.003562 0.000000 -0.001891 0.000000
# 2 -0.006899 0.017460 -0.001901 0.000000 0.001180 0.000000
# 3 -0.003562 -0.001901 0.010681 0.000000 -0.001394 0.000000
# 4 0.000000 0.000000 0.000000 0.037518 0.000000 0.003582
# 5 -0.001891 0.001180 -0.001394 0.000000 0.024351 0.000000
# 6 0.000000 0.000000 0.000000 0.003582 0.000000 0.026273
#
#
# Mechanical properties :
#
#
# Convention : Reuss Voigt Hill
#
# Bulk Modulus (GPa) = 59.92318 63.92694 61.92506
# Shear Modulus (GPa) = 31.28177 33.71954 32.50065
#
# Velocity S-wave (km/s) = 3.84333 3.99028 3.91750
# Velocity P-wave (km/s) = 6.92753 7.17050 7.05006
#
# Compressibility (1/GPa) = 0.01668803
#
# Stress axis : x y z
#
# Youngs Moduli (GPa) = 75.35997 57.27415 93.62630
#
# Poissons Ratio (x) = 0.39512 0.33345
# Poissons Ratio (y) = 0.51990 0.17796
# Poissons Ratio (z) = 0.26840 0.10887
#
# Static dielectric constant tensor:
#      x y z
#    x 4.102000 0.000000 -0.129330 
#    y 0.000000 3.985100 0.000000 
#    z -0.129330 0.000000 4.109900 
# 
# 
# High freq. dielectric constant tensor:
#      x y z
#    x 1.843370 0.000000 -0.001500 
#    y 0.000000 1.845010 0.000000 
#    z -0.001500 0.000000 1.835650 
# 
# From -- ./inp_files/98435.got.cif
#   From: 2010.06.25/outbox.cif.g09.slc.cpg/sg15_50_cif.got.tgz:98435.got - 2010.06.28 07:06:18.
