data_PCOD8153137
_publ_section_title
;
Structure prediction by ZEFSAII (Michael W. Deem and Ramdas Pophale) SiO2 
 PCOD8153137
Probable space group: C 2/C
;
_chemical_formula_sum "Si O2"
_cell_formula_units_Z 64
_cell_length_a 12.213925
_cell_length_b 17.975094
_cell_length_c 14.654618
_cell_angle_alpha 90.000000
_cell_angle_beta 88.231621
_cell_angle_gamma 90.000000
_cell_volume 3215.837065
_symmetry_space_group_name_H-M "C 2/C"
_symmetry_group_IT_number 15
_symmetry_cell_setting 'monoclinic'
loop_
_space_group_symop_operation_xyz
x,y,z
-x,y,1/2-z
-x,-y,-z
x,-y,1/2+z
1/2+x,1/2+y,z
1/2-x,1/2+y,1/2-z
1/2-x,1/2-y,-z
1/2+x,1/2-y,1/2+z
loop_
_atom_site_type_symbol
_atom_site_label
_atom_site_fract_x
_atom_site_fract_y
_atom_site_fract_z
Si Si1 0.789484 0.605655 0.632125
Si Si2 0.081151 0.246606 0.328947
Si Si3 0.573273 0.308538 0.167786
Si Si4 0.627993 0.997668 0.012031
Si Si5 0.207665 0.674968 0.246143
Si Si6 0.568728 0.282135 0.505007
Si Si7 0.713130 0.845917 0.952830
Si Si8 0.627428 0.991447 0.722660
O O1 0.867114 0.676268 0.640470
O O2 0.663652 0.631144 0.636915
O O3 0.815892 0.571215 0.531861
O O4 0.807457 0.547234 0.713388
O O5 0.171506 0.186767 0.296918
O O6 0.000000 0.266694 0.250000
O O7 0.016783 0.206963 0.411822
O O8 0.500000 0.343925 0.250000
O O9 0.624020 0.230805 0.200028
O O10 0.495074 0.290181 0.086667
O O11 0.652343 0.985557 0.117822
O O12 0.500000 0.000000 0.000000
O O13 0.676110 0.930627 0.951175
O O14 0.212354 0.691506 0.353285
O O15 0.169661 0.591653 0.231315
O O16 0.626750 0.201474 0.514689
O O17 0.664826 0.343624 0.508140
O O18 0.500000 0.995729 0.750000
#
# Coordination Sequence:
#
# PCOD8153137 Si02
#       8
#     8   8   8   8   8   8   8   8
#     4  11  26  42  63  98 131 167 214 263 326 386
#     4  11  24  41  66  95 133 168 212 266 320 381
#     4  11  25  43  67  95 133 170 215 267 322 379
#     4  12  25  42  65  96 131 166 211 269 326 380
#     4  11  23  43  67  96 129 170 219 265 317 383
#     4  11  25  41  68  97 128 171 217 265 321 380
#     4  11  23  43  68  95 127 172 221 263 313 394
#     4  12  25  42  67  94 130 169 210 267 327 379
#
# _framework density 19.901505
#
# number of rings (size 3 to 8) (size 9 to 14) (size 15 to 20)
#    0.000    0.750    5.000    1.500    8.750    1.000 
#    0.000    2.500    0.000    0.000    0.000    0.000 
#    0.000    0.000    0.000    0.000    0.000    0.000 
#
# Total GULP energy -396938.034418 kJ/mol
# GULP energy per Si atom -12404.313576 kJ/mol
# Density = 1.985621 g / cm^3
# Si number density = 19.901505 Si / 1000 Ang^3
#
#
#
# Elastic Constant Matrix: (Units=GPa)
#
#
# Indices 1 2 3 4 5 6 
#
# 1 143.1212 47.1635 50.9237 0.0000 -4.8959 0.0000
# 2 47.1635 88.7291 19.8967 0.0000 -1.2852 0.0000
# 3 50.9237 19.8967 120.7584 0.0000 -4.4640 0.0000
# 4 0.0000 0.0000 0.0000 31.9701 0.0000 -0.8858
# 5 -4.8959 -1.2852 -4.4640 0.0000 39.9329 0.0000
# 6 0.0000 0.0000 0.0000 -0.8858 0.0000 27.4854
#
#
#
# Elastic Compliance Matrix: (Units=1/GPa)
#
#
# Indices 1 2 3 4 5 6 
#
# 1 0.009628 -0.004364 -0.003316 0.000000 0.000669 0.000000
# 2 -0.004364 0.013682 -0.000419 0.000000 -0.000142 0.000000
# 3 -0.003316 -0.000419 0.009773 0.000000 0.000672 0.000000
# 4 0.000000 0.000000 0.000000 0.031307 0.000000 0.001009
# 5 0.000669 -0.000142 0.000672 0.000000 0.025195 0.000000
# 6 0.000000 0.000000 0.000000 0.001009 0.000000 0.036415
#
#
# Mechanical properties :
#
#
# Convention : Reuss Voigt Hill
#
# Bulk Modulus (GPa) = 59.22791 65.39738 62.31265
# Shear Modulus (GPa) = 33.82293 35.51935 34.67114
#
# Velocity S-wave (km/s) = 4.12699 4.22922 4.17842
# Velocity P-wave (km/s) = 7.24807 7.53527 7.39306
#
# Compressibility (1/GPa) = 0.01688393
#
# Stress axis : x y z
#
# Youngs Moduli (GPa) = 103.86150 73.08827 102.31849
#
# Poissons Ratio (x) = 0.31899 0.33932
# Poissons Ratio (y) = 0.45330 0.04288
# Poissons Ratio (z) = 0.34444 0.03063
#
# Static dielectric constant tensor:
#      x y z
#    x 3.700310 0.000000 0.162310 
#    y 0.000000 3.532100 0.000000 
#    z 0.162310 0.000000 3.458740 
# 
# 
# High freq. dielectric constant tensor:
#      x y z
#    x 1.787380 0.000000 -0.003600 
#    y 0.000000 1.766290 0.000000 
#    z -0.003600 0.000000 1.794090 
# 
# From -- ./inp_files/146061.got.cif
#   From: 2010.06.25/outbox.cif.g09.slc.cpg/sg15_74_cif.got.tgz:146061.got - 2010.06.28 07:06:18.
