data_PCOD8153660
_publ_section_title
;
Structure prediction by ZEFSAII (Michael W. Deem and Ramdas Pophale) SiO2 
 PCOD8153660
Probable space group: C 2/C
;
_chemical_formula_sum "Si O2"
_cell_formula_units_Z 56
_cell_length_a 13.629067
_cell_length_b 15.898729
_cell_length_c 20.190419
_cell_angle_alpha 90.000000
_cell_angle_beta 33.884309
_cell_angle_gamma 90.000000
_cell_volume 2439.116747
_symmetry_space_group_name_H-M "C 2/C"
_symmetry_group_IT_number 15
_symmetry_cell_setting 'monoclinic'
loop_
_space_group_symop_operation_xyz
x,y,z
-x,y,1/2-z
-x,-y,-z
x,-y,1/2+z
1/2+x,1/2+y,z
1/2-x,1/2+y,1/2-z
1/2-x,1/2-y,-z
1/2+x,1/2-y,1/2+z
loop_
_atom_site_type_symbol
_atom_site_label
_atom_site_fract_x
_atom_site_fract_y
_atom_site_fract_z
Si Si1 0.305786 0.909180 0.367573
Si Si2 0.957204 0.635999 0.448585
Si Si3 0.672469 0.901454 0.621321
Si Si4 0.352508 0.595658 0.785602
Si Si5 0.189711 0.096048 0.199915
Si Si6 0.954889 0.171869 0.589943
Si Si7 0.825707 0.161712 0.432955
O O1 0.500000 0.869540 0.250000
O O2 0.173504 0.853695 0.397854
O O3 0.249765 0.907527 0.475238
O O4 0.309236 0.008667 0.351836
O O5 0.848603 0.602377 0.446413
O O6 0.838765 0.622194 0.580090
O O7 0.137518 0.583169 0.352100
O O8 0.031875 0.730076 0.402498
O O9 0.500000 0.856637 0.750000
O O10 0.849267 0.853877 0.540953
O O11 0.500000 0.638006 0.750000
O O12 0.386914 0.496154 0.768224
O O13 0.376820 0.626377 0.697568
O O14 0.246663 0.139797 0.099070
O O15 0.039042 0.155810 0.316139
O O16 0.750000 0.250000 0.500000
#
# Coordination Sequence:
#
# PCOD8153660 Si02
#       7
#     8   8   8   8   8   8   8
#     4  11  27  46  72 107 149 194 244 303 382 455
#     4  12  28  44  76 111 145 194 252 314 379 442
#     4  11  26  46  72 103 148 190 251 298 371 460
#     4  12  25  49  78 101 151 196 259 302 367 464
#     4  11  26  47  73 108 142 203 249 305 381 451
#     4  12  28  46  75 109 148 195 244 318 385 428
#     4  11  24  43  74 102 152 186 245 305 374 448
#
# _framework density 22.959129999999998
#
# number of rings (size 3 to 8) (size 9 to 14) (size 15 to 20)
#    0.000    0.571    2.857    3.857   14.000    0.000 
#    0.000    0.000    0.000    0.000    0.000    0.000 
#    0.000    0.000    0.000    0.000    0.000    0.000 
#
# Total GULP energy -347174.102859 kJ/mol
# GULP energy per Si atom -12399.075102 kJ/mol
# Density = 2.290687 g / cm^3
# Si number density = 22.959130 Si / 1000 Ang^3
#
#
#
# Elastic Constant Matrix: (Units=GPa)
#
#
# Indices 1 2 3 4 5 6 
#
# 1 92.2049 27.1790 45.5632 0.0017 -24.2876 0.0011
# 2 27.1790 90.0477 26.8854 0.0045 4.5026 0.0001
# 3 45.5632 26.8854 163.8105 0.0165 -3.5815 -0.0029
# 4 0.0017 0.0045 0.0165 41.4588 -0.0033 3.6822
# 5 -24.2876 4.5026 -3.5815 -0.0033 49.8381 -0.0003
# 6 0.0011 0.0001 -0.0029 3.6822 -0.0003 29.8099
#
#
#
# Elastic Compliance Matrix: (Units=1/GPa)
#
#
# Indices 1 2 3 4 5 6 
#
# 1 0.015898 -0.004125 -0.003573 0.000002 0.007864 -0.000001
# 2 -0.004125 0.012819 -0.001027 -0.000001 -0.003242 0.000000
# 3 -0.003573 -0.001027 0.007242 -0.000003 -0.001128 0.000001
# 4 0.000002 -0.000001 -0.000003 0.024388 0.000002 -0.003012
# 5 0.007864 -0.003242 -0.001128 0.000002 0.024109 0.000000
# 6 -0.000001 0.000000 0.000001 -0.003012 0.000000 0.033918
#
#
# Mechanical properties :
#
#
# Convention : Reuss Voigt Hill
#
# Bulk Modulus (GPa) = 54.02839 60.59092 57.30966
# Shear Modulus (GPa) = 35.21237 40.65039 37.93138
#
# Velocity S-wave (km/s) = 3.92049 4.21236 4.06904
# Velocity P-wave (km/s) = 6.63907 7.07861 6.86236
#
# Compressibility (1/GPa) = 0.01850879
#
# Stress axis : x y z
#
# Youngs Moduli (GPa) = 62.89973 78.00825 138.07502
#
# Poissons Ratio (x) = 0.32178 0.49336
# Poissons Ratio (y) = 0.25946 0.14187
# Poissons Ratio (z) = 0.22475 0.08015
#
# Static dielectric constant tensor:
#      x y z
#    x 4.162160 -0.000010 -0.086010 
#    y -0.000010 4.016620 0.000010 
#    z -0.086010 0.000010 4.460000 
# 
# 
# High freq. dielectric constant tensor:
#      x y z
#    x 1.907390 0.000000 -0.006390 
#    y 0.000000 1.904010 0.000000 
#    z -0.006390 0.000000 1.928640 
# 
# From -- ./inp_files/245129.got.cif
#   From: 2010.06.25/outbox.cif.g09.slc.cpg/sg15_123_cif.got.tgz:245129.got - 2010.06.28 07:06:18.
