data_PCOD8153502
_publ_section_title
;
Structure prediction by ZEFSAII (Michael W. Deem and Ramdas Pophale) SiO2 
 PCOD8153502
Probable space group: C 2/C
;
_chemical_formula_sum "Si O2"
_cell_formula_units_Z 48
_cell_length_a 26.437312
_cell_length_b 8.913769
_cell_length_c 10.209776
_cell_angle_alpha 90.000000
_cell_angle_beta 70.027759
_cell_angle_gamma 90.000000
_cell_volume 2261.295024
_symmetry_space_group_name_H-M "C 2/C"
_symmetry_group_IT_number 15
_symmetry_cell_setting 'monoclinic'
loop_
_space_group_symop_operation_xyz
x,y,z
-x,y,1/2-z
-x,-y,-z
x,-y,1/2+z
1/2+x,1/2+y,z
1/2-x,1/2+y,1/2-z
1/2-x,1/2-y,-z
1/2+x,1/2-y,1/2+z
loop_
_atom_site_type_symbol
_atom_site_label
_atom_site_fract_x
_atom_site_fract_y
_atom_site_fract_z
Si Si1 0.468032 0.083470 0.910615
Si Si2 0.813401 0.259716 0.439641
Si Si3 0.382381 0.735414 0.618544
Si Si4 0.366043 0.049680 0.375404
Si Si5 0.316268 0.474301 0.740444
Si Si6 0.276265 0.194828 0.608084
O O1 0.500000 0.132214 0.750000
O O2 0.422831 0.972587 0.896387
O O3 0.440598 0.231291 0.001217
O O4 0.500000 0.000000 0.000000
O O5 0.750000 0.250000 0.500000
O O6 0.835611 0.291462 0.563813
O O7 0.838825 0.399527 0.333239
O O8 0.831502 0.097444 0.367960
O O9 0.374344 0.822640 0.760790
O O10 0.371716 0.556894 0.647512
O O11 0.327618 0.097120 0.527364
O O12 0.296615 0.335194 0.672618
O O13 0.268226 0.595593 0.777831
O O14 0.250000 0.250000 0.500000
#
# Coordination Sequence:
#
# PCOD8153502 Si02
#       6
#     8   8   8   8   8   8
#     4  11  24  48  80 111 136 183 253 321 364 429
#     4  11  24  38  63 100 145 193 231 285 346 439
#     4  11  25  43  65 104 137 186 241 297 368 431
#     4  11  25  42  71 104 142 188 247 288 375 430
#     4  12  26  40  65  99 153 193 241 284 363 433
#     4  12  26  41  64 100 151 195 234 290 349 450
#
# _framework density 21.226773999999999
#
# number of rings (size 3 to 8) (size 9 to 14) (size 15 to 20)
#    0.000    0.667    5.000    2.000    9.333    0.000 
#    0.000    0.000    0.000   10.000    0.000    0.000 
#    0.000    0.000    0.000    0.000    0.000    0.000 
#
# Total GULP energy -297327.981969 kJ/mol
# GULP energy per Si atom -12388.665915 kJ/mol
# Density = 2.117846 g / cm^3
# Si number density = 21.226774 Si / 1000 Ang^3
#
#
#
# Elastic Constant Matrix: (Units=GPa)
#
#
# Indices 1 2 3 4 5 6 
#
# 1 123.2199 50.1936 43.7290 0.0000 -5.9226 0.0000
# 2 50.1936 152.1508 58.1220 0.0000 -7.4432 0.0000
# 3 43.7290 58.1220 116.7739 0.0000 -14.9459 0.0000
# 4 0.0000 0.0000 0.0000 54.0799 0.0000 -1.1666
# 5 -5.9226 -7.4432 -14.9459 0.0000 33.5806 0.0000
# 6 0.0000 0.0000 0.0000 -1.1666 0.0000 39.4804
#
#
#
# Elastic Compliance Matrix: (Units=1/GPa)
#
#
# Indices 1 2 3 4 5 6 
#
# 1 0.009972 -0.002301 -0.002576 0.000000 0.000102 0.000000
# 2 -0.002301 0.008646 -0.003445 0.000000 -0.000023 0.000000
# 3 -0.002576 -0.003445 0.011757 0.000000 0.004015 0.000000
# 4 0.000000 0.000000 0.000000 0.018503 0.000000 0.000547
# 5 0.000102 -0.000023 0.004015 0.000000 0.031579 0.000000
# 6 0.000000 0.000000 0.000000 0.000547 0.000000 0.025345
#
#
# Mechanical properties :
#
#
# Convention : Reuss Voigt Hill
#
# Bulk Modulus (GPa) = 72.82397 77.35932 75.09164
# Shear Modulus (GPa) = 39.36324 41.43485 40.39905
#
# Velocity S-wave (km/s) = 4.31096 4.42295 4.36731
# Velocity P-wave (km/s) = 7.69164 7.91243 7.80282
#
# Compressibility (1/GPa) = 0.01373174
#
# Stress axis : x y z
#
# Youngs Moduli (GPa) = 100.28243 115.65749 85.05804
#
# Poissons Ratio (x) = 0.26608 0.21911
# Poissons Ratio (y) = 0.23071 0.29301
# Poissons Ratio (z) = 0.25833 0.39842
#
# Static dielectric constant tensor:
#      x y z
#    x 3.926480 0.000000 0.103570 
#    y 0.000000 4.335730 0.000000 
#    z 0.103570 0.000000 3.034800 
# 
# 
# High freq. dielectric constant tensor:
#      x y z
#    x 1.822890 0.000000 0.014150 
#    y 0.000000 1.833830 0.000000 
#    z 0.014150 0.000000 1.846210 
# 
# From -- ./inp_files/121386.got.cif
#   From: 2010.06.25/outbox.cif.g09.slc.cpg/sg15_61_cif.got.tgz:121386.got - 2010.06.28 07:06:18.
