data_PCOD8153824
_publ_section_title
;
Structure prediction by ZEFSAII (Michael W. Deem and Ramdas Pophale) SiO2 
 PCOD8153824
Probable space group: C 2/C
;
_chemical_formula_sum "Si O2"
_cell_formula_units_Z 56
_cell_length_a 8.566384
_cell_length_b 16.847143
_cell_length_c 25.960646
_cell_angle_alpha 90.000000
_cell_angle_beta 138.805367
_cell_angle_gamma 90.000000
_cell_volume 2467.593036
_symmetry_space_group_name_H-M "C 2/C"
_symmetry_group_IT_number 15
_symmetry_cell_setting 'monoclinic'
loop_
_space_group_symop_operation_xyz
x,y,z
-x,y,1/2-z
-x,-y,-z
x,-y,1/2+z
1/2+x,1/2+y,z
1/2-x,1/2+y,1/2-z
1/2-x,1/2-y,-z
1/2+x,1/2-y,1/2+z
loop_
_atom_site_type_symbol
_atom_site_label
_atom_site_fract_x
_atom_site_fract_y
_atom_site_fract_z
Si Si1 0.941699 0.174499 0.495790
Si Si2 0.141357 0.266235 0.233789
Si Si3 0.348700 0.059272 0.139349
Si Si4 0.344289 0.545391 0.661926
Si Si5 0.082398 0.398758 0.387256
Si Si6 0.860710 0.904604 0.803670
Si Si7 0.107497 0.809056 0.396676
O O1 0.749157 0.107040 0.434229
O O2 0.974883 0.181694 0.565145
O O3 0.853426 0.259987 0.452575
O O4 0.197311 0.151646 0.534931
O O5 0.057382 0.185138 0.186302
O O6 0.417538 0.258881 0.316475
O O7 0.000000 0.284833 0.250000
O O8 0.100804 0.339543 0.185517
O O9 0.199422 0.087431 0.151408
O O10 0.630148 0.073045 0.213090
O O11 0.307467 0.964779 0.123773
O O12 0.500000 0.569617 0.750000
O O13 0.419382 0.458719 0.660027
O O14 0.379306 0.604052 0.623173
O O15 0.064752 0.551277 0.606581
#
# Coordination Sequence:
#
# PCOD8153824 Si02
#       7
#     8   8   8   8   8   8   8
#     4  11  25  46  68 104 144 192 230 284 361 424
#     4  12  24  43  73 107 138 179 240 294 346 408
#     4  11  24  45  73  99 140 185 241 284 347 425
#     4  12  24  44  73 103 141 174 241 293 344 407
#     4  12  26  43  74 104 141 185 232 293 347 422
#     4  11  25  43  74 104 135 183 240 295 346 410
#     4  11  24  45  72 101 145 190 233 290 351 423
#
# _framework density 22.694182000000001
#
# number of rings (size 3 to 8) (size 9 to 14) (size 15 to 20)
#    0.000    0.571    5.714    1.714    4.000    0.571 
#    0.000    1.429    0.000    0.000    0.000    0.000 
#    0.000    0.000    0.000    0.000    0.000    0.000 
#
# Total GULP energy -347256.157363 kJ/mol
# GULP energy per Si atom -12402.005620 kJ/mol
# Density = 2.264253 g / cm^3
# Si number density = 22.694182 Si / 1000 Ang^3
#
#
#
# Elastic Constant Matrix: (Units=GPa)
#
#
# Indices 1 2 3 4 5 6 
#
# 1 78.5355 34.7347 14.9729 -0.0002 17.6257 -0.0003
# 2 34.7347 150.8471 42.3687 -0.0001 -7.5033 -0.0001
# 3 14.9729 42.3687 85.4914 0.0008 6.8931 0.0001
# 4 -0.0002 -0.0001 0.0008 24.9367 -0.0002 4.7390
# 5 17.6257 -7.5033 6.8931 -0.0002 26.8133 -0.0002
# 6 -0.0003 -0.0001 0.0001 4.7390 -0.0002 27.7253
#
#
#
# Elastic Compliance Matrix: (Units=1/GPa)
#
#
# Indices 1 2 3 4 5 6 
#
# 1 0.017748 -0.004836 0.000345 0.000000 -0.013109 0.000000
# 2 -0.004836 0.009298 -0.004317 0.000000 0.006890 0.000000
# 3 0.000345 -0.004317 0.014186 0.000000 -0.005082 0.000000
# 4 0.000000 0.000000 0.000000 0.041448 0.000000 -0.007085
# 5 -0.013109 0.006890 -0.005082 0.000000 0.049146 0.000000
# 6 0.000000 0.000000 0.000000 -0.007085 0.000000 0.037279
#
#
# Mechanical properties :
#
#
# Convention : Reuss Voigt Hill
#
# Bulk Modulus (GPa) = 42.34219 55.44740 48.89480
# Shear Modulus (GPa) = 25.69485 30.74824 28.22155
#
# Velocity S-wave (km/s) = 3.36850 3.68488 3.53024
# Velocity P-wave (km/s) = 5.81612 6.52610 6.18131
#
# Compressibility (1/GPa) = 0.02361710
#
# Stress axis : x y z
#
# Youngs Moduli (GPa) = 56.34446 107.55179 70.49394
#
# Poissons Ratio (x) = 0.52009 -0.02433
# Poissons Ratio (y) = 0.27246 0.30429
# Poissons Ratio (z) = -0.01944 0.46425
#
# Static dielectric constant tensor:
#      x y z
#    x 3.919690 0.000000 0.083430 
#    y 0.000000 4.096970 0.000000 
#    z 0.083430 0.000000 4.170710 
# 
# 
# High freq. dielectric constant tensor:
#      x y z
#    x 1.886830 0.000000 0.004340 
#    y 0.000000 1.906950 0.000000 
#    z 0.004340 0.000000 1.889340 
# 
# From -- ./inp_files/289765.got.cif
#   From: 2010.06.25/outbox.cif.g09.slc.cpg/sg15_145_cif.got.tgz:289765.got - 2010.06.28 07:06:18.
