data_PCOD8153925
_publ_section_title
;
Structure prediction by ZEFSAII (Michael W. Deem and Ramdas Pophale) SiO2 
 PCOD8153925
Probable space group: C 2/C
;
_chemical_formula_sum "Si O2"
_cell_formula_units_Z 36
_cell_length_a 11.738868
_cell_length_b 12.033529
_cell_length_c 10.120152
_cell_angle_alpha 90.000000
_cell_angle_beta 74.554108
_cell_angle_gamma 90.000000
_cell_volume 1377.940011
_symmetry_space_group_name_H-M "C 2/C"
_symmetry_group_IT_number 15
_symmetry_cell_setting 'monoclinic'
loop_
_space_group_symop_operation_xyz
x,y,z
-x,y,1/2-z
-x,-y,-z
x,-y,1/2+z
1/2+x,1/2+y,z
1/2-x,1/2+y,1/2-z
1/2-x,1/2-y,-z
1/2+x,1/2-y,1/2+z
loop_
_atom_site_type_symbol
_atom_site_label
_atom_site_fract_x
_atom_site_fract_y
_atom_site_fract_z
Si Si1 0.875261 0.884258 0.133907
Si Si2 0.345653 0.555413 0.363540
Si Si3 0.630239 0.205693 0.756445
Si Si4 0.886229 0.568940 0.495854
Si Si5 0.000000 0.301868 0.750000
O O1 0.733995 0.866832 0.156174
O O2 0.938993 0.768966 0.152239
O O3 0.904503 0.967367 0.245624
O O4 0.923027 0.925149 0.974653
O O5 0.341036 0.666963 0.280337
O O6 0.220627 0.515327 0.455424
O O7 0.500000 0.167924 0.750000
O O8 0.635619 0.179398 0.909868
O O9 0.000000 0.500000 0.500000
O O10 0.899763 0.617744 0.343804
#
# Coordination Sequence:
#
# PCOD8153925 Si02
#       5
#     8   8   8   8   4
#     4  11  27  45  73 110 149 200 249 310 378 450
#     4  11  26  45  76 107 153 196 250 311 382 443
#     4  11  24  46  76 108 149 192 254 308 376 443
#     4  11  26  45  79 111 149 199 257 310 374 448
#     4  12  28  48  76 108 156 194 256 310 378 454
#
# _framework density 26.125955000000001
#
# number of rings (size 3 to 8) (size 9 to 14) (size 15 to 20)
#    0.000    0.889    0.000    4.667   15.556    2.667 
#    0.000    0.000    0.000    0.000    0.000    0.000 
#    0.000    0.000    0.000    0.000    0.000    0.000 
#
# Total GULP energy -223111.687995 kJ/mol
# GULP energy per Si atom -12395.093778 kJ/mol
# Density = 2.606649 g / cm^3
# Si number density = 26.125955 Si / 1000 Ang^3
#
#
#
# Elastic Constant Matrix: (Units=GPa)
#
#
# Indices 1 2 3 4 5 6 
#
# 1 103.5702 35.0515 25.3671 0.0000 -2.9852 0.0000
# 2 35.0515 131.6283 78.0644 0.0000 4.7911 0.0000
# 3 25.3671 78.0644 151.2572 0.0000 -4.0453 0.0000
# 4 0.0000 0.0000 0.0000 35.3452 0.0000 16.0581
# 5 -2.9852 4.7911 -4.0453 0.0000 15.2169 0.0000
# 6 0.0000 0.0000 0.0000 16.0581 0.0000 40.2012
#
#
#
# Elastic Compliance Matrix: (Units=1/GPa)
#
#
# Indices 1 2 3 4 5 6 
#
# 1 0.010757 -0.002806 -0.000278 0.000000 0.002920 0.000000
# 2 -0.002806 0.012069 -0.005917 0.000000 -0.005923 0.000000
# 3 -0.000278 -0.005917 0.009830 0.000000 0.004422 0.000000
# 4 0.000000 0.000000 0.000000 0.034565 0.000000 -0.013807
# 5 0.002920 -0.005923 0.004422 0.000000 0.069330 0.000000
# 6 0.000000 0.000000 0.000000 -0.013807 0.000000 0.030390
#
#
# Mechanical properties :
#
#
# Convention : Reuss Voigt Hill
#
# Bulk Modulus (GPa) = 68.23688 73.71353 70.97520
# Shear Modulus (GPa) = 26.33984 34.68417 30.51201
#
# Velocity S-wave (km/s) = 3.17864 3.64754 3.42113
# Velocity P-wave (km/s) = 6.29657 6.78346 6.54455
#
# Compressibility (1/GPa) = 0.01465483
#
# Stress axis : x y z
#
# Youngs Moduli (GPa) = 92.96146 82.85714 101.73263
#
# Poissons Ratio (x) = 0.23251 0.02825
# Poissons Ratio (y) = 0.26086 0.60192
# Poissons Ratio (z) = 0.02582 0.49024
#
# Static dielectric constant tensor:
#      x y z
#    x 4.634690 0.000000 -0.137690 
#    y 0.000000 4.947750 0.000000 
#    z -0.137690 0.000000 5.199470 
# 
# 
# High freq. dielectric constant tensor:
#      x y z
#    x 2.043400 0.000000 -0.009860 
#    y 0.000000 2.052200 0.000000 
#    z -0.009860 0.000000 2.065610 
# 
# From -- ./inp_files/94372.got.cif
#   From: 2010.06.25/outbox.cif.g09.slc.cpg/sg15_48_cif.got.tgz:94372.got - 2010.06.28 07:06:18.
