data_PCOD8153914
_publ_section_title
;
Structure prediction by ZEFSAII (Michael W. Deem and Ramdas Pophale) SiO2 
 PCOD8153914
Probable space group: C 2/C
;
_chemical_formula_sum "Si O2"
_cell_formula_units_Z 36
_cell_length_a 6.701246
_cell_length_b 27.245162
_cell_length_c 12.428865
_cell_angle_alpha 90.000000
_cell_angle_beta 45.521278
_cell_angle_gamma 90.000000
_cell_volume 1619.112088
_symmetry_space_group_name_H-M "C 2/C"
_symmetry_group_IT_number 15
_symmetry_cell_setting 'monoclinic'
loop_
_space_group_symop_operation_xyz
x,y,z
-x,y,1/2-z
-x,-y,-z
x,-y,1/2+z
1/2+x,1/2+y,z
1/2-x,1/2+y,1/2-z
1/2-x,1/2-y,-z
1/2+x,1/2-y,1/2+z
loop_
_atom_site_type_symbol
_atom_site_label
_atom_site_fract_x
_atom_site_fract_y
_atom_site_fract_z
Si Si1 0.000000 0.905467 0.750000
Si Si2 0.539859 0.227842 0.855801
Si Si3 0.416821 0.144127 0.492841
Si Si4 0.307823 0.511838 0.171120
Si Si5 0.500000 0.197847 0.250000
Si Si6 0.000000 0.930964 0.250000
O O1 0.261244 0.871741 0.619550
O O2 0.073384 0.938713 0.823391
O O3 0.500000 0.207708 0.750000
O O4 0.772780 0.270140 0.772350
O O5 0.250000 0.250000 0.000000
O O6 0.642074 0.184391 0.893892
O O7 0.351785 0.164773 0.397826
O O8 0.201183 0.100047 0.595957
O O9 0.299385 0.465760 0.255243
O O10 0.000000 0.524163 0.250000
O O11 0.500000 0.500000 0.000000
#
# Coordination Sequence:
#
# PCOD8153914 Si02
#       6
#     4   8   8   8   4   4
#     4  11  26  46  67 108 138 182 235 280 348 429
#     4  12  26  48  70 100 140 188 238 292 357 412
#     4  12  26  45  74 104 144 184 241 292 345 425
#     4  11  24  46  73  97 145 185 222 288 360 411
#     4  12  27  48  71 100 146 194 233 292 359 420
#     4  11  27  44  66 114 136 176 244 290 341 419
#
# _framework density 22.23441
#
# number of rings (size 3 to 8) (size 9 to 14) (size 15 to 20)
#    0.000    0.444    2.222    5.333    7.778    6.222 
#    0.000    0.000    0.000    0.000    0.000    0.000 
#    0.000    0.000    0.000    0.000    0.000    0.000 
#
# Total GULP energy -223335.090572 kJ/mol
# GULP energy per Si atom -12407.505032 kJ/mol
# Density = 2.218380 g / cm^3
# Si number density = 22.234410 Si / 1000 Ang^3
#
#
#
# Elastic Constant Matrix: (Units=GPa)
#
#
# Indices 1 2 3 4 5 6 
#
# 1 104.9424 26.3887 29.9678 0.0000 11.8207 0.0000
# 2 26.3887 94.9824 27.2610 0.0000 15.0994 0.0000
# 3 29.9678 27.2610 112.0501 0.0000 18.9015 0.0000
# 4 0.0000 0.0000 0.0000 47.6532 0.0000 -5.7803
# 5 11.8207 15.0994 18.9015 0.0000 57.4196 0.0000
# 6 0.0000 0.0000 0.0000 -5.7803 0.0000 18.7188
#
#
#
# Elastic Compliance Matrix: (Units=1/GPa)
#
#
# Indices 1 2 3 4 5 6 
#
# 1 0.010820 -0.002230 -0.002197 0.000000 -0.000918 0.000000
# 2 -0.002230 0.012045 -0.001988 0.000000 -0.002054 0.000000
# 3 -0.002197 -0.001988 0.010409 0.000000 -0.002452 0.000000
# 4 0.000000 0.000000 0.000000 0.021802 0.000000 0.006732
# 5 -0.000918 -0.002054 -0.002452 0.000000 0.018952 0.000000
# 6 0.000000 0.000000 0.000000 0.006732 0.000000 0.055501
#
#
# Mechanical properties :
#
#
# Convention : Reuss Voigt Hill
#
# Bulk Modulus (GPa) = 48.90807 53.24554 51.07681
# Shear Modulus (GPa) = 33.51833 39.98216 36.75024
#
# Velocity S-wave (km/s) = 3.88686 4.24513 4.06994
# Velocity P-wave (km/s) = 6.49522 6.93019 6.71623
#
# Compressibility (1/GPa) = 0.02044652
#
# Stress axis : x y z
#
# Youngs Moduli (GPa) = 92.41793 83.02372 96.06923
#
# Poissons Ratio (x) = 0.18513 0.21102
# Poissons Ratio (y) = 0.20608 0.19094
# Poissons Ratio (z) = 0.20300 0.16501
#
# Static dielectric constant tensor:
#      x y z
#    x 1.803870 0.000000 -1.542920 
#    y 0.000000 4.359840 0.000000 
#    z -1.542920 0.000000 2.994310 
# 
# 
# High freq. dielectric constant tensor:
#      x y z
#    x 1.885140 0.000000 0.002850 
#    y 0.000000 1.887970 0.000000 
#    z 0.002850 0.000000 1.890430 
# 
# From -- ./inp_files/73563.got.cif
#   From: 2010.06.25/outbox.cif.g09.slc.cpg/sg15_37_cif.got.tgz:73563.got - 2010.06.28 07:06:18.
