data_PCOD8153421
_publ_section_title
;
Structure prediction by ZEFSAII (Michael W. Deem and Ramdas Pophale) SiO2 
 PCOD8153421
Probable space group: C 2/C
;
_chemical_formula_sum "Si O2"
_cell_formula_units_Z 44
_cell_length_a 9.309328
_cell_length_b 28.061409
_cell_length_c 7.730358
_cell_angle_alpha 90.000000
_cell_angle_beta 108.443840
_cell_angle_gamma 90.000000
_cell_volume 1915.694257
_symmetry_space_group_name_H-M "C 2/C"
_symmetry_group_IT_number 15
_symmetry_cell_setting 'monoclinic'
loop_
_space_group_symop_operation_xyz
x,y,z
-x,y,1/2-z
-x,-y,-z
x,-y,1/2+z
1/2+x,1/2+y,z
1/2-x,1/2+y,1/2-z
1/2-x,1/2-y,-z
1/2+x,1/2-y,1/2+z
loop_
_atom_site_type_symbol
_atom_site_label
_atom_site_fract_x
_atom_site_fract_y
_atom_site_fract_z
Si Si1 0.167383 0.055841 0.767719
Si Si2 0.731446 0.619153 0.233797
Si Si3 0.574389 0.745621 0.467571
Si Si4 0.919793 0.140509 0.974558
Si Si5 0.000000 0.685739 0.250000
Si Si6 0.828411 0.475336 0.660109
O O1 0.165912 0.111550 0.709177
O O2 0.000000 0.038016 0.750000
O O3 0.221433 0.021310 0.633848
O O4 0.293384 0.049845 0.964135
O O5 0.687608 0.642033 0.399100
O O6 0.796312 0.565945 0.290205
O O7 0.851293 0.652907 0.182678
O O8 0.579416 0.613295 0.060895
O O9 0.500000 0.749573 0.250000
O O10 0.750000 0.750000 0.500000
O O11 0.543149 0.695321 0.552224
O O12 0.505803 0.784026 0.574608
O O13 0.000000 0.492118 0.750000
#
# Coordination Sequence:
#
# PCOD8153421 Si02
#       6
#     8   8   8   8   4   8
#     4  12  26  44  73 106 137 198 248 297 369 456
#     4  11  23  46  71 103 148 191 238 312 365 444
#     4  12  26  49  76 113 154 199 252 314 375 450
#     4  11  24  46  69 103 148 188 248 304 364 442
#     4  12  26  46  78 114 154 200 252 310 390 438
#     4  12  26  46  70 104 147 186 244 309 379 435
#
# _framework density 22.968174999999999
#
# number of rings (size 3 to 8) (size 9 to 14) (size 15 to 20)
#    0.000    0.364    6.364    2.182    3.818    4.364 
#    0.000    0.909    0.000    0.000    0.000    0.000 
#    0.000    0.000    0.000    0.000    0.000    0.000 
#
# Total GULP energy -272792.676548 kJ/mol
# GULP energy per Si atom -12399.667116 kJ/mol
# Density = 2.291590 g / cm^3
# Si number density = 22.968175 Si / 1000 Ang^3
#
#
#
# Elastic Constant Matrix: (Units=GPa)
#
#
# Indices 1 2 3 4 5 6 
#
# 1 147.2454 42.8862 42.7584 0.0000 6.2545 0.0000
# 2 42.8862 104.2512 32.3413 0.0000 -3.6131 0.0000
# 3 42.7584 32.3413 129.0650 0.0000 9.4868 0.0000
# 4 0.0000 0.0000 0.0000 35.2527 0.0000 -4.3444
# 5 6.2545 -3.6131 9.4868 0.0000 29.6160 0.0000
# 6 0.0000 0.0000 0.0000 -4.3444 0.0000 40.0699
#
#
#
# Elastic Compliance Matrix: (Units=1/GPa)
#
#
# Indices 1 2 3 4 5 6 
#
# 1 0.008237 -0.002848 -0.001907 0.000000 -0.001476 0.000000
# 2 -0.002848 0.011522 -0.002141 0.000000 0.002693 0.000000
# 3 -0.001907 -0.002141 0.009121 0.000000 -0.002780 0.000000
# 4 0.000000 0.000000 0.000000 0.028751 0.000000 0.003117
# 5 -0.001476 0.002693 -0.002780 0.000000 0.035296 0.000000
# 6 0.000000 0.000000 0.000000 0.003117 0.000000 0.025294
#
#
# Mechanical properties :
#
#
# Convention : Reuss Voigt Hill
#
# Bulk Modulus (GPa) = 66.28344 68.50369 67.39356
# Shear Modulus (GPa) = 36.48490 38.49277 37.48883
#
# Velocity S-wave (km/s) = 3.98992 4.09824 4.04444
# Velocity P-wave (km/s) = 7.08148 7.23079 7.15653
#
# Compressibility (1/GPa) = 0.01508673
#
# Stress axis : x y z
#
# Youngs Moduli (GPa) = 121.39788 86.79359 109.64086
#
# Poissons Ratio (x) = 0.24721 0.20906
# Poissons Ratio (y) = 0.34578 0.23479
# Poissons Ratio (z) = 0.23148 0.18586
#
# Static dielectric constant tensor:
#      x y z
#    x 4.234300 0.000000 -0.108830 
#    y 0.000000 4.450220 0.000000 
#    z -0.108830 0.000000 3.912290 
# 
# 
# High freq. dielectric constant tensor:
#      x y z
#    x 1.917490 0.000000 -0.004730 
#    y 0.000000 1.920720 0.000000 
#    z -0.004730 0.000000 1.896820 
# 
# From -- ./inp_files/25715.got.cif
#   From: 2010.06.25/outbox.cif.g09.slc.cpg/sg15_13_cif.got.tgz:25715.got - 2010.06.28 07:06:18.
