data_PCOD8153313
_publ_section_title
;
Structure prediction by ZEFSAII (Michael W. Deem and Ramdas Pophale) SiO2 
 PCOD8153313
Probable space group: C 2/C
;
_chemical_formula_sum "Si O2"
_cell_formula_units_Z 56
_cell_length_a 16.231482
_cell_length_b 17.497978
_cell_length_c 21.131471
_cell_angle_alpha 90.000000
_cell_angle_beta 26.667534
_cell_angle_gamma 90.000000
_cell_volume 2693.648456
_symmetry_space_group_name_H-M "C 2/C"
_symmetry_group_IT_number 15
_symmetry_cell_setting 'monoclinic'
loop_
_space_group_symop_operation_xyz
x,y,z
-x,y,1/2-z
-x,-y,-z
x,-y,1/2+z
1/2+x,1/2+y,z
1/2-x,1/2+y,1/2-z
1/2-x,1/2-y,-z
1/2+x,1/2-y,1/2+z
loop_
_atom_site_type_symbol
_atom_site_label
_atom_site_fract_x
_atom_site_fract_y
_atom_site_fract_z
Si Si1 0.595339 0.839371 0.882001
Si Si2 0.463821 0.400030 0.601994
Si Si3 0.493823 0.443911 0.150167
Si Si4 0.945663 0.595374 0.952174
Si Si5 0.799492 0.561464 0.539031
Si Si6 0.367952 0.319298 0.896403
Si Si7 0.840016 0.839836 0.154371
O O1 0.755835 0.875440 0.728278
O O2 0.624451 0.750086 0.874447
O O3 0.593270 0.884015 0.949224
O O4 0.402164 0.857306 0.979213
O O5 0.487641 0.488457 0.603139
O O6 0.510908 0.348576 0.629689
O O7 0.591008 0.381844 0.455531
O O8 0.343337 0.457255 0.307284
O O9 0.694651 0.435431 0.043775
O O10 0.446493 0.367540 0.143834
O O11 0.124661 0.640368 0.805783
O O12 0.958540 0.503822 0.933462
O O13 0.766778 0.614331 0.033712
O O14 0.500000 0.290907 0.750000
O O15 0.250000 0.250000 0.000000
#
# Coordination Sequence:
#
# PCOD8153313 Si02
#       7
#     8   8   8   8   8   8   8
#     4  12  23  43  70  99 129 180 224 271 325 400
#     4  12  25  43  65  96 142 169 219 278 332 395
#     4  11  23  46  69 100 131 176 224 277 328 395
#     4  12  23  44  68  98 132 177 228 264 328 411
#     4  11  23  44  75  96 127 179 232 268 324 403
#     4  12  24  39  64  98 139 177 218 278 334 398
#     4  12  27  42  67 102 136 173 219 278 341 385
#
# _framework density 20.789646999999999
#
# number of rings (size 3 to 8) (size 9 to 14) (size 15 to 20)
#    0.000    0.286    5.714    4.286    2.000    0.571 
#    0.000    2.143    0.000    0.000    0.000    0.000 
#    0.000    0.000    0.000    0.000    0.000    0.000 
#
# Total GULP energy -347280.441425 kJ/mol
# GULP energy per Si atom -12402.872908 kJ/mol
# Density = 2.074233 g / cm^3
# Si number density = 20.789647 Si / 1000 Ang^3
#
#
#
# Elastic Constant Matrix: (Units=GPa)
#
#
# Indices 1 2 3 4 5 6 
#
# 1 95.2366 31.8334 31.9193 -0.0057 -11.3630 -0.0005
# 2 31.8334 61.1341 34.7858 -0.0079 -17.3563 -0.0013
# 3 31.9193 34.7858 108.2963 -0.0257 -5.0456 0.0132
# 4 -0.0057 -0.0079 -0.0257 32.1016 0.0132 -8.5830
# 5 -11.3630 -17.3563 -5.0456 0.0132 34.1915 -0.0018
# 6 -0.0005 -0.0013 0.0132 -8.5830 -0.0018 17.5903
#
#
#
# Elastic Compliance Matrix: (Units=1/GPa)
#
#
# Indices 1 2 3 4 5 6 
#
# 1 0.013127 -0.005231 -0.002124 -0.000001 0.001394 0.000001
# 2 -0.005231 0.025521 -0.006176 -0.000002 0.010305 0.000006
# 3 -0.002124 -0.006176 0.011745 0.000007 -0.002107 -0.000006
# 4 -0.000001 -0.000002 0.000007 0.035825 -0.000013 0.017481
# 5 0.001394 0.010305 -0.002107 -0.000013 0.034630 -0.000001
# 6 0.000001 0.000006 -0.000006 0.017481 -0.000001 0.065379
#
#
# Mechanical properties :
#
#
# Convention : Reuss Voigt Hill
#
# Bulk Modulus (GPa) = 42.85951 51.30489 47.08220
# Shear Modulus (GPa) = 22.61766 27.85190 25.23478
#
# Velocity S-wave (km/s) = 3.30195 3.66416 3.48776
# Velocity P-wave (km/s) = 5.93277 6.52940 6.23822
#
# Compressibility (1/GPa) = 0.02333204
#
# Stress axis : x y z
#
# Youngs Moduli (GPa) = 76.18003 39.18320 85.13982
#
# Poissons Ratio (x) = 0.20498 0.18082
# Poissons Ratio (y) = 0.39852 0.52580
# Poissons Ratio (z) = 0.16179 0.24198
#
# Static dielectric constant tensor:
#      x y z
#    x 3.986090 0.000060 -0.123360 
#    y 0.000060 4.843550 0.000100 
#    z -0.123360 0.000100 3.782970 
# 
# 
# High freq. dielectric constant tensor:
#      x y z
#    x 1.814950 0.000000 -0.009170 
#    y 0.000000 1.817280 0.000010 
#    z -0.009170 0.000010 1.819110 
# 
# From -- ./inp_files/48990.got.cif
#   From: 2010.06.25/outbox.cif.g09.slc.cpg/sg15_25_cif.got.tgz:48990.got - 2010.06.28 07:06:18.
