data_PCOD8153142
_publ_section_title
;
Structure prediction by ZEFSAII (Michael W. Deem and Ramdas Pophale) SiO2 
 PCOD8153142
Probable space group: C 2/C
;
_chemical_formula_sum "Si O2"
_cell_formula_units_Z 56
_cell_length_a 19.600002
_cell_length_b 14.657717
_cell_length_c 16.514001
_cell_angle_alpha 90.000000
_cell_angle_beta 148.758181
_cell_angle_gamma 90.000000
_cell_volume 2460.651607
_symmetry_space_group_name_H-M "C 2/C"
_symmetry_group_IT_number 15
_symmetry_cell_setting 'monoclinic'
loop_
_space_group_symop_operation_xyz
x,y,z
-x,y,1/2-z
-x,-y,-z
x,-y,1/2+z
1/2+x,1/2+y,z
1/2-x,1/2+y,1/2-z
1/2-x,1/2-y,-z
1/2+x,1/2-y,1/2+z
loop_
_atom_site_type_symbol
_atom_site_label
_atom_site_fract_x
_atom_site_fract_y
_atom_site_fract_z
Si Si1 0.842920 0.256439 0.788695
Si Si2 0.618692 0.526885 0.177230
Si Si3 0.875966 0.115305 0.681158
Si Si4 0.099265 0.233487 0.147388
Si Si5 0.640934 0.985437 0.864272
Si Si6 0.366280 0.030948 0.323907
Si Si7 0.134753 0.312152 0.352102
O O1 0.852857 0.204467 0.712941
O O2 0.697972 0.236138 0.676210
O O3 0.863710 0.362988 0.798335
O O4 0.952278 0.224719 0.963672
O O5 0.595922 0.472909 0.236481
O O6 0.631764 0.632740 0.213047
O O7 0.752261 0.496730 0.267987
O O8 0.500000 0.500000 0.000000
O O9 0.000000 0.135413 0.750000
O O10 0.748351 0.090172 0.498121
O O11 0.118413 0.307091 0.237890
O O12 0.500000 0.946023 0.750000
O O13 0.660656 0.087905 0.918937
O O14 0.648493 0.013621 0.778171
O O15 0.500000 0.000000 0.500000
O O16 0.250000 0.250000 0.500000
O O17 0.000000 0.271369 0.250000
#
# Coordination Sequence:
#
# PCOD8153142 Si02
#       7
#     8   8   8   8   8   8   8
#     4  11  27  43  70 105 138 185 240 289 354 424
#     4  11  23  43  68 100 137 182 236 285 348 422
#     4  12  27  46  70 105 148 189 237 293 361 432
#     4  11  24  44  70 104 141 184 242 295 354 428
#     4  11  26  44  67 102 142 186 232 289 357 426
#     4  11  25  45  72  98 132 184 238 287 345 419
#     4  11  24  42  69 105 142 180 237 301 363 423
#
# _framework density 22.758199000000001
#
# number of rings (size 3 to 8) (size 9 to 14) (size 15 to 20)
#    0.000    0.857    1.429    4.286    8.000   10.286 
#    0.000    0.000    0.000    0.000    0.000    0.000 
#    0.000    0.000    0.000    0.000    0.000    0.000 
#
# Total GULP energy -347199.734433 kJ/mol
# GULP energy per Si atom -12399.990515 kJ/mol
# Density = 2.270640 g / cm^3
# Si number density = 22.758199 Si / 1000 Ang^3
#
#
#
# Elastic Constant Matrix: (Units=GPa)
#
#
# Indices 1 2 3 4 5 6 
#
# 1 121.6837 44.6510 32.8077 -0.0002 7.9585 -0.0002
# 2 44.6510 88.4546 29.1513 -0.0001 10.5751 -0.0001
# 3 32.8077 29.1513 140.3888 -0.0002 8.6244 -0.0002
# 4 -0.0002 -0.0001 -0.0002 27.2685 -0.0001 -7.0896
# 5 7.9585 10.5751 8.6244 -0.0001 44.7628 -0.0001
# 6 -0.0002 -0.0001 -0.0002 -7.0896 -0.0001 42.4294
#
#
#
# Elastic Compliance Matrix: (Units=1/GPa)
#
#
# Indices 1 2 3 4 5 6 
#
# 1 0.010357 -0.004707 -0.001415 0.000000 -0.000457 0.000000
# 2 -0.004707 0.014538 -0.001780 0.000000 -0.002255 0.000000
# 3 -0.001415 -0.001780 0.007875 0.000000 -0.000845 0.000000
# 4 0.000000 0.000000 0.000000 0.038338 0.000000 0.006406
# 5 -0.000457 -0.002255 -0.000845 0.000000 0.023117 0.000000
# 6 0.000000 0.000000 0.000000 0.006406 0.000000 0.024639
#
#
# Mechanical properties :
#
#
# Convention : Reuss Voigt Hill
#
# Bulk Modulus (GPa) = 58.94357 62.63856 60.79107
# Shear Modulus (GPa) = 35.63239 39.15329 37.39284
#
# Velocity S-wave (km/s) = 3.96118 4.15227 4.05785
# Velocity P-wave (km/s) = 6.84671 7.11138 6.98030
#
# Compressibility (1/GPa) = 0.01696538
#
# Stress axis : x y z
#
# Youngs Moduli (GPa) = 96.55723 68.78757 126.97974
#
# Poissons Ratio (x) = 0.32378 0.17965
# Poissons Ratio (y) = 0.45450 0.22605
# Poissons Ratio (z) = 0.13661 0.12245
#
# Static dielectric constant tensor:
#      x y z
#    x 4.087680 0.000000 0.050390 
#    y 0.000000 3.876140 0.000000 
#    z 0.050390 0.000000 3.169900 
# 
# 
# High freq. dielectric constant tensor:
#      x y z
#    x 1.905100 0.000000 0.005270 
#    y 0.000000 1.909420 0.000000 
#    z 0.005270 0.000000 1.905360 
# 
# From -- ./inp_files/215781.got.cif
#   From: 2010.06.25/outbox.cif.g09.slc.cpg/sg15_108_cif.got.tgz:215781.got - 2010.06.28 07:06:18.
