data_PCOD8153129
_publ_section_title
;
Structure prediction by ZEFSAII (Michael W. Deem and Ramdas Pophale) SiO2 
 PCOD8153129
Probable space group: C 2/C
;
_chemical_formula_sum "Si O2"
_cell_formula_units_Z 44
_cell_length_a 17.271199
_cell_length_b 5.313269
_cell_length_c 18.426614
_cell_angle_alpha 90.000000
_cell_angle_beta 91.100287
_cell_angle_gamma 90.000000
_cell_volume 1690.634574
_symmetry_space_group_name_H-M "C 2/C"
_symmetry_group_IT_number 15
_symmetry_cell_setting 'monoclinic'
loop_
_space_group_symop_operation_xyz
x,y,z
-x,y,1/2-z
-x,-y,-z
x,-y,1/2+z
1/2+x,1/2+y,z
1/2-x,1/2+y,1/2-z
1/2-x,1/2-y,-z
1/2+x,1/2-y,1/2+z
loop_
_atom_site_type_symbol
_atom_site_label
_atom_site_fract_x
_atom_site_fract_y
_atom_site_fract_z
Si Si1 0.973315 0.177870 0.868563
Si Si2 0.131253 0.037138 0.389814
Si Si3 0.862570 0.866760 0.773057
Si Si4 0.157519 0.301763 0.531857
Si Si5 0.500000 0.987209 0.250000
Si Si6 0.765492 0.800831 0.905291
O O1 0.026953 0.365871 0.822901
O O2 0.929794 0.280731 0.938544
O O3 0.037454 0.972812 0.892834
O O4 0.906028 0.103197 0.810074
O O5 0.163638 0.100862 0.310285
O O6 0.154081 0.261721 0.445044
O O7 0.174710 0.773673 0.411586
O O8 0.788956 0.791149 0.820607
O O9 0.926444 0.654598 0.778486
O O10 0.188896 0.579718 0.550101
O O11 0.213348 0.075158 0.562058
#
# Coordination Sequence:
#
# PCOD8153129 Si02
#       6
#     8   8   8   8   4   8
#     4  11  23  43  67 100 139 180 234 289 344 413
#     4  12  24  45  72 105 136 183 238 287 346 415
#     4  11  24  43  67 102 138 179 234 289 345 412
#     4  11  26  49  69 102 145 187 227 288 350 415
#     4  12  18  40  72  92 138 178 230 286 348 396
#     4  11  27  48  69 102 146 185 227 289 351 413
#
# _framework density 26.025732000000001
#
# number of rings (size 3 to 8) (size 9 to 14) (size 15 to 20)
#    0.000    0.727    5.455    1.636    0.000    7.273 
#    0.000    3.636    0.000    0.000    0.000    0.000 
#    0.000    0.000    0.000    0.000    0.000    0.000 
#
# Total GULP energy -272548.673433 kJ/mol
# GULP energy per Si atom -12388.576065 kJ/mol
# Density = 2.596650 g / cm^3
# Si number density = 26.025732 Si / 1000 Ang^3
#
#
#
# Elastic Constant Matrix: (Units=GPa)
#
#
# Indices 1 2 3 4 5 6 
#
# 1 78.6860 -10.2451 19.5523 0.0000 -0.6144 0.0000
# 2 -10.2451 81.5589 13.6918 0.0000 21.5439 0.0000
# 3 19.5523 13.6918 147.7588 0.0000 10.7260 0.0000
# 4 0.0000 0.0000 0.0000 36.3302 0.0000 -8.5442
# 5 -0.6144 21.5439 10.7260 0.0000 15.0197 0.0000
# 6 0.0000 0.0000 0.0000 -8.5442 0.0000 24.9596
#
#
#
# Elastic Compliance Matrix: (Units=1/GPa)
#
#
# Indices 1 2 3 4 5 6 
#
# 1 0.013483 0.002429 -0.001895 0.000000 -0.001580 0.000000
# 2 0.002429 0.020186 -0.000103 0.000000 -0.028782 0.000000
# 3 -0.001895 -0.000103 0.007407 0.000000 -0.005220 0.000000
# 4 0.000000 0.000000 0.000000 0.029935 0.000000 0.010247
# 5 -0.001580 -0.028782 -0.005220 0.000000 0.111526 0.000000
# 6 0.000000 0.000000 0.000000 0.010247 0.000000 0.043573
#
#
# Mechanical properties :
#
#
# Convention : Reuss Voigt Hill
#
# Bulk Modulus (GPa) = 23.84348 39.33353 31.58851
# Shear Modulus (GPa) = 20.90060 34.26221 27.58140
#
# Velocity S-wave (km/s) = 2.83693 3.63226 3.25895
# Velocity P-wave (km/s) = 4.46232 5.72165 5.13077
#
# Compressibility (1/GPa) = 0.04194018
#
# Stress axis : x y z
#
# Youngs Moduli (GPa) = 74.16490 49.53872 135.00893
#
# Poissons Ratio (x) = -0.12033 0.25579
# Poissons Ratio (y) = -0.18015 0.01385
# Poissons Ratio (z) = 0.14052 0.00508
#
# Static dielectric constant tensor:
#      x y z
#    x 4.969810 0.000000 -0.211340 
#    y 0.000000 4.591550 0.000000 
#    z -0.211340 0.000000 4.941070 
# 
# 
# High freq. dielectric constant tensor:
#      x y z
#    x 2.048410 0.000000 -0.019580 
#    y 0.000000 2.032910 0.000000 
#    z -0.019580 0.000000 2.057570 
# 
# From -- ./inp_files/246511.got.cif
#   From: 2010.06.25/outbox.cif.g09.slc.cpg/sg15_124_cif.got.tgz:246511.got - 2010.06.28 07:06:18.
