data_PCOD8153913
_publ_section_title
;
Structure prediction by ZEFSAII (Michael W. Deem and Ramdas Pophale) SiO2 
 PCOD8153913
Probable space group: C 2/C
;
_chemical_formula_sum "Si O2"
_cell_formula_units_Z 48
_cell_length_a 8.624750
_cell_length_b 22.558266
_cell_length_c 11.765694
_cell_angle_alpha 90.000000
_cell_angle_beta 105.035367
_cell_angle_gamma 90.000000
_cell_volume 2210.760194
_symmetry_space_group_name_H-M "C 2/C"
_symmetry_group_IT_number 15
_symmetry_cell_setting 'monoclinic'
loop_
_space_group_symop_operation_xyz
x,y,z
-x,y,1/2-z
-x,-y,-z
x,-y,1/2+z
1/2+x,1/2+y,z
1/2-x,1/2+y,1/2-z
1/2-x,1/2-y,-z
1/2+x,1/2-y,1/2+z
loop_
_atom_site_type_symbol
_atom_site_label
_atom_site_fract_x
_atom_site_fract_y
_atom_site_fract_z
Si Si1 0.664626 0.871378 0.339675
Si Si2 0.958651 0.789094 0.366985
Si Si3 0.172352 0.906160 0.740940
Si Si4 0.813496 0.040185 0.712552
Si Si5 0.580910 0.162409 0.071529
Si Si6 0.273040 0.378935 0.997208
O O1 0.500000 0.851068 0.250000
O O2 0.801076 0.827996 0.321502
O O3 0.719259 0.936645 0.306851
O O4 0.647391 0.869652 0.471545
O O5 0.913179 0.733719 0.438904
O O6 0.000000 0.764551 0.250000
O O7 0.104769 0.826788 0.446220
O O8 0.307279 0.859610 0.804388
O O9 0.162052 0.911285 0.602916
O O10 0.000000 0.883178 0.750000
O O11 0.213189 0.970202 0.801793
O O12 0.743177 0.072113 0.588258
O O13 0.000000 0.057400 0.750000
O O14 0.398318 0.148065 0.064130
#
# Coordination Sequence:
#
# PCOD8153913 Si02
#       6
#     8   8   8   8   8   8
#     4  12  23  43  68 104 130 181 238 279 343 407
#     4  12  23  45  71  98 141 184 232 281 343 413
#     4  11  28  44  69 104 140 180 230 289 344 404
#     4  11  24  46  73  96 133 187 232 285 340 412
#     4  12  27  43  67 106 142 180 228 288 343 407
#     4  12  23  47  71 100 137 185 230 275 356 403
#
# _framework density 21.711988000000002
#
# number of rings (size 3 to 8) (size 9 to 14) (size 15 to 20)
#    0.000    0.333    5.000    3.500    2.333    5.333 
#    0.000    0.000    0.000    0.000    0.000    0.000 
#    0.000    0.000    0.000    0.000    0.000    0.000 
#
# Total GULP energy -297728.553539 kJ/mol
# GULP energy per Si atom -12405.356397 kJ/mol
# Density = 2.166257 g / cm^3
# Si number density = 21.711988 Si / 1000 Ang^3
#
#
#
# Elastic Constant Matrix: (Units=GPa)
#
#
# Indices 1 2 3 4 5 6 
#
# 1 133.3565 44.5271 32.3584 0.0000 15.8229 0.0000
# 2 44.5271 109.2074 40.1905 0.0000 14.3126 0.0000
# 3 32.3584 40.1905 104.2942 0.0000 -7.0096 0.0000
# 4 0.0000 0.0000 0.0000 24.6708 0.0000 -5.9196
# 5 15.8229 14.3126 -7.0096 0.0000 48.9047 0.0000
# 6 0.0000 0.0000 0.0000 -5.9196 0.0000 22.1754
#
#
#
# Elastic Compliance Matrix: (Units=1/GPa)
#
#
# Indices 1 2 3 4 5 6 
#
# 1 0.009168 -0.002689 -0.001974 0.000000 -0.002462 0.000000
# 2 -0.002689 0.012186 -0.004082 0.000000 -0.003281 0.000000
# 3 -0.001974 -0.004082 0.012013 0.000000 0.003555 0.000000
# 4 0.000000 0.000000 0.000000 0.043308 0.000000 0.011561
# 5 -0.002462 -0.003281 0.003555 0.000000 0.022714 0.000000
# 6 0.000000 0.000000 0.000000 0.011561 0.000000 0.048181
#
#
# Mechanical properties :
#
#
# Convention : Reuss Voigt Hill
#
# Bulk Modulus (GPa) = 62.98606 64.55668 63.77137
# Shear Modulus (GPa) = 29.35129 34.46898 31.91014
#
# Velocity S-wave (km/s) = 3.68074 3.98874 3.83783
# Velocity P-wave (km/s) = 6.86561 7.14221 7.00527
#
# Compressibility (1/GPa) = 0.01587653
#
# Stress axis : x y z
#
# Youngs Moduli (GPa) = 109.08087 82.06435 83.24600
#
# Poissons Ratio (x) = 0.22066 0.16430
# Poissons Ratio (y) = 0.29330 0.33982
# Poissons Ratio (z) = 0.21528 0.33499
#
# Static dielectric constant tensor:
#      x y z
#    x 4.148790 0.000000 -0.046090 
#    y 0.000000 3.777720 0.000000 
#    z -0.046090 0.000000 3.891150 
# 
# 
# High freq. dielectric constant tensor:
#      x y z
#    x 1.872950 0.000000 -0.002020 
#    y 0.000000 1.847460 0.000000 
#    z -0.002020 0.000000 1.858010 
# 
# From -- ./inp_files/79108.got.cif
#   From: 2010.06.25/outbox.cif.g09.slc.cpg/sg15_40_cif.got.tgz:79108.got - 2010.06.28 07:06:18.
