data_PCOD8153572
_publ_section_title
;
Structure prediction by ZEFSAII (Michael W. Deem and Ramdas Pophale) SiO2 
 PCOD8153572
Probable space group: C 2/C
;
_chemical_formula_sum "Si O2"
_cell_formula_units_Z 56
_cell_length_a 27.258211
_cell_length_b 6.367842
_cell_length_c 16.981948
_cell_angle_alpha 90.000000
_cell_angle_beta 119.081442
_cell_angle_gamma 90.000000
_cell_volume 2576.046118
_symmetry_space_group_name_H-M "C 2/C"
_symmetry_group_IT_number 15
_symmetry_cell_setting 'monoclinic'
loop_
_space_group_symop_operation_xyz
x,y,z
-x,y,1/2-z
-x,-y,-z
x,-y,1/2+z
1/2+x,1/2+y,z
1/2-x,1/2+y,1/2-z
1/2-x,1/2-y,-z
1/2+x,1/2-y,1/2+z
loop_
_atom_site_type_symbol
_atom_site_label
_atom_site_fract_x
_atom_site_fract_y
_atom_site_fract_z
Si Si1 0.527305 0.189003 0.975310
Si Si2 0.824054 0.737374 0.878423
Si Si3 0.806048 0.207965 0.089479
Si Si4 0.114433 0.482194 0.932132
Si Si5 0.923751 0.020307 0.373131
Si Si6 0.865976 0.182843 0.687373
Si Si7 0.714943 0.006443 0.292037
O O1 0.480966 0.349823 0.907212
O O2 0.558977 0.077519 0.927902
O O3 0.569285 0.317826 0.064879
O O4 0.500000 0.000000 0.000000
O O5 0.876464 0.830023 0.871874
O O6 0.778412 0.918879 0.858709
O O7 0.793944 0.549939 0.806390
O O8 0.845190 0.638508 0.975861
O O9 0.855375 0.320416 0.081691
O O10 0.797645 0.294028 0.170711
O O11 0.821863 0.964050 0.106567
O O12 0.750000 0.250000 0.000000
O O13 0.099755 0.319421 0.850161
O O14 0.909473 0.949732 0.273339
O O15 0.829782 0.319374 0.719164
#
# Coordination Sequence:
#
# PCOD8153572 Si02
#       7
#     8   8   8   8   8   8   8
#     4  11  25  48  74 104 130 181 241 299 344 400
#     4  12  23  43  72 104 139 186 233 287 348 416
#     4  11  24  42  67 100 145 183 223 279 348 424
#     4  11  26  42  72 100 141 183 230 286 348 413
#     4  11  25  45  77  96 141 181 238 294 349 408
#     4  11  24  47  67 103 145 186 226 285 354 424
#     4  11  25  40  66 107 140 183 229 281 343 425
#
# _framework density 21.73874
#
# number of rings (size 3 to 8) (size 9 to 14) (size 15 to 20)
#    0.000    0.857    2.857    3.429    6.000    2.286 
#    0.000    4.286    0.000    0.000    0.000    0.000 
#    0.000    0.000    0.000    0.000    0.000    0.000 
#
# Total GULP energy -347299.618633 kJ/mol
# GULP energy per Si atom -12403.557808 kJ/mol
# Density = 2.168926 g / cm^3
# Si number density = 21.738740 Si / 1000 Ang^3
#
#
#
# Elastic Constant Matrix: (Units=GPa)
#
#
# Indices 1 2 3 4 5 6 
#
# 1 105.0323 32.1447 25.3490 0.0000 -9.5497 0.0000
# 2 32.1447 97.7772 17.7372 0.0001 -5.9268 -0.0001
# 3 25.3490 17.7372 79.7886 0.0000 -1.9200 0.0000
# 4 0.0000 0.0001 0.0000 27.8307 0.0000 15.9949
# 5 -9.5497 -5.9268 -1.9200 0.0000 32.1059 0.0000
# 6 0.0000 -0.0001 0.0000 15.9949 0.0000 22.1894
#
#
#
# Elastic Compliance Matrix: (Units=1/GPa)
#
#
# Indices 1 2 3 4 5 6 
#
# 1 0.011393 -0.003063 -0.002875 0.000000 0.002651 0.000000
# 2 -0.003063 0.011589 -0.001576 0.000000 0.001134 0.000000
# 3 -0.002875 -0.001576 0.013789 0.000000 -0.000321 0.000000
# 4 0.000000 0.000000 0.000000 0.061346 0.000000 -0.044221
# 5 0.002651 0.001134 -0.000321 0.000000 0.032126 0.000000
# 6 0.000000 0.000000 0.000000 -0.044221 0.000000 0.076942
#
#
# Mechanical properties :
#
#
# Convention : Reuss Voigt Hill
#
# Bulk Modulus (GPa) = 45.99104 48.11779 47.05441
# Shear Modulus (GPa) = 21.79014 30.24966 26.01990
#
# Velocity S-wave (km/s) = 3.16945 3.73434 3.46343
# Velocity P-wave (km/s) = 5.88184 6.38564 6.13891
#
# Compressibility (1/GPa) = 0.02174337
#
# Stress axis : x y z
#
# Youngs Moduli (GPa) = 87.77069 86.28867 72.52137
#
# Poissons Ratio (x) = 0.26433 0.20849
# Poissons Ratio (y) = 0.26887 0.11428
# Poissons Ratio (z) = 0.25233 0.13597
#
# Static dielectric constant tensor:
#      x y z
#    x 3.953670 0.000000 -0.059240 
#    y 0.000000 4.516620 0.000000 
#    z -0.059240 0.000000 4.174530 
# 
# 
# High freq. dielectric constant tensor:
#      x y z
#    x 1.854470 0.000000 -0.005280 
#    y 0.000000 1.872190 0.000000 
#    z -0.005280 0.000000 1.858500 
# 
# From -- ./inp_files/223817.got.cif
#   From: 2010.06.25/outbox.cif.g09.slc.cpg/sg15_112_cif.got.tgz:223817.got - 2010.06.28 07:06:18.
