data_PCOD8153018
_publ_section_title
;
Structure prediction by ZEFSAII (Michael W. Deem and Ramdas Pophale) SiO2 
 PCOD8153018
Probable space group: C 2/C
;
_chemical_formula_sum "Si O2"
_cell_formula_units_Z 52
_cell_length_a 18.661562
_cell_length_b 15.179426
_cell_length_c 8.975978
_cell_angle_alpha 90.000000
_cell_angle_beta 113.989752
_cell_angle_gamma 90.000000
_cell_volume 2323.003476
_symmetry_space_group_name_H-M "C 2/C"
_symmetry_group_IT_number 15
_symmetry_cell_setting 'monoclinic'
loop_
_space_group_symop_operation_xyz
x,y,z
-x,y,1/2-z
-x,-y,-z
x,-y,1/2+z
1/2+x,1/2+y,z
1/2-x,1/2+y,1/2-z
1/2-x,1/2-y,-z
1/2+x,1/2-y,1/2+z
loop_
_atom_site_type_symbol
_atom_site_label
_atom_site_fract_x
_atom_site_fract_y
_atom_site_fract_z
Si Si1 0.908411 0.849266 0.694830
Si Si2 0.245969 0.608055 0.575883
Si Si3 0.000000 0.291754 0.750000
Si Si4 0.989315 0.399687 0.016685
Si Si5 0.768755 0.937975 0.421811
Si Si6 0.858489 0.224548 0.474573
Si Si7 0.881960 0.339268 0.158721
O O1 0.852678 0.923178 0.573797
O O2 0.896993 0.757097 0.599048
O O3 0.000000 0.879002 0.750000
O O4 0.875223 0.824660 0.831946
O O5 0.226062 0.526958 0.446103
O O6 0.175462 0.674391 0.565315
O O7 0.306152 0.665278 0.534838
O O8 0.281835 0.561380 0.754285
O O9 0.038947 0.353534 0.657865
O O10 0.938930 0.225667 0.628891
O O11 0.067781 0.350342 0.144835
O O12 0.917700 0.405047 0.070057
O O13 0.000000 0.500000 0.000000
O O14 0.710091 0.856581 0.403072
#
# Coordination Sequence:
#
# PCOD8153018 Si02
#       7
#     8   8   4   8   8   8   8
#     4  12  24  49  72 106 141 187 246 298 352 436
#     4  11  27  48  70 107 142 185 242 295 351 432
#     4  12  22  40  68  98 136 182 226 290 356 414
#     4  11  24  38  64 105 145 187 225 291 356 434
#     4  12  27  46  74 103 142 193 236 299 358 417
#     4  11  26  46  72 105 144 185 241 292 359 426
#     4  11  23  42  66 101 145 184 239 275 359 437
#
# _framework density 22.384813000000001
#
# number of rings (size 3 to 8) (size 9 to 14) (size 15 to 20)
#    0.000    0.615    4.615    2.308   10.769    1.231 
#    1.385    1.538    0.000    0.000    0.000    0.000 
#    0.000    0.000    0.000    0.000    0.000    0.000 
#
# Total GULP energy -322123.054466 kJ/mol
# GULP energy per Si atom -12389.348249 kJ/mol
# Density = 2.233386 g / cm^3
# Si number density = 22.384813 Si / 1000 Ang^3
#
#
#
# Elastic Constant Matrix: (Units=GPa)
#
#
# Indices 1 2 3 4 5 6 
#
# 1 125.1611 13.3870 43.3095 0.0000 -7.8431 0.0000
# 2 13.3870 62.7766 23.2156 0.0000 -7.9251 0.0000
# 3 43.3095 23.2156 113.2797 0.0000 -15.9839 0.0000
# 4 0.0000 0.0000 0.0000 4.1588 0.0000 -16.8673
# 5 -7.8431 -7.9251 -15.9839 0.0000 42.9005 0.0000
# 6 0.0000 0.0000 0.0000 -16.8673 0.0000 22.3535
#
#
#
# Elastic Compliance Matrix: (Units=1/GPa)
#
#
# Indices 1 2 3 4 5 6 
#
# 1 0.009242 -0.000693 -0.003347 0.000000 0.000315 0.000000
# 2 -0.000693 0.017447 -0.003033 0.000000 0.001966 0.000000
# 3 -0.003347 -0.003033 0.011150 0.000000 0.002982 0.000000
# 4 0.000000 0.000000 0.000000 -0.116703 0.000000 -0.088061
# 5 0.000315 0.001966 0.002982 0.000000 0.024841 0.000000
# 6 0.000000 0.000000 0.000000 -0.088061 0.000000 -0.021712
#
#
# Mechanical properties :
#
#
# Convention : Reuss Voigt Hill
#
# Bulk Modulus (GPa) = 42.20842 51.22683 46.71763
# Shear Modulus (GPa) = -93.12513 28.63626 -32.24444
#
# Velocity S-wave (km/s) = -6.45695 3.58057 -3.79946
# Velocity P-wave (km/s) = 6.05747 6.32679 1.29140
#
# Compressibility (1/GPa) = 0.02369196
#
# Stress axis : x y z
#
# Youngs Moduli (GPa) = 108.20545 57.31553 89.68890
#
# Poissons Ratio (x) = 0.03974 0.30017
# Poissons Ratio (y) = 0.07503 0.27204
# Poissons Ratio (z) = 0.36215 0.17385
#
# Static dielectric constant tensor:
#      x y z
#    x 3.658110 0.000000 -0.507790 
#    y 0.000000 4.180130 0.000000 
#    z -0.507790 0.000000 4.071020 
# 
# 
# High freq. dielectric constant tensor:
#      x y z
#    x 1.898500 0.000000 -0.020430 
#    y 0.000000 1.875130 0.000000 
#    z -0.020430 0.000000 1.879090 
# 
# From -- ./inp_files/49226.got.cif
#   From: 2010.06.25/outbox.cif.g09.slc.cpg/sg15_25_cif.got.tgz:49226.got - 2010.06.28 07:06:18.
