data_PCOD8153524
_publ_section_title
;
Structure prediction by ZEFSAII (Michael W. Deem and Ramdas Pophale) SiO2 
 PCOD8153524
Probable space group: C 2/C
;
_chemical_formula_sum "Si O2"
_cell_formula_units_Z 48
_cell_length_a 16.794016
_cell_length_b 16.101111
_cell_length_c 18.395945
_cell_angle_alpha 90.000000
_cell_angle_beta 27.292791
_cell_angle_gamma 90.000000
_cell_volume 2280.907112
_symmetry_space_group_name_H-M "C 2/C"
_symmetry_group_IT_number 15
_symmetry_cell_setting 'monoclinic'
loop_
_space_group_symop_operation_xyz
x,y,z
-x,y,1/2-z
-x,-y,-z
x,-y,1/2+z
1/2+x,1/2+y,z
1/2-x,1/2+y,1/2-z
1/2-x,1/2-y,-z
1/2+x,1/2-y,1/2+z
loop_
_atom_site_type_symbol
_atom_site_label
_atom_site_fract_x
_atom_site_fract_y
_atom_site_fract_z
Si Si1 0.700224 0.004445 0.071862
Si Si2 0.486781 0.434358 0.446305
Si Si3 0.137145 0.830702 0.575040
Si Si4 0.196884 0.473636 0.413843
Si Si5 0.923081 0.368275 0.561069
Si Si6 0.924108 0.204324 0.105053
O O1 0.500000 0.021304 0.250000
O O2 0.732225 0.906416 0.041996
O O3 0.812683 0.049628 0.041972
O O4 0.751329 0.043372 0.952360
O O5 0.500000 0.500000 0.500000
O O6 0.652598 0.442181 0.260641
O O7 0.483737 0.342624 0.483279
O O8 0.250000 0.750000 0.500000
O O9 0.000000 0.848507 0.750000
O O10 0.037111 0.824628 0.580945
O O11 0.160949 0.572237 0.432193
O O12 0.019189 0.424801 0.542274
O O13 0.776571 0.314802 0.719340
O O14 0.057620 0.303568 0.416669
#
# Coordination Sequence:
#
# PCOD8153524 Si02
#       6
#     8   8   8   8   8   8
#     4  12  25  41  66  97 131 172 221 275 330 395
#     4  12  23  44  69  95 133 176 222 270 330 400
#     4  12  24  39  60  93 136 175 216 272 332 396
#     4  11  24  44  68  97 133 176 226 273 332 398
#     4  11  24  40  67  96 136 175 224 272 336 390
#     4  12  23  42  64  98 133 178 224 273 332 395
#
# _framework density 21.044259
#
# number of rings (size 3 to 8) (size 9 to 14) (size 15 to 20)
#    0.000    0.333    3.333    7.000    2.333    1.333 
#    0.000    0.833    0.000    0.000    0.000    0.000 
#    0.000    0.000    0.000    0.000    0.000    0.000 
#
# Total GULP energy -297719.595539 kJ/mol
# GULP energy per Si atom -12404.983147 kJ/mol
# Density = 2.099636 g / cm^3
# Si number density = 21.044259 Si / 1000 Ang^3
#
#
#
# Elastic Constant Matrix: (Units=GPa)
#
#
# Indices 1 2 3 4 5 6 
#
# 1 155.4038 41.1315 48.5415 -0.0004 3.8091 0.0007
# 2 41.1315 78.1660 44.6578 0.0108 -1.0018 -0.0111
# 3 48.5415 44.6578 127.7039 0.0167 -2.7471 -0.0105
# 4 -0.0004 0.0108 0.0167 40.0642 -0.0040 -2.2928
# 5 3.8091 -1.0018 -2.7471 -0.0040 36.1921 -0.0003
# 6 0.0007 -0.0111 -0.0105 -2.2928 -0.0003 22.1110
#
#
#
# Elastic Compliance Matrix: (Units=1/GPa)
#
#
# Indices 1 2 3 4 5 6 
#
# 1 0.007876 -0.003042 -0.001953 0.000001 -0.001061 -0.000003
# 2 -0.003042 0.017163 -0.004836 -0.000002 0.000428 0.000006
# 3 -0.001953 -0.004836 0.010282 -0.000003 0.000852 0.000002
# 4 0.000001 -0.000002 -0.000003 0.025109 0.000002 0.002604
# 5 -0.001061 0.000428 0.000852 0.000002 0.027819 0.000001
# 6 -0.000003 0.000006 0.000002 0.002604 0.000001 0.045496
#
#
# Mechanical properties :
#
#
# Convention : Reuss Voigt Hill
#
# Bulk Modulus (GPa) = 63.86227 69.99281 66.92754
# Shear Modulus (GPa) = 31.52052 34.80299 33.16175
#
# Velocity S-wave (km/s) = 3.87437 4.07111 3.97395
# Velocity P-wave (km/s) = 7.10118 7.44517 7.27521
#
# Compressibility (1/GPa) = 0.01565870
#
# Stress axis : x y z
#
# Youngs Moduli (GPa) = 126.96719 58.26602 97.25421
#
# Poissons Ratio (x) = 0.17727 0.18990
# Poissons Ratio (y) = 0.38629 0.47033
# Poissons Ratio (z) = 0.24792 0.28178
#
# Static dielectric constant tensor:
#      x y z
#    x 4.339050 -0.000510 -0.035740 
#    y -0.000510 5.268490 0.000200 
#    z -0.035740 0.000200 3.946700 
# 
# 
# High freq. dielectric constant tensor:
#      x y z
#    x 1.834580 0.000000 -0.005010 
#    y 0.000000 1.818080 0.000010 
#    z -0.005010 0.000010 1.838960 
# 
# From -- ./inp_files/206391.got.cif
#   From: 2010.06.25/outbox.cif.g09.slc.cpg/sg15_104_cif.got.tgz:206391.got - 2010.06.28 07:06:18.
