data_PCOD8153930
_publ_section_title
;
Structure prediction by ZEFSAII (Michael W. Deem and Ramdas Pophale) SiO2 
 PCOD8153930
Probable space group: C 2/C
;
_chemical_formula_sum "Si O2"
_cell_formula_units_Z 48
_cell_length_a 19.420206
_cell_length_b 6.047839
_cell_length_c 22.249939
_cell_angle_alpha 90.000000
_cell_angle_beta 131.104331
_cell_angle_gamma 90.000000
_cell_volume 1969.128376
_symmetry_space_group_name_H-M "C 2/C"
_symmetry_group_IT_number 15
_symmetry_cell_setting 'monoclinic'
loop_
_space_group_symop_operation_xyz
x,y,z
-x,y,1/2-z
-x,-y,-z
x,-y,1/2+z
1/2+x,1/2+y,z
1/2-x,1/2+y,1/2-z
1/2-x,1/2-y,-z
1/2+x,1/2-y,1/2+z
loop_
_atom_site_type_symbol
_atom_site_label
_atom_site_fract_x
_atom_site_fract_y
_atom_site_fract_z
Si Si1 0.037664 0.414557 0.877883
Si Si2 0.797415 0.352694 0.971112
Si Si3 0.351715 0.332312 0.161225
Si Si4 0.918728 0.206369 0.282109
Si Si5 0.245617 0.942549 0.160450
Si Si6 0.450619 0.449766 0.408722
O O1 0.093151 0.260700 0.864004
O O2 0.975081 0.569731 0.798080
O O3 0.978544 0.282630 0.894201
O O4 0.102983 0.562536 0.956131
O O5 0.739027 0.556752 0.915003
O O6 0.802967 0.156360 0.926445
O O7 0.750000 0.250000 0.000000
O O8 0.419769 0.506722 0.233762
O O9 0.311328 0.149801 0.183522
O O10 0.811853 0.264329 0.230076
O O11 0.973828 0.137567 0.373620
O O12 0.159315 0.980761 0.153344
O O13 0.500000 0.500000 0.500000
#
# Coordination Sequence:
#
# PCOD8153930 Si02
#       6
#     8   8   8   8   8   8
#     4  12  27  48  79 115 154 196 265 319 380 462
#     4  11  24  46  78 111 148 196 254 318 384 451
#     4  11  26  49  79 110 154 201 253 319 389 459
#     4  11  29  47  76 110 154 200 258 313 381 458
#     4  11  26  48  75 109 153 204 253 314 391 456
#     4  12  29  48  77 111 155 202 258 317 385 457
#
# _framework density 24.376266000000001
#
# number of rings (size 3 to 8) (size 9 to 14) (size 15 to 20)
#    0.000    0.667    1.667    3.500    9.333    8.000 
#    0.000    0.000    0.000    0.000    0.000    0.000 
#    0.000    0.000    0.000    0.000    0.000    0.000 
#
# Total GULP energy -297396.767757 kJ/mol
# GULP energy per Si atom -12391.531990 kJ/mol
# Density = 2.432078 g / cm^3
# Si number density = 24.376266 Si / 1000 Ang^3
#
#
#
# Elastic Constant Matrix: (Units=GPa)
#
#
# Indices 1 2 3 4 5 6 
#
# 1 93.6223 47.2135 26.2919 -0.0003 9.3791 0.0005
# 2 47.2135 121.3809 44.0203 -0.0012 1.1869 0.0031
# 3 26.2919 44.0203 128.4493 -0.0002 7.9959 0.0000
# 4 -0.0003 -0.0012 -0.0002 52.4323 0.0001 0.1188
# 5 9.3791 1.1869 7.9959 0.0001 28.9916 -0.0002
# 6 0.0005 0.0031 0.0000 0.1188 -0.0002 35.7069
#
#
#
# Elastic Compliance Matrix: (Units=1/GPa)
#
#
# Indices 1 2 3 4 5 6 
#
# 1 0.013872 -0.005045 -0.000859 0.000000 -0.004044 0.000000
# 2 -0.005045 0.011250 -0.002946 0.000000 0.001984 -0.000001
# 3 -0.000859 -0.002946 0.009102 0.000000 -0.002112 0.000000
# 4 0.000000 0.000000 0.000000 0.019072 0.000000 -0.000063
# 5 -0.004044 0.001984 -0.002112 0.000000 0.036302 0.000000
# 6 0.000000 -0.000001 0.000000 -0.000063 0.000000 0.028006
#
#
# Mechanical properties :
#
#
# Convention : Reuss Voigt Hill
#
# Bulk Modulus (GPa) = 60.51760 64.27820 62.39790
# Shear Modulus (GPa) = 35.50846 38.48797 36.99821
#
# Velocity S-wave (km/s) = 3.82079 3.97786 3.90012
# Velocity P-wave (km/s) = 6.65920 6.89379 6.77751
#
# Compressibility (1/GPa) = 0.01652412
#
# Stress axis : x y z
#
# Youngs Moduli (GPa) = 72.09018 88.89006 109.86434
#
# Poissons Ratio (x) = 0.44842 0.09435
# Poissons Ratio (y) = 0.36367 0.32370
# Poissons Ratio (z) = 0.06191 0.26190
#
# Static dielectric constant tensor:
#      x y z
#    x 4.178330 0.000000 0.077740 
#    y 0.000000 4.433230 0.000000 
#    z 0.077740 0.000000 4.513030 
# 
# 
# High freq. dielectric constant tensor:
#      x y z
#    x 1.966920 0.000000 0.012280 
#    y 0.000000 1.982670 0.000000 
#    z 0.012280 0.000000 1.989710 
# 
# From -- ./inp_files/279033.got.cif
#   From: 2010.06.25/outbox.cif.g09.slc.cpg/sg15_140_cif.got.tgz:279033.got - 2010.06.28 07:06:18.
