data_PCOD8153010
_publ_section_title
;
Structure prediction by ZEFSAII (Michael W. Deem and Ramdas Pophale) SiO2 
 PCOD8153010
Probable space group: C 2/C
;
_chemical_formula_sum "Si O2"
_cell_formula_units_Z 40
_cell_length_a 13.297667
_cell_length_b 8.586748
_cell_length_c 17.258045
_cell_angle_alpha 90.000000
_cell_angle_beta 115.575020
_cell_angle_gamma 90.000000
_cell_volume 1777.511139
_symmetry_space_group_name_H-M "C 2/C"
_symmetry_group_IT_number 15
_symmetry_cell_setting 'monoclinic'
loop_
_space_group_symop_operation_xyz
x,y,z
-x,y,1/2-z
-x,-y,-z
x,-y,1/2+z
1/2+x,1/2+y,z
1/2-x,1/2+y,1/2-z
1/2-x,1/2-y,-z
1/2+x,1/2-y,1/2+z
loop_
_atom_site_type_symbol
_atom_site_label
_atom_site_fract_x
_atom_site_fract_y
_atom_site_fract_z
Si Si1 0.210953 0.572748 0.481422
Si Si2 0.081531 0.868990 0.715255
Si Si3 0.887563 0.941875 0.424994
Si Si4 0.196179 0.616991 0.129766
Si Si5 0.986447 0.532620 0.834086
O O1 0.250000 0.750000 0.500000
O O2 0.280794 0.494550 0.436981
O O3 0.233071 0.491694 0.570871
O O4 0.081466 0.549169 0.417361
O O5 0.192956 0.809888 0.795526
O O6 0.000000 0.954052 0.750000
O O7 0.012956 0.720854 0.658844
O O8 0.116844 0.993133 0.663136
O O9 0.885503 0.755274 0.424158
O O10 0.000000 0.000000 0.500000
O O11 0.133058 0.517395 0.173387
O O12 0.000000 0.478185 0.750000
#
# Coordination Sequence:
#
# PCOD8153010 Si02
#       5
#     8   8   8   8   8
#     4  12  25  44  67  95 132 176 221 273 332 399
#     4  11  23  42  65  94 131 172 216 272 331 393
#     4  12  24  41  65  96 129 168 218 274 330 394
#     4  12  24  41  66  97 130 172 221 273 330 395
#     4  11  24  44  66  94 131 174 218 272 334 397
#
# _framework density 22.503374000000001
#
# number of rings (size 3 to 8) (size 9 to 14) (size 15 to 20)
#    0.000    0.400    0.000   10.800    0.000    2.400 
#    0.000    0.000    0.000    0.000    0.000    0.000 
#    0.000    0.000    0.000    0.000    0.000    0.000 
#
# Total GULP energy -248102.935351 kJ/mol
# GULP energy per Si atom -12405.146768 kJ/mol
# Density = 2.245216 g / cm^3
# Si number density = 22.503374 Si / 1000 Ang^3
#
#
#
# Elastic Constant Matrix: (Units=GPa)
#
#
# Indices 1 2 3 4 5 6 
#
# 1 150.2477 39.3532 45.7200 0.0000 -28.6741 0.0000
# 2 39.3532 139.9304 49.5209 0.0000 -18.0387 0.0000
# 3 45.7200 49.5209 104.1469 0.0000 -3.3718 0.0000
# 4 0.0000 0.0000 0.0000 37.2748 0.0000 -8.0090
# 5 -28.6741 -18.0387 -3.3718 0.0000 61.7346 0.0000
# 6 0.0000 0.0000 0.0000 -8.0090 0.0000 61.5797
#
#
#
# Elastic Compliance Matrix: (Units=1/GPa)
#
#
# Indices 1 2 3 4 5 6 
#
# 1 0.008531 -0.000789 -0.003255 0.000000 0.003554 0.000000
# 2 -0.000789 0.009002 -0.003867 0.000000 0.002052 0.000000
# 3 -0.003255 -0.003867 0.012807 0.000000 -0.001942 0.000000
# 4 0.000000 0.000000 0.000000 0.027599 0.000000 0.003590
# 5 0.003554 0.002052 -0.001942 0.000000 0.018343 0.000000
# 6 0.000000 0.000000 0.000000 0.003590 0.000000 0.016706
#
#
# Mechanical properties :
#
#
# Convention : Reuss Voigt Hill
#
# Bulk Modulus (GPa) = 68.88581 73.72368 71.30475
# Shear Modulus (GPa) = 43.99533 49.43321 46.71427
#
# Velocity S-wave (km/s) = 4.42640 4.69198 4.56112
# Velocity P-wave (km/s) = 7.53669 7.88576 7.71320
#
# Compressibility (1/GPa) = 0.01451678
#
# Stress axis : x y z
#
# Youngs Moduli (GPa) = 117.21834 111.09191 78.08467
#
# Poissons Ratio (x) = 0.08768 0.25415
# Poissons Ratio (y) = 0.09251 0.30197
# Poissons Ratio (z) = 0.38152 0.42962
#
# Static dielectric constant tensor:
#      x y z
#    x 4.614970 0.000000 -0.221050 
#    y 0.000000 3.359860 0.000000 
#    z -0.221050 0.000000 5.404350 
# 
# 
# High freq. dielectric constant tensor:
#      x y z
#    x 1.915010 0.000000 -0.006220 
#    y 0.000000 1.882080 0.000000 
#    z -0.006220 0.000000 1.893460 
# 
# From -- ./inp_files/202844.got.cif
#   From: 2010.06.25/outbox.cif.g09.slc.cpg/sg15_102_cif.got.tgz:202844.got - 2010.06.28 07:06:18.
