data_PCOD8153418
_publ_section_title
;
Structure prediction by ZEFSAII (Michael W. Deem and Ramdas Pophale) SiO2 
 PCOD8153418
Probable space group: C 2/C
;
_chemical_formula_sum "Si O2"
_cell_formula_units_Z 44
_cell_length_a 15.559810
_cell_length_b 10.865254
_cell_length_c 12.302799
_cell_angle_alpha 90.000000
_cell_angle_beta 90.002947
_cell_angle_gamma 90.000000
_cell_volume 2079.927040
_symmetry_space_group_name_H-M "C 2/C"
_symmetry_group_IT_number 15
_symmetry_cell_setting 'monoclinic'
loop_
_space_group_symop_operation_xyz
x,y,z
-x,y,1/2-z
-x,-y,-z
x,-y,1/2+z
1/2+x,1/2+y,z
1/2-x,1/2+y,1/2-z
1/2-x,1/2-y,-z
1/2+x,1/2-y,1/2+z
loop_
_atom_site_type_symbol
_atom_site_label
_atom_site_fract_x
_atom_site_fract_y
_atom_site_fract_z
Si Si1 0.594280 0.554891 0.014432
Si Si2 0.632348 0.205808 0.392183
Si Si3 0.820935 0.799189 0.805217
Si Si4 0.272840 0.630223 0.067297
Si Si5 0.500000 0.082066 0.250000
Si Si6 0.121329 0.444478 0.104642
O O1 0.606640 0.620298 0.131970
O O2 0.500000 0.500000 0.000000
O O3 0.614949 0.651559 0.918317
O O4 0.661110 0.444015 0.006942
O O5 0.731891 0.180272 0.369183
O O6 0.577877 0.169085 0.287101
O O7 0.601667 0.121905 0.491708
O O8 0.818625 0.837404 0.680571
O O9 0.842303 0.654369 0.808981
O O10 0.187183 0.555127 0.090175
O O11 0.250000 0.750000 0.000000
O O12 0.532269 0.997370 0.151001
#
# Coordination Sequence:
#
# PCOD8153418 Si02
#       6
#     8   8   8   8   4   8
#     4  11  26  46  71 101 138 177 234 292 341 417
#     4  11  23  46  70  96 138 190 221 279 357 405
#     4  11  24  47  73  94 143 193 217 285 364 403
#     4  12  27  41  73 104 136 181 238 281 343 423
#     4  12  26  38  74 106 134 176 234 286 332 424
#     4  11  24  46  67 101 139 179 230 279 346 414
#
# _framework density 21.154586999999999
#
# number of rings (size 3 to 8) (size 9 to 14) (size 15 to 20)
#    0.000    0.727    5.455    1.636    7.636    5.091 
#    0.000    0.000    0.000    0.000    0.000    0.000 
#    0.000    0.000    0.000    0.000    0.000    0.000 
#
# Total GULP energy -272920.832017 kJ/mol
# GULP energy per Si atom -12405.492364 kJ/mol
# Density = 2.110644 g / cm^3
# Si number density = 21.154587 Si / 1000 Ang^3
#
#
#
# Elastic Constant Matrix: (Units=GPa)
#
#
# Indices 1 2 3 4 5 6 
#
# 1 108.3420 46.5505 16.8607 0.0000 3.8048 0.0000
# 2 46.5505 141.2305 40.2618 0.0000 7.7761 0.0000
# 3 16.8607 40.2618 79.1685 0.0000 13.1986 0.0000
# 4 0.0000 0.0000 0.0000 21.8850 0.0000 5.5603
# 5 3.8048 7.7761 13.1986 0.0000 29.2777 0.0000
# 6 0.0000 0.0000 0.0000 5.5603 0.0000 33.7263
#
#
#
# Elastic Compliance Matrix: (Units=1/GPa)
#
#
# Indices 1 2 3 4 5 6 
#
# 1 0.010777 -0.003387 -0.000529 0.000000 -0.000263 0.000000
# 2 -0.003387 0.009348 -0.003992 0.000000 -0.000243 0.000000
# 3 -0.000529 -0.003992 0.015771 0.000000 -0.005981 0.000000
# 4 0.000000 0.000000 0.000000 0.047691 0.000000 -0.007863
# 5 -0.000263 -0.000243 -0.005981 0.000000 0.036951 0.000000
# 6 0.000000 0.000000 0.000000 -0.007863 0.000000 0.030947
#
#
# Mechanical properties :
#
#
# Convention : Reuss Voigt Hill
#
# Bulk Modulus (GPa) = 49.80042 59.56523 54.68282
# Shear Modulus (GPa) = 28.73645 31.98231 30.35938
#
# Velocity S-wave (km/s) = 3.68965 3.89245 3.79241
# Velocity P-wave (km/s) = 6.46093 6.95844 6.71429
#
# Compressibility (1/GPa) = 0.02008015
#
# Stress axis : x y z
#
# Youngs Moduli (GPa) = 92.79215 106.96916 63.40578
#
# Poissons Ratio (x) = 0.36229 0.03354
# Poissons Ratio (y) = 0.31427 0.25314
# Poissons Ratio (z) = 0.04909 0.42707
#
# Static dielectric constant tensor:
#      x y z
#    x 3.837850 0.000000 -0.010350 
#    y 0.000000 4.051340 0.000000 
#    z -0.010350 0.000000 3.839010 
# 
# 
# High freq. dielectric constant tensor:
#      x y z
#    x 1.830930 0.000000 0.003620 
#    y 0.000000 1.843660 0.000000 
#    z 0.003620 0.000000 1.828580 
# 
# From -- ./inp_files/94997.got.cif
#   From: 2010.06.25/outbox.cif.g09.slc.cpg/sg15_48_cif.got.tgz:94997.got - 2010.06.28 07:06:18.
