data_PCOD8153740
_publ_section_title
;
Structure prediction by ZEFSAII (Michael W. Deem and Ramdas Pophale) SiO2 
 PCOD8153740
Probable space group: C 2/C
;
_chemical_formula_sum "Si O2"
_cell_formula_units_Z 36
_cell_length_a 15.101871
_cell_length_b 17.920172
_cell_length_c 8.413228
_cell_angle_alpha 90.000000
_cell_angle_beta 135.350322
_cell_angle_gamma 90.000000
_cell_volume 1600.106515
_symmetry_space_group_name_H-M "C 2/C"
_symmetry_group_IT_number 15
_symmetry_cell_setting 'monoclinic'
loop_
_space_group_symop_operation_xyz
x,y,z
-x,y,1/2-z
-x,-y,-z
x,-y,1/2+z
1/2+x,1/2+y,z
1/2-x,1/2+y,1/2-z
1/2-x,1/2-y,-z
1/2+x,1/2-y,1/2+z
loop_
_atom_site_type_symbol
_atom_site_label
_atom_site_fract_x
_atom_site_fract_y
_atom_site_fract_z
Si Si1 0.385232 0.051761 0.495022
Si Si2 0.500000 0.547074 0.750000
Si Si3 0.900149 0.325455 0.760703
Si Si4 0.768188 0.942960 0.403019
Si Si5 0.849893 0.159538 0.750230
O O1 0.428022 0.122873 0.447292
O O2 0.268239 0.072970 0.461101
O O3 0.348215 0.982769 0.335765
O O4 0.500000 0.023947 0.750000
O O5 0.387662 0.496678 0.541840
O O6 0.455579 0.599719 0.837428
O O7 0.911695 0.240827 0.837690
O O8 0.760173 0.343268 0.521432
O O9 0.000000 0.340410 0.750000
O O10 0.797024 0.863857 0.355546
#
# Coordination Sequence:
#
# PCOD8153740 Si02
#       5
#     8   4   8   8   8
#     4  12  25  43  68 101 139 175 224 277 334 399
#     4  12  22  46  70  98 132 170 228 274 334 400
#     4  11  24  46  69  96 136 182 224 271 337 405
#     4  12  25  43  70 102 133 177 224 282 333 392
#     4  11  24  44  72  97 133 179 225 275 336 403
#
# _framework density 22.498502999999999
#
# number of rings (size 3 to 8) (size 9 to 14) (size 15 to 20)
#    0.000    0.444    5.556    2.667    0.000    2.667 
#    2.000    0.000    0.000    0.000    0.000    0.000 
#    0.000    0.000    0.000    0.000    0.000    0.000 
#
# Total GULP energy -223327.343713 kJ/mol
# GULP energy per Si atom -12407.074651 kJ/mol
# Density = 2.244730 g / cm^3
# Si number density = 22.498503 Si / 1000 Ang^3
#
#
#
# Elastic Constant Matrix: (Units=GPa)
#
#
# Indices 1 2 3 4 5 6 
#
# 1 142.3817 68.6955 35.3720 0.0000 -21.6980 0.0000
# 2 68.6955 120.2571 43.5796 0.0000 -11.6776 0.0000
# 3 35.3720 43.5796 79.8224 0.0000 3.0086 0.0000
# 4 0.0000 0.0000 0.0000 21.6896 0.0000 -9.5568
# 5 -21.6980 -11.6776 3.0086 0.0000 41.1907 0.0000
# 6 0.0000 0.0000 0.0000 -9.5568 0.0000 48.0386
#
#
#
# Elastic Compliance Matrix: (Units=1/GPa)
#
#
# Indices 1 2 3 4 5 6 
#
# 1 0.010557 -0.004802 -0.002221 0.000000 0.004362 0.000000
# 2 -0.004802 0.013037 -0.005047 0.000000 0.001535 0.000000
# 3 -0.002221 -0.005047 0.016411 0.000000 -0.003799 0.000000
# 4 0.000000 0.000000 0.000000 0.050535 0.000000 0.010053
# 5 0.004362 0.001535 -0.003799 0.000000 0.027288 0.000000
# 6 0.000000 0.000000 0.000000 0.010053 0.000000 0.022817
#
#
# Mechanical properties :
#
#
# Convention : Reuss Voigt Hill
#
# Bulk Modulus (GPa) = 63.03643 70.86170 66.94907
# Shear Modulus (GPa) = 29.39940 35.17138 32.28539
#
# Velocity S-wave (km/s) = 3.61879 3.95812 3.79225
# Velocity P-wave (km/s) = 6.74831 7.24248 6.99976
#
# Compressibility (1/GPa) = 0.01586384
#
# Stress axis : x y z
#
# Youngs Moduli (GPa) = 94.72719 76.70571 60.93570
#
# Poissons Ratio (x) = 0.36835 0.13532
# Poissons Ratio (y) = 0.45489 0.30757
# Poissons Ratio (z) = 0.21036 0.38717
#
# Static dielectric constant tensor:
#      x y z
#    x 4.418550 0.000000 0.042760 
#    y 0.000000 4.067520 0.000000 
#    z 0.042760 0.000000 3.894430 
# 
# 
# High freq. dielectric constant tensor:
#      x y z
#    x 1.912480 0.000000 0.005000 
#    y 0.000000 1.882250 0.000000 
#    z 0.005000 0.000000 1.875020 
# 
# From -- ./inp_files/39477.got.cif
#   From: 2010.06.25/outbox.cif.g09.slc.cpg/sg15_20_cif.got.tgz:39477.got - 2010.06.28 07:06:18.
