data_PCOD8153629
_publ_section_title
;
Structure prediction by ZEFSAII (Michael W. Deem and Ramdas Pophale) SiO2 
 PCOD8153629
Probable space group: C 2/C
;
_chemical_formula_sum "Si O2"
_cell_formula_units_Z 32
_cell_length_a 17.675136
_cell_length_b 8.958283
_cell_length_c 8.714660
_cell_angle_alpha 90.000000
_cell_angle_beta 106.405218
_cell_angle_gamma 90.000000
_cell_volume 1323.692531
_symmetry_space_group_name_H-M "C 2/C"
_symmetry_group_IT_number 15
_symmetry_cell_setting 'monoclinic'
loop_
_space_group_symop_operation_xyz
x,y,z
-x,y,1/2-z
-x,-y,-z
x,-y,1/2+z
1/2+x,1/2+y,z
1/2-x,1/2+y,1/2-z
1/2-x,1/2-y,-z
1/2+x,1/2-y,1/2+z
loop_
_atom_site_type_symbol
_atom_site_label
_atom_site_fract_x
_atom_site_fract_y
_atom_site_fract_z
Si Si1 0.299247 0.920723 0.149552
Si Si2 0.199863 0.908450 0.809458
Si Si3 0.451493 0.885981 0.074293
Si Si4 0.051332 0.894052 0.134084
O O1 0.279484 0.043445 0.265869
O O2 0.320363 0.762689 0.244425
O O3 0.374426 0.972584 0.093340
O O4 0.220035 0.910306 0.001488
O O5 0.128573 0.020444 0.737519
O O6 0.500000 0.827713 0.250000
O O7 0.424054 0.747210 0.954770
O O8 0.500000 0.000000 0.000000
O O9 0.000000 0.839793 0.250000
O O10 0.000000 0.000000 0.000000
#
# Coordination Sequence:
#
# PCOD8153629 Si02
#       4
#     8   8   8   8
#     4  11  24  44  68 101 139 181 235 288 351 422
#     4  11  24  43  69 100 140 183 230 292 349 418
#     4  12  26  46  72 104 141 183 236 294 353 424
#     4  12  24  42  69 102 141 186 235 291 355 417
#
# _framework density 24.174800000000001
#
# number of rings (size 3 to 8) (size 9 to 14) (size 15 to 20)
#    0.000    0.500    0.000   10.500    0.000    3.000 
#    0.000    0.000    0.000    0.000    0.000    0.000 
#    0.000    0.000    0.000    0.000    0.000    0.000 
#
# Total GULP energy -198454.177022 kJ/mol
# GULP energy per Si atom -12403.386064 kJ/mol
# Density = 2.411978 g / cm^3
# Si number density = 24.174800 Si / 1000 Ang^3
#
#
#
# Elastic Constant Matrix: (Units=GPa)
#
#
# Indices 1 2 3 4 5 6 
#
# 1 145.4977 54.3878 39.9446 0.0000 -16.9783 0.0000
# 2 54.3878 110.3168 45.0083 0.0000 -7.9741 0.0000
# 3 39.9446 45.0083 112.1410 0.0000 -0.2055 0.0000
# 4 0.0000 0.0000 0.0000 42.6695 0.0000 1.1348
# 5 -16.9783 -7.9741 -0.2055 0.0000 51.9080 0.0000
# 6 0.0000 0.0000 0.0000 1.1348 0.0000 45.8724
#
#
#
# Elastic Compliance Matrix: (Units=1/GPa)
#
#
# Indices 1 2 3 4 5 6 
#
# 1 0.008953 -0.003519 -0.001772 0.000000 0.002381 0.000000
# 2 -0.003519 0.012366 -0.003708 0.000000 0.000734 0.000000
# 3 -0.001772 -0.003708 0.011035 0.000000 -0.001106 0.000000
# 4 0.000000 0.000000 0.000000 0.023451 0.000000 -0.000580
# 5 0.002381 0.000734 -0.001106 0.000000 0.020152 0.000000
# 6 0.000000 0.000000 0.000000 -0.000580 0.000000 0.021814
#
#
# Mechanical properties :
#
#
# Convention : Reuss Voigt Hill
#
# Bulk Modulus (GPa) = 69.66388 71.84856 70.75622
# Shear Modulus (GPa) = 41.47527 43.33095 42.40311
#
# Velocity S-wave (km/s) = 4.14652 4.23827 4.19265
# Velocity P-wave (km/s) = 7.19751 7.33045 7.26429
#
# Compressibility (1/GPa) = 0.01435464
#
# Stress axis : x y z
#
# Youngs Moduli (GPa) = 111.69925 80.87004 90.62095
#
# Poissons Ratio (x) = 0.28455 0.16061
# Poissons Ratio (y) = 0.39302 0.33605
# Poissons Ratio (z) = 0.19797 0.29989
#
# Static dielectric constant tensor:
#      x y z
#    x 4.588300 0.000000 -0.053660 
#    y 0.000000 4.486620 0.000000 
#    z -0.053660 0.000000 4.794140 
# 
# 
# High freq. dielectric constant tensor:
#      x y z
#    x 1.980250 0.000000 -0.004590 
#    y 0.000000 1.948560 0.000000 
#    z -0.004590 0.000000 1.971440 
# 
# From -- ./inp_files/53499.got.cif
#   From: 2010.06.25/outbox.cif.g09.slc.cpg/sg15_27_cif.got.tgz:53499.got - 2010.06.28 07:06:18.
