data_PCOD8153004
_publ_section_title
;
Structure prediction by ZEFSAII (Michael W. Deem and Ramdas Pophale) SiO2 
 PCOD8153004
Probable space group: C 2/C
;
_chemical_formula_sum "Si O2"
_cell_formula_units_Z 56
_cell_length_a 14.443684
_cell_length_b 8.646576
_cell_length_c 20.767694
_cell_angle_alpha 90.000000
_cell_angle_beta 77.887444
_cell_angle_gamma 90.000000
_cell_volume 2535.902727
_symmetry_space_group_name_H-M "C 2/C"
_symmetry_group_IT_number 15
_symmetry_cell_setting 'monoclinic'
loop_
_space_group_symop_operation_xyz
x,y,z
-x,y,1/2-z
-x,-y,-z
x,-y,1/2+z
1/2+x,1/2+y,z
1/2-x,1/2+y,1/2-z
1/2-x,1/2-y,-z
1/2+x,1/2-y,1/2+z
loop_
_atom_site_type_symbol
_atom_site_label
_atom_site_fract_x
_atom_site_fract_y
_atom_site_fract_z
Si Si1 0.864858 0.372100 0.159383
Si Si2 0.233977 0.429036 0.517517
Si Si3 0.206633 0.948817 0.623263
Si Si4 0.171067 0.632761 0.693405
Si Si5 0.014206 0.886869 0.171127
Si Si6 0.547779 0.052137 0.122835
Si Si7 0.657368 0.462864 0.873264
O O1 0.786022 0.504930 0.163791
O O2 0.870269 0.315651 0.232309
O O3 0.964643 0.432212 0.117236
O O4 0.832220 0.221850 0.125592
O O5 0.250000 0.250000 0.500000
O O6 0.247188 0.538307 0.453868
O O7 0.123991 0.442680 0.554399
O O8 0.307501 0.502125 0.559290
O O9 0.172720 0.775935 0.643645
O O10 0.120522 0.067246 0.639504
O O11 0.100190 0.502230 0.679338
O O12 0.273871 0.553207 0.686160
O O13 0.998573 0.713586 0.148459
O O14 0.000000 0.907089 0.250000
O O15 0.947295 0.992158 0.135149
#
# Coordination Sequence:
#
# PCOD8153004 Si02
#       7
#     8   8   8   8   8   8   8
#     4  12  22  41  67 101 132 175 222 280 345 402
#     4  11  23  51  67  94 137 180 234 276 331 403
#     4  12  25  43  72  94 138 182 220 284 337 401
#     4  11  23  42  65 100 134 171 225 280 344 406
#     4  12  23  41  66 102 133 174 225 279 343 402
#     4  11  25  42  70  97 137 180 220 282 336 402
#     4  11  25  41  68  98 136 181 223 280 337 400
#
# _framework density 22.082865999999999
#
# number of rings (size 3 to 8) (size 9 to 14) (size 15 to 20)
#    0.000    0.571    2.857    6.429    0.000    3.429 
#    0.000    0.000    0.000    0.000    0.000    0.000 
#    0.000    0.000    0.000    0.000    0.000    0.000 
#
# Total GULP energy -347212.388337 kJ/mol
# GULP energy per Si atom -12400.442441 kJ/mol
# Density = 2.203260 g / cm^3
# Si number density = 22.082866 Si / 1000 Ang^3
#
#
#
# Elastic Constant Matrix: (Units=GPa)
#
#
# Indices 1 2 3 4 5 6 
#
# 1 102.7633 26.0356 38.4789 0.0000 -11.3261 0.0000
# 2 26.0356 95.1155 34.3548 0.0000 -8.5586 0.0000
# 3 38.4789 34.3548 119.2195 0.0000 -7.5861 0.0000
# 4 0.0000 0.0000 0.0000 36.6034 0.0000 1.9530
# 5 -11.3261 -8.5586 -7.5861 0.0000 24.8093 0.0000
# 6 0.0000 0.0000 0.0000 1.9530 0.0000 40.2257
#
#
#
# Elastic Compliance Matrix: (Units=1/GPa)
#
#
# Indices 1 2 3 4 5 6 
#
# 1 0.011737 -0.001773 -0.003034 0.000000 0.003819 0.000000
# 2 -0.001773 0.012237 -0.002791 0.000000 0.002559 0.000000
# 3 -0.003034 -0.002791 0.010221 0.000000 0.000777 0.000000
# 4 0.000000 0.000000 0.000000 0.027391 0.000000 -0.001330
# 5 0.003819 0.002559 0.000777 0.000000 0.043171 0.000000
# 6 0.000000 0.000000 0.000000 -0.001330 0.000000 0.024924
#
#
# Mechanical properties :
#
#
# Convention : Reuss Voigt Hill
#
# Bulk Modulus (GPa) = 52.63671 57.20410 54.92040
# Shear Modulus (GPa) = 33.06608 34.87629 33.97118
#
# Velocity S-wave (km/s) = 3.87378 3.97840 3.92644
# Velocity P-wave (km/s) = 6.62540 6.86033 6.74389
#
# Compressibility (1/GPa) = 0.01899815
#
# Stress axis : x y z
#
# Youngs Moduli (GPa) = 85.19738 81.71733 97.83748
#
# Poissons Ratio (x) = 0.14490 0.29687
# Poissons Ratio (y) = 0.15108 0.27309
# Poissons Ratio (z) = 0.25852 0.22809
#
# Static dielectric constant tensor:
#      x y z
#    x 4.037040 0.000000 -0.080060 
#    y 0.000000 3.888870 0.000000 
#    z -0.080060 0.000000 3.932650 
# 
# 
# High freq. dielectric constant tensor:
#      x y z
#    x 1.878280 0.000000 0.001030 
#    y 0.000000 1.876000 0.000000 
#    z 0.001030 0.000000 1.865650 
# 
# From -- ./inp_files/242812.got.cif
#   From: 2010.06.25/outbox.cif.g09.slc.cpg/sg15_122_cif.got.tgz:242812.got - 2010.06.28 07:06:18.
