data_PCOD8153157
_publ_section_title
;
Structure prediction by ZEFSAII (Michael W. Deem and Ramdas Pophale) SiO2 
 PCOD8153157
Probable space group: C 2/C
;
_chemical_formula_sum "Si O2"
_cell_formula_units_Z 56
_cell_length_a 8.841468
_cell_length_b 27.775591
_cell_length_c 11.896149
_cell_angle_alpha 90.000000
_cell_angle_beta 71.332736
_cell_angle_gamma 90.000000
_cell_volume 2767.734292
_symmetry_space_group_name_H-M "C 2/C"
_symmetry_group_IT_number 15
_symmetry_cell_setting 'monoclinic'
loop_
_space_group_symop_operation_xyz
x,y,z
-x,y,1/2-z
-x,-y,-z
x,-y,1/2+z
1/2+x,1/2+y,z
1/2-x,1/2+y,1/2-z
1/2-x,1/2-y,-z
1/2+x,1/2-y,1/2+z
loop_
_atom_site_type_symbol
_atom_site_label
_atom_site_fract_x
_atom_site_fract_y
_atom_site_fract_z
Si Si1 0.524561 0.150537 0.368038
Si Si2 0.742490 0.396282 0.051921
Si Si3 0.942952 0.836833 0.037518
Si Si4 0.592215 0.761788 0.468758
Si Si5 0.587653 0.503389 0.604670
Si Si6 0.840761 0.899257 0.860765
Si Si7 0.662496 0.833755 0.271627
O O1 0.500000 0.170803 0.250000
O O2 0.382218 0.113382 0.429480
O O3 0.520235 0.197554 0.447804
O O4 0.689576 0.121163 0.330652
O O5 0.587435 0.365639 0.057910
O O6 0.708679 0.452725 0.062652
O O7 0.801620 0.379365 0.158921
O O8 0.812430 0.823670 0.159169
O O9 0.997421 0.786983 0.968868
O O10 0.854988 0.868938 0.968826
O O11 0.750000 0.750000 0.500000
O O12 0.644172 0.782730 0.337438
O O13 0.500000 0.510706 0.750000
O O14 0.500000 0.500000 0.500000
O O15 0.687010 0.454412 0.595977
O O16 0.000000 0.893857 0.750000
O O17 0.500000 0.848268 0.250000
#
# Coordination Sequence:
#
# PCOD8153157 Si02
#       7
#     8   8   8   8   8   8   8
#     4  11  25  43  67  97 142 178 227 289 345 413
#     4  11  23  43  69 101 132 182 230 284 351 408
#     4  12  22  41  71  92 131 180 224 279 346 407
#     4  11  25  41  64  99 131 179 229 276 343 417
#     4  11  24  45  75 108 141 184 240 289 351 430
#     4  11  26  44  69 103 135 178 229 286 350 416
#     4  11  25  42  63  99 138 172 232 282 341 418
#
# _framework density 20.233156000000001
#
# number of rings (size 3 to 8) (size 9 to 14) (size 15 to 20)
#    0.000    0.857    4.286    3.857    4.000    3.429 
#    0.000    0.714    0.000    0.000    0.000    0.000 
#    0.000    0.000    0.000    0.000    0.000    0.000 
#
# Total GULP energy -347019.282519 kJ/mol
# GULP energy per Si atom -12393.545804 kJ/mol
# Density = 2.018710 g / cm^3
# Si number density = 20.233156 Si / 1000 Ang^3
#
#
#
# Elastic Constant Matrix: (Units=GPa)
#
#
# Indices 1 2 3 4 5 6 
#
# 1 114.8794 40.3832 32.4358 0.0000 -1.9671 0.0000
# 2 40.3832 156.9008 37.3859 0.0000 -6.3869 0.0000
# 3 32.4358 37.3859 116.0667 0.0000 -2.7125 0.0000
# 4 0.0000 0.0000 0.0000 -563.0989 0.0000 213.4268
# 5 -1.9671 -6.3869 -2.7125 0.0000 41.0824 0.0000
# 6 0.0000 0.0000 0.0000 213.4268 0.0000 -39.7431
#
#
#
# Elastic Compliance Matrix: (Units=1/GPa)
#
#
# Indices 1 2 3 4 5 6 
#
# 1 0.010037 -0.002074 -0.002137 0.000000 0.000017 0.000000
# 2 -0.002074 0.007367 -0.001772 0.000000 0.000929 0.000000
# 3 -0.002137 -0.001772 0.009790 0.000000 0.000269 0.000000
# 4 0.000000 0.000000 0.000000 0.001715 0.000000 0.009211
# 5 0.000017 0.000929 0.000269 0.000000 0.024504 0.000000
# 6 0.000000 0.000000 0.000000 0.009211 0.000000 0.024301
#
#
# Mechanical properties :
#
#
# Convention : Reuss Voigt Hill
#
# Bulk Modulus (GPa) = 65.65940 67.58406 66.62173
# Shear Modulus (GPa) = 52.76722 -93.84246 -20.53762
#
# Velocity S-wave (km/s) = 5.11236 -6.81771 -3.18944
# Velocity P-wave (km/s) = 8.20793 5.33852 4.40853
#
# Compressibility (1/GPa) = 0.01523011
#
# Stress axis : x y z
#
# Youngs Moduli (GPa) = 99.62864 135.73765 102.14668
#
# Poissons Ratio (x) = 0.28146 0.21826
# Poissons Ratio (y) = 0.20659 0.18099
# Poissons Ratio (z) = 0.21287 0.24050
#
# Static dielectric constant tensor:
#      x y z
#    x 4.291540 0.000000 0.278810 
#    y 0.000000 3.267490 0.000000 
#    z 0.278810 0.000000 4.136640 
# 
# 
# High freq. dielectric constant tensor:
#      x y z
#    x 1.790160 0.000000 0.003450 
#    y 0.000000 1.800230 0.000000 
#    z 0.003450 0.000000 1.805930 
# 
# From -- ./inp_files/81234.got.cif
#   From: 2010.06.25/outbox.cif.g09.slc.cpg/sg15_41_cif.got.tgz:81234.got - 2010.06.28 07:06:18.
