data_PCOD8153534
_publ_section_title
;
Structure prediction by ZEFSAII (Michael W. Deem and Ramdas Pophale) SiO2 
 PCOD8153534
Probable space group: C 2/C
;
_chemical_formula_sum "Si O2"
_cell_formula_units_Z 48
_cell_length_a 19.517882
_cell_length_b 9.020584
_cell_length_c 13.971879
_cell_angle_alpha 90.000000
_cell_angle_beta 62.699108
_cell_angle_gamma 90.000000
_cell_volume 2185.915654
_symmetry_space_group_name_H-M "C 2/C"
_symmetry_group_IT_number 15
_symmetry_cell_setting 'monoclinic'
loop_
_space_group_symop_operation_xyz
x,y,z
-x,y,1/2-z
-x,-y,-z
x,-y,1/2+z
1/2+x,1/2+y,z
1/2-x,1/2+y,1/2-z
1/2-x,1/2-y,-z
1/2+x,1/2-y,1/2+z
loop_
_atom_site_type_symbol
_atom_site_label
_atom_site_fract_x
_atom_site_fract_y
_atom_site_fract_z
Si Si1 0.428091 0.876111 0.671509
Si Si2 0.821978 0.580813 0.631430
Si Si3 0.314763 0.365263 0.751146
Si Si4 0.657755 0.730588 0.066534
Si Si5 0.603472 0.060382 0.102556
Si Si6 0.083007 0.924227 0.436916
O O1 0.377636 0.881344 0.802607
O O2 0.516406 0.901546 0.635708
O O3 0.418155 0.716994 0.630711
O O4 0.400996 0.011277 0.621933
O O5 0.762193 0.447083 0.667664
O O6 0.789126 0.711563 0.718026
O O7 0.840231 0.638155 0.511711
O O8 0.363700 0.334457 0.815504
O O9 0.364105 0.452478 0.643578
O O10 0.614458 0.885297 0.084339
O O11 0.750000 0.750000 0.000000
O O12 0.621816 0.617391 0.012971
O O13 0.000000 0.000000 0.500000
#
# Coordination Sequence:
#
# PCOD8153534 Si02
#       6
#     8   8   8   8   8   8
#     4  11  24  44  70 105 140 185 246 290 353 438
#     4  12  23  45  71 106 142 189 247 293 359 428
#     4  12  27  44  74 104 143 193 237 298 363 434
#     4  12  24  48  72 105 144 192 241 294 370 433
#     4  11  24  40  77 102 139 188 239 301 352 427
#     4  12  29  48  72 106 150 185 239 309 364 432
#
# _framework density 21.958762
#
# number of rings (size 3 to 8) (size 9 to 14) (size 15 to 20)
#    0.000    0.333    5.000    3.500    2.333    4.667 
#    0.000    2.500    0.000    0.000    0.000    0.000 
#    0.000    0.000    0.000    0.000    0.000    0.000 
#
# Total GULP energy -297661.391430 kJ/mol
# GULP energy per Si atom -12402.557976 kJ/mol
# Density = 2.190878 g / cm^3
# Si number density = 21.958762 Si / 1000 Ang^3
#
#
#
# Elastic Constant Matrix: (Units=GPa)
#
#
# Indices 1 2 3 4 5 6 
#
# 1 75.7148 31.3815 35.1409 0.0000 11.3013 0.0000
# 2 31.3815 93.8248 48.9129 0.0000 11.2343 0.0000
# 3 35.1409 48.9129 167.1877 0.0000 21.6057 0.0000
# 4 0.0000 0.0000 0.0000 50.1589 0.0000 2.4125
# 5 11.3013 11.2343 21.6057 0.0000 36.7907 0.0000
# 6 0.0000 0.0000 0.0000 2.4125 0.0000 32.9903
#
#
#
# Elastic Compliance Matrix: (Units=1/GPa)
#
#
# Indices 1 2 3 4 5 6 
#
# 1 0.016169 -0.004129 -0.001852 0.000000 -0.002618 0.000000
# 2 -0.004129 0.013744 -0.003003 0.000000 -0.001165 0.000000
# 3 -0.001852 -0.003003 0.007637 0.000000 -0.002999 0.000000
# 4 0.000000 0.000000 0.000000 0.020007 0.000000 -0.001463
# 5 -0.002618 -0.001165 -0.002999 0.000000 0.030102 0.000000
# 6 0.000000 0.000000 0.000000 -0.001463 0.000000 0.030419
#
#
# Mechanical properties :
#
#
# Convention : Reuss Voigt Hill
#
# Bulk Modulus (GPa) = 51.06651 63.06644 57.06647
# Shear Modulus (GPa) = 35.06980 38.74077 36.90528
#
# Velocity S-wave (km/s) = 4.00068 4.20486 4.10404
# Velocity P-wave (km/s) = 6.68182 7.23582 6.96433
#
# Compressibility (1/GPa) = 0.01958231
#
# Stress axis : x y z
#
# Youngs Moduli (GPa) = 61.84568 72.75907 130.94848
#
# Poissons Ratio (x) = 0.30042 0.24255
# Poissons Ratio (y) = 0.25536 0.39318
# Poissons Ratio (z) = 0.11455 0.21846
#
# Static dielectric constant tensor:
#      x y z
#    x 4.147220 0.000000 0.279380 
#    y 0.000000 4.036500 0.000000 
#    z 0.279380 0.000000 4.596850 
# 
# 
# High freq. dielectric constant tensor:
#      x y z
#    x 1.862950 0.000000 0.008100 
#    y 0.000000 1.864620 0.000000 
#    z 0.008100 0.000000 1.890250 
# 
# From -- ./inp_files/166143.got.cif
#   From: 2010.06.25/outbox.cif.g09.slc.cpg/sg15_84_cif.got.tgz:166143.got - 2010.06.28 07:06:18.
