data_PCOD8153599
_publ_section_title
;
Structure prediction by ZEFSAII (Michael W. Deem and Ramdas Pophale) SiO2 
 PCOD8153599
Probable space group: C 2/C
;
_chemical_formula_sum "Si O2"
_cell_formula_units_Z 32
_cell_length_a 13.944780
_cell_length_b 13.383597
_cell_length_c 13.098287
_cell_angle_alpha 90.000000
_cell_angle_beta 147.205448
_cell_angle_gamma 90.000000
_cell_volume 1324.037708
_symmetry_space_group_name_H-M "C 2/C"
_symmetry_group_IT_number 15
_symmetry_cell_setting 'monoclinic'
loop_
_space_group_symop_operation_xyz
x,y,z
-x,y,1/2-z
-x,-y,-z
x,-y,1/2+z
1/2+x,1/2+y,z
1/2-x,1/2+y,1/2-z
1/2-x,1/2-y,-z
1/2+x,1/2-y,1/2+z
loop_
_atom_site_type_symbol
_atom_site_label
_atom_site_fract_x
_atom_site_fract_y
_atom_site_fract_z
Si Si1 0.711319 0.954227 0.359423
Si Si2 0.469934 0.341227 0.925295
Si Si3 0.627741 0.860703 0.493508
Si Si4 0.850930 0.158535 0.540041
O O1 0.704199 0.877873 0.448651
O O2 0.535137 0.937969 0.133434
O O3 0.888687 0.931731 0.453530
O O4 0.713879 0.068727 0.397951
O O5 0.547517 0.250030 0.929842
O O6 0.282107 0.379344 0.713660
O O7 0.442860 0.306248 0.017326
O O8 0.750000 0.250000 0.500000
O O9 0.000000 0.118147 0.750000
#
# Coordination Sequence:
#
# PCOD8153599 Si02
#       4
#     8   8   8   8
#     4  11  26  45  73 110 144 187 232 298 360 428
#     4  12  23  47  76 107 146 186 235 296 357 426
#     4  11  24  42  76 112 143 178 236 296 361 423
#     4  12  29  51  71 100 148 195 244 292 351 423
#
# _framework density 24.168493999999999
#
# number of rings (size 3 to 8) (size 9 to 14) (size 15 to 20)
#    0.000    0.500    2.500    5.250    7.000    1.000 
#    0.000    0.000    0.000    0.000    0.000    0.000 
#    0.000    0.000    0.000    0.000    0.000    0.000 
#
# Total GULP energy -198469.730708 kJ/mol
# GULP energy per Si atom -12404.358169 kJ/mol
# Density = 2.411349 g / cm^3
# Si number density = 24.168494 Si / 1000 Ang^3
#
#
#
# Elastic Constant Matrix: (Units=GPa)
#
#
# Indices 1 2 3 4 5 6 
#
# 1 156.5119 60.0013 45.9960 0.0000 6.8258 0.0003
# 2 60.0013 134.3307 46.2294 -0.0001 18.3810 -0.0001
# 3 45.9960 46.2294 186.6208 -0.0003 30.4300 0.0000
# 4 0.0000 -0.0001 -0.0003 28.1968 -0.0001 12.9167
# 5 6.8258 18.3810 30.4300 -0.0001 35.9555 0.0002
# 6 0.0003 -0.0001 0.0000 12.9167 0.0002 21.6494
#
#
#
# Elastic Compliance Matrix: (Units=1/GPa)
#
#
# Indices 1 2 3 4 5 6 
#
# 1 0.007992 -0.003278 -0.001373 0.000000 0.001321 0.000000
# 2 -0.003278 0.009742 -0.001038 0.000000 -0.003479 0.000000
# 3 -0.001373 -0.001038 0.006758 0.000000 -0.004928 0.000000
# 4 0.000000 0.000000 0.000000 0.048804 0.000000 -0.029118
# 5 0.001321 -0.003479 -0.004928 0.000000 0.033511 -0.000001
# 6 0.000000 0.000000 0.000000 -0.029118 -0.000001 0.063563
#
#
# Mechanical properties :
#
#
# Convention : Reuss Voigt Hill
#
# Bulk Modulus (GPa) = 76.25872 86.87965 81.56918
# Shear Modulus (GPa) = 26.86472 38.84279 32.85375
#
# Velocity S-wave (km/s) = 3.33762 4.01330 3.69095
# Velocity P-wave (km/s) = 6.81721 7.58294 7.21025
#
# Compressibility (1/GPa) = 0.01311325
#
# Stress axis : x y z
#
# Youngs Moduli (GPa) = 125.12752 102.65094 147.98343
#
# Poissons Ratio (x) = 0.33648 0.20319
# Poissons Ratio (y) = 0.41015 0.15360
# Poissons Ratio (z) = 0.17181 0.10655
#
# Static dielectric constant tensor:
#      x y z
#    x 4.333910 0.000000 0.170940 
#    y 0.000000 4.042830 0.000000 
#    z 0.170940 0.000000 4.744100 
# 
# 
# High freq. dielectric constant tensor:
#      x y z
#    x 1.964630 0.000000 0.011290 
#    y 0.000000 1.956810 0.000000 
#    z 0.011290 0.000000 1.971260 
# 
# From -- ./inp_files/154200.got.cif
#   From: 2010.06.25/outbox.cif.g09.slc.cpg/sg15_78_cif.got.tgz:154200.got - 2010.06.28 07:06:18.
