data_PCOD8153802
_publ_section_title
;
Structure prediction by ZEFSAII (Michael W. Deem and Ramdas Pophale) SiO2 
 PCOD8153802
Probable space group: C 2/C
;
_chemical_formula_sum "Si O2"
_cell_formula_units_Z 60
_cell_length_a 8.754054
_cell_length_b 15.048827
_cell_length_c 21.032350
_cell_angle_alpha 90.000000
_cell_angle_beta 107.695278
_cell_angle_gamma 90.000000
_cell_volume 2639.670373
_symmetry_space_group_name_H-M "C 2/C"
_symmetry_group_IT_number 15
_symmetry_cell_setting 'monoclinic'
loop_
_space_group_symop_operation_xyz
x,y,z
-x,y,1/2-z
-x,-y,-z
x,-y,1/2+z
1/2+x,1/2+y,z
1/2-x,1/2+y,1/2-z
1/2-x,1/2-y,-z
1/2+x,1/2-y,1/2+z
loop_
_atom_site_type_symbol
_atom_site_label
_atom_site_fract_x
_atom_site_fract_y
_atom_site_fract_z
Si Si1 0.690827 0.436669 0.564720
Si Si2 0.500000 0.405466 0.750000
Si Si3 0.438752 0.704843 0.360209
Si Si4 0.297236 0.229336 0.386564
Si Si5 0.304916 0.556552 0.673758
Si Si6 0.540837 0.041530 0.073493
Si Si7 0.326725 0.717702 0.746855
Si Si8 0.503523 0.399997 0.080146
O O1 0.606052 0.351712 0.584297
O O2 0.634592 0.433983 0.484674
O O3 0.642623 0.526178 0.595540
O O4 0.881862 0.431258 0.591636
O O5 0.587670 0.349043 0.707859
O O6 0.364832 0.458103 0.695292
O O7 0.617833 0.744013 0.391880
O O8 0.298287 0.775510 0.329255
O O9 0.355476 0.132497 0.417411
O O10 0.276409 0.240628 0.307714
O O11 0.418131 0.304701 0.427911
O O12 0.128748 0.538015 0.622835
O O13 0.322390 0.609275 0.743633
O O14 0.422690 0.606916 0.638824
O O15 0.500000 0.000000 0.000000
O O16 0.500000 0.757869 0.750000
#
# Coordination Sequence:
#
# PCOD8153802 Si02
#       8
#     8   4   8   8   8   8   8   8
#     4  11  26  45  69 105 140 189 242 288 362 433
#     4  12  20  44  70  92 136 200 222 286 368 426
#     4  12  25  44  70 100 145 186 237 298 362 430
#     4  12  25  46  69 105 143 188 241 302 365 426
#     4  12  23  45  73 102 143 194 237 297 371 428
#     4  12  26  47  75 105 145 191 244 297 365 445
#     4  12  24  42  72 105 138 181 244 299 358 429
#     4  11  24  45  70 100 143 186 239 294 356 434
#
# _framework density 22.730111000000001
#
# number of rings (size 3 to 8) (size 9 to 14) (size 15 to 20)
#    0.000    0.267    7.333    0.800    3.733    2.133 
#    0.000    0.000    0.000    0.000    0.000    0.000 
#    0.000    0.000    0.000    0.000    0.000    0.000 
#
# Total GULP energy -371820.114048 kJ/mol
# GULP energy per Si atom -12394.003802 kJ/mol
# Density = 2.267838 g / cm^3
# Si number density = 22.730111 Si / 1000 Ang^3
#
#
#
# Elastic Constant Matrix: (Units=GPa)
#
#
# Indices 1 2 3 4 5 6 
#
# 1 137.2131 20.6526 18.4544 0.0000 21.6757 0.0000
# 2 20.6526 75.1397 18.1395 0.0000 8.6224 0.0000
# 3 18.4544 18.1395 75.2263 0.0000 8.4180 0.0000
# 4 0.0000 0.0000 0.0000 46.6481 0.0000 -4.4569
# 5 21.6757 8.6224 8.4180 0.0000 36.1382 0.0000
# 6 0.0000 0.0000 0.0000 -4.4569 0.0000 10.3011
#
#
#
# Elastic Compliance Matrix: (Units=1/GPa)
#
#
# Indices 1 2 3 4 5 6 
#
# 1 0.008368 -0.001508 -0.001199 0.000000 -0.004380 0.000000
# 2 -0.001508 0.014654 -0.002950 0.000000 -0.001905 0.000000
# 3 -0.001199 -0.002950 0.014518 0.000000 -0.001959 0.000000
# 4 0.000000 0.000000 0.000000 0.022361 0.000000 0.009675
# 5 -0.004380 -0.001905 -0.001959 0.000000 0.031209 0.000000
# 6 0.000000 0.000000 0.000000 0.009675 0.000000 0.101263
#
#
# Mechanical properties :
#
#
# Convention : Reuss Voigt Hill
#
# Bulk Modulus (GPa) = 38.13160 44.67469 41.40314
# Shear Modulus (GPa) = 23.53709 33.97298 28.75503
#
# Velocity S-wave (km/s) = 3.22141 3.87023 3.56063
# Velocity P-wave (km/s) = 5.53614 6.29831 5.92948
#
# Compressibility (1/GPa) = 0.02622497
#
# Stress axis : x y z
#
# Youngs Moduli (GPa) = 119.50139 68.24151 68.87998
#
# Poissons Ratio (x) = 0.10290 0.08259
# Poissons Ratio (y) = 0.18020 0.20323
# Poissons Ratio (z) = 0.14329 0.20134
#
# Static dielectric constant tensor:
#      x y z
#    x 4.198740 0.000000 0.252580 
#    y 0.000000 4.115990 0.000000 
#    z 0.252580 0.000000 4.100770 
# 
# 
# High freq. dielectric constant tensor:
#      x y z
#    x 1.902570 0.000000 0.017070 
#    y 0.000000 1.901020 0.000000 
#    z 0.017070 0.000000 1.901970 
# 
# From -- ./inp_files/232751.got.cif
#   From: 2010.06.25/outbox.cif.g09.slc.cpg/sg15_117_cif.got.tgz:232751.got - 2010.06.28 07:06:18.
