data_PCOD8153183
_publ_section_title
;
Structure prediction by ZEFSAII (Michael W. Deem and Ramdas Pophale) SiO2 
 PCOD8153183
Probable space group: C 2/C
;
_chemical_formula_sum "Si O2"
_cell_formula_units_Z 64
_cell_length_a 28.467001
_cell_length_b 9.474087
_cell_length_c 18.155142
_cell_angle_alpha 90.000000
_cell_angle_beta 141.964344
_cell_angle_gamma 90.000000
_cell_volume 3016.938236
_symmetry_space_group_name_H-M "C 2/C"
_symmetry_group_IT_number 15
_symmetry_cell_setting 'monoclinic'
loop_
_space_group_symop_operation_xyz
x,y,z
-x,y,1/2-z
-x,-y,-z
x,-y,1/2+z
1/2+x,1/2+y,z
1/2-x,1/2+y,1/2-z
1/2-x,1/2-y,-z
1/2+x,1/2-y,1/2+z
loop_
_atom_site_type_symbol
_atom_site_label
_atom_site_fract_x
_atom_site_fract_y
_atom_site_fract_z
Si Si1 0.292692 0.116414 0.461448
Si Si2 0.657655 0.252211 0.253456
Si Si3 0.566592 0.785141 0.273130
Si Si4 0.357025 0.514976 0.163654
Si Si5 0.975096 0.531526 0.387784
Si Si6 0.812381 0.899367 0.958099
Si Si7 0.362476 0.874504 0.456805
Si Si8 0.771622 0.837571 0.311289
O O1 0.356798 0.193948 0.586622
O O2 0.264676 0.206044 0.357036
O O3 0.222343 0.098517 0.429171
O O4 0.320600 0.963902 0.468320
O O5 0.637706 0.401684 0.265031
O O6 0.585854 0.155059 0.181902
O O7 0.730828 0.171289 0.377345
O O8 0.673320 0.285197 0.186825
O O9 0.500000 0.795560 0.250000
O O10 0.573315 0.628194 0.245733
O O11 0.558395 0.896923 0.196828
O O12 0.358598 0.438141 0.087613
O O13 0.000000 0.500000 0.500000
O O14 0.051064 0.577146 0.439898
O O15 0.865606 0.787942 0.982963
O O16 0.807298 0.031105 0.897347
O O17 0.312780 0.885031 0.320177
#
# Coordination Sequence:
#
# PCOD8153183 Si02
#       8
#     8   8   8   8   8   8   8   8
#     4  12  23  46  71 103 135 180 238 288 343 411
#     4  11  26  42  69 104 140 177 232 289 344 416
#     4  12  28  46  70 101 144 186 230 284 357 424
#     4  12  26  44  69 104 136 179 236 294 338 408
#     4  12  27  46  71 101 141 184 231 283 351 429
#     4  11  23  43  71  99 138 179 232 289 345 404
#     4  11  24  42  72 100 139 185 229 286 352 411
#     4  11  23  44  72 102 137 179 233 289 344 408
#
# _framework density 21.213560000000001
#
# number of rings (size 3 to 8) (size 9 to 14) (size 15 to 20)
#    0.000    0.500    5.000    4.500    5.250    1.000 
#    0.000    1.250    0.000    0.000    0.000    0.000 
#    0.000    0.000    0.000    0.000    0.000    0.000 
#
# Total GULP energy -396840.129215 kJ/mol
# GULP energy per Si atom -12401.254038 kJ/mol
# Density = 2.116528 g / cm^3
# Si number density = 21.213560 Si / 1000 Ang^3
#
#
#
# Elastic Constant Matrix: (Units=GPa)
#
#
# Indices 1 2 3 4 5 6 
#
# 1 51.5443 10.0317 9.9118 0.0000 3.0864 0.0000
# 2 10.0317 77.3897 -5.0131 0.0000 4.9532 0.0000
# 3 9.9118 -5.0131 53.4795 0.0000 -0.3038 0.0000
# 4 0.0000 0.0000 0.0000 24.1342 0.0000 -1.8828
# 5 3.0864 4.9532 -0.3038 0.0000 28.9420 0.0000
# 6 0.0000 0.0000 0.0000 -1.8828 0.0000 38.3988
#
#
#
# Elastic Compliance Matrix: (Units=1/GPa)
#
#
# Indices 1 2 3 4 5 6 
#
# 1 0.020861 -0.002859 -0.004144 0.000000 -0.001779 0.000000
# 2 -0.002859 0.013536 0.001787 0.000000 -0.001993 0.000000
# 3 -0.004144 0.001787 0.019636 0.000000 0.000342 0.000000
# 4 0.000000 0.000000 0.000000 0.041594 0.000000 0.002040
# 5 -0.001779 -0.001993 0.000342 0.000000 0.035086 0.000000
# 6 0.000000 0.000000 0.000000 0.002040 0.000000 0.026143
#
#
# Mechanical properties :
#
#
# Convention : Reuss Voigt Hill
#
# Bulk Modulus (GPa) = 22.93525 23.58604 23.26064
# Shear Modulus (GPa) = 27.49967 29.46054 28.48011
#
# Velocity S-wave (km/s) = 3.60436 3.73065 3.66805
# Velocity P-wave (km/s) = 5.30631 5.44973 5.37850
#
# Compressibility (1/GPa) = 0.04360101
#
# Stress axis : x y z
#
# Youngs Moduli (GPa) = 47.93718 73.87979 50.92593
#
# Poissons Ratio (x) = 0.21120 0.21106
# Poissons Ratio (y) = 0.13704 -0.09102
# Poissons Ratio (z) = 0.19867 -0.13205
#
# Static dielectric constant tensor:
#      x y z
#    x 3.864210 0.000000 -0.099510 
#    y 0.000000 4.402810 0.000000 
#    z -0.099510 0.000000 3.800640 
# 
# 
# High freq. dielectric constant tensor:
#      x y z
#    x 1.837990 0.000000 -0.008680 
#    y 0.000000 1.855340 0.000000 
#    z -0.008680 0.000000 1.823380 
# 
# From -- ./inp_files/224621.got.cif
#   From: 2010.06.25/outbox.cif.g09.slc.cpg/sg15_113_cif.got.tgz:224621.got - 2010.06.28 07:06:18.
