data_PCOD8153008
_publ_section_title
;
Structure prediction by ZEFSAII (Michael W. Deem and Ramdas Pophale) SiO2 
 PCOD8153008
Probable space group: C 2/C
;
_chemical_formula_sum "Si O2"
_cell_formula_units_Z 56
_cell_length_a 26.349745
_cell_length_b 8.638372
_cell_length_c 17.458259
_cell_angle_alpha 90.000000
_cell_angle_beta 140.134808
_cell_angle_gamma 90.000000
_cell_volume 2547.159068
_symmetry_space_group_name_H-M "C 2/C"
_symmetry_group_IT_number 15
_symmetry_cell_setting 'monoclinic'
loop_
_space_group_symop_operation_xyz
x,y,z
-x,y,1/2-z
-x,-y,-z
x,-y,1/2+z
1/2+x,1/2+y,z
1/2-x,1/2+y,1/2-z
1/2-x,1/2-y,-z
1/2+x,1/2-y,1/2+z
loop_
_atom_site_type_symbol
_atom_site_label
_atom_site_fract_x
_atom_site_fract_y
_atom_site_fract_z
Si Si1 0.300263 0.109946 0.698255
Si Si2 0.940256 0.590880 0.120985
Si Si3 0.491656 0.567501 0.652824
Si Si4 0.580600 0.935026 0.558751
Si Si5 0.138267 0.891963 0.091941
Si Si6 0.150475 0.055025 0.261514
Si Si7 0.280601 0.917824 0.520917
O O1 0.215760 0.162696 0.634964
O O2 0.354347 0.258974 0.743125
O O3 0.344478 0.005664 0.811554
O O4 0.289467 0.013487 0.608719
O O5 0.979712 0.747758 0.133559
O O6 0.862610 0.625089 0.077910
O O7 0.000000 0.509220 0.250000
O O8 0.918513 0.473905 0.029326
O O9 0.500000 0.512832 0.750000
O O10 0.415790 0.486112 0.529150
O O11 0.569706 0.519715 0.697615
O O12 0.589111 0.749837 0.571984
O O13 0.500000 0.000000 0.500000
O O14 0.165658 0.002564 0.192321
O O15 0.224182 0.009888 0.398895
O O16 0.250000 0.750000 0.500000
#
# Coordination Sequence:
#
# PCOD8153008 Si02
#       7
#     8   8   8   8   8   8   8
#     4  12  25  43  66  98 134 174 220 272 329 393
#     4  11  23  42  65  94 128 169 215 268 328 392
#     4  11  24  44  67  94 129 172 218 268 329 397
#     4  12  25  43  66  96 130 170 219 274 327 386
#     4  12  24  42  67  97 131 174 220 271 327 391
#     4  12  25  44  67  96 132 175 219 270 330 394
#     4  12  24  42  67  97 132 172 218 273 328 391
#
# _framework density 21.985278000000001
#
# number of rings (size 3 to 8) (size 9 to 14) (size 15 to 20)
#    0.000    0.286    0.000   11.143    0.000    1.714 
#    0.000    0.000    0.000    0.000    0.000    0.000 
#    0.000    0.000    0.000    0.000    0.000    0.000 
#
# Total GULP energy -347345.688876 kJ/mol
# GULP energy per Si atom -12405.203174 kJ/mol
# Density = 2.193524 g / cm^3
# Si number density = 21.985278 Si / 1000 Ang^3
#
#
#
# Elastic Constant Matrix: (Units=GPa)
#
#
# Indices 1 2 3 4 5 6 
#
# 1 110.5390 21.8972 26.6761 0.0000 2.8044 0.0000
# 2 21.8972 120.6439 43.3427 0.0000 -24.5903 0.0000
# 3 26.6761 43.3427 162.6434 0.0000 -27.8349 0.0000
# 4 0.0000 0.0000 0.0000 39.7842 0.0000 19.4054
# 5 2.8044 -24.5903 -27.8349 0.0000 46.1640 0.0000
# 6 0.0000 0.0000 0.0000 19.4054 0.0000 -40.1304
#
#
#
# Elastic Compliance Matrix: (Units=1/GPa)
#
#
# Indices 1 2 3 4 5 6 
#
# 1 0.009830 -0.001720 -0.001575 0.000000 -0.002463 0.000000
# 2 -0.001720 0.010108 -0.001642 0.000000 0.004499 0.000000
# 3 -0.001575 -0.001642 0.007483 0.000000 0.003733 0.000000
# 4 0.000000 0.000000 0.000000 0.020339 0.000000 0.009835
# 5 -0.002463 0.004499 0.003733 0.000000 0.026459 0.000000
# 6 0.000000 0.000000 0.000000 0.009835 0.000000 -0.020163
#
#
# Mechanical properties :
#
#
# Convention : Reuss Voigt Hill
#
# Bulk Modulus (GPa) = 56.99127 64.18426 60.58776
# Shear Modulus (GPa) = 71.65482 29.29090 50.47286
#
# Velocity S-wave (km/s) = 5.71515 3.65402 4.79660
# Velocity P-wave (km/s) = 8.33842 6.86004 7.63510
#
# Compressibility (1/GPa) = 0.01754655
#
# Stress axis : x y z
#
# Youngs Moduli (GPa) = 101.72884 98.93323 133.63283
#
# Poissons Ratio (x) = 0.17019 0.21053
# Poissons Ratio (y) = 0.17500 0.21936
# Poissons Ratio (z) = 0.16027 0.16240
#
# Static dielectric constant tensor:
#      x y z
#    x 4.006190 0.000000 -0.036190 
#    y 0.000000 4.075580 0.000000 
#    z -0.036190 0.000000 4.229050 
# 
# 
# High freq. dielectric constant tensor:
#      x y z
#    x 1.879020 0.000000 -0.002090 
#    y 0.000000 1.869340 0.000000 
#    z -0.002090 0.000000 1.891850 
# 
# From -- ./inp_files/222064.got.cif
#   From: 2010.06.25/outbox.cif.g09.slc.cpg/sg15_112_cif.got.tgz:222064.got - 2010.06.28 07:06:18.
