data_PCOD8153658
_publ_section_title
;
Structure prediction by ZEFSAII (Michael W. Deem and Ramdas Pophale) SiO2 
 PCOD8153658
Probable space group: C 2/C
;
_chemical_formula_sum "Si O2"
_cell_formula_units_Z 40
_cell_length_a 14.120188
_cell_length_b 22.983509
_cell_length_c 7.413913
_cell_angle_alpha 90.000000
_cell_angle_beta 49.842409
_cell_angle_gamma 90.000000
_cell_volume 1838.878953
_symmetry_space_group_name_H-M "C 2/C"
_symmetry_group_IT_number 15
_symmetry_cell_setting 'monoclinic'
loop_
_space_group_symop_operation_xyz
x,y,z
-x,y,1/2-z
-x,-y,-z
x,-y,1/2+z
1/2+x,1/2+y,z
1/2-x,1/2+y,1/2-z
1/2-x,1/2-y,-z
1/2+x,1/2-y,1/2+z
loop_
_atom_site_type_symbol
_atom_site_label
_atom_site_fract_x
_atom_site_fract_y
_atom_site_fract_z
Si Si1 0.738439 0.579403 0.617185
Si Si2 0.322411 0.825885 0.266140
Si Si3 0.362129 0.022161 0.142349
Si Si4 0.500000 0.375544 0.250000
Si Si5 0.000000 0.398320 0.250000
Si Si6 0.898373 0.197272 0.214365
O O1 0.766376 0.644066 0.656727
O O2 0.831668 0.564136 0.343773
O O3 0.759513 0.528635 0.741323
O O4 0.599937 0.580393 0.711094
O O5 0.452087 0.857870 0.147664
O O6 0.223382 0.832752 0.551116
O O7 0.356184 0.759306 0.187099
O O8 0.377479 0.063257 0.948002
O O9 0.500000 0.000000 0.000000
O O10 0.445947 0.337661 0.481705
O O11 0.000000 0.202880 0.250000
#
# Coordination Sequence:
#
# PCOD8153658 Si02
#       6
#     8   8   8   4   4   8
#     4  12  25  45  69 103 139 191 232 295 356 422
#     4  11  24  43  74 101 144 184 227 293 364 413
#     4  12  23  41  67 101 140 175 241 292 349 419
#     4  12  28  46  75 100 143 194 242 284 350 436
#     4  12  22  40  67 100 135 188 224 298 352 418
#     4  11  24  49  70 107 143 185 239 288 347 438
#
# _framework density 21.752382000000001
#
# number of rings (size 3 to 8) (size 9 to 14) (size 15 to 20)
#    0.000    0.400    7.000    1.200    0.000    3.200 
#    0.000    0.000    0.000    0.000    0.000    0.000 
#    0.000    0.000    0.000    0.000    0.000    0.000 
#
# Total GULP energy -247883.318329 kJ/mol
# GULP energy per Si atom -12394.165916 kJ/mol
# Density = 2.170287 g / cm^3
# Si number density = 21.752382 Si / 1000 Ang^3
#
#
#
# Elastic Constant Matrix: (Units=GPa)
#
#
# Indices 1 2 3 4 5 6 
#
# 1 143.6082 61.7573 35.6588 0.0000 -11.2922 0.0000
# 2 61.7573 125.5227 62.4926 0.0000 -2.5127 0.0000
# 3 35.6588 62.4926 121.6639 0.0000 5.2917 0.0000
# 4 0.0000 0.0000 0.0000 36.8881 0.0000 3.8120
# 5 -11.2922 -2.5127 5.2917 0.0000 36.0965 0.0000
# 6 0.0000 0.0000 0.0000 3.8120 0.0000 38.8264
#
#
#
# Elastic Compliance Matrix: (Units=1/GPa)
#
#
# Indices 1 2 3 4 5 6 
#
# 1 0.009098 -0.004082 -0.000686 0.000000 0.002663 0.000000
# 2 -0.004082 0.012623 -0.005304 0.000000 0.000379 0.000000
# 3 -0.000686 -0.005304 0.011242 0.000000 -0.002232 0.000000
# 4 0.000000 0.000000 0.000000 0.027387 0.000000 -0.002689
# 5 0.002663 0.000379 -0.002232 0.000000 0.028890 0.000000
# 6 0.000000 0.000000 0.000000 -0.002689 0.000000 0.026020
#
#
# Mechanical properties :
#
#
# Convention : Reuss Voigt Hill
#
# Bulk Modulus (GPa) = 78.00232 78.95691 78.47962
# Shear Modulus (GPa) = 35.79698 37.75461 36.77579
#
# Velocity S-wave (km/s) = 4.06107 4.17064 4.11622
# Velocity P-wave (km/s) = 7.61097 7.71810 7.66472
#
# Compressibility (1/GPa) = 0.01282013
#
# Stress axis : x y z
#
# Youngs Moduli (GPa) = 109.91021 79.21989 88.95275
#
# Poissons Ratio (x) = 0.32334 0.06102
# Poissons Ratio (y) = 0.44861 0.47181
# Poissons Ratio (z) = 0.07540 0.42019
#
# Static dielectric constant tensor:
#      x y z
#    x 4.284090 0.000000 -0.143270 
#    y 0.000000 4.293300 0.000000 
#    z -0.143270 0.000000 4.219990 
# 
# 
# High freq. dielectric constant tensor:
#      x y z
#    x 1.864650 0.000000 0.002790 
#    y 0.000000 1.861610 0.000000 
#    z 0.002790 0.000000 1.848540 
# 
# From -- ./inp_files/30239.got.cif
#   From: 2010.06.25/outbox.cif.g09.slc.cpg/sg15_16_cif.got.tgz:30239.got - 2010.06.28 07:06:18.
