data_PCOD8153383
_publ_section_title
;
Structure prediction by ZEFSAII (Michael W. Deem and Ramdas Pophale) SiO2 
 PCOD8153383
Probable space group: C 2/C
;
_chemical_formula_sum "Si O2"
_cell_formula_units_Z 36
_cell_length_a 23.487137
_cell_length_b 8.684407
_cell_length_c 13.252699
_cell_angle_alpha 90.000000
_cell_angle_beta 141.452389
_cell_angle_gamma 90.000000
_cell_volume 1684.524994
_symmetry_space_group_name_H-M "C 2/C"
_symmetry_group_IT_number 15
_symmetry_cell_setting 'monoclinic'
loop_
_space_group_symop_operation_xyz
x,y,z
-x,y,1/2-z
-x,-y,-z
x,-y,1/2+z
1/2+x,1/2+y,z
1/2-x,1/2+y,1/2-z
1/2-x,1/2-y,-z
1/2+x,1/2-y,1/2+z
loop_
_atom_site_type_symbol
_atom_site_label
_atom_site_fract_x
_atom_site_fract_y
_atom_site_fract_z
Si Si1 0.920750 0.045204 0.311725
Si Si2 0.070400 0.591071 0.457552
Si Si3 0.734296 0.916438 0.031422
Si Si4 0.000000 0.129979 0.750000
Si Si5 0.401167 0.905151 0.273213
O O1 0.915492 0.224910 0.285522
O O2 0.824872 0.973772 0.215128
O O3 0.929669 0.977212 0.211323
O O4 0.000000 0.000000 0.500000
O O5 0.158281 0.565595 0.511671
O O6 0.094431 0.548361 0.604396
O O7 0.044984 0.768968 0.401713
O O8 0.977850 0.490576 0.309120
O O9 0.750000 0.750000 0.000000
O O10 0.699676 0.038109 0.899363
#
# Coordination Sequence:
#
# PCOD8153383 Si02
#       5
#     8   8   8   4   8
#     4  12  27  45  70 107 144 183 240 296 359 429
#     4  11  23  45  75  99 144 189 235 291 360 428
#     4  12  25  46  72 104 145 188 237 295 358 426
#     4  12  22  46  70  98 144 188 226 300 364 418
#     4  11  25  45  71 109 139 190 241 291 361 433
#
# _framework density 21.371009000000001
#
# number of rings (size 3 to 8) (size 9 to 14) (size 15 to 20)
#    0.000    0.444    6.667    0.667    6.222    3.556 
#    0.000    0.000    0.000    0.000    0.000    0.000 
#    0.000    0.000    0.000    0.000    0.000    0.000 
#
# Total GULP energy -223000.309583 kJ/mol
# GULP energy per Si atom -12388.906088 kJ/mol
# Density = 2.132237 g / cm^3
# Si number density = 21.371009 Si / 1000 Ang^3
#
#
#
# Elastic Constant Matrix: (Units=GPa)
#
#
# Indices 1 2 3 4 5 6 
#
# 1 127.5186 35.0013 51.1436 0.0000 15.9610 0.0000
# 2 35.0013 154.1260 63.2099 0.0000 13.8161 0.0000
# 3 51.1436 63.2099 161.2082 0.0000 22.7803 0.0000
# 4 0.0000 0.0000 0.0000 33.4977 0.0000 -0.3678
# 5 15.9610 13.8161 22.7803 0.0000 30.6582 0.0000
# 6 0.0000 0.0000 0.0000 -0.3678 0.0000 41.1443
#
#
#
# Elastic Compliance Matrix: (Units=1/GPa)
#
#
# Indices 1 2 3 4 5 6 
#
# 1 0.009336 -0.000973 -0.002185 0.000000 -0.002798 0.000000
# 2 -0.000973 0.007885 -0.002629 0.000000 -0.001094 0.000000
# 3 -0.002185 -0.002629 0.008490 0.000000 -0.003987 0.000000
# 4 0.000000 0.000000 0.000000 0.029856 0.000000 0.000267
# 5 -0.002798 -0.001094 -0.003987 0.000000 0.037530 0.000000
# 6 0.000000 0.000000 0.000000 0.000267 0.000000 0.024307
#
#
# Mechanical properties :
#
#
# Convention : Reuss Voigt Hill
#
# Bulk Modulus (GPa) = 70.73027 82.39581 76.56304
# Shear Modulus (GPa) = 37.40019 40.62659 39.01339
#
# Velocity S-wave (km/s) = 4.18789 4.36479 4.27726
# Velocity P-wave (km/s) = 7.52016 8.00253 7.76509
#
# Compressibility (1/GPa) = 0.01413822
#
# Stress axis : x y z
#
# Youngs Moduli (GPa) = 107.11700 126.81897 117.78214
#
# Poissons Ratio (x) = 0.12343 0.25732
# Poissons Ratio (y) = 0.10425 0.30959
# Poissons Ratio (z) = 0.23402 0.33334
#
# Static dielectric constant tensor:
#      x y z
#    x 4.312040 0.000000 -0.402830 
#    y 0.000000 3.978750 0.000000 
#    z -0.402830 0.000000 4.714590 
# 
# 
# High freq. dielectric constant tensor:
#      x y z
#    x 1.849520 0.000000 0.000330 
#    y 0.000000 1.843230 0.000000 
#    z 0.000330 0.000000 1.845270 
# 
# From -- ./inp_files/159067.got.cif
#   From: 2010.06.25/outbox.cif.g09.slc.cpg/sg15_80_cif.got.tgz:159067.got - 2010.06.28 07:06:18.
