data_PCOD8153222
_publ_section_title
;
Structure prediction by ZEFSAII (Michael W. Deem and Ramdas Pophale) SiO2 
 PCOD8153222
Probable space group: C 2/C
;
_chemical_formula_sum "Si O2"
_cell_formula_units_Z 32
_cell_length_a 20.420063
_cell_length_b 7.562812
_cell_length_c 22.055403
_cell_angle_alpha 90.000000
_cell_angle_beta 24.278761
_cell_angle_gamma 90.000000
_cell_volume 1400.501719
_symmetry_space_group_name_H-M "C 2/C"
_symmetry_group_IT_number 15
_symmetry_cell_setting 'monoclinic'
loop_
_space_group_symop_operation_xyz
x,y,z
-x,y,1/2-z
-x,-y,-z
x,-y,1/2+z
1/2+x,1/2+y,z
1/2-x,1/2+y,1/2-z
1/2-x,1/2-y,-z
1/2+x,1/2-y,1/2+z
loop_
_atom_site_type_symbol
_atom_site_label
_atom_site_fract_x
_atom_site_fract_y
_atom_site_fract_z
Si Si1 0.821858 0.361919 0.385372
Si Si2 0.650468 0.726134 0.270222
Si Si3 0.855147 0.386488 0.699361
Si Si4 0.409660 0.589929 0.981236
O O1 0.750000 0.250000 0.500000
O O2 0.815951 0.240989 0.329882
O O3 0.717056 0.540348 0.464779
O O4 0.000000 0.422451 0.250000
O O5 0.817446 0.679599 0.162977
O O6 0.523756 0.577392 0.393022
O O7 0.581890 0.913086 0.352656
O O8 0.987328 0.263793 0.620583
O O9 0.686908 0.373579 0.876043
#
# Coordination Sequence:
#
# PCOD8153222 Si02
#       4
#     8   8   8   8
#     4  11  24  46  75  98 136 196 238 279 349 415
#     4  11  23  43  77 101 145 183 231 295 351 420
#     4  11  25  42  72 112 140 179 235 289 368 414
#     4  11  25  46  70 107 143 185 230 294 350 421
#
# _framework density 22.848955
#
# number of rings (size 3 to 8) (size 9 to 14) (size 15 to 20)
#    0.000    1.000    5.000    0.750    3.500    5.000 
#    0.000    5.000   11.000    0.000    0.000    0.000 
#    0.000    0.000    0.000    0.000    0.000    0.000 
#
# Total GULP energy -198375.391039 kJ/mol
# GULP energy per Si atom -12398.461940 kJ/mol
# Density = 2.279695 g / cm^3
# Si number density = 22.848955 Si / 1000 Ang^3
#
#
#
# Elastic Constant Matrix: (Units=GPa)
#
#
# Indices 1 2 3 4 5 6 
#
# 1 153.4056 39.9942 46.1813 0.0000 -2.6135 0.0000
# 2 39.9942 139.5748 39.3453 0.0007 -6.4821 -0.0007
# 3 46.1813 39.3453 91.1491 -0.0029 -10.0032 0.0008
# 4 0.0000 0.0007 -0.0029 42.5461 0.0018 -18.7416
# 5 -2.6135 -6.4821 -10.0032 0.0018 40.1324 -0.0005
# 6 0.0000 -0.0007 0.0008 -18.7416 -0.0005 44.1931
#
#
#
# Elastic Compliance Matrix: (Units=1/GPa)
#
#
# Indices 1 2 3 4 5 6 
#
# 1 0.007904 -0.001303 -0.003504 0.000000 -0.000569 0.000000
# 2 -0.001303 0.008380 -0.002897 0.000000 0.000547 0.000000
# 3 -0.003504 -0.002897 0.014312 0.000001 0.002871 0.000000
# 4 0.000000 0.000000 0.000001 0.028903 -0.000001 0.012257
# 5 -0.000569 0.000547 0.002871 -0.000001 0.025684 0.000000
# 6 0.000000 0.000000 0.000000 0.012257 0.000000 0.027826
#
#
# Mechanical properties :
#
#
# Convention : Reuss Voigt Hill
#
# Bulk Modulus (GPa) = 65.84758 70.57455 68.21106
# Shear Modulus (GPa) = 37.45837 42.61491 40.03664
#
# Velocity S-wave (km/s) = 4.05333 4.32333 4.19051
# Velocity P-wave (km/s) = 7.12651 7.47503 7.30285
#
# Compressibility (1/GPa) = 0.01518659
#
# Stress axis : x y z
#
# Youngs Moduli (GPa) = 126.52281 119.33009 69.87061
#
# Poissons Ratio (x) = 0.15553 0.24485
# Poissons Ratio (y) = 0.16490 0.20242
# Poissons Ratio (z) = 0.44338 0.34570
#
# Static dielectric constant tensor:
#      x y z
#    x 4.399970 0.000000 -0.267900 
#    y 0.000000 4.175750 0.000000 
#    z -0.267900 0.000000 4.155260 
# 
# 
# High freq. dielectric constant tensor:
#      x y z
#    x 1.903580 0.000000 -0.011230 
#    y 0.000000 1.896670 0.000000 
#    z -0.011230 0.000000 1.909070 
# 
# From -- ./inp_files/53465.got.cif
#   From: 2010.06.25/outbox.cif.g09.slc.cpg/sg15_27_cif.got.tgz:53465.got - 2010.06.28 07:06:18.
