data_PCOD8153344
_publ_section_title
;
Structure prediction by ZEFSAII (Michael W. Deem and Ramdas Pophale) SiO2 
 PCOD8153344
Probable space group: C 2/C
;
_chemical_formula_sum "Si O2"
_cell_formula_units_Z 44
_cell_length_a 15.681278
_cell_length_b 6.607843
_cell_length_c 20.232945
_cell_angle_alpha 90.000000
_cell_angle_beta 75.034597
_cell_angle_gamma 90.000000
_cell_volume 2025.415976
_symmetry_space_group_name_H-M "C 2/C"
_symmetry_group_IT_number 15
_symmetry_cell_setting 'monoclinic'
loop_
_space_group_symop_operation_xyz
x,y,z
-x,y,1/2-z
-x,-y,-z
x,-y,1/2+z
1/2+x,1/2+y,z
1/2-x,1/2+y,1/2-z
1/2-x,1/2-y,-z
1/2+x,1/2-y,1/2+z
loop_
_atom_site_type_symbol
_atom_site_label
_atom_site_fract_x
_atom_site_fract_y
_atom_site_fract_z
Si Si1 0.000000 0.405942 0.750000
Si Si2 0.104184 0.662507 0.632069
Si Si3 0.813891 0.732592 0.425877
Si Si4 0.632353 0.676053 0.808413
Si Si5 0.225697 0.966982 0.679414
Si Si6 0.019986 0.006780 0.572621
O O1 0.026206 0.542265 0.683036
O O2 0.079961 0.264037 0.756057
O O3 0.177256 0.506228 0.590373
O O4 0.148492 0.814086 0.674664
O O5 0.060249 0.787879 0.581569
O O6 0.750000 0.750000 0.500000
O O7 0.910617 0.818136 0.423437
O O8 0.769487 0.846633 0.372729
O O9 0.679941 0.853764 0.840264
O O10 0.706217 0.534982 0.758857
O O11 0.569974 0.547690 0.869205
O O12 0.000000 0.000000 0.500000
#
# Coordination Sequence:
#
# PCOD8153344 Si02
#       6
#     4   8   8   8   8   8
#     4  12  20  44  72  96 132 174 232 278 350 396
#     4  11  23  45  70  95 136 184 223 290 339 408
#     4  11  26  45  69  99 137 185 228 281 348 412
#     4  12  24  45  68 104 137 177 235 285 344 413
#     4  11  26  43  69 102 136 181 231 286 344 415
#     4  11  27  44  68 102 138 180 233 282 345 421
#
# _framework density 21.723932000000001
#
# number of rings (size 3 to 8) (size 9 to 14) (size 15 to 20)
#    0.000    0.727    3.636    3.273    5.091    3.636 
#    0.000    0.000    0.000    0.000    0.000    0.000 
#    0.000    0.000    0.000    0.000    0.000    0.000 
#
# Total GULP energy -272944.779721 kJ/mol
# GULP energy per Si atom -12406.580896 kJ/mol
# Density = 2.167449 g / cm^3
# Si number density = 21.723932 Si / 1000 Ang^3
#
#
#
# Elastic Constant Matrix: (Units=GPa)
#
#
# Indices 1 2 3 4 5 6 
#
# 1 86.6471 35.9774 34.6025 0.0001 7.6099 0.0001
# 2 35.9774 130.5981 55.5410 0.0003 2.5206 0.0003
# 3 34.6025 55.5410 145.0640 0.0001 -8.5938 0.0001
# 4 0.0001 0.0003 0.0001 28.8511 0.0001 -0.4738
# 5 7.6099 2.5206 -8.5938 0.0001 46.3049 0.0001
# 6 0.0001 0.0003 0.0001 -0.4738 0.0001 41.8742
#
#
#
# Elastic Compliance Matrix: (Units=1/GPa)
#
#
# Indices 1 2 3 4 5 6 
#
# 1 0.013870 -0.002746 -0.002410 0.000000 -0.002577 0.000000
# 2 -0.002746 0.009752 -0.003118 0.000000 -0.000658 0.000000
# 3 -0.002410 -0.003118 0.008792 0.000000 0.002197 0.000000
# 4 0.000000 0.000000 0.000000 0.034667 0.000000 0.000392
# 5 -0.002577 -0.000658 0.002197 0.000000 0.022463 0.000000
# 6 0.000000 0.000000 0.000000 0.000392 0.000000 0.023886
#
#
# Mechanical properties :
#
#
# Convention : Reuss Voigt Hill
#
# Bulk Modulus (GPa) = 63.02423 68.28346 65.65385
# Shear Modulus (GPa) = 36.96395 39.15192 38.05793
#
# Velocity S-wave (km/s) = 4.12944 4.24990 4.19010
# Velocity P-wave (km/s) = 7.19797 7.45538 7.32781
#
# Compressibility (1/GPa) = 0.01586691
#
# Stress axis : x y z
#
# Youngs Moduli (GPa) = 72.09773 102.53982 113.73770
#
# Poissons Ratio (x) = 0.28162 0.27406
# Poissons Ratio (y) = 0.19801 0.35461
# Poissons Ratio (z) = 0.17373 0.31969
#
# Static dielectric constant tensor:
#      x y z
#    x 3.993280 0.000000 0.046640 
#    y 0.000000 4.314520 0.000000 
#    z 0.046640 0.000000 3.867120 
# 
# 
# High freq. dielectric constant tensor:
#      x y z
#    x 1.856320 0.000000 0.000120 
#    y 0.000000 1.866200 0.000000 
#    z 0.000120 0.000000 1.855460 
# 
# From -- ./inp_files/246427.got.cif
#   From: 2010.06.25/outbox.cif.g09.slc.cpg/sg15_124_cif.got.tgz:246427.got - 2010.06.28 07:06:18.
