data_PCOD8153563
_publ_section_title
;
Structure prediction by ZEFSAII (Michael W. Deem and Ramdas Pophale) SiO2 
 PCOD8153563
Probable space group: C 2/C
;
_chemical_formula_sum "Si O2"
_cell_formula_units_Z 60
_cell_length_a 6.130390
_cell_length_b 16.346863
_cell_length_c 26.749108
_cell_angle_alpha 90.000000
_cell_angle_beta 86.682716
_cell_angle_gamma 90.000000
_cell_volume 2676.107282
_symmetry_space_group_name_H-M "C 2/C"
_symmetry_group_IT_number 15
_symmetry_cell_setting 'monoclinic'
loop_
_space_group_symop_operation_xyz
x,y,z
-x,y,1/2-z
-x,-y,-z
x,-y,1/2+z
1/2+x,1/2+y,z
1/2-x,1/2+y,1/2-z
1/2-x,1/2-y,-z
1/2+x,1/2-y,1/2+z
loop_
_atom_site_type_symbol
_atom_site_label
_atom_site_fract_x
_atom_site_fract_y
_atom_site_fract_z
Si Si1 0.500000 0.352378 0.750000
Si Si2 0.926780 0.823652 0.117182
Si Si3 0.315775 0.862492 0.047896
Si Si4 0.606190 0.433818 0.961591
Si Si5 0.900175 0.436715 0.700128
Si Si6 0.887374 0.463469 0.386448
Si Si7 0.627400 0.771132 0.700313
Si Si8 0.137590 0.223489 0.052389
O O1 0.649167 0.412166 0.714119
O O2 0.375307 0.291514 0.713212
O O3 0.752268 0.891233 0.138316
O O4 0.794008 0.746096 0.096865
O O5 0.070886 0.867162 0.072871
O O6 0.097764 0.796735 0.157968
O O7 0.475132 0.929899 0.069006
O O8 0.409153 0.772480 0.057269
O O9 0.290773 0.882710 0.989520
O O10 0.719701 0.469895 0.910668
O O11 0.414528 0.372886 0.945008
O O12 0.500000 0.500000 0.000000
O O13 0.000000 0.473037 0.750000
O O14 0.937769 0.501942 0.655792
O O15 0.025105 0.355131 0.682115
O O16 0.500000 0.737099 0.750000
O O17 0.250000 0.250000 0.000000
#
# Coordination Sequence:
#
# PCOD8153563 Si02
#       8
#     4   8   8   8   8   8   8   8
#     4   8  18  42  72 104 130 170 228 292 344 394
#     4  11  24  45  65 104 136 179 236 273 339 410
#     4  11  24  42  64  96 141 179 228 280 326 411
#     4  12  23  45  67  97 140 182 224 284 336 395
#     4   9  21  43  70 102 134 170 227 283 343 415
#     4  11  25  43  67 103 138 180 224 278 352 401
#     4   9  21  42  70  99 132 172 229 283 339 410
#     4  11  24  43  69  94 135 184 228 279 330 395
#
# _framework density 22.420625999999999
#
# number of rings (size 3 to 8) (size 9 to 14) (size 15 to 20)
#    0.000    1.867    2.667    1.600    1.867    7.467 
#    7.200    0.000    0.000    0.000    0.000    0.000 
#    0.000    0.000    0.000    0.000    0.000    0.000 
#
# Total GULP energy -371936.019389 kJ/mol
# GULP energy per Si atom -12397.867313 kJ/mol
# Density = 2.236960 g / cm^3
# Si number density = 22.420626 Si / 1000 Ang^3
#
#
#
# Elastic Constant Matrix: (Units=GPa)
#
#
# Indices 1 2 3 4 5 6 
#
# 1 131.6901 48.2759 44.1330 0.0000 6.0281 0.0000
# 2 48.2759 105.0916 50.9645 0.0000 2.0543 0.0000
# 3 44.1330 50.9645 101.6824 0.0000 1.9090 0.0000
# 4 0.0000 0.0000 0.0000 24.7826 0.0000 0.3466
# 5 6.0281 2.0543 1.9090 0.0000 28.0870 0.0000
# 6 0.0000 0.0000 0.0000 0.3466 0.0000 28.0856
#
#
#
# Elastic Compliance Matrix: (Units=1/GPa)
#
#
# Indices 1 2 3 4 5 6 
#
# 1 0.009699 -0.003166 -0.002591 0.000000 -0.001674 0.000000
# 2 -0.003166 0.013611 -0.005449 0.000000 0.000054 0.000000
# 3 -0.002591 -0.005449 0.013690 0.000000 0.000024 0.000000
# 4 0.000000 0.000000 0.000000 0.040358 0.000000 -0.000498
# 5 -0.001674 0.000054 0.000024 0.000000 0.035957 0.000000
# 6 0.000000 0.000000 0.000000 -0.000498 0.000000 0.035612
#
#
# Mechanical properties :
#
#
# Convention : Reuss Voigt Hill
#
# Bulk Modulus (GPa) = 68.55193 69.46786 69.00989
# Shear Modulus (GPa) = 28.37634 29.19709 28.78672
#
# Velocity S-wave (km/s) = 3.56144 3.61257 3.58710
# Velocity P-wave (km/s) = 6.89591 6.96075 6.92841
#
# Compressibility (1/GPa) = 0.01458748
#
# Stress axis : x y z
#
# Youngs Moduli (GPa) = 103.09981 73.46792 73.04622
#
# Poissons Ratio (x) = 0.23261 0.18930
# Poissons Ratio (y) = 0.32643 0.39803
# Poissons Ratio (z) = 0.26718 0.40033
#
# Static dielectric constant tensor:
#      x y z
#    x 4.698770 0.000000 0.026630 
#    y 0.000000 3.989760 0.000000 
#    z 0.026630 0.000000 3.873920 
# 
# 
# High freq. dielectric constant tensor:
#      x y z
#    x 1.891870 0.000000 0.002540 
#    y 0.000000 1.873650 0.000000 
#    z 0.002540 0.000000 1.871410 
# 
# From -- ./inp_files/286091.got.cif
#   From: 2010.06.25/outbox.cif.g09.slc.cpg/sg15_144_cif.got.tgz:286091.got - 2010.06.28 07:06:18.
