data_PCOD8153288
_publ_section_title
;
Structure prediction by ZEFSAII (Michael W. Deem and Ramdas Pophale) SiO2 
 PCOD8153288
Probable space group: C 2/C
;
_chemical_formula_sum "Si O2"
_cell_formula_units_Z 60
_cell_length_a 14.608900
_cell_length_b 11.457641
_cell_length_c 18.017796
_cell_angle_alpha 90.000000
_cell_angle_beta 119.061973
_cell_angle_gamma 90.000000
_cell_volume 2636.167088
_symmetry_space_group_name_H-M "C 2/C"
_symmetry_group_IT_number 15
_symmetry_cell_setting 'monoclinic'
loop_
_space_group_symop_operation_xyz
x,y,z
-x,y,1/2-z
-x,-y,-z
x,-y,1/2+z
1/2+x,1/2+y,z
1/2-x,1/2+y,1/2-z
1/2-x,1/2-y,-z
1/2+x,1/2-y,1/2+z
loop_
_atom_site_type_symbol
_atom_site_label
_atom_site_fract_x
_atom_site_fract_y
_atom_site_fract_z
Si Si1 0.638116 0.365620 0.243747
Si Si2 0.344565 0.074580 0.755396
Si Si3 0.620067 0.001562 0.075078
Si Si4 0.644436 0.796273 0.989482
Si Si5 0.000000 0.248228 0.250000
Si Si6 0.961366 0.933604 0.057031
Si Si7 0.837146 0.063987 0.125909
Si Si8 0.392050 0.122956 0.181231
O O1 0.740609 0.352907 0.233472
O O2 0.543730 0.397316 0.152160
O O3 0.643585 0.474152 0.300468
O O4 0.624511 0.247613 0.285678
O O5 0.379972 0.989747 0.836769
O O6 0.435175 0.169483 0.779577
O O7 0.315129 0.982831 0.676952
O O8 0.709238 0.092186 0.076413
O O9 0.666018 0.875374 0.069402
O O10 0.500000 0.000000 0.000000
O O11 0.576860 0.688674 0.991355
O O12 0.595687 0.868786 0.902311
O O13 0.750000 0.750000 0.000000
O O14 0.086796 0.174500 0.330239
O O15 0.868375 0.007837 0.058980
O O16 0.000000 0.000000 0.000000
O O17 0.500000 0.066880 0.250000
#
# Coordination Sequence:
#
# PCOD8153288 Si02
#       8
#     8   8   8   8   4   8   8   8
#     4  11  23  44  73 102 135 181 247 286 351 420
#     4  11  28  43  69 105 135 194 234 297 352 425
#     4  11  26  46  68 103 142 182 236 292 366 414
#     4  12  24  43  74 100 140 182 233 305 351 417
#     4  12  26  46  70  96 150 178 244 284 362 430
#     4  12  25  41  68 112 138 180 235 297 362 419
#     4  11  23  47  72  99 142 193 228 295 355 427
#     4  12  22  45  73  97 133 183 245 285 343 422
#
# _framework density 22.760317000000001
#
# number of rings (size 3 to 8) (size 9 to 14) (size 15 to 20)
#    0.000    0.533    6.000    1.600    7.467    0.000 
#    0.000    0.667    0.000    0.000    0.000    0.000 
#    0.000    0.000    0.000    0.000    0.000    0.000 
#
# Total GULP energy -371642.727431 kJ/mol
# GULP energy per Si atom -12388.090914 kJ/mol
# Density = 2.270851 g / cm^3
# Si number density = 22.760317 Si / 1000 Ang^3
#
#
#
# Elastic Constant Matrix: (Units=GPa)
#
#
# Indices 1 2 3 4 5 6 
#
# 1 133.5919 25.2120 1.5437 0.0000 1.5822 0.0000
# 2 25.2120 89.8046 12.1117 0.0000 -13.7552 0.0000
# 3 1.5437 12.1117 24.9724 0.0000 -5.1047 0.0000
# 4 0.0000 0.0000 0.0000 31.8184 0.0000 -5.4463
# 5 1.5822 -13.7552 -5.1047 0.0000 42.9498 0.0000
# 6 0.0000 0.0000 0.0000 -5.4463 0.0000 39.8627
#
#
#
# Elastic Compliance Matrix: (Units=1/GPa)
#
#
# Indices 1 2 3 4 5 6 
#
# 1 0.007955 -0.002456 0.000491 0.000000 -0.001021 0.000000
# 2 -0.002456 0.013120 -0.005467 0.000000 0.003643 0.000000
# 3 0.000491 -0.005467 0.043357 0.000000 0.003384 0.000000
# 4 0.000000 0.000000 0.000000 0.032181 0.000000 0.004397
# 5 -0.001021 0.003643 0.003384 0.000000 0.024889 0.000000
# 6 0.000000 0.000000 0.000000 0.004397 0.000000 0.025687
#
#
# Mechanical properties :
#
#
# Convention : Reuss Voigt Hill
#
# Bulk Modulus (GPa) = 20.17428 36.23375 28.20402
# Shear Modulus (GPa) = 27.99914 36.89294 32.44604
#
# Velocity S-wave (km/s) = 3.51119 4.03045 3.77975
# Velocity P-wave (km/s) = 5.03199 6.13299 5.60957
#
# Compressibility (1/GPa) = 0.04956806
#
# Stress axis : x y z
#
# Youngs Moduli (GPa) = 125.70034 76.21935 23.06428
#
# Poissons Ratio (x) = 0.18720 -0.01132
# Poissons Ratio (y) = 0.30873 0.12609
# Poissons Ratio (z) = -0.06167 0.41668
#
# Static dielectric constant tensor:
#      x y z
#    x 4.810500 0.000000 0.220590 
#    y 0.000000 3.859730 0.000000 
#    z 0.220590 0.000000 3.540620 
# 
# 
# High freq. dielectric constant tensor:
#      x y z
#    x 1.924990 0.000000 -0.000660 
#    y 0.000000 1.889310 0.000000 
#    z -0.000660 0.000000 1.891370 
# 
# From -- ./inp_files/204510.got.cif
#   From: 2010.06.25/outbox.cif.g09.slc.cpg/sg15_103_cif.got.tgz:204510.got - 2010.06.28 07:06:18.
