data_PCOD8153759
_publ_section_title
;
Structure prediction by ZEFSAII (Michael W. Deem and Ramdas Pophale) SiO2 
 PCOD8153759
Probable space group: C 2/C
;
_chemical_formula_sum "Si O2"
_cell_formula_units_Z 48
_cell_length_a 17.657273
_cell_length_b 15.115093
_cell_length_c 14.527581
_cell_angle_alpha 90.000000
_cell_angle_beta 35.973718
_cell_angle_gamma 90.000000
_cell_volume 2277.572022
_symmetry_space_group_name_H-M "C 2/C"
_symmetry_group_IT_number 15
_symmetry_cell_setting 'monoclinic'
loop_
_space_group_symop_operation_xyz
x,y,z
-x,y,1/2-z
-x,-y,-z
x,-y,1/2+z
1/2+x,1/2+y,z
1/2-x,1/2+y,1/2-z
1/2-x,1/2-y,-z
1/2+x,1/2-y,1/2+z
loop_
_atom_site_type_symbol
_atom_site_label
_atom_site_fract_x
_atom_site_fract_y
_atom_site_fract_z
Si Si1 0.777787 0.425032 0.287165
Si Si2 0.854869 0.260125 0.744893
Si Si3 0.364794 0.065097 0.340572
Si Si4 0.500283 0.400669 0.855701
Si Si5 0.900321 0.252794 0.120795
Si Si6 0.823802 0.935914 0.310590
O O1 0.841622 0.509706 0.271041
O O2 0.640973 0.399452 0.463715
O O3 0.867876 0.339445 0.213033
O O4 0.766064 0.446376 0.190512
O O5 0.863928 0.331112 0.817750
O O6 0.714240 0.267598 0.837779
O O7 0.876577 0.163681 0.767798
O O8 0.966966 0.275512 0.560923
O O9 0.500000 0.037215 0.250000
O O10 0.255589 0.039231 0.520779
O O11 0.500000 0.372020 0.750000
O O12 0.588008 0.331036 0.823996
O O13 0.554857 0.499229 0.815561
#
# Coordination Sequence:
#
# PCOD8153759 Si02
#       6
#     8   8   8   8   8   8
#     4  11  25  47  67 102 138 180 233 283 347 408
#     4  11  25  44  73 104 141 179 228 283 349 408
#     4  12  26  44  67 106 142 179 229 284 350 407
#     4  12  24  44  71 102 134 180 239 281 341 413
#     4  11  24  46  72 101 139 186 226 286 347 403
#     4  11  24  44  74  99 136 182 229 284 339 413
#
# _framework density 21.075074000000001
#
# number of rings (size 3 to 8) (size 9 to 14) (size 15 to 20)
#    0.000    0.667    5.000    4.000    2.333    6.000 
#    0.000    0.000    0.000    0.000    0.000    0.000 
#    0.000    0.000    0.000    0.000    0.000    0.000 
#
# Total GULP energy -297764.601332 kJ/mol
# GULP energy per Si atom -12406.858389 kJ/mol
# Density = 2.102711 g / cm^3
# Si number density = 21.075074 Si / 1000 Ang^3
#
#
#
# Elastic Constant Matrix: (Units=GPa)
#
#
# Indices 1 2 3 4 5 6 
#
# 1 71.9348 25.5471 24.3309 0.0000 5.7638 0.0000
# 2 25.5471 90.0339 42.1173 0.0000 7.4515 0.0000
# 3 24.3309 42.1173 85.7070 0.0000 -0.5718 0.0000
# 4 0.0000 0.0000 0.0000 31.3048 0.0000 3.9370
# 5 5.7638 7.4515 -0.5718 0.0000 30.4250 0.0000
# 6 0.0000 0.0000 0.0000 3.9370 0.0000 31.2066
#
#
#
# Elastic Compliance Matrix: (Units=1/GPa)
#
#
# Indices 1 2 3 4 5 6 
#
# 1 0.016206 -0.002907 -0.003188 0.000000 -0.002418 0.000000
# 2 -0.002907 0.015364 -0.006747 0.000000 -0.003339 0.000000
# 3 -0.003188 -0.006747 0.015906 0.000000 0.002555 0.000000
# 4 0.000000 0.000000 0.000000 0.032459 0.000000 -0.004095
# 5 -0.002418 -0.003339 0.002555 0.000000 0.034192 0.000000
# 6 0.000000 0.000000 0.000000 -0.004095 0.000000 0.032561
#
#
# Mechanical properties :
#
#
# Convention : Reuss Voigt Hill
#
# Bulk Modulus (GPa) = 45.89046 47.96291 46.92668
# Shear Modulus (GPa) = 27.83398 28.96594 28.39996
#
# Velocity S-wave (km/s) = 3.63809 3.71134 3.67490
# Velocity P-wave (km/s) = 6.28249 6.41661 6.34990
#
# Compressibility (1/GPa) = 0.02179102
#
# Stress axis : x y z
#
# Youngs Moduli (GPa) = 61.70560 65.08526 62.87118
#
# Poissons Ratio (x) = 0.18919 0.20045
# Poissons Ratio (y) = 0.17937 0.42421
# Poissons Ratio (z) = 0.19674 0.43915
#
# Static dielectric constant tensor:
#      x y z
#    x 3.891760 0.000000 0.072950 
#    y 0.000000 3.996550 0.000000 
#    z 0.072950 0.000000 3.885190 
# 
# 
# High freq. dielectric constant tensor:
#      x y z
#    x 1.825980 0.000000 -0.000300 
#    y 0.000000 1.836780 0.000000 
#    z -0.000300 0.000000 1.838320 
# 
# From -- ./inp_files/162143.got.cif
#   From: 2010.06.25/outbox.cif.g09.slc.cpg/sg15_82_cif.got.tgz:162143.got - 2010.06.28 07:06:18.
