data_PCOD8153164
_publ_section_title
;
Structure prediction by ZEFSAII (Michael W. Deem and Ramdas Pophale) SiO2 
 PCOD8153164
Probable space group: C 2/C
;
_chemical_formula_sum "Si O2"
_cell_formula_units_Z 48
_cell_length_a 14.239898
_cell_length_b 12.568182
_cell_length_c 14.741431
_cell_angle_alpha 90.000000
_cell_angle_beta 57.329017
_cell_angle_gamma 90.000000
_cell_volume 2220.852891
_symmetry_space_group_name_H-M "C 2/C"
_symmetry_group_IT_number 15
_symmetry_cell_setting 'monoclinic'
loop_
_space_group_symop_operation_xyz
x,y,z
-x,y,1/2-z
-x,-y,-z
x,-y,1/2+z
1/2+x,1/2+y,z
1/2-x,1/2+y,1/2-z
1/2-x,1/2-y,-z
1/2+x,1/2-y,1/2+z
loop_
_atom_site_type_symbol
_atom_site_label
_atom_site_fract_x
_atom_site_fract_y
_atom_site_fract_z
Si Si1 0.963103 0.482623 0.874541
Si Si2 0.342393 0.326752 0.659932
Si Si3 0.488679 0.168863 0.993612
Si Si4 0.727084 0.516305 0.441925
Si Si5 0.481188 0.477382 0.155536
Si Si6 0.315101 0.318787 0.141271
O O1 0.000917 0.593351 0.899758
O O2 0.828940 0.467795 0.958441
O O3 0.000000 0.476590 0.750000
O O4 0.018451 0.390258 0.905568
O O5 0.410510 0.251608 0.556709
O O6 0.257350 0.394923 0.643822
O O7 0.423677 0.407484 0.672377
O O8 0.275204 0.248527 0.758544
O O9 0.375781 0.235904 0.043342
O O10 0.602239 0.522982 0.545462
O O11 0.751192 0.401500 0.385980
O O12 0.500000 0.453328 0.250000
O O13 0.404286 0.382927 0.156865
#
# Coordination Sequence:
#
# PCOD8153164 Si02
#       6
#     8   8   8   8   8   8
#     4  11  26  43  66 101 137 174 223 277 340 399
#     4  11  23  43  69  94 131 177 223 273 335 398
#     4  11  24  45  66  96 138 173 224 279 332 402
#     4  11  23  46  66  95 137 169 221 283 326 398
#     4  11  25  43  66 101 135 172 226 280 330 395
#     4  11  23  43  69  94 131 177 223 273 335 398
#
# _framework density 21.613316999999999
#
# number of rings (size 3 to 8) (size 9 to 14) (size 15 to 20)
#    0.000    1.000    3.333    3.000    4.667    8.000 
#    0.000    0.000    0.000    0.000    0.000    0.000 
#    0.000    0.000    0.000    0.000    0.000    0.000 
#
# Total GULP energy -297529.584438 kJ/mol
# GULP energy per Si atom -12397.066018 kJ/mol
# Density = 2.156412 g / cm^3
# Si number density = 21.613317 Si / 1000 Ang^3
#
#
#
# Elastic Constant Matrix: (Units=GPa)
#
#
# Indices 1 2 3 4 5 6 
#
# 1 65.5952 -9.7960 -1.2015 0.0000 -6.3182 0.0000
# 2 -9.7960 69.8489 18.3182 0.0000 -16.3936 0.0000
# 3 -1.2015 18.3182 97.5521 0.0000 -4.4454 0.0000
# 4 0.0000 0.0000 0.0000 42.7510 0.0000 -34.5061
# 5 -6.3182 -16.3936 -4.4454 0.0000 42.2313 0.0000
# 6 0.0000 0.0000 0.0000 -34.5061 0.0000 34.2609
#
#
#
# Elastic Compliance Matrix: (Units=1/GPa)
#
#
# Indices 1 2 3 4 5 6 
#
# 1 0.016060 0.003159 -0.000231 0.000000 0.003605 0.000000
# 2 0.003159 0.017110 -0.002863 0.000000 0.006813 0.000000
# 3 -0.000231 -0.002863 0.010785 0.000000 -0.000011 0.000000
# 4 0.000000 0.000000 0.000000 0.125033 0.000000 0.125928
# 5 0.003605 0.006813 -0.000011 0.000000 0.026862 0.000000
# 6 0.000000 0.000000 0.000000 0.125928 0.000000 0.156017
#
#
# Mechanical properties :
#
#
# Convention : Reuss Voigt Hill
#
# Bulk Modulus (GPa) = 22.68432 27.51529 25.09981
# Shear Modulus (GPa) = 13.64507 38.89366 26.26936
#
# Velocity S-wave (km/s) = 2.51535 4.24668 3.49008
# Velocity P-wave (km/s) = 4.35365 6.06664 5.28007
#
# Compressibility (1/GPa) = 0.04408332
#
# Stress axis : x y z
#
# Youngs Moduli (GPa) = 62.26747 58.44680 92.71889
#
# Poissons Ratio (x) = -0.18463 0.02143
# Poissons Ratio (y) = -0.19670 0.26550
# Poissons Ratio (z) = 0.01439 0.16736
#
# Static dielectric constant tensor:
#      x y z
#    x 2.505130 0.000000 1.492560 
#    y 0.000000 4.195400 0.000000 
#    z 1.492560 0.000000 2.401790 
# 
# 
# High freq. dielectric constant tensor:
#      x y z
#    x 1.846510 0.000000 -0.012380 
#    y 0.000000 1.871240 0.000000 
#    z -0.012380 0.000000 1.847890 
# 
# From -- ./inp_files/152434.got.cif
#   From: 2010.06.25/outbox.cif.g09.slc.cpg/sg15_77_cif.got.tgz:152434.got - 2010.06.28 07:06:18.
