data_PCOD8153826
_publ_section_title
;
Structure prediction by ZEFSAII (Michael W. Deem and Ramdas Pophale) SiO2 
 PCOD8153826
Probable space group: C 2/C
;
_chemical_formula_sum "Si O2"
_cell_formula_units_Z 56
_cell_length_a 17.215213
_cell_length_b 13.677824
_cell_length_c 19.356282
_cell_angle_alpha 90.000000
_cell_angle_beta 33.027795
_cell_angle_gamma 90.000000
_cell_volume 2484.187472
_symmetry_space_group_name_H-M "C 2/C"
_symmetry_group_IT_number 15
_symmetry_cell_setting 'monoclinic'
loop_
_space_group_symop_operation_xyz
x,y,z
-x,y,1/2-z
-x,-y,-z
x,-y,1/2+z
1/2+x,1/2+y,z
1/2-x,1/2+y,1/2-z
1/2-x,1/2-y,-z
1/2+x,1/2-y,1/2+z
loop_
_atom_site_type_symbol
_atom_site_label
_atom_site_fract_x
_atom_site_fract_y
_atom_site_fract_z
Si Si1 0.850966 0.137764 0.251148
Si Si2 0.000000 0.622502 0.250000
Si Si3 0.485075 0.264379 0.131604
Si Si4 0.000000 0.276774 0.250000
Si Si5 0.849782 0.731271 0.630891
Si Si6 0.549979 0.076537 0.518890
Si Si7 0.330814 0.044068 0.926492
Si Si8 0.967357 0.965050 0.349686
O O1 0.870819 0.167443 0.156185
O O2 0.684241 0.141719 0.394075
O O3 0.940839 0.208517 0.233732
O O4 0.899998 0.025486 0.219327
O O5 0.989133 0.688394 0.326027
O O6 0.132573 0.546021 0.152531
O O7 0.317336 0.287311 0.254412
O O8 0.564598 0.367970 0.082816
O O9 0.558659 0.223697 0.007756
O O10 0.128015 0.347927 0.130067
O O11 0.914748 0.647410 0.632124
O O12 0.589609 0.022125 0.560414
O O13 0.500000 0.000000 0.500000
O O14 0.161377 0.042638 0.059514
O O15 0.000000 0.923581 0.250000
#
# Coordination Sequence:
#
# PCOD8153826 Si02
#       8
#     8   4   8   4   8   8   8   8
#     4  12  25  46  73 106 139 192 239 299 362 433
#     4  11  26  47  76 100 144 189 252 293 358 436
#     4  12  27  48  72 105 146 193 240 299 359 437
#     4  11  24  45  72 102 144 179 244 299 354 428
#     4  12  27  45  72 106 145 192 235 296 371 426
#     4  12  24  44  70 100 148 190 239 294 366 432
#     4  11  25  43  70 108 136 187 239 302 355 422
#     4  12  25  43  71 101 137 182 243 293 353 419
#
# _framework density 22.542581999999999
#
# number of rings (size 3 to 8) (size 9 to 14) (size 15 to 20)
#    0.000    0.286    5.714    2.571    4.000    2.857 
#    0.000    0.000    0.000    0.000    0.000    0.000 
#    0.000    0.000    0.000    0.000    0.000    0.000 
#
# Total GULP energy -347155.375291 kJ/mol
# GULP energy per Si atom -12398.406260 kJ/mol
# Density = 2.249127 g / cm^3
# Si number density = 22.542582 Si / 1000 Ang^3
#
#
#
# Elastic Constant Matrix: (Units=GPa)
#
#
# Indices 1 2 3 4 5 6 
#
# 1 83.6067 27.4129 27.9636 -0.0002 7.5575 -0.0001
# 2 27.4129 108.6118 13.9835 0.0006 1.5166 -0.0004
# 3 27.9636 13.9835 108.9350 0.0029 -3.8854 -0.0017
# 4 -0.0002 0.0006 0.0029 33.2938 -0.0009 1.7447
# 5 7.5575 1.5166 -3.8854 -0.0009 42.9874 0.0005
# 6 -0.0001 -0.0004 -0.0017 1.7447 0.0005 12.1587
#
#
#
# Elastic Compliance Matrix: (Units=1/GPa)
#
#
# Indices 1 2 3 4 5 6 
#
# 1 0.014372 -0.003154 -0.003381 0.000000 -0.002721 0.000000
# 2 -0.003154 0.010062 -0.000476 0.000000 0.000156 0.000000
# 3 -0.003381 -0.000476 0.010164 -0.000001 0.001530 0.000001
# 4 0.000000 0.000000 -0.000001 0.030263 0.000001 -0.004343
# 5 -0.002721 0.000156 0.001530 0.000001 0.023874 -0.000001
# 6 0.000000 0.000000 0.000001 -0.004343 -0.000001 0.082869
#
#
# Mechanical properties :
#
#
# Convention : Reuss Voigt Hill
#
# Bulk Modulus (GPa) = 48.60526 48.87483 48.74005
# Shear Modulus (GPa) = 25.97599 33.14087 29.55843
#
# Velocity S-wave (km/s) = 3.39825 3.83841 3.62501
# Velocity P-wave (km/s) = 6.08324 6.43216 6.26013
#
# Compressibility (1/GPa) = 0.02057390
#
# Stress axis : x y z
#
# Youngs Moduli (GPa) = 69.58052 99.38080 98.39101
#
# Poissons Ratio (x) = 0.31345 0.33270
# Poissons Ratio (y) = 0.21946 0.04688
# Poissons Ratio (z) = 0.23528 0.04735
#
# Static dielectric constant tensor:
#      x y z
#    x 4.165450 0.000000 -0.076130 
#    y 0.000000 4.027740 0.000000 
#    z -0.076130 0.000000 4.225190 
# 
# 
# High freq. dielectric constant tensor:
#      x y z
#    x 1.891120 0.000000 -0.003240 
#    y 0.000000 1.899980 0.000000 
#    z -0.003240 0.000000 1.891860 
# 
# From -- ./inp_files/249258.got.cif
#   From: 2010.06.25/outbox.cif.g09.slc.cpg/sg15_125_cif.got.tgz:249258.got - 2010.06.28 07:06:18.
