data_PCOD8153782
_publ_section_title
;
Structure prediction by ZEFSAII (Michael W. Deem and Ramdas Pophale) SiO2 
 PCOD8153782
Probable space group: C 2/C
;
_chemical_formula_sum "Si O2"
_cell_formula_units_Z 64
_cell_length_a 29.858018
_cell_length_b 17.493468
_cell_length_c 9.420147
_cell_angle_alpha 90.000000
_cell_angle_beta 36.581040
_cell_angle_gamma 90.000000
_cell_volume 2932.318114
_symmetry_space_group_name_H-M "C 2/C"
_symmetry_group_IT_number 15
_symmetry_cell_setting 'monoclinic'
loop_
_space_group_symop_operation_xyz
x,y,z
-x,y,1/2-z
-x,-y,-z
x,-y,1/2+z
1/2+x,1/2+y,z
1/2-x,1/2+y,1/2-z
1/2-x,1/2-y,-z
1/2+x,1/2-y,1/2+z
loop_
_atom_site_type_symbol
_atom_site_label
_atom_site_fract_x
_atom_site_fract_y
_atom_site_fract_z
Si Si1 0.779840 0.696770 0.297863
Si Si2 0.440513 0.203863 0.518228
Si Si3 0.080927 0.462995 0.325120
Si Si4 0.565532 0.729792 0.178342
Si Si5 0.680103 0.971638 0.803678
Si Si6 0.165783 0.041916 0.162384
Si Si7 0.308821 0.295903 0.759061
Si Si8 0.419279 0.554522 0.403761
O O1 0.750000 0.750000 0.500000
O O2 0.794992 0.611697 0.315079
O O3 0.717695 0.689754 0.333284
O O4 0.856199 0.727172 0.035737
O O5 0.422043 0.127834 0.652010
O O6 0.460646 0.266180 0.589735
O O7 0.377677 0.238227 0.576095
O O8 0.500000 0.181845 0.250000
O O9 0.108477 0.501351 0.398211
O O10 0.000000 0.500000 0.500000
O O11 0.148537 0.476062 0.042723
O O12 0.500000 0.768448 0.250000
O O13 0.579210 0.645272 0.085051
O O14 0.751412 0.027664 0.611318
O O15 0.166464 0.125604 0.229427
O O16 0.101794 0.034121 0.204362
O O17 0.145916 0.979223 0.331011
O O18 0.250000 0.250000 0.000000
O O19 0.500000 0.520443 0.250000
#
# Coordination Sequence:
#
# PCOD8153782 Si02
#       8
#     8   8   8   8   8   8   8   8
#     4  12  26  43  70 105 139 187 234 296 361 426
#     4  12  26  47  74 103 138 194 238 291 363 432
#     4  12  27  46  70 107 144 187 237 297 357 431
#     4  11  25  46  69 101 144 180 236 298 354 432
#     4  12  25  45  69 103 144 184 238 292 359 427
#     4  12  24  44  72 102 142 192 236 301 362 431
#     4  12  24  47  70  99 142 186 244 290 350 427
#     4  11  24  45  68 104 142 188 238 300 366 431
#
# _framework density 21.825735999999999
#
# number of rings (size 3 to 8) (size 9 to 14) (size 15 to 20)
#    0.000    0.250    3.750    5.250    3.500    2.500 
#    2.250    0.000    0.000    0.000    0.000    0.000 
#    0.000    0.000    0.000    0.000    0.000    0.000 
#
# Total GULP energy -396792.397916 kJ/mol
# GULP energy per Si atom -12399.762435 kJ/mol
# Density = 2.177606 g / cm^3
# Si number density = 21.825736 Si / 1000 Ang^3
#
#
#
# Elastic Constant Matrix: (Units=GPa)
#
#
# Indices 1 2 3 4 5 6 
#
# 1 147.5071 35.5982 39.3008 0.0000 -4.2324 0.0000
# 2 35.5982 107.9921 31.7718 0.0000 -3.7234 0.0000
# 3 39.3008 31.7718 104.4075 0.0000 9.0804 0.0000
# 4 0.0000 0.0000 0.0000 28.5698 0.0000 4.4169
# 5 -4.2324 -3.7234 9.0804 0.0000 35.1798 0.0000
# 6 0.0000 0.0000 0.0000 4.4169 0.0000 31.7809
#
#
#
# Elastic Compliance Matrix: (Units=1/GPa)
#
#
# Indices 1 2 3 4 5 6 
#
# 1 0.007940 -0.001815 -0.002560 0.000000 0.001424 0.000000
# 2 -0.001815 0.010714 -0.002718 0.000000 0.001617 0.000000
# 3 -0.002560 -0.002718 0.011683 0.000000 -0.003611 0.000000
# 4 0.000000 0.000000 0.000000 0.035771 0.000000 -0.004971
# 5 0.001424 0.001617 -0.003611 0.000000 0.029700 0.000000
# 6 0.000000 0.000000 0.000000 -0.004971 0.000000 0.032156
#
#
# Mechanical properties :
#
#
# Convention : Reuss Voigt Hill
#
# Bulk Modulus (GPa) = 61.91776 63.69425 62.80601
# Shear Modulus (GPa) = 33.89069 35.98849 34.93959
#
# Velocity S-wave (km/s) = 3.94481 4.06507 4.00539
# Velocity P-wave (km/s) = 7.01281 7.16097 7.08728
#
# Compressibility (1/GPa) = 0.01615045
#
# Stress axis : x y z
#
# Youngs Moduli (GPa) = 125.93802 93.33992 85.59675
#
# Poissons Ratio (x) = 0.16942 0.21916
# Poissons Ratio (y) = 0.22859 0.23262
# Poissons Ratio (z) = 0.32246 0.25366
#
# Static dielectric constant tensor:
#      x y z
#    x 4.345140 0.000000 -0.106360 
#    y 0.000000 4.046450 0.000000 
#    z -0.106360 0.000000 3.863820 
# 
# 
# High freq. dielectric constant tensor:
#      x y z
#    x 1.877360 0.000000 -0.001660 
#    y 0.000000 1.865320 0.000000 
#    z -0.001660 0.000000 1.861020 
# 
# From -- ./inp_files/70582.got.cif
#   From: 2010.06.25/outbox.cif.g09.slc.cpg/sg15_36_cif.got.tgz:70582.got - 2010.06.28 07:06:18.
