data_PCOD8153667
_publ_section_title
;
Structure prediction by ZEFSAII (Michael W. Deem and Ramdas Pophale) SiO2 
 PCOD8153667
Probable space group: C 2/C
;
_chemical_formula_sum "Si O2"
_cell_formula_units_Z 52
_cell_length_a 14.480987
_cell_length_b 11.744660
_cell_length_c 23.560683
_cell_angle_alpha 90.000000
_cell_angle_beta 30.469782
_cell_angle_gamma 90.000000
_cell_volume 2031.918485
_symmetry_space_group_name_H-M "C 2/C"
_symmetry_group_IT_number 15
_symmetry_cell_setting 'monoclinic'
loop_
_space_group_symop_operation_xyz
x,y,z
-x,y,1/2-z
-x,-y,-z
x,-y,1/2+z
1/2+x,1/2+y,z
1/2-x,1/2+y,1/2-z
1/2-x,1/2-y,-z
1/2+x,1/2-y,1/2+z
loop_
_atom_site_type_symbol
_atom_site_label
_atom_site_fract_x
_atom_site_fract_y
_atom_site_fract_z
Si Si1 0.316740 0.992199 0.562097
Si Si2 0.016148 0.135958 0.898033
Si Si3 0.660123 0.291641 0.200515
Si Si4 0.227218 0.799260 0.686675
Si Si5 0.711423 0.593447 0.309698
Si Si6 0.000000 0.380655 0.250000
Si Si7 0.133152 0.539043 0.090812
O O1 0.217869 0.877820 0.636025
O O2 0.339294 0.973542 0.483216
O O3 0.500000 0.000000 0.500000
O O4 0.212429 0.108382 0.629613
O O5 0.106113 0.022705 0.879983
O O6 0.099340 0.148687 0.791323
O O7 0.071765 0.248585 0.904519
O O8 0.796242 0.130423 0.013176
O O9 0.500000 0.227179 0.250000
O O10 0.821977 0.198122 0.127843
O O11 0.146796 0.872087 0.781242
O O12 0.100188 0.691111 0.744900
O O13 0.932331 0.591821 0.194770
O O14 0.147281 0.454793 0.137126
#
# Coordination Sequence:
#
# PCOD8153667 Si02
#       7
#     8   8   8   8   8   4   8
#     4  12  25  47  76 112 148 197 253 307 368 451
#     4  11  24  49  78 110 149 199 246 307 382 440
#     4  11  24  43  75 110 151 193 247 306 368 442
#     4  11  26  46  75 107 158 189 250 309 376 442
#     4  11  25  48  72 113 156 191 244 313 367 449
#     4  12  30  50  70 114 156 200 244 320 374 446
#     4  12  27  51  78 109 153 197 256 308 378 445
#
# _framework density 25.591577000000001
#
# number of rings (size 3 to 8) (size 9 to 14) (size 15 to 20)
#    0.000    0.615    6.154    0.000    6.462    6.154 
#    0.000    0.000    0.000    0.000    0.000    0.000 
#    0.000    0.000    0.000    0.000    0.000    0.000 
#
# Total GULP energy -322307.108929 kJ/mol
# GULP energy per Si atom -12396.427267 kJ/mol
# Density = 2.553333 g / cm^3
# Si number density = 25.591577 Si / 1000 Ang^3
#
#
#
# Elastic Constant Matrix: (Units=GPa)
#
#
# Indices 1 2 3 4 5 6 
#
# 1 85.4899 18.2217 1.6189 0.0028 12.6645 0.0000
# 2 18.2217 101.5618 6.5564 0.0006 21.0149 0.0005
# 3 1.6189 6.5564 42.2330 0.0053 10.8726 0.0010
# 4 0.0028 0.0006 0.0053 18.0028 -0.0020 -8.7710
# 5 12.6645 21.0149 10.8726 -0.0020 42.1919 -0.0001
# 6 0.0000 0.0005 0.0010 -8.7710 -0.0001 40.4414
#
#
#
# Elastic Compliance Matrix: (Units=1/GPa)
#
#
# Indices 1 2 3 4 5 6 
#
# 1 0.012492 -0.001641 0.000569 -0.000003 -0.003079 -0.000001
# 2 -0.001641 0.011197 -0.000392 -0.000001 -0.004983 0.000000
# 3 0.000569 -0.000392 0.025396 -0.000010 -0.006520 -0.000003
# 4 -0.000003 -0.000001 -0.000010 0.062110 0.000007 0.013471
# 5 -0.003079 -0.004983 -0.006520 0.000007 0.028788 0.000002
# 6 -0.000001 0.000000 -0.000003 0.013471 0.000002 0.027649
#
#
# Mechanical properties :
#
#
# Convention : Reuss Voigt Hill
#
# Bulk Modulus (GPa) = 21.66587 31.34207 26.50397
# Shear Modulus (GPa) = 26.88950 33.65305 30.27128
#
# Velocity S-wave (km/s) = 3.24499 3.63023 3.44301
# Velocity P-wave (km/s) = 4.74598 5.46306 5.11710
#
# Compressibility (1/GPa) = 0.04615555
#
# Stress axis : x y z
#
# Youngs Moduli (GPa) = 80.04862 89.30876 39.37673
#
# Poissons Ratio (x) = 0.14655 -0.02239
# Poissons Ratio (y) = 0.13135 0.01545
# Poissons Ratio (z) = -0.04551 0.03505
#
# Static dielectric constant tensor:
#      x y z
#    x 4.866170 0.000010 0.193640 
#    y 0.000010 5.135260 0.000000 
#    z 0.193640 0.000000 4.315500 
# 
# 
# High freq. dielectric constant tensor:
#      x y z
#    x 2.043990 0.000000 0.011680 
#    y 0.000000 2.033720 0.000000 
#    z 0.011680 0.000000 1.996720 
# 
# From -- ./inp_files/273808.got.cif
#   From: 2010.06.25/outbox.cif.g09.slc.cpg/sg15_137_cif.got.tgz:273808.got - 2010.06.28 07:06:18.
