data_PCOD8153086
_publ_section_title
;
Structure prediction by ZEFSAII (Michael W. Deem and Ramdas Pophale) SiO2 
 PCOD8153086
Probable space group: C 2/C
;
_chemical_formula_sum "Si O2"
_cell_formula_units_Z 52
_cell_length_a 8.167465
_cell_length_b 20.587554
_cell_length_c 20.960589
_cell_angle_alpha 90.000000
_cell_angle_beta 44.246926
_cell_angle_gamma 90.000000
_cell_volume 2459.215703
_symmetry_space_group_name_H-M "C 2/C"
_symmetry_group_IT_number 15
_symmetry_cell_setting 'monoclinic'
loop_
_space_group_symop_operation_xyz
x,y,z
-x,y,1/2-z
-x,-y,-z
x,-y,1/2+z
1/2+x,1/2+y,z
1/2-x,1/2+y,1/2-z
1/2-x,1/2-y,-z
1/2+x,1/2-y,1/2+z
loop_
_atom_site_type_symbol
_atom_site_label
_atom_site_fract_x
_atom_site_fract_y
_atom_site_fract_z
Si Si1 0.500000 0.421320 0.250000
Si Si2 0.904250 0.673218 0.625648
Si Si3 0.873130 0.146778 0.985299
Si Si4 0.928932 0.214015 0.197556
Si Si5 0.767267 0.020145 0.936906
Si Si6 0.065293 0.248747 0.629641
Si Si7 0.630454 0.385552 0.542817
O O1 0.284416 0.374746 0.288381
O O2 0.589039 0.466302 0.167956
O O3 0.040814 0.718707 0.639129
O O4 0.779389 0.722057 0.611490
O O5 0.093338 0.631736 0.533586
O O6 0.775198 0.082370 0.979722
O O7 0.019849 0.191150 0.894426
O O8 0.645596 0.188098 0.068299
O O9 0.030936 0.128831 0.001172
O O10 0.651247 0.227311 0.267380
O O11 0.000000 0.199946 0.250000
O O12 0.997643 0.153204 0.135303
O O13 0.902187 0.961379 0.933740
O O14 0.500000 0.000000 0.000000
#
# Coordination Sequence:
#
# PCOD8153086 Si02
#       7
#     4   8   8   8   8   8   8
#     4  12  24  44  74  94 132 192 234 274 350 418
#     4  12  22  47  70 101 135 184 230 288 350 424
#     4  11  24  44  73 100 140 184 228 290 352 411
#     4  12  26  39  65 108 140 171 232 293 350 412
#     4  12  26  47  70  99 139 191 234 283 343 421
#     4  11  23  42  71 102 137 178 226 288 359 413
#     4  12  27  43  70 102 141 184 235 288 348 413
#
# _framework density 21.144953000000001
#
# number of rings (size 3 to 8) (size 9 to 14) (size 15 to 20)
#    0.000    0.308    6.154    1.846    7.538    0.000 
#    0.000    0.000    0.000    0.000    0.000    0.000 
#    0.000    0.000    0.000    0.000    0.000    0.000 
#
# Total GULP energy -322413.398309 kJ/mol
# GULP energy per Si atom -12400.515320 kJ/mol
# Density = 2.109683 g / cm^3
# Si number density = 21.144953 Si / 1000 Ang^3
#
#
#
# Elastic Constant Matrix: (Units=GPa)
#
#
# Indices 1 2 3 4 5 6 
#
# 1 115.4701 56.7166 47.1727 0.0000 13.8140 0.0004
# 2 56.7166 175.7977 77.9702 0.0000 5.5367 0.0001
# 3 47.1727 77.9702 121.5394 0.0001 11.5052 -0.0002
# 4 0.0000 0.0000 0.0001 47.0564 -0.0001 13.4080
# 5 13.8140 5.5367 11.5052 -0.0001 29.4462 0.0001
# 6 0.0004 0.0001 -0.0002 13.4080 0.0001 31.0642
#
#
#
# Elastic Compliance Matrix: (Units=1/GPa)
#
#
# Indices 1 2 3 4 5 6 
#
# 1 0.011331 -0.002440 -0.002464 0.000000 -0.003894 0.000000
# 2 -0.002440 0.008484 -0.004624 0.000000 0.001356 0.000000
# 3 -0.002464 -0.004624 0.012418 0.000000 -0.002827 0.000000
# 4 0.000000 0.000000 0.000000 0.024231 0.000000 -0.010459
# 5 -0.003894 0.001356 -0.002827 0.000000 0.036637 0.000000
# 6 0.000000 0.000000 0.000000 -0.010459 0.000000 0.036706
#
#
# Mechanical properties :
#
#
# Convention : Reuss Voigt Hill
#
# Bulk Modulus (GPa) = 75.88897 86.28069 81.08483
# Shear Modulus (GPa) = 32.62556 36.90988 34.76772
#
# Velocity S-wave (km/s) = 3.93230 4.18253 4.05934
# Velocity P-wave (km/s) = 7.52231 8.01359 7.77183
#
# Compressibility (1/GPa) = 0.01317714
#
# Stress axis : x y z
#
# Youngs Moduli (GPa) = 88.25099 117.87359 80.52950
#
# Poissons Ratio (x) = 0.28765 0.19841
# Poissons Ratio (y) = 0.21536 0.37234
# Poissons Ratio (z) = 0.21743 0.54501
#
# Static dielectric constant tensor:
#      x y z
#    x 3.785340 0.000000 0.167890 
#    y 0.000000 4.081570 0.000000 
#    z 0.167890 0.000000 3.980350 
# 
# 
# High freq. dielectric constant tensor:
#      x y z
#    x 1.824990 0.000000 0.011490 
#    y 0.000000 1.839080 0.000000 
#    z 0.011490 0.000000 1.839870 
# 
# From -- ./inp_files/266036.got.cif
#   From: 2010.06.25/outbox.cif.g09.slc.cpg/sg15_134_cif.got.tgz:266036.got - 2010.06.28 07:06:18.
