data_PCOD8153032
_publ_section_title
;
Structure prediction by ZEFSAII (Michael W. Deem and Ramdas Pophale) SiO2 
 PCOD8153032
Probable space group: C 2/C
;
_chemical_formula_sum "Si O2"
_cell_formula_units_Z 44
_cell_length_a 11.020489
_cell_length_b 27.685287
_cell_length_c 8.118577
_cell_angle_alpha 90.000000
_cell_angle_beta 128.936248
_cell_angle_gamma 90.000000
_cell_volume 1926.740705
_symmetry_space_group_name_H-M "C 2/C"
_symmetry_group_IT_number 15
_symmetry_cell_setting 'monoclinic'
loop_
_space_group_symop_operation_xyz
x,y,z
-x,y,1/2-z
-x,-y,-z
x,-y,1/2+z
1/2+x,1/2+y,z
1/2-x,1/2+y,1/2-z
1/2-x,1/2-y,-z
1/2+x,1/2-y,1/2+z
loop_
_atom_site_type_symbol
_atom_site_label
_atom_site_fract_x
_atom_site_fract_y
_atom_site_fract_z
Si Si1 0.245926 0.932577 0.346467
Si Si2 0.349512 0.269553 0.935742
Si Si3 0.562622 0.092222 0.986358
Si Si4 0.500000 0.354157 0.250000
Si Si5 0.821706 0.031880 0.073791
Si Si6 0.085747 0.297678 0.496603
O O1 0.431700 0.921296 0.510964
O O2 0.141936 0.885881 0.298355
O O3 0.205485 0.974356 0.441938
O O4 0.214781 0.950703 0.138052
O O5 0.256192 0.274314 0.680345
O O6 0.475574 0.227625 0.033343
O O7 0.250000 0.250000 0.000000
O O8 0.431472 0.320809 0.045735
O O9 0.500000 0.086196 0.750000
O O10 0.611293 0.146737 0.062075
O O11 0.715995 0.058050 0.124836
O O12 0.000000 0.045669 0.250000
O O13 0.000000 0.289391 0.250000
#
# Coordination Sequence:
#
# PCOD8153032 Si02
#       6
#     8   8   8   4   8   8
#     4  11  24  43  68  97 144 180 236 287 350 428
#     4  12  24  45  70  99 142 190 238 290 356 425
#     4   9  22  42  66  99 136 178 228 289 356 418
#     4  12  26  42  70 106 144 194 240 288 358 424
#     4  11  23  42  67  97 134 179 230 291 351 417
#     4  11  24  45  70 104 141 183 239 299 353 416
#
# _framework density 22.836493999999998
#
# number of rings (size 3 to 8) (size 9 to 14) (size 15 to 20)
#    0.000    1.091    2.727    2.727    2.545    0.000 
#    3.273    1.818    0.000    0.000    0.000    0.000 
#    0.000    0.000    0.000    0.000    0.000    0.000 
#
# Total GULP energy -272638.252358 kJ/mol
# GULP energy per Si atom -12392.647834 kJ/mol
# Density = 2.278452 g / cm^3
# Si number density = 22.836494 Si / 1000 Ang^3
#
#
#
# Elastic Constant Matrix: (Units=GPa)
#
#
# Indices 1 2 3 4 5 6 
#
# 1 117.0423 49.4159 15.4669 0.0000 25.3242 0.0000
# 2 49.4159 123.3042 16.0635 0.0000 5.6697 0.0000
# 3 15.4669 16.0635 97.2115 0.0000 7.3729 0.0000
# 4 0.0000 0.0000 0.0000 40.1992 0.0000 -47.0898
# 5 25.3242 5.6697 7.3729 0.0000 34.8937 0.0000
# 6 0.0000 0.0000 0.0000 -47.0898 0.0000 325.3873
#
#
#
# Elastic Compliance Matrix: (Units=1/GPa)
#
#
# Indices 1 2 3 4 5 6 
#
# 1 0.012245 -0.004459 -0.000602 0.000000 -0.008035 0.000000
# 2 -0.004459 0.009952 -0.001075 0.000000 0.001846 0.000000
# 3 -0.000602 -0.001075 0.010685 0.000000 -0.001646 0.000000
# 4 0.000000 0.000000 0.000000 0.029954 0.000000 0.004335
# 5 -0.008035 0.001846 -0.001646 0.000000 0.034538 0.000000
# 6 0.000000 0.000000 0.000000 0.004335 0.000000 0.003701
#
#
# Mechanical properties :
#
#
# Convention : Reuss Voigt Hill
#
# Bulk Modulus (GPa) = 48.52154 55.49452 52.00803
# Shear Modulus (GPa) = 41.59142 97.20350 69.39746
#
# Velocity S-wave (km/s) = 4.27226 6.53126 5.51859
# Velocity P-wave (km/s) = 6.75498 9.01277 7.96429
#
# Compressibility (1/GPa) = 0.02060940
#
# Stress axis : x y z
#
# Youngs Moduli (GPa) = 81.66773 100.47894 93.58810
#
# Poissons Ratio (x) = 0.44807 0.05633
# Poissons Ratio (y) = 0.36419 0.10062
# Poissons Ratio (z) = 0.04916 0.10802
#
# Static dielectric constant tensor:
#      x y z
#    x 4.472220 0.000000 0.520190 
#    y 0.000000 4.375260 0.000000 
#    z 0.520190 0.000000 4.172880 
# 
# 
# High freq. dielectric constant tensor:
#      x y z
#    x 1.906300 0.000000 0.014880 
#    y 0.000000 1.911540 0.000000 
#    z 0.014880 0.000000 1.904110 
# 
# From -- ./inp_files/34484.got.cif
#   From: 2010.06.25/outbox.cif.g09.slc.cpg/sg15_18_cif.got.tgz:34484.got - 2010.06.28 07:06:18.
