data_PCOD8153364
_publ_section_title
;
Structure prediction by ZEFSAII (Michael W. Deem and Ramdas Pophale) SiO2 
 PCOD8153364
Probable space group: C 2/C
;
_chemical_formula_sum "Si O2"
_cell_formula_units_Z 64
_cell_length_a 12.560828
_cell_length_b 13.822904
_cell_length_c 27.309162
_cell_angle_alpha 90.000000
_cell_angle_beta 36.315657
_cell_angle_gamma 90.000000
_cell_volume 2808.140436
_symmetry_space_group_name_H-M "C 2/C"
_symmetry_group_IT_number 15
_symmetry_cell_setting 'monoclinic'
loop_
_space_group_symop_operation_xyz
x,y,z
-x,y,1/2-z
-x,-y,-z
x,-y,1/2+z
1/2+x,1/2+y,z
1/2-x,1/2+y,1/2-z
1/2-x,1/2-y,-z
1/2+x,1/2-y,1/2+z
loop_
_atom_site_type_symbol
_atom_site_label
_atom_site_fract_x
_atom_site_fract_y
_atom_site_fract_z
Si Si1 0.132557 0.734239 0.743045
Si Si2 0.351065 0.565801 0.079780
Si Si3 0.415636 0.193506 0.915816
Si Si4 0.550254 0.987442 0.621328
Si Si5 0.619048 0.439169 0.158575
Si Si6 0.360828 0.891612 0.608974
Si Si7 0.406463 0.210141 0.553764
Si Si8 0.183407 0.960061 0.305950
O O1 0.219555 0.836790 0.696559
O O2 0.285877 0.652804 0.692336
O O3 0.000000 0.696182 0.750000
O O4 0.015886 0.752434 0.835467
O O5 0.412945 0.675492 0.056397
O O6 0.322858 0.528401 0.144814
O O7 0.163816 0.569396 0.119518
O O8 0.500000 0.500000 0.000000
O O9 0.558368 0.168392 0.905133
O O10 0.346805 0.089817 0.922068
O O11 0.250000 0.250000 0.000000
O O12 0.532398 0.929269 0.576869
O O13 0.346233 0.003634 0.712826
O O14 0.500000 0.418145 0.250000
O O15 0.764613 0.522104 0.115531
O O16 0.719640 0.339153 0.106608
O O17 0.500354 0.470620 0.156163
O O18 0.433292 0.815940 0.542567
#
# Coordination Sequence:
#
# PCOD8153364 Si02
#       8
#     8   8   8   8   8   8   8   8
#     4  11  24  44  75 106 145 195 246 295 363 444
#     4  12  28  47  74 108 145 194 243 297 374 436
#     4  11  23  45  73 108 143 188 249 305 359 429
#     4  11  25  47  71 103 149 188 242 301 364 439
#     4  12  25  48  73 109 144 190 247 300 370 437
#     4  12  26  47  72 107 147 197 241 300 376 434
#     4  12  28  45  71 110 146 188 245 310 364 434
#     4  11  25  48  74 105 145 189 243 303 359 439
#
# _framework density 22.790882
#
# number of rings (size 3 to 8) (size 9 to 14) (size 15 to 20)
#    0.000    0.500    2.500    5.625    5.250    2.500 
#    0.000    0.000    0.000    0.000    0.000    0.000 
#    0.000    0.000    0.000    0.000    0.000    0.000 
#
# Total GULP energy -396955.064557 kJ/mol
# GULP energy per Si atom -12404.845767 kJ/mol
# Density = 2.273901 g / cm^3
# Si number density = 22.790882 Si / 1000 Ang^3
#
#
#
# Elastic Constant Matrix: (Units=GPa)
#
#
# Indices 1 2 3 4 5 6 
#
# 1 162.4305 27.7928 39.2041 0.0001 2.5654 -0.0003
# 2 27.7928 125.5703 55.6200 -0.0002 5.7974 -0.0001
# 3 39.2041 55.6200 117.7212 0.0013 14.4387 -0.0010
# 4 0.0001 -0.0002 0.0013 36.2920 0.0000 9.3720
# 5 2.5654 5.7974 14.4387 0.0000 35.5511 0.0002
# 6 -0.0003 -0.0001 -0.0010 9.3720 0.0002 20.4185
#
#
#
# Elastic Compliance Matrix: (Units=1/GPa)
#
#
# Indices 1 2 3 4 5 6 
#
# 1 0.006740 -0.000625 -0.002002 0.000000 0.000429 0.000000
# 2 -0.000625 0.010132 -0.004612 0.000000 0.000266 0.000000
# 3 -0.002002 -0.004612 0.011819 -0.000001 -0.003904 0.000001
# 4 0.000000 0.000000 -0.000001 0.031259 0.000000 -0.014348
# 5 0.000429 0.000266 -0.003904 0.000000 0.029640 -0.000001
# 6 0.000000 0.000000 0.000001 -0.014348 -0.000001 0.055561
#
#
# Mechanical properties :
#
#
# Convention : Reuss Voigt Hill
#
# Bulk Modulus (GPa) = 70.35179 72.32843 71.34011
# Shear Modulus (GPa) = 30.41985 37.32599 33.87292
#
# Velocity S-wave (km/s) = 3.65737 4.05131 3.85937
# Velocity P-wave (km/s) = 6.98359 7.32726 7.15749
#
# Compressibility (1/GPa) = 0.01421428
#
# Stress axis : x y z
#
# Youngs Moduli (GPa) = 148.37255 98.69292 84.60905
#
# Poissons Ratio (x) = 0.06166 0.16938
# Poissons Ratio (y) = 0.09271 0.39020
# Poissons Ratio (z) = 0.29702 0.45515
#
# Static dielectric constant tensor:
#      x y z
#    x 3.930580 0.000000 -0.323900 
#    y 0.000000 3.933070 -0.000010 
#    z -0.323900 -0.000010 3.537340 
# 
# 
# High freq. dielectric constant tensor:
#      x y z
#    x 1.914660 0.000000 0.006290 
#    y 0.000000 1.905260 0.000000 
#    z 0.006290 0.000000 1.903460 
# 
# From -- ./inp_files/293066.got.cif
#   From: 2010.06.25/outbox.cif.g09.slc.cpg/sg15_147_cif.got.tgz:293066.got - 2010.06.28 07:06:18.
