data_PCOD8153340
_publ_section_title
;
Structure prediction by ZEFSAII (Michael W. Deem and Ramdas Pophale) SiO2 
 PCOD8153340
Probable space group: C 2/C
;
_chemical_formula_sum "Si O2"
_cell_formula_units_Z 40
_cell_length_a 8.073518
_cell_length_b 20.456639
_cell_length_c 10.305525
_cell_angle_alpha 90.000000
_cell_angle_beta 89.893347
_cell_angle_gamma 90.000000
_cell_volume 1702.027089
_symmetry_space_group_name_H-M "C 2/C"
_symmetry_group_IT_number 15
_symmetry_cell_setting 'monoclinic'
loop_
_space_group_symop_operation_xyz
x,y,z
-x,y,1/2-z
-x,-y,-z
x,-y,1/2+z
1/2+x,1/2+y,z
1/2-x,1/2+y,1/2-z
1/2-x,1/2-y,-z
1/2+x,1/2-y,1/2+z
loop_
_atom_site_type_symbol
_atom_site_label
_atom_site_fract_x
_atom_site_fract_y
_atom_site_fract_z
Si Si1 0.605770 0.501155 0.870577
Si Si2 0.590458 0.693913 0.381529
Si Si3 0.537614 0.165331 0.609721
Si Si4 0.115438 0.604646 0.126591
Si Si5 0.900567 0.850367 0.126829
O O1 0.500000 0.472707 0.750000
O O2 0.770404 0.458772 0.888425
O O3 0.655940 0.575742 0.840688
O O4 0.500000 0.500000 0.000000
O O5 0.500000 0.674458 0.250000
O O6 0.578886 0.771023 0.410074
O O7 0.779644 0.671589 0.362743
O O8 0.513815 0.652243 0.499482
O O9 0.500000 0.133789 0.750000
O O10 0.499450 0.111338 0.500852
O O11 0.729599 0.189110 0.603737
O O12 0.000000 0.596097 0.250000
O O13 0.000000 0.820961 0.250000
#
# Coordination Sequence:
#
# PCOD8153340 Si02
#       5
#     8   8   8   8   8
#     4  11  26  47  75 103 143 190 234 290 357 418
#     4  11  23  45  70 101 142 186 235 288 355 419
#     4  11  26  43  68 107 142 184 239 291 348 421
#     4  12  26  45  72 106 143 186 237 294 351 420
#     4  11  24  45  74 100 141 186 235 289 358 422
#
# _framework density 23.501387999999999
#
# number of rings (size 3 to 8) (size 9 to 14) (size 15 to 20)
#    0.000    0.800    2.000    4.200    5.600    5.600 
#    0.000    0.000    0.000    0.000    0.000    0.000 
#    0.000    0.000    0.000    0.000    0.000    0.000 
#
# Total GULP energy -248093.236421 kJ/mol
# GULP energy per Si atom -12404.661821 kJ/mol
# Density = 2.344790 g / cm^3
# Si number density = 23.501388 Si / 1000 Ang^3
#
#
#
# Elastic Constant Matrix: (Units=GPa)
#
#
# Indices 1 2 3 4 5 6 
#
# 1 132.0029 23.1144 68.4691 0.0000 -19.4081 0.0000
# 2 23.1144 78.6858 35.3993 0.0000 -5.5159 0.0000
# 3 68.4691 35.3993 209.9498 0.0000 -6.2296 0.0000
# 4 0.0000 0.0000 0.0000 15.7491 0.0000 -1.5686
# 5 -19.4081 -5.5159 -6.2296 0.0000 45.8284 0.0000
# 6 0.0000 0.0000 0.0000 -1.5686 0.0000 34.7516
#
#
#
# Elastic Compliance Matrix: (Units=1/GPa)
#
#
# Indices 1 2 3 4 5 6 
#
# 1 0.009832 -0.001343 -0.002873 0.000000 0.003612 0.000000
# 2 -0.001343 0.014018 -0.001900 0.000000 0.000860 0.000000
# 3 -0.002873 -0.001900 0.006002 0.000000 -0.000630 0.000000
# 4 0.000000 0.000000 0.000000 0.063783 0.000000 0.002879
# 5 0.003612 0.000860 -0.000630 0.000000 0.023368 0.000000
# 6 0.000000 0.000000 0.000000 0.002879 0.000000 0.028906
#
#
# Mechanical properties :
#
#
# Convention : Reuss Voigt Hill
#
# Bulk Modulus (GPa) = 56.75186 74.95600 65.85393
# Shear Modulus (GPa) = 30.48542 38.84285 34.66414
#
# Velocity S-wave (km/s) = 3.60554 4.06986 3.84472
# Velocity P-wave (km/s) = 6.44468 7.35177 6.91312
#
# Compressibility (1/GPa) = 0.01762057
#
# Stress axis : x y z
#
# Youngs Moduli (GPa) = 101.71074 71.33506 166.62067
#
# Poissons Ratio (x) = 0.09577 0.47867
# Poissons Ratio (y) = 0.13655 0.31662
# Poissons Ratio (z) = 0.29220 0.13555
#
# Static dielectric constant tensor:
#      x y z
#    x 4.204070 0.000000 0.102750 
#    y 0.000000 4.102370 0.000000 
#    z 0.102750 0.000000 4.433010 
# 
# 
# High freq. dielectric constant tensor:
#      x y z
#    x 1.933340 0.000000 0.002780 
#    y 0.000000 1.919150 0.000000 
#    z 0.002780 0.000000 1.951640 
# 
# From -- ./inp_files/23768.got.cif
#   From: 2010.06.25/outbox.cif.g09.slc.cpg/sg15_12_cif.got.tgz:23768.got - 2010.06.28 07:06:18.
