data_PCOD8153115
_publ_section_title
;
Structure prediction by ZEFSAII (Michael W. Deem and Ramdas Pophale) SiO2 
 PCOD8153115
Probable space group: C 2/C
;
_chemical_formula_sum "Si O2"
_cell_formula_units_Z 48
_cell_length_a 11.583759
_cell_length_b 27.431720
_cell_length_c 14.366971
_cell_angle_alpha 90.000000
_cell_angle_beta 28.682717
_cell_angle_gamma 90.000000
_cell_volume 2191.148475
_symmetry_space_group_name_H-M "C 2/C"
_symmetry_group_IT_number 15
_symmetry_cell_setting 'monoclinic'
loop_
_space_group_symop_operation_xyz
x,y,z
-x,y,1/2-z
-x,-y,-z
x,-y,1/2+z
1/2+x,1/2+y,z
1/2-x,1/2+y,1/2-z
1/2-x,1/2-y,-z
1/2+x,1/2-y,1/2+z
loop_
_atom_site_type_symbol
_atom_site_label
_atom_site_fract_x
_atom_site_fract_y
_atom_site_fract_z
Si Si1 0.605398 0.690443 0.536995
Si Si2 0.998577 0.704740 0.109161
Si Si3 0.103991 0.389791 0.897903
Si Si4 0.975911 0.443050 0.163030
Si Si5 0.960789 0.910083 0.487318
Si Si6 0.261294 0.044205 0.525736
O O1 0.718549 0.697765 0.561087
O O2 0.445584 0.738229 0.624105
O O3 0.460589 0.640282 0.622123
O O4 0.831538 0.685953 0.309208
O O5 0.945169 0.668712 0.060570
O O6 0.348316 0.401247 0.668616
O O7 0.131891 0.409631 0.982793
O O8 0.875047 0.413623 0.008246
O O9 0.000000 0.421744 0.250000
O O10 0.696820 0.442976 0.331038
O O11 0.065973 0.497949 0.092381
O O12 0.764298 0.938127 0.563127
O O13 0.000000 0.030567 0.750000
#
# Coordination Sequence:
#
# PCOD8153115 Si02
#       6
#     8   8   8   8   8   8
#     4   9  18  33  59  98 131 159 195 256 328 392
#     4   9  18  32  60  97 131 159 197 253 326 395
#     4  11  23  43  65  96 132 170 215 264 325 390
#     4  12  29  44  64  92 125 180 225 269 315 384
#     4  11  24  44  67  94 134 169 212 272 328 381
#     4  12  25  42  68  96 130 168 214 269 337 388
#
# _framework density 21.906320999999998
#
# number of rings (size 3 to 8) (size 9 to 14) (size 15 to 20)
#    0.000    1.333    3.333    2.000    4.667    1.333 
#    0.000    0.000    0.000    1.000    0.000    0.000 
#    0.000    0.000    0.000    0.000    0.000    0.000 
#
# Total GULP energy -297581.161496 kJ/mol
# GULP energy per Si atom -12399.215062 kJ/mol
# Density = 2.185646 g / cm^3
# Si number density = 21.906321 Si / 1000 Ang^3
#
#
#
# Elastic Constant Matrix: (Units=GPa)
#
#
# Indices 1 2 3 4 5 6 
#
# 1 73.3312 46.0559 6.8764 0.0005 12.1121 0.0000
# 2 46.0559 165.0694 28.0816 0.0001 -6.4456 0.0000
# 3 6.8764 28.0816 53.1528 0.0002 -4.8473 -0.0002
# 4 0.0005 0.0001 0.0002 30.2140 -0.0003 1.3908
# 5 12.1121 -6.4456 -4.8473 -0.0003 36.5645 0.0001
# 6 0.0000 0.0000 -0.0002 1.3908 0.0001 22.7107
#
#
#
# Elastic Compliance Matrix: (Units=1/GPa)
#
#
# Indices 1 2 3 4 5 6 
#
# 1 0.018133 -0.005301 -0.000181 0.000000 -0.006965 0.000000
# 2 -0.005301 0.008224 -0.003408 0.000000 0.002754 0.000000
# 3 -0.000181 -0.003408 0.020840 0.000000 0.002222 0.000000
# 4 0.000000 0.000000 0.000000 0.033191 0.000000 -0.002033
# 5 -0.006965 0.002754 0.002222 0.000000 0.030436 0.000000
# 6 0.000000 0.000000 0.000000 -0.002033 0.000000 0.044157
#
#
# Mechanical properties :
#
#
# Convention : Reuss Voigt Hill
#
# Bulk Modulus (GPa) = 33.99175 50.39790 42.19483
# Shear Modulus (GPa) = 27.38729 31.93380 29.66055
#
# Velocity S-wave (km/s) = 3.53965 3.82218 3.68363
# Velocity P-wave (km/s) = 5.67944 6.52187 6.11518
#
# Compressibility (1/GPa) = 0.02941890
#
# Stress axis : x y z
#
# Youngs Moduli (GPa) = 55.14766 121.59116 47.98397
#
# Poissons Ratio (x) = 0.64450 0.00867
# Poissons Ratio (y) = 0.29231 0.16354
# Poissons Ratio (z) = 0.00996 0.41440
#
# Static dielectric constant tensor:
#      x y z
#    x 3.725070 0.000000 0.256930 
#    y 0.000000 4.067590 0.000000 
#    z 0.256930 0.000000 4.037020 
# 
# 
# High freq. dielectric constant tensor:
#      x y z
#    x 1.806640 0.000000 0.017000 
#    y 0.000000 1.867120 0.000000 
#    z 0.017000 0.000000 1.881880 
# 
# From -- ./inp_files/148699.got.cif
#   From: 2010.06.25/outbox.cif.g09.slc.cpg/sg15_75_cif.got.tgz:148699.got - 2010.06.28 07:06:18.
