data_PCOD8153682
_publ_section_title
;
Structure prediction by ZEFSAII (Michael W. Deem and Ramdas Pophale) SiO2 
 PCOD8153682
Probable space group: C 2/C
;
_chemical_formula_sum "Si O2"
_cell_formula_units_Z 64
_cell_length_a 16.887357
_cell_length_b 15.154545
_cell_length_c 17.660019
_cell_angle_alpha 90.000000
_cell_angle_beta 140.061770
_cell_angle_gamma 90.000000
_cell_volume 2901.380240
_symmetry_space_group_name_H-M "C 2/C"
_symmetry_group_IT_number 15
_symmetry_cell_setting 'monoclinic'
loop_
_space_group_symop_operation_xyz
x,y,z
-x,y,1/2-z
-x,-y,-z
x,-y,1/2+z
1/2+x,1/2+y,z
1/2-x,1/2+y,1/2-z
1/2-x,1/2-y,-z
1/2+x,1/2-y,1/2+z
loop_
_atom_site_type_symbol
_atom_site_label
_atom_site_fract_x
_atom_site_fract_y
_atom_site_fract_z
Si Si1 0.458648 0.689360 0.920947
Si Si2 0.461579 0.560673 0.634885
Si Si3 0.617503 0.109344 0.134342
Si Si4 0.213237 0.645383 0.798819
Si Si5 0.128693 0.804543 0.825174
Si Si6 0.098286 0.092634 0.158097
Si Si7 0.745529 0.062821 0.973049
Si Si8 0.476778 0.050672 0.588715
O O1 0.534148 0.656998 0.901944
O O2 0.444610 0.794728 0.906413
O O3 0.319717 0.649349 0.814141
O O4 0.521654 0.655632 0.045230
O O5 0.500000 0.567708 0.750000
O O6 0.539445 0.504421 0.627880
O O7 0.323310 0.525089 0.543355
O O8 0.759615 0.099132 0.265321
O O9 0.535130 0.046207 0.126152
O O10 0.615893 0.072549 0.047611
O O11 0.218937 0.738329 0.847968
O O12 0.082231 0.626032 0.664163
O O13 0.243112 0.570044 0.881075
O O14 0.084875 0.878832 0.735143
O O15 0.195814 0.849040 0.946110
O O16 0.000000 0.753951 0.750000
O O17 0.604815 0.051929 0.895809
#
# Coordination Sequence:
#
# PCOD8153682 Si02
#       8
#     8   8   8   8   8   8   8   8
#     4  12  26  43  70 102 129 172 231 279 324 394
#     4  12  24  44  69  96 133 179 221 274 335 394
#     4  11  25  45  68  97 132 181 224 279 331 392
#     4  12  24  39  65 102 137 174 218 279 338 405
#     4  12  20  37  64 101 140 171 211 276 341 404
#     4  12  21  44  69  97 133 170 225 274 332 392
#     4  12  22  40  60  98 138 179 219 270 338 401
#     4  11  24  44  66  94 139 179 223 268 342 402
#
# _framework density 22.058467
#
# number of rings (size 3 to 8) (size 9 to 14) (size 15 to 20)
#    0.000    0.250    6.250    3.375    1.750    1.000 
#    0.000    1.875    0.000    0.000    0.000    0.000 
#    0.000    0.000    0.000    0.000    0.000    0.000 
#
# Total GULP energy -396612.763309 kJ/mol
# GULP energy per Si atom -12394.148853 kJ/mol
# Density = 2.200826 g / cm^3
# Si number density = 22.058467 Si / 1000 Ang^3
#
#
#
# Elastic Constant Matrix: (Units=GPa)
#
#
# Indices 1 2 3 4 5 6 
#
# 1 69.9578 37.7475 23.1595 0.0000 11.5226 0.0000
# 2 37.7475 97.1148 16.5692 0.0000 11.6626 0.0000
# 3 23.1595 16.5692 71.8029 0.0000 21.5503 0.0000
# 4 0.0000 0.0000 0.0000 17.0987 0.0000 1.5080
# 5 11.5226 11.6626 21.5503 0.0000 33.2500 0.0000
# 6 0.0000 0.0000 0.0000 1.5080 0.0000 38.2286
#
#
#
# Elastic Compliance Matrix: (Units=1/GPa)
#
#
# Indices 1 2 3 4 5 6 
#
# 1 0.019592 -0.006685 -0.004274 0.000000 -0.001675 0.000000
# 2 -0.006685 0.013196 -0.000242 0.000000 -0.002155 0.000000
# 3 -0.004274 -0.000242 0.018488 0.000000 -0.010416 0.000000
# 4 0.000000 0.000000 0.000000 0.058688 0.000000 -0.002315
# 5 -0.001675 -0.002155 -0.010416 0.000000 0.038163 0.000000
# 6 0.000000 0.000000 0.000000 -0.002315 0.000000 0.026250
#
#
# Mechanical properties :
#
#
# Convention : Reuss Voigt Hill
#
# Bulk Modulus (GPa) = 34.63415 43.75865 39.19640
# Shear Modulus (GPa) = 24.22455 28.47543 26.34999
#
# Velocity S-wave (km/s) = 3.31750 3.59682 3.45998
# Velocity P-wave (km/s) = 5.51449 6.09345 5.81118
#
# Compressibility (1/GPa) = 0.02887324
#
# Stress axis : x y z
#
# Youngs Moduli (GPa) = 51.04100 75.78330 54.08989
#
# Poissons Ratio (x) = 0.50660 0.23118
# Poissons Ratio (y) = 0.34120 0.01309
# Poissons Ratio (z) = 0.21815 0.01835
#
# Static dielectric constant tensor:
#      x y z
#    x 3.933730 0.000000 0.115180 
#    y 0.000000 3.898100 0.000000 
#    z 0.115180 0.000000 4.141450 
# 
# 
# High freq. dielectric constant tensor:
#      x y z
#    x 1.864220 0.000000 0.010840 
#    y 0.000000 1.855410 0.000000 
#    z 0.010840 0.000000 1.874970 
# 
# From -- ./inp_files/211416.got.cif
#   From: 2010.06.25/outbox.cif.g09.slc.cpg/sg15_106_cif.got.tgz:211416.got - 2010.06.28 07:06:18.
