data_PCOD8153959
_publ_section_title
;
Structure prediction by ZEFSAII (Michael W. Deem and Ramdas Pophale) SiO2 
 PCOD8153959
Probable space group: C 2/C
;
_chemical_formula_sum "Si O2"
_cell_formula_units_Z 44
_cell_length_a 10.486780
_cell_length_b 19.857018
_cell_length_c 13.055375
_cell_angle_alpha 90.000000
_cell_angle_beta 133.768895
_cell_angle_gamma 90.000000
_cell_volume 1963.199608
_symmetry_space_group_name_H-M "C 2/C"
_symmetry_group_IT_number 15
_symmetry_cell_setting 'monoclinic'
loop_
_space_group_symop_operation_xyz
x,y,z
-x,y,1/2-z
-x,-y,-z
x,-y,1/2+z
1/2+x,1/2+y,z
1/2-x,1/2+y,1/2-z
1/2-x,1/2-y,-z
1/2+x,1/2-y,1/2+z
loop_
_atom_site_type_symbol
_atom_site_label
_atom_site_fract_x
_atom_site_fract_y
_atom_site_fract_z
Si Si1 0.251238 0.059418 0.465013
Si Si2 0.000000 0.638066 0.750000
Si Si3 0.126331 0.110264 0.189200
Si Si4 0.914425 0.288016 0.546379
Si Si5 0.665992 0.074389 0.394770
Si Si6 0.202885 0.738364 0.735708
O O1 0.420301 0.093162 0.613749
O O2 0.250451 0.072935 0.342402
O O3 0.073161 0.085743 0.417670
O O4 0.250123 0.978491 0.479590
O O5 0.161518 0.686083 0.803425
O O6 0.191424 0.097836 0.110006
O O7 0.125923 0.188520 0.218734
O O8 0.750000 0.250000 0.500000
O O9 0.921325 0.362492 0.595746
O O10 0.898919 0.293421 0.416630
O O11 0.088954 0.245611 0.671947
O O12 0.500000 0.037165 0.250000
#
# Coordination Sequence:
#
# PCOD8153959 Si02
#       6
#     8   4   8   8   8   8
#     4  11  26  46  69 102 141 186 231 279 347 418
#     4  12  26  42  70 106 136 184 238 280 340 426
#     4  11  24  47  71  97 143 183 226 292 344 402
#     4  12  24  46  72 104 137 180 228 292 348 402
#     4  12  24  46  73 101 142 181 228 289 349 407
#     4  12  25  45  73 103 140 181 236 289 347 407
#
# _framework density 22.412393000000002
#
# number of rings (size 3 to 8) (size 9 to 14) (size 15 to 20)
#    0.000    0.364    4.545    4.364    0.000    4.364 
#    6.545    0.000    0.000    0.000    0.000    0.000 
#    0.000    0.000    0.000    0.000    0.000    0.000 
#
# Total GULP energy -272846.354374 kJ/mol
# GULP energy per Si atom -12402.107017 kJ/mol
# Density = 2.236138 g / cm^3
# Si number density = 22.412393 Si / 1000 Ang^3
#
#
#
# Elastic Constant Matrix: (Units=GPa)
#
#
# Indices 1 2 3 4 5 6 
#
# 1 57.9281 29.8953 17.3311 0.0000 0.3785 0.0000
# 2 29.8953 108.2953 39.3976 0.0000 -5.6958 0.0000
# 3 17.3311 39.3976 112.0336 0.0000 -0.9913 0.0000
# 4 0.0000 0.0000 0.0000 36.7657 0.0000 1.6594
# 5 0.3785 -5.6958 -0.9913 0.0000 49.1274 0.0000
# 6 0.0000 0.0000 0.0000 1.6594 0.0000 15.9178
#
#
#
# Elastic Compliance Matrix: (Units=1/GPa)
#
#
# Indices 1 2 3 4 5 6 
#
# 1 0.020335 -0.005169 -0.001335 0.000000 -0.000783 0.000000
# 2 -0.005169 0.011968 -0.003397 0.000000 0.001359 0.000000
# 3 -0.001335 -0.003397 0.010325 0.000000 -0.000175 0.000000
# 4 0.000000 0.000000 0.000000 0.027328 0.000000 -0.002849
# 5 -0.000783 0.001359 -0.000175 0.000000 0.020515 0.000000
# 6 0.000000 0.000000 0.000000 -0.002849 0.000000 0.063120
#
#
# Mechanical properties :
#
#
# Convention : Reuss Voigt Hill
#
# Bulk Modulus (GPa) = 43.80869 50.16722 46.98796
# Shear Modulus (GPa) = 27.62396 33.13773 30.38084
#
# Velocity S-wave (km/s) = 3.51455 3.84936 3.68576
# Velocity P-wave (km/s) = 6.00487 6.49531 6.25490
#
# Compressibility (1/GPa) = 0.02282652
#
# Stress axis : x y z
#
# Youngs Moduli (GPa) = 49.17656 83.55423 96.84795
#
# Poissons Ratio (x) = 0.43190 0.12928
# Poissons Ratio (y) = 0.25420 0.32900
# Poissons Ratio (z) = 0.06565 0.28384
#
# Static dielectric constant tensor:
#      x y z
#    x 3.990970 0.000000 -0.135200 
#    y 0.000000 4.086350 0.000000 
#    z -0.135200 0.000000 3.930770 
# 
# 
# High freq. dielectric constant tensor:
#      x y z
#    x 1.890490 0.000000 0.002150 
#    y 0.000000 1.886080 0.000000 
#    z 0.002150 0.000000 1.889390 
# 
# From -- ./inp_files/147281.got.cif
#   From: 2010.06.25/outbox.cif.g09.slc.cpg/sg15_74_cif.got.tgz:147281.got - 2010.06.28 07:06:18.
