data_PCOD8153613
_publ_section_title
;
Structure prediction by ZEFSAII (Michael W. Deem and Ramdas Pophale) SiO2 
 PCOD8153613
Probable space group: C 2/C
;
_chemical_formula_sum "Si O2"
_cell_formula_units_Z 44
_cell_length_a 11.514861
_cell_length_b 18.735088
_cell_length_c 9.870369
_cell_angle_alpha 90.000000
_cell_angle_beta 78.715144
_cell_angle_gamma 90.000000
_cell_volume 2088.185753
_symmetry_space_group_name_H-M "C 2/C"
_symmetry_group_IT_number 15
_symmetry_cell_setting 'monoclinic'
loop_
_space_group_symop_operation_xyz
x,y,z
-x,y,1/2-z
-x,-y,-z
x,-y,1/2+z
1/2+x,1/2+y,z
1/2-x,1/2+y,1/2-z
1/2-x,1/2-y,-z
1/2+x,1/2-y,1/2+z
loop_
_atom_site_type_symbol
_atom_site_label
_atom_site_fract_x
_atom_site_fract_y
_atom_site_fract_z
Si Si1 0.226340 0.336225 0.858275
Si Si2 0.083468 0.481927 0.857649
Si Si3 0.382332 0.635134 0.079696
Si Si4 0.500000 0.526394 0.250000
Si Si5 0.297641 0.418734 0.334213
Si Si6 0.880286 0.186273 0.581370
O O1 0.153609 0.408715 0.862583
O O2 0.311792 0.321621 0.710577
O O3 0.139283 0.269655 0.888370
O O4 0.307032 0.343538 0.971849
O O5 0.174086 0.547489 0.813783
O O6 0.000000 0.473411 0.750000
O O7 0.000000 0.500000 0.000000
O O8 0.451169 0.570205 0.134075
O O9 0.285343 0.612307 0.989241
O O10 0.480118 0.682479 0.980450
O O11 0.394522 0.479646 0.331819
O O12 0.341908 0.359134 0.219941
#
# Coordination Sequence:
#
# PCOD8153613 Si02
#       6
#     8   8   8   4   8   8
#     4  11  25  43  67  93 141 183 227 270 342 412
#     4  12  26  44  66  96 139 184 223 274 336 412
#     4  12  22  42  70 102 132 172 224 290 338 392
#     4  12  22  38  76 102 132 162 224 294 336 390
#     4  12  25  41  71 105 130 171 235 284 338 395
#     4  11  24  43  66 102 134 180 226 284 341 399
#
# _framework density 21.070921999999999
#
# number of rings (size 3 to 8) (size 9 to 14) (size 15 to 20)
#    0.000    0.364    5.455    2.727    2.545    3.636 
#    0.000    1.818    0.000    0.000    0.000    0.000 
#    0.000    0.000    0.000    0.000    0.000    0.000 
#
# Total GULP energy -272860.676536 kJ/mol
# GULP energy per Si atom -12402.758024 kJ/mol
# Density = 2.102296 g / cm^3
# Si number density = 21.070922 Si / 1000 Ang^3
#
#
#
# Elastic Constant Matrix: (Units=GPa)
#
#
# Indices 1 2 3 4 5 6 
#
# 1 93.3437 44.8061 35.1978 0.0000 -1.6315 0.0000
# 2 44.8061 81.3036 46.5889 0.0000 7.5728 0.0000
# 3 35.1978 46.5889 136.4667 0.0000 2.3634 0.0000
# 4 0.0000 0.0000 0.0000 1.9202 0.0000 17.5730
# 5 -1.6315 7.5728 2.3634 0.0000 39.5705 0.0000
# 6 0.0000 0.0000 0.0000 17.5730 0.0000 11.8023
#
#
#
# Elastic Compliance Matrix: (Units=1/GPa)
#
#
# Indices 1 2 3 4 5 6 
#
# 1 0.014924 -0.007706 -0.001256 0.000000 0.002165 0.000000
# 2 -0.007706 0.019546 -0.004620 0.000000 -0.003782 0.000000
# 3 -0.001256 -0.004620 0.009224 0.000000 0.000281 0.000000
# 4 0.000000 0.000000 0.000000 -0.041246 0.000000 0.061412
# 5 0.002165 -0.003782 0.000281 0.000000 0.026068 0.000000
# 6 0.000000 0.000000 0.000000 0.061412 0.000000 -0.006710
#
#
# Mechanical properties :
#
#
# Convention : Reuss Voigt Hill
#
# Bulk Modulus (GPa) = 60.49658 62.69997 61.59828
# Shear Modulus (GPa) = 91.77818 22.96000 57.36909
#
# Velocity S-wave (km/s) = 6.60692 3.30457 5.22358
# Velocity P-wave (km/s) = 9.32604 6.66194 8.10421
#
# Compressibility (1/GPa) = 0.01652986
#
# Stress axis : x y z
#
# Youngs Moduli (GPa) = 67.00777 51.16103 108.41343
#
# Poissons Ratio (x) = 0.39427 0.13613
# Poissons Ratio (y) = 0.51639 0.50084
# Poissons Ratio (z) = 0.08414 0.23635
#
# Static dielectric constant tensor:
#      x y z
#    x 4.021570 0.000000 -0.005150 
#    y 0.000000 4.559260 0.000000 
#    z -0.005150 0.000000 3.944200 
# 
# 
# High freq. dielectric constant tensor:
#      x y z
#    x 1.834680 0.000000 0.003310 
#    y 0.000000 1.820100 0.000000 
#    z 0.003310 0.000000 1.847680 
# 
# From -- ./inp_files/30723.got.cif
#   From: 2010.06.25/outbox.cif.g09.slc.cpg/sg15_16_cif.got.tgz:30723.got - 2010.06.28 07:06:18.
