data_PCOD8153263
_publ_section_title
;
Structure prediction by ZEFSAII (Michael W. Deem and Ramdas Pophale) SiO2 
 PCOD8153263
Probable space group: C 2/C
;
_chemical_formula_sum "Si O2"
_cell_formula_units_Z 48
_cell_length_a 27.070588
_cell_length_b 8.521318
_cell_length_c 14.144969
_cell_angle_alpha 90.000000
_cell_angle_beta 136.989415
_cell_angle_gamma 90.000000
_cell_volume 2225.747097
_symmetry_space_group_name_H-M "C 2/C"
_symmetry_group_IT_number 15
_symmetry_cell_setting 'monoclinic'
loop_
_space_group_symop_operation_xyz
x,y,z
-x,y,1/2-z
-x,-y,-z
x,-y,1/2+z
1/2+x,1/2+y,z
1/2-x,1/2+y,1/2-z
1/2-x,1/2-y,-z
1/2+x,1/2-y,1/2+z
loop_
_atom_site_type_symbol
_atom_site_label
_atom_site_fract_x
_atom_site_fract_y
_atom_site_fract_z
Si Si1 0.436179 0.282950 0.880919
Si Si2 0.825840 0.707754 0.056063
Si Si3 0.840541 0.293432 0.895501
Si Si4 0.424922 0.083793 0.681922
Si Si5 0.806985 0.346699 0.316672
Si Si6 0.078014 0.146219 0.664551
O O1 0.448717 0.181741 0.805571
O O2 0.362573 0.234400 0.825503
O O3 0.435294 0.463114 0.852073
O O4 0.503196 0.256620 0.046986
O O5 0.858656 0.532313 0.116754
O O6 0.886961 0.819898 0.184785
O O7 0.750000 0.750000 0.000000
O O8 0.815993 0.734713 0.931436
O O9 0.818243 0.467902 0.832764
O O10 0.771304 0.195857 0.834566
O O11 0.869835 0.198297 0.847135
O O12 0.897226 0.299000 0.060769
O O13 0.500000 0.001283 0.750000
#
# Coordination Sequence:
#
# PCOD8153263 Si02
#       6
#     8   8   8   8   8   8
#     4  11  26  43  68 100 133 179 229 282 347 397
#     4  11  25  44  68 100 138 177 226 283 338 405
#     4  11  23  44  70  96 140 173 231 280 341 415
#     4  11  25  46  72 104 135 182 230 280 345 413
#     4  11  25  41  68 102 128 183 222 282 347 404
#     4  11  24  45  67  95 138 177 225 286 336 413
#
# _framework density 21.565791000000001
#
# number of rings (size 3 to 8) (size 9 to 14) (size 15 to 20)
#    0.000    1.000    3.333    2.000    7.000    4.667 
#    0.000    0.000    0.000    0.000    0.000    0.000 
#    0.000    0.000    0.000    0.000    0.000    0.000 
#
# Total GULP energy -297552.899380 kJ/mol
# GULP energy per Si atom -12398.037474 kJ/mol
# Density = 2.151671 g / cm^3
# Si number density = 21.565791 Si / 1000 Ang^3
#
#
#
# Elastic Constant Matrix: (Units=GPa)
#
#
# Indices 1 2 3 4 5 6 
#
# 1 91.5617 16.0138 14.4954 0.0000 15.6517 0.0000
# 2 16.0138 46.0619 13.9870 0.0000 -0.1196 0.0000
# 3 14.4954 13.9870 99.0858 0.0000 11.3966 0.0000
# 4 0.0000 0.0000 0.0000 38.9146 0.0000 13.2836
# 5 15.6517 -0.1196 11.3966 0.0000 37.1246 0.0000
# 6 0.0000 0.0000 0.0000 13.2836 0.0000 41.7524
#
#
#
# Elastic Compliance Matrix: (Units=1/GPa)
#
#
# Indices 1 2 3 4 5 6 
#
# 1 0.012641 -0.004206 -0.000664 0.000000 -0.005139 0.000000
# 2 -0.004206 0.024125 -0.003113 0.000000 0.002807 0.000000
# 3 -0.000664 -0.003113 0.010986 0.000000 -0.003102 0.000000
# 4 0.000000 0.000000 0.000000 0.028828 0.000000 -0.009172
# 5 -0.005139 0.002807 -0.003102 0.000000 0.030064 0.000000
# 6 0.000000 0.000000 0.000000 -0.009172 0.000000 0.026869
#
#
# Mechanical properties :
#
#
# Convention : Reuss Voigt Hill
#
# Bulk Modulus (GPa) = 31.46228 36.18910 33.82569
# Shear Modulus (GPa) = 31.23541 36.37252 33.80396
#
# Velocity S-wave (km/s) = 3.80988 4.11126 3.96344
# Velocity P-wave (km/s) = 5.82875 6.27326 6.05508
#
# Compressibility (1/GPa) = 0.03178410
#
# Stress axis : x y z
#
# Youngs Moduli (GPa) = 79.10816 41.45102 91.02734
#
# Poissons Ratio (x) = 0.17436 0.06048
# Poissons Ratio (y) = 0.33275 0.28336
# Poissons Ratio (z) = 0.05256 0.12904
#
# Static dielectric constant tensor:
#      x y z
#    x 3.941940 0.000000 0.051690 
#    y 0.000000 3.889330 0.000000 
#    z 0.051690 0.000000 4.455790 
# 
# 
# High freq. dielectric constant tensor:
#      x y z
#    x 1.849570 0.000000 0.008980 
#    y 0.000000 1.838950 0.000000 
#    z 0.008980 0.000000 1.871470 
# 
# From -- ./inp_files/176957.got.cif
#   From: 2010.06.25/outbox.cif.g09.slc.cpg/sg15_89_cif.got.tgz:176957.got - 2010.06.28 07:06:18.
