data_PCOD8153246
_publ_section_title
;
Structure prediction by ZEFSAII (Michael W. Deem and Ramdas Pophale) SiO2 
 PCOD8153246
Probable space group: C 2/C
;
_chemical_formula_sum "Si O2"
_cell_formula_units_Z 48
_cell_length_a 25.852347
_cell_length_b 8.789517
_cell_length_c 14.471566
_cell_angle_alpha 90.000000
_cell_angle_beta 139.281729
_cell_angle_gamma 90.000000
_cell_volume 2145.134924
_symmetry_space_group_name_H-M "C 2/C"
_symmetry_group_IT_number 15
_symmetry_cell_setting 'monoclinic'
loop_
_space_group_symop_operation_xyz
x,y,z
-x,y,1/2-z
-x,-y,-z
x,-y,1/2+z
1/2+x,1/2+y,z
1/2-x,1/2+y,1/2-z
1/2-x,1/2-y,-z
1/2+x,1/2-y,1/2+z
loop_
_atom_site_type_symbol
_atom_site_label
_atom_site_fract_x
_atom_site_fract_y
_atom_site_fract_z
Si Si1 0.931211 0.047123 0.086256
Si Si2 0.741265 0.622157 0.596157
Si Si3 0.025382 0.720053 0.382240
Si Si4 0.100261 0.820621 0.140684
Si Si5 0.352289 0.989224 0.891498
Si Si6 0.259081 0.536703 0.099071
O O1 0.000000 0.096751 0.250000
O O2 0.919366 0.864496 0.069156
O O3 0.852764 0.132842 0.014455
O O4 0.952344 0.096049 0.009505
O O5 0.778127 0.558149 0.738372
O O6 0.757861 0.507409 0.532604
O O7 0.783323 0.785224 0.637018
O O8 0.070389 0.596284 0.505847
O O9 0.000000 0.644766 0.250000
O O10 0.950240 0.780571 0.337693
O O11 0.132010 0.670393 0.134333
O O12 0.171951 0.928807 0.269625
O O13 0.323391 0.982004 0.958189
#
# Coordination Sequence:
#
# PCOD8153246 Si02
#       6
#     8   8   8   8   8   8
#     4  11  23  44  69 101 139 185 235 281 350 417
#     4  11  25  44  70 108 132 182 235 284 353 408
#     4  11  27  46  69 100 144 189 232 283 348 416
#     4  12  25  46  70 104 137 190 228 289 349 411
#     4  12  25  44  71 104 140 179 234 289 341 416
#     4  11  23  44  72 101 139 177 230 290 342 412
#
# _framework density 22.376214000000001
#
# number of rings (size 3 to 8) (size 9 to 14) (size 15 to 20)
#    0.000    0.667    3.333    4.000    4.667    4.000 
#    0.000    0.000    0.000    0.000    0.000    0.000 
#    0.000    0.000    0.000    0.000    0.000    0.000 
#
# Total GULP energy -297576.982724 kJ/mol
# GULP energy per Si atom -12399.040947 kJ/mol
# Density = 2.232529 g / cm^3
# Si number density = 22.376214 Si / 1000 Ang^3
#
#
#
# Elastic Constant Matrix: (Units=GPa)
#
#
# Indices 1 2 3 4 5 6 
#
# 1 133.0858 36.3550 44.8020 0.0000 -15.9329 0.0000
# 2 36.3550 110.1797 65.2319 0.0000 9.7809 0.0000
# 3 44.8020 65.2319 123.5796 0.0000 -3.7323 0.0000
# 4 0.0000 0.0000 0.0000 28.5315 0.0000 -2.3295
# 5 -15.9329 9.7809 -3.7323 0.0000 34.0307 0.0000
# 6 0.0000 0.0000 0.0000 -2.3295 0.0000 29.6628
#
#
#
# Elastic Compliance Matrix: (Units=1/GPa)
#
#
# Indices 1 2 3 4 5 6 
#
# 1 0.009418 -0.002333 -0.002036 0.000000 0.004857 0.000000
# 2 -0.002333 0.014530 -0.007006 0.000000 -0.006037 0.000000
# 3 -0.002036 -0.007006 0.012602 0.000000 0.002442 0.000000
# 4 0.000000 0.000000 0.000000 0.035275 0.000000 0.002770
# 5 0.004857 -0.006037 0.002442 0.000000 0.033662 0.000000
# 6 0.000000 0.000000 0.000000 0.002770 0.000000 0.033930
#
#
# Mechanical properties :
#
#
# Convention : Reuss Voigt Hill
#
# Bulk Modulus (GPa) = 72.46812 73.29143 72.87977
# Shear Modulus (GPa) = 29.98180 33.14208 31.56194
#
# Velocity S-wave (km/s) = 3.66443 3.85272 3.75975
# Velocity P-wave (km/s) = 7.09652 7.25373 7.17555
#
# Compressibility (1/GPa) = 0.01379917
#
# Stress axis : x y z
#
# Youngs Moduli (GPa) = 106.17707 68.82396 79.35228
#
# Poissons Ratio (x) = 0.16059 0.16157
# Poissons Ratio (y) = 0.24775 0.55594
# Poissons Ratio (z) = 0.21619 0.48218
#
# Static dielectric constant tensor:
#      x y z
#    x 4.196400 0.000000 -0.423650 
#    y 0.000000 4.087820 0.000000 
#    z -0.423650 0.000000 4.104420 
# 
# 
# High freq. dielectric constant tensor:
#      x y z
#    x 1.893950 0.000000 -0.021770 
#    y 0.000000 1.883310 0.000000 
#    z -0.021770 0.000000 1.879580 
# 
# From -- ./inp_files/176994.got.cif
#   From: 2010.06.25/outbox.cif.g09.slc.cpg/sg15_89_cif.got.tgz:176994.got - 2010.06.28 07:06:18.
