data_PCOD8153529
_publ_section_title
;
Structure prediction by ZEFSAII (Michael W. Deem and Ramdas Pophale) SiO2 
 PCOD8153529
Probable space group: C 2/C
;
_chemical_formula_sum "Si O2"
_cell_formula_units_Z 40
_cell_length_a 21.456663
_cell_length_b 12.138369
_cell_length_c 12.359658
_cell_angle_alpha 90.000000
_cell_angle_beta 145.600401
_cell_angle_gamma 90.000000
_cell_volume 1818.643666
_symmetry_space_group_name_H-M "C 2/C"
_symmetry_group_IT_number 15
_symmetry_cell_setting 'monoclinic'
loop_
_space_group_symop_operation_xyz
x,y,z
-x,y,1/2-z
-x,-y,-z
x,-y,1/2+z
1/2+x,1/2+y,z
1/2-x,1/2+y,1/2-z
1/2-x,1/2-y,-z
1/2+x,1/2-y,1/2+z
loop_
_atom_site_type_symbol
_atom_site_label
_atom_site_fract_x
_atom_site_fract_y
_atom_site_fract_z
Si Si1 0.188841 0.892315 0.204439
Si Si2 0.015479 0.737934 0.061363
Si Si3 0.204295 0.413180 0.920852
Si Si4 0.804235 0.336806 0.157204
Si Si5 0.103262 0.901661 0.459137
O O1 0.080610 0.831768 0.091112
O O2 0.279868 0.895701 0.429099
O O3 0.240451 0.825323 0.179297
O O4 0.156171 0.015958 0.122138
O O5 0.091755 0.642589 0.220550
O O6 0.942203 0.792028 0.050161
O O7 0.933991 0.684042 0.857316
O O8 0.207076 0.542495 0.906266
O O9 0.306329 0.360550 0.999428
O O10 0.750000 0.250000 0.000000
O O11 0.000000 0.960667 0.250000
#
# Coordination Sequence:
#
# PCOD8153529 Si02
#       5
#     8   8   8   8   8
#     4  11  25  42  70  97 135 178 231 278 339 409
#     4  12  24  42  72  99 137 184 222 289 342 398
#     4  11  25  45  65 104 135 179 232 279 343 416
#     4  11  27  46  68 100 141 177 229 282 343 409
#     4  11  24  40  69  99 136 178 234 280 339 410
#
# _framework density 21.994413000000002
#
# number of rings (size 3 to 8) (size 9 to 14) (size 15 to 20)
#    0.000    0.800    2.000    4.200    8.400    1.600 
#    0.000    2.000    0.000    0.000    0.000    0.000 
#    0.000    0.000    0.000    0.000    0.000    0.000 
#
# Total GULP energy -248112.039247 kJ/mol
# GULP energy per Si atom -12405.601962 kJ/mol
# Density = 2.194435 g / cm^3
# Si number density = 21.994413 Si / 1000 Ang^3
#
#
#
# Elastic Constant Matrix: (Units=GPa)
#
#
# Indices 1 2 3 4 5 6 
#
# 1 112.5028 54.6921 69.6837 0.0000 -20.8086 0.0000
# 2 54.6921 92.5903 46.5848 0.0000 -4.8284 0.0000
# 3 69.6837 46.5848 174.8556 0.0000 -0.5770 0.0000
# 4 0.0000 0.0000 0.0000 36.7230 0.0000 4.1340
# 5 -20.8086 -4.8284 -0.5770 0.0000 35.5246 0.0000
# 6 0.0000 0.0000 0.0000 4.1340 0.0000 35.0575
#
#
#
# Elastic Compliance Matrix: (Units=1/GPa)
#
#
# Indices 1 2 3 4 5 6 
#
# 1 0.017014 -0.007146 -0.004847 0.000000 0.008916 0.000000
# 2 -0.007146 0.015570 -0.001307 0.000000 -0.002091 0.000000
# 3 -0.004847 -0.001307 0.007989 0.000000 -0.002887 0.000000
# 4 0.000000 0.000000 0.000000 0.027597 0.000000 -0.003254
# 5 0.008916 -0.002091 -0.002887 0.000000 0.033041 0.000000
# 6 0.000000 0.000000 0.000000 -0.003254 0.000000 0.028908
#
#
# Mechanical properties :
#
#
# Convention : Reuss Voigt Hill
#
# Bulk Modulus (GPa) = 71.56936 80.20777 75.88856
# Shear Modulus (GPa) = 30.98288 35.39355 33.18822
#
# Velocity S-wave (km/s) = 3.75730 4.01584 3.88872
# Velocity P-wave (km/s) = 7.17171 7.61900 7.39874
#
# Compressibility (1/GPa) = 0.01397246
#
# Stress axis : x y z
#
# Youngs Moduli (GPa) = 58.77407 64.22531 125.16560
#
# Poissons Ratio (x) = 0.45898 0.60670
# Poissons Ratio (y) = 0.42003 0.16360
# Poissons Ratio (z) = 0.28489 0.08395
#
# Static dielectric constant tensor:
#      x y z
#    x 4.163310 0.000000 0.015750 
#    y 0.000000 3.903440 0.000000 
#    z 0.015750 0.000000 4.292750 
# 
# 
# High freq. dielectric constant tensor:
#      x y z
#    x 1.871220 0.000000 -0.001450 
#    y 0.000000 1.870280 0.000000 
#    z -0.001450 0.000000 1.882450 
# 
# From -- ./inp_files/111863.got.cif
#   From: 2010.06.25/outbox.cif.g09.slc.cpg/sg15_56_cif.got.tgz:111863.got - 2010.06.28 07:06:18.
