data_PCOD8153890
_publ_section_title
;
Structure prediction by ZEFSAII (Michael W. Deem and Ramdas Pophale) SiO2 
 PCOD8153890
Probable space group: C 2/C
;
_chemical_formula_sum "Si O2"
_cell_formula_units_Z 44
_cell_length_a 11.693806
_cell_length_b 24.241580
_cell_length_c 7.651727
_cell_angle_alpha 90.000000
_cell_angle_beta 64.753809
_cell_angle_gamma 90.000000
_cell_volume 1961.900254
_symmetry_space_group_name_H-M "C 2/C"
_symmetry_group_IT_number 15
_symmetry_cell_setting 'monoclinic'
loop_
_space_group_symop_operation_xyz
x,y,z
-x,y,1/2-z
-x,-y,-z
x,-y,1/2+z
1/2+x,1/2+y,z
1/2-x,1/2+y,1/2-z
1/2-x,1/2-y,-z
1/2+x,1/2-y,1/2+z
loop_
_atom_site_type_symbol
_atom_site_label
_atom_site_fract_x
_atom_site_fract_y
_atom_site_fract_z
Si Si1 0.894527 0.746202 0.969343
Si Si2 0.696053 0.074734 0.920485
Si Si3 0.450322 0.875520 0.477338
Si Si4 0.500000 0.576176 0.250000
Si Si5 0.916133 0.143070 0.637592
Si Si6 0.752004 0.541816 0.229285
O O1 0.000000 0.755271 0.750000
O O2 0.915245 0.687166 0.048159
O O3 0.750000 0.750000 0.000000
O O4 0.911217 0.791569 0.109056
O O5 0.557303 0.100887 0.038423
O O6 0.776506 0.119657 0.762195
O O7 0.683748 0.018258 0.817491
O O8 0.758432 0.061920 0.065643
O O9 0.500000 0.879683 0.250000
O O10 0.326651 0.912886 0.569654
O O11 0.473116 0.615117 0.430203
O O12 0.614799 0.536181 0.228597
O O13 0.000000 0.129504 0.750000
#
# Coordination Sequence:
#
# PCOD8153890 Si02
#       6
#     8   8   8   4   8   8
#     4  11  24  46  76 106 148 196 244 308 376 438
#     4  12  26  46  69 107 143 192 249 301 373 443
#     4  11  24  46  71 106 143 195 243 303 372 441
#     4  12  24  46  70 104 148 186 244 302 374 428
#     4  12  25  44  71 108 142 190 242 300 364 442
#     4  12  26  44  74 102 147 193 245 311 368 443
#
# _framework density 22.427233999999999
#
# number of rings (size 3 to 8) (size 9 to 14) (size 15 to 20)
#    0.000    0.364    2.727    7.636    1.273    2.909 
#    0.000    2.727    0.000    0.000    0.000    0.000 
#    0.000    0.000    0.000    0.000    0.000    0.000 
#
# Total GULP energy -272927.016021 kJ/mol
# GULP energy per Si atom -12405.773456 kJ/mol
# Density = 2.237619 g / cm^3
# Si number density = 22.427234 Si / 1000 Ang^3
#
#
#
# Elastic Constant Matrix: (Units=GPa)
#
#
# Indices 1 2 3 4 5 6 
#
# 1 126.7009 40.8654 39.2227 0.0000 -3.4394 0.0000
# 2 40.8654 175.0808 47.5373 0.0000 -10.6669 0.0000
# 3 39.2227 47.5373 100.8886 0.0000 -5.7004 0.0000
# 4 0.0000 0.0000 0.0000 39.3314 0.0000 -3.7151
# 5 -3.4394 -10.6669 -5.7004 0.0000 37.5764 0.0000
# 6 0.0000 0.0000 0.0000 -3.7151 0.0000 35.9044
#
#
#
# Elastic Compliance Matrix: (Units=1/GPa)
#
#
# Indices 1 2 3 4 5 6 
#
# 1 0.009245 -0.001355 -0.002955 0.000000 0.000013 0.000000
# 2 -0.001355 0.006822 -0.002608 0.000000 0.001417 0.000000
# 3 -0.002955 -0.002608 0.012338 0.000000 0.000861 0.000000
# 4 0.000000 0.000000 0.000000 0.025676 0.000000 0.002657
# 5 0.000013 0.001417 0.000861 0.000000 0.027147 0.000000
# 6 0.000000 0.000000 0.000000 0.002657 0.000000 0.028127
#
#
# Mechanical properties :
#
#
# Convention : Reuss Voigt Hill
#
# Bulk Modulus (GPa) = 68.63381 73.10236 70.86808
# Shear Modulus (GPa) = 39.04852 40.89878 39.97365
#
# Velocity S-wave (km/s) = 4.17720 4.27502 4.22639
# Velocity P-wave (km/s) = 7.34402 7.55208 7.44878
#
# Compressibility (1/GPa) = 0.01457008
#
# Stress axis : x y z
#
# Youngs Moduli (GPa) = 108.17039 146.57955 81.04928
#
# Poissons Ratio (x) = 0.19856 0.23950
# Poissons Ratio (y) = 0.14653 0.21136
# Poissons Ratio (z) = 0.31965 0.38225
#
# Static dielectric constant tensor:
#      x y z
#    x 4.206030 0.000000 -0.166690 
#    y 0.000000 4.284800 0.000000 
#    z -0.166690 0.000000 4.062490 
# 
# 
# High freq. dielectric constant tensor:
#      x y z
#    x 1.892180 0.000000 -0.006350 
#    y 0.000000 1.895060 0.000000 
#    z -0.006350 0.000000 1.889680 
# 
# From -- ./inp_files/32433.got.cif
#   From: 2010.06.25/outbox.cif.g09.slc.cpg/sg15_17_cif.got.tgz:32433.got - 2010.06.28 07:06:18.
