data_PCOD8153139
_publ_section_title
;
Structure prediction by ZEFSAII (Michael W. Deem and Ramdas Pophale) SiO2 
 PCOD8153139
Probable space group: C 2/C
;
_chemical_formula_sum "Si O2"
_cell_formula_units_Z 56
_cell_length_a 19.123306
_cell_length_b 9.228568
_cell_length_c 17.486290
_cell_angle_alpha 90.000000
_cell_angle_beta 118.562961
_cell_angle_gamma 90.000000
_cell_volume 2710.403909
_symmetry_space_group_name_H-M "C 2/C"
_symmetry_group_IT_number 15
_symmetry_cell_setting 'monoclinic'
loop_
_space_group_symop_operation_xyz
x,y,z
-x,y,1/2-z
-x,-y,-z
x,-y,1/2+z
1/2+x,1/2+y,z
1/2-x,1/2+y,1/2-z
1/2-x,1/2-y,-z
1/2+x,1/2-y,1/2+z
loop_
_atom_site_type_symbol
_atom_site_label
_atom_site_fract_x
_atom_site_fract_y
_atom_site_fract_z
Si Si1 0.746489 0.381873 0.166253
Si Si2 0.163135 0.126486 0.221540
Si Si3 0.304522 0.031997 0.056718
Si Si4 0.366428 0.667776 0.556834
Si Si5 0.377733 0.778846 0.006288
Si Si6 0.533375 0.658323 0.036200
Si Si7 0.082270 0.915061 0.829836
O O1 0.787292 0.275454 0.248506
O O2 0.709146 0.510421 0.195372
O O3 0.811008 0.448020 0.140789
O O4 0.681421 0.299825 0.082104
O O5 0.076847 0.156219 0.140385
O O6 0.150213 0.070624 0.300852
O O7 0.351939 0.181341 0.091675
O O8 0.343997 0.938250 0.008633
O O9 0.212708 0.069369 0.990789
O O10 0.402576 0.705768 0.493240
O O11 0.429519 0.574020 0.638562
O O12 0.462899 0.777497 0.007077
O O13 0.385867 0.694826 0.090097
O O14 0.500000 0.500000 0.000000
O O15 0.000000 0.861093 0.750000
#
# Coordination Sequence:
#
# PCOD8153139 Si02
#       7
#     8   8   8   8   8   8   8
#     4  12  25  43  66  99 136 171 223 286 341 413
#     4  12  25  39  67 101 136 171 226 288 342 402
#     4  11  23  43  67  98 131 184 223 277 342 421
#     4  11  24  42  71  93 136 181 233 272 346 418
#     4  12  23  44  72  94 137 184 231 276 350 412
#     4  12  21  44  70  98 131 181 233 286 341 415
#     4  12  22  39  68  98 125 179 226 273 332 408
#
# _framework density 20.661127
#
# number of rings (size 3 to 8) (size 9 to 14) (size 15 to 20)
#    0.000    0.286    8.571    1.286    2.000    1.714 
#    0.000    2.143    0.000    0.000    0.000    0.000 
#    0.000    0.000    0.000    0.000    0.000    0.000 
#
# Total GULP energy -347214.487744 kJ/mol
# GULP energy per Si atom -12400.517419 kJ/mol
# Density = 2.061410 g / cm^3
# Si number density = 20.661127 Si / 1000 Ang^3
#
#
#
# Elastic Constant Matrix: (Units=GPa)
#
#
# Indices 1 2 3 4 5 6 
#
# 1 114.3255 45.6074 24.7357 0.0000 -5.7890 0.0000
# 2 45.6074 107.6063 35.4602 0.0000 7.2485 0.0000
# 3 24.7357 35.4602 97.0554 0.0000 12.0656 0.0000
# 4 0.0000 0.0000 0.0000 20.4786 0.0000 -0.1123
# 5 -5.7890 7.2485 12.0656 0.0000 27.0685 0.0000
# 6 0.0000 0.0000 0.0000 -0.1123 0.0000 37.5586
#
#
#
# Elastic Compliance Matrix: (Units=1/GPa)
#
#
# Indices 1 2 3 4 5 6 
#
# 1 0.011111 -0.004423 -0.001756 0.000000 0.004343 0.000000
# 2 -0.004423 0.012361 -0.003028 0.000000 -0.002907 0.000000
# 3 -0.001756 -0.003028 0.012495 0.000000 -0.005134 0.000000
# 4 0.000000 0.000000 0.000000 0.048832 0.000000 0.000146
# 5 0.004343 -0.002907 -0.005134 0.000000 0.040939 0.000000
# 6 0.000000 0.000000 0.000000 0.000146 0.000000 0.026625
#
#
# Mechanical properties :
#
#
# Convention : Reuss Voigt Hill
#
# Bulk Modulus (GPa) = 56.96512 58.95488 57.96000
# Shear Modulus (GPa) = 28.30770 31.23339 29.77055
#
# Velocity S-wave (km/s) = 3.70549 3.89227 3.80003
# Velocity P-wave (km/s) = 6.77780 6.98541 6.88239
#
# Compressibility (1/GPa) = 0.01755460
#
# Stress axis : x y z
#
# Youngs Moduli (GPa) = 89.99796 80.89654 80.02981
#
# Poissons Ratio (x) = 0.35784 0.14051
# Poissons Ratio (y) = 0.39810 0.24231
# Poissons Ratio (z) = 0.15801 0.24493
#
# Static dielectric constant tensor:
#      x y z
#    x 4.015440 0.000000 -0.136980 
#    y 0.000000 3.804790 0.000000 
#    z -0.136980 0.000000 3.805550 
# 
# 
# High freq. dielectric constant tensor:
#      x y z
#    x 1.820260 0.000000 -0.010790 
#    y 0.000000 1.798960 0.000000 
#    z -0.010790 0.000000 1.806800 
# 
# From -- ./inp_files/214006.got.cif
#   From: 2010.06.25/outbox.cif.g09.slc.cpg/sg15_108_cif.got.tgz:214006.got - 2010.06.28 07:06:18.
