data_PCOD8153515
_publ_section_title
;
Structure prediction by ZEFSAII (Michael W. Deem and Ramdas Pophale) SiO2 
 PCOD8153515
Probable space group: C 2/C
;
_chemical_formula_sum "Si O2"
_cell_formula_units_Z 48
_cell_length_a 9.913329
_cell_length_b 28.865177
_cell_length_c 17.089808
_cell_angle_alpha 90.000000
_cell_angle_beta 150.252898
_cell_angle_gamma 90.000000
_cell_volume 2426.407261
_symmetry_space_group_name_H-M "C 2/C"
_symmetry_group_IT_number 15
_symmetry_cell_setting 'monoclinic'
loop_
_space_group_symop_operation_xyz
x,y,z
-x,y,1/2-z
-x,-y,-z
x,-y,1/2+z
1/2+x,1/2+y,z
1/2-x,1/2+y,1/2-z
1/2-x,1/2-y,-z
1/2+x,1/2-y,1/2+z
loop_
_atom_site_type_symbol
_atom_site_label
_atom_site_fract_x
_atom_site_fract_y
_atom_site_fract_z
Si Si1 0.910754 0.204576 0.830661
Si Si2 0.976888 0.467838 0.914307
Si Si3 0.312531 0.881236 0.916032
Si Si4 0.570563 0.212477 0.508906
Si Si5 0.136355 0.610641 0.734607
Si Si6 0.525011 0.482359 0.099518
O O1 0.708249 0.222917 0.661636
O O2 0.822029 0.156001 0.822128
O O3 0.209570 0.197830 0.945369
O O4 0.910771 0.241852 0.900712
O O5 0.985762 0.414632 0.946588
O O6 0.690837 0.478390 0.728945
O O7 0.000000 0.500000 0.000000
O O8 0.223092 0.477724 0.980265
O O9 0.000000 0.894460 0.750000
O O10 0.357275 0.828975 0.909931
O O11 0.403631 0.888458 0.051491
O O12 0.325019 0.566456 0.817218
O O13 0.000000 0.608429 0.750000
O O14 0.500000 0.500000 0.000000
#
# Coordination Sequence:
#
# PCOD8153515 Si02
#       6
#     8   8   8   8   8   8
#     4   9  19  38  63  88 119 160 205 257 316 373
#     4  12  24  42  68  92 124 165 211 255 310 371
#     4  11  24  40  63  92 123 164 213 259 309 377
#     4   9  19  38  62  89 120 157 207 259 311 377
#     4  11  24  41  62  89 128 166 205 259 320 372
#     4  12  26  44  64  94 128 165 206 261 314 373
#
# _framework density 19.782333000000001
#
# number of rings (size 3 to 8) (size 9 to 14) (size 15 to 20)
#    0.000    1.333    1.667    4.000    2.333    3.333 
#    0.000    3.333    0.000    0.000    0.000    0.000 
#    0.000    0.000    0.000    0.000    0.000    0.000 
#
# Total GULP energy -297713.058581 kJ/mol
# GULP energy per Si atom -12404.710774 kJ/mol
# Density = 1.973731 g / cm^3
# Si number density = 19.782333 Si / 1000 Ang^3
#
#
#
# Elastic Constant Matrix: (Units=GPa)
#
#
# Indices 1 2 3 4 5 6 
#
# 1 96.8496 35.4781 29.6826 0.0000 -1.2743 0.0000
# 2 35.4781 114.7422 37.9960 0.0000 -9.8685 0.0000
# 3 29.6826 37.9960 89.3640 -0.0002 -3.1008 -0.0001
# 4 0.0000 0.0000 -0.0002 34.0810 0.0000 -3.6505
# 5 -1.2743 -9.8685 -3.1008 0.0000 33.0127 0.0000
# 6 0.0000 0.0000 -0.0001 -3.6505 0.0000 37.6533
#
#
#
# Elastic Compliance Matrix: (Units=1/GPa)
#
#
# Indices 1 2 3 4 5 6 
#
# 1 0.012255 -0.002899 -0.002861 0.000000 -0.000662 0.000000
# 2 -0.002899 0.011063 -0.003642 0.000000 0.002853 0.000000
# 3 -0.002861 -0.003642 0.013692 0.000000 0.000087 0.000000
# 4 0.000000 0.000000 0.000000 0.029650 0.000000 0.002875
# 5 -0.000662 0.002853 0.000087 0.000000 0.031127 0.000000
# 6 0.000000 0.000000 0.000000 0.002875 0.000000 0.026837
#
#
# Mechanical properties :
#
#
# Convention : Reuss Voigt Hill
#
# Bulk Modulus (GPa) = 54.92526 56.36324 55.64425
# Shear Modulus (GPa) = 33.44569 34.13602 33.79085
#
# Velocity S-wave (km/s) = 4.11625 4.15852 4.13744
# Velocity P-wave (km/s) = 7.10046 7.18410 7.14240
#
# Compressibility (1/GPa) = 0.01820656
#
# Stress axis : x y z
#
# Youngs Moduli (GPa) = 81.59698 90.39247 73.03543
#
# Poissons Ratio (x) = 0.26204 0.20896
# Poissons Ratio (y) = 0.23654 0.26599
# Poissons Ratio (z) = 0.23346 0.32920
#
# Static dielectric constant tensor:
#      x y z
#    x 4.062260 0.000000 0.193820 
#    y 0.000000 3.736900 0.000000 
#    z 0.193820 0.000000 3.744320 
# 
# 
# High freq. dielectric constant tensor:
#      x y z
#    x 1.776440 0.000000 -0.004870 
#    y 0.000000 1.783030 0.000000 
#    z -0.004870 0.000000 1.776970 
# 
# From -- ./inp_files/194304.got.cif
#   From: 2010.06.25/outbox.cif.g09.slc.cpg/sg15_98_cif.got.tgz:194304.got - 2010.06.28 07:06:18.
