data_PCOD8153031
_publ_section_title
;
Structure prediction by ZEFSAII (Michael W. Deem and Ramdas Pophale) SiO2 
 PCOD8153031
Probable space group: C 2/C
;
_chemical_formula_sum "Si O2"
_cell_formula_units_Z 56
_cell_length_a 11.441281
_cell_length_b 30.947546
_cell_length_c 8.276168
_cell_angle_alpha 90.000000
_cell_angle_beta 60.298266
_cell_angle_gamma 90.000000
_cell_volume 2545.412964
_symmetry_space_group_name_H-M "C 2/C"
_symmetry_group_IT_number 15
_symmetry_cell_setting 'monoclinic'
loop_
_space_group_symop_operation_xyz
x,y,z
-x,y,1/2-z
-x,-y,-z
x,-y,1/2+z
1/2+x,1/2+y,z
1/2-x,1/2+y,1/2-z
1/2-x,1/2-y,-z
1/2+x,1/2-y,1/2+z
loop_
_atom_site_type_symbol
_atom_site_label
_atom_site_fract_x
_atom_site_fract_y
_atom_site_fract_z
Si Si1 0.653120 0.889131 0.679597
Si Si2 0.000000 0.332880 0.250000
Si Si3 0.870824 0.947383 0.131331
Si Si4 0.405709 0.726740 0.656191
Si Si5 0.260099 0.861283 0.221713
Si Si6 0.500000 0.291927 0.750000
Si Si7 0.168265 0.964720 0.969672
Si Si8 0.710830 0.810812 0.863460
O O1 0.500000 0.899207 0.750000
O O2 0.734649 0.870539 0.471576
O O3 0.718465 0.934478 0.688797
O O4 0.663674 0.854279 0.812288
O O5 0.087159 0.361233 0.316043
O O6 0.889243 0.303316 0.416048
O O7 0.818519 0.899203 0.127366
O O8 0.839615 0.957194 0.336691
O O9 0.795338 0.984826 0.081834
O O10 0.028352 0.950867 0.980967
O O11 0.500000 0.725782 0.750000
O O12 0.319033 0.683401 0.704121
O O13 0.488738 0.733136 0.430654
O O14 0.306136 0.768379 0.738438
O O15 0.361867 0.318848 0.824410
#
# Coordination Sequence:
#
# PCOD8153031 Si02
#       8
#     8   4   8   8   8   4   8   8
#     4  11  23  42  67  96 134 180 226 274 336 421
#     4  12  25  46  66  92 144 180 216 292 346 397
#     4   9  20  41  65  94 130 167 216 282 338 409
#     4  12  28  45  72 101 139 186 232 290 346 410
#     4  11  25  43  66  97 134 178 226 282 347 405
#     4  12  27  46  70 104 132 186 238 292 332 415
#     4   9  20  39  66  94 128 168 216 278 341 401
#     4  12  27  45  69  99 140 182 231 283 345 403
#
# _framework density 22.000359
#
# number of rings (size 3 to 8) (size 9 to 14) (size 15 to 20)
#    0.000    1.143    2.857    2.143    8.000    2.286 
#    1.286    1.429    0.000    0.000    0.000    0.000 
#    0.000    0.000    0.000    0.000    0.000    0.000 
#
# Total GULP energy -347013.232939 kJ/mol
# GULP energy per Si atom -12393.329748 kJ/mol
# Density = 2.195029 g / cm^3
# Si number density = 22.000359 Si / 1000 Ang^3
#
#
#
# Elastic Constant Matrix: (Units=GPa)
#
#
# Indices 1 2 3 4 5 6 
#
# 1 151.9784 72.7684 38.2968 0.0000 -14.0006 0.0000
# 2 72.7684 152.0363 31.2509 0.0000 -17.3154 0.0000
# 3 38.2968 31.2509 78.6881 0.0000 -8.9220 0.0000
# 4 0.0000 0.0000 0.0000 23.9973 0.0000 -3.7982
# 5 -14.0006 -17.3154 -8.9220 0.0000 39.1080 0.0000
# 6 0.0000 0.0000 0.0000 -3.7982 0.0000 34.5023
#
#
#
# Elastic Compliance Matrix: (Units=1/GPa)
#
#
# Indices 1 2 3 4 5 6 
#
# 1 0.009159 -0.003678 -0.002884 0.000000 0.000993 0.000000
# 2 -0.003678 0.008904 -0.001487 0.000000 0.002286 0.000000
# 3 -0.002884 -0.001487 0.014896 0.000000 0.001707 0.000000
# 4 0.000000 0.000000 0.000000 0.042410 0.000000 0.004669
# 5 0.000993 0.002286 0.001707 0.000000 0.027327 0.000000
# 6 0.000000 0.000000 0.000000 0.004669 0.000000 0.029497
#
#
# Mechanical properties :
#
#
# Convention : Reuss Voigt Hill
#
# Bulk Modulus (GPa) = 59.30931 74.14834 66.72882
# Shear Modulus (GPa) = 32.48586 35.54731 34.01659
#
# Velocity S-wave (km/s) = 3.84683 4.02401 3.93642
# Velocity P-wave (km/s) = 6.83723 7.44088 7.14543
#
# Compressibility (1/GPa) = 0.01686076
#
# Stress axis : x y z
#
# Youngs Moduli (GPa) = 109.18024 112.31273 67.13052
#
# Poissons Ratio (x) = 0.41307 0.19364
# Poissons Ratio (y) = 0.40155 0.09982
# Poissons Ratio (z) = 0.31493 0.16700
#
# Static dielectric constant tensor:
#      x y z
#    x 4.134140 0.000000 0.010800 
#    y 0.000000 4.073750 0.000000 
#    z 0.010800 0.000000 4.100140 
# 
# 
# High freq. dielectric constant tensor:
#      x y z
#    x 1.866180 0.000000 0.000150 
#    y 0.000000 1.862070 0.000000 
#    z 0.000150 0.000000 1.867100 
# 
# From -- ./inp_files/35626.got.cif
#   From: 2010.06.25/outbox.cif.g09.slc.cpg/sg15_18_cif.got.tgz:35626.got - 2010.06.28 07:06:18.
