data_PCOD8153000
_publ_section_title
;
Structure prediction by ZEFSAII (Michael W. Deem and Ramdas Pophale) SiO2 
 PCOD8153000
Probable space group: C 2/C
;
_chemical_formula_sum "Si O2"
_cell_formula_units_Z 56
_cell_length_a 22.375413
_cell_length_b 15.642308
_cell_length_c 13.818390
_cell_angle_alpha 90.000000
_cell_angle_beta 32.456503
_cell_angle_gamma 90.000000
_cell_volume 2595.541046
_symmetry_space_group_name_H-M "C 2/C"
_symmetry_group_IT_number 15
_symmetry_cell_setting 'monoclinic'
loop_
_space_group_symop_operation_xyz
x,y,z
-x,y,1/2-z
-x,-y,-z
x,-y,1/2+z
1/2+x,1/2+y,z
1/2-x,1/2+y,1/2-z
1/2-x,1/2-y,-z
1/2+x,1/2-y,1/2+z
loop_
_atom_site_type_symbol
_atom_site_label
_atom_site_fract_x
_atom_site_fract_y
_atom_site_fract_z
Si Si1 0.758380 0.512372 0.031535
Si Si2 0.916915 0.074230 0.089149
Si Si3 0.764777 0.997033 0.158458
Si Si4 0.227463 0.640722 0.872347
Si Si5 0.436691 0.734215 0.638036
Si Si6 0.500000 0.216756 0.250000
Si Si7 0.000000 0.563352 0.750000
Si Si8 0.450682 0.089449 0.026601
O O1 0.735898 0.534454 0.951096
O O2 0.887922 0.509010 0.887312
O O3 0.687332 0.577756 0.193822
O O4 0.723433 0.415583 0.105200
O O5 0.877885 0.045538 0.034713
O O6 0.973610 0.165911 0.021703
O O7 0.000000 0.000000 0.000000
O O8 0.738593 0.912622 0.257544
O O9 0.679760 0.073803 0.293561
O O10 0.314399 0.720172 0.756784
O O11 0.098129 0.663812 0.062743
O O12 0.436683 0.727748 0.754900
O O13 0.480198 0.829075 0.551629
O O14 0.011075 0.615713 0.634596
O O15 0.500000 0.000000 0.000000
#
# Coordination Sequence:
#
# PCOD8153000 Si02
#       8
#     8   8   8   8   8   4   4   8
#     4  11  23  41  78 101 137 185 234 281 360 416
#     4  11  24  48  65 104 144 183 231 287 348 428
#     4  11  23  42  76  98 140 186 234 283 353 420
#     4  11  24  47  65 110 139 181 235 292 348 423
#     4  12  28  45  68 107 145 180 237 295 350 418
#     4  12  27  40  74 101 146 178 234 293 360 413
#     4  12  23  44  72 107 132 186 234 293 346 419
#     4  12  25  46  72 102 142 184 235 293 349 411
#
# _framework density 21.575462999999999
#
# number of rings (size 3 to 8) (size 9 to 14) (size 15 to 20)
#    0.000    0.571    7.143    2.571    4.000    0.571 
#    2.571    0.714    0.000    0.000    0.000    0.000 
#    0.000    0.000    0.000    0.000    0.000    0.000 
#
# Total GULP energy -346884.557482 kJ/mol
# GULP energy per Si atom -12388.734196 kJ/mol
# Density = 2.152636 g / cm^3
# Si number density = 21.575463 Si / 1000 Ang^3
#
#
#
# Elastic Constant Matrix: (Units=GPa)
#
#
# Indices 1 2 3 4 5 6 
#
# 1 152.2610 47.7739 54.6480 0.0000 11.0045 0.0000
# 2 47.7739 121.9391 39.7220 0.0000 -4.8529 0.0000
# 3 54.6480 39.7220 94.8615 0.0000 1.2815 0.0000
# 4 0.0000 0.0000 0.0000 21.9083 0.0000 -8.6768
# 5 11.0045 -4.8529 1.2815 0.0000 46.7641 0.0000
# 6 0.0000 0.0000 0.0000 -8.6768 0.0000 33.4957
#
#
#
# Elastic Compliance Matrix: (Units=1/GPa)
#
#
# Indices 1 2 3 4 5 6 
#
# 1 0.008926 -0.002223 -0.004181 0.000000 -0.002217 0.000000
# 2 -0.002223 0.010106 -0.002973 0.000000 0.001653 0.000000
# 3 -0.004181 -0.002973 0.014192 0.000000 0.000286 0.000000
# 4 0.000000 0.000000 0.000000 0.050863 0.000000 0.013176
# 5 -0.002217 0.001653 0.000286 0.000000 0.022069 0.000000
# 6 0.000000 0.000000 0.000000 0.013176 0.000000 0.033268
#
#
# Mechanical properties :
#
#
# Convention : Reuss Voigt Hill
#
# Bulk Modulus (GPa) = 69.11747 72.59438 70.85593
# Shear Modulus (GPa) = 30.67435 35.56148 33.11792
#
# Velocity S-wave (km/s) = 3.77467 4.06425 3.92213
# Velocity P-wave (km/s) = 7.14858 7.46619 7.30911
#
# Compressibility (1/GPa) = 0.01446812
#
# Stress axis : x y z
#
# Youngs Moduli (GPa) = 112.03019 98.94854 70.46398
#
# Poissons Ratio (x) = 0.21999 0.29463
# Poissons Ratio (y) = 0.24908 0.20952
# Poissons Ratio (z) = 0.46843 0.29421
#
# Static dielectric constant tensor:
#      x y z
#    x 4.007490 0.000000 0.176530 
#    y 0.000000 3.772570 0.000000 
#    z 0.176530 0.000000 3.997890 
# 
# 
# High freq. dielectric constant tensor:
#      x y z
#    x 1.867300 0.000000 -0.010230 
#    y 0.000000 1.819590 0.000000 
#    z -0.010230 0.000000 1.852680 
# 
# From -- ./inp_files/173848.got.cif
#   From: 2010.06.25/outbox.cif.g09.slc.cpg/sg15_87_cif.got.tgz:173848.got - 2010.06.28 07:06:18.
