data_PCOD8153322
_publ_section_title
;
Structure prediction by ZEFSAII (Michael W. Deem and Ramdas Pophale) SiO2 
 PCOD8153322
Probable space group: C 2/C
;
_chemical_formula_sum "Si O2"
_cell_formula_units_Z 64
_cell_length_a 27.658479
_cell_length_b 13.466214
_cell_length_c 12.085756
_cell_angle_alpha 90.000000
_cell_angle_beta 39.611339
_cell_angle_gamma 90.000000
_cell_volume 2869.986833
_symmetry_space_group_name_H-M "C 2/C"
_symmetry_group_IT_number 15
_symmetry_cell_setting 'monoclinic'
loop_
_space_group_symop_operation_xyz
x,y,z
-x,y,1/2-z
-x,-y,-z
x,-y,1/2+z
1/2+x,1/2+y,z
1/2-x,1/2+y,1/2-z
1/2-x,1/2-y,-z
1/2+x,1/2-y,1/2+z
loop_
_atom_site_type_symbol
_atom_site_label
_atom_site_fract_x
_atom_site_fract_y
_atom_site_fract_z
Si Si1 0.665142 0.725950 0.890848
Si Si2 0.264574 0.131409 0.060826
Si Si3 0.589308 0.609380 0.381076
Si Si4 0.534292 0.413563 0.580516
Si Si5 0.638695 0.853605 0.734074
Si Si6 0.491626 0.787793 0.890172
Si Si7 0.872489 0.573100 0.676483
Si Si8 0.714612 0.922465 0.385602
O O1 0.692387 0.776553 0.956957
O O2 0.680584 0.802288 0.763122
O O3 0.711213 0.625302 0.795932
O O4 0.578549 0.687184 0.039516
O O5 0.174303 0.147639 0.203190
O O6 0.272548 0.038813 0.126974
O O7 0.304280 0.114486 0.872790
O O8 0.587528 0.494961 0.425506
O O9 0.537558 0.620297 0.364458
O O10 0.551740 0.682104 0.538591
O O11 0.500000 0.465103 0.750000
O O12 0.574051 0.780262 0.801355
O O13 0.698625 0.870152 0.530594
O O14 0.606721 0.960582 0.828432
O O15 0.500000 0.827835 0.750000
O O16 0.448173 0.861938 0.051221
O O17 0.853125 0.588249 0.581658
#
# Coordination Sequence:
#
# PCOD8153322 Si02
#       8
#     8   8   8   8   8   8   8   8
#     4  12  24  45  71 100 141 180 229 284 345 420
#     4  11  26  42  73 107 136 183 229 290 346 405
#     4  11  25  48  69 101 140 181 237 282 343 422
#     4  11  26  46  70 100 142 184 229 287 347 410
#     4  11  24  45  67 102 136 181 230 279 350 404
#     4  12  24  43  70  99 136 182 230 280 347 413
#     4  11  25  45  69 102 142 174 235 285 341 413
#     4  11  23  45  67 100 137 179 228 286 337 408
#
# _framework density 22.299752999999999
#
# number of rings (size 3 to 8) (size 9 to 14) (size 15 to 20)
#    0.000    0.750    5.000    1.875    3.500    1.000 
#    0.000    0.625    0.000    0.000    0.000    0.000 
#    0.000    0.000    0.000    0.000    0.000    0.000 
#
# Total GULP energy -396757.783938 kJ/mol
# GULP energy per Si atom -12398.680748 kJ/mol
# Density = 2.224900 g / cm^3
# Si number density = 22.299753 Si / 1000 Ang^3
#
#
#
# Elastic Constant Matrix: (Units=GPa)
#
#
# Indices 1 2 3 4 5 6 
#
# 1 83.9945 33.4807 25.7362 0.0000 -12.0240 0.0000
# 2 33.4807 102.1262 34.7790 0.0000 -2.3348 0.0000
# 3 25.7362 34.7790 76.8706 0.0000 -2.3526 0.0000
# 4 0.0000 0.0000 0.0000 37.7007 0.0000 -2.1933
# 5 -12.0240 -2.3348 -2.3526 0.0000 35.5227 0.0000
# 6 0.0000 0.0000 0.0000 -2.1933 0.0000 42.4011
#
#
#
# Elastic Compliance Matrix: (Units=1/GPa)
#
#
# Indices 1 2 3 4 5 6 
#
# 1 0.015039 -0.003733 -0.003204 0.000000 0.004633 0.000000
# 2 -0.003733 0.012508 -0.004432 0.000000 -0.000735 0.000000
# 3 -0.003204 -0.004432 0.016077 0.000000 -0.000311 0.000000
# 4 0.000000 0.000000 0.000000 0.026605 0.000000 0.001376
# 5 0.004633 -0.000735 -0.000311 0.000000 0.029650 0.000000
# 6 0.000000 0.000000 0.000000 0.001376 0.000000 0.023655
#
#
# Mechanical properties :
#
#
# Convention : Reuss Voigt Hill
#
# Bulk Modulus (GPa) = 47.87934 50.10923 48.99428
# Shear Modulus (GPa) = 32.62981 34.39127 33.51054
#
# Velocity S-wave (km/s) = 3.82938 3.93138 3.88071
# Velocity P-wave (km/s) = 6.40855 6.56713 6.48833
#
# Compressibility (1/GPa) = 0.02088584
#
# Stress axis : x y z
#
# Youngs Moduli (GPa) = 66.49591 79.94831 62.19996
#
# Poissons Ratio (x) = 0.29845 0.19930
# Poissons Ratio (y) = 0.24824 0.27566
# Poissons Ratio (z) = 0.21306 0.35431
#
# Static dielectric constant tensor:
#      x y z
#    x 3.962310 0.000000 0.054370 
#    y 0.000000 3.967600 0.000000 
#    z 0.054370 0.000000 3.887660 
# 
# 
# High freq. dielectric constant tensor:
#      x y z
#    x 1.883620 0.000000 0.002130 
#    y 0.000000 1.883380 0.000000 
#    z 0.002130 0.000000 1.875080 
# 
# From -- ./inp_files/123512.got.cif
#   From: 2010.06.25/outbox.cif.g09.slc.cpg/sg15_62_cif.got.tgz:123512.got - 2010.06.28 07:06:18.
