data_PCOD8153100
_publ_section_title
;
Structure prediction by ZEFSAII (Michael W. Deem and Ramdas Pophale) SiO2 
 PCOD8153100
Probable space group: C 2/C
;
_chemical_formula_sum "Si O2"
_cell_formula_units_Z 40
_cell_length_a 16.609839
_cell_length_b 10.230152
_cell_length_c 17.820595
_cell_angle_alpha 90.000000
_cell_angle_beta 33.714835
_cell_angle_gamma 90.000000
_cell_volume 1680.774686
_symmetry_space_group_name_H-M "C 2/C"
_symmetry_group_IT_number 15
_symmetry_cell_setting 'monoclinic'
loop_
_space_group_symop_operation_xyz
x,y,z
-x,y,1/2-z
-x,-y,-z
x,-y,1/2+z
1/2+x,1/2+y,z
1/2-x,1/2+y,1/2-z
1/2-x,1/2-y,-z
1/2+x,1/2-y,1/2+z
loop_
_atom_site_type_symbol
_atom_site_label
_atom_site_fract_x
_atom_site_fract_y
_atom_site_fract_z
Si Si1 0.646148 0.865786 0.812784
Si Si2 0.440109 0.111431 0.717738
Si Si3 0.354679 0.723563 0.030119
Si Si4 0.284284 0.829962 0.577784
Si Si5 0.842026 0.929222 0.397703
O O1 0.787335 0.806124 0.663262
O O2 0.688014 0.904494 0.865009
O O3 0.591299 0.993248 0.813248
O O4 0.523852 0.753539 0.909433
O O5 0.500000 0.054232 0.750000
O O6 0.564930 0.199873 0.581892
O O7 0.296068 0.194511 0.843777
O O8 0.280692 0.848378 0.049746
O O9 0.330399 0.596224 0.996045
O O10 0.183644 0.919218 0.601948
O O11 0.000000 0.880622 0.250000
#
# Coordination Sequence:
#
# PCOD8153100 Si02
#       5
#     8   8   8   8   8
#     4  12  26  46  74 106 142 185 236 295 353 414
#     4  12  27  48  70 102 143 194 232 286 358 426
#     4  11  24  44  74 105 138 182 240 288 350 414
#     4  12  27  47  71 103 149 184 234 293 355 413
#     4  11  23  42  74 102 136 180 239 295 337 413
#
# _framework density 23.798549999999999
#
# number of rings (size 3 to 8) (size 9 to 14) (size 15 to 20)
#    0.000    0.400    4.000    4.200    5.600    1.600 
#    0.000    3.000    0.000    0.000    0.000    0.000 
#    0.000    0.000    0.000    0.000    0.000    0.000 
#
# Total GULP energy -248136.519613 kJ/mol
# GULP energy per Si atom -12406.825981 kJ/mol
# Density = 2.374438 g / cm^3
# Si number density = 23.798550 Si / 1000 Ang^3
#
#
#
# Elastic Constant Matrix: (Units=GPa)
#
#
# Indices 1 2 3 4 5 6 
#
# 1 105.1110 38.1850 27.1487 0.0000 11.4094 0.0000
# 2 38.1850 77.1047 27.1604 0.0000 -3.0321 0.0000
# 3 27.1487 27.1604 142.7602 -0.0001 4.0643 0.0000
# 4 0.0000 0.0000 -0.0001 32.9575 0.0001 8.3415
# 5 11.4094 -3.0321 4.0643 0.0001 34.2517 0.0000
# 6 0.0000 0.0000 0.0000 8.3415 0.0000 24.6278
#
#
#
# Elastic Compliance Matrix: (Units=1/GPa)
#
#
# Indices 1 2 3 4 5 6 
#
# 1 0.012458 -0.005959 -0.001106 0.000000 -0.004546 0.000000
# 2 -0.005959 0.016833 -0.002176 0.000000 0.003733 0.000000
# 3 -0.001106 -0.002176 0.007650 0.000000 -0.000732 0.000000
# 4 0.000000 0.000000 0.000000 0.033187 0.000000 -0.011240
# 5 -0.004546 0.003733 -0.000732 0.000000 0.031127 0.000000
# 6 0.000000 0.000000 0.000000 -0.011240 0.000000 0.044412
#
#
# Mechanical properties :
#
#
# Convention : Reuss Voigt Hill
#
# Bulk Modulus (GPa) = 54.17052 56.66269 55.41660
# Shear Modulus (GPa) = 29.35981 33.86618 31.61300
#
# Velocity S-wave (km/s) = 3.51619 3.77641 3.64862
# Velocity P-wave (km/s) = 6.26868 6.54798 6.40985
#
# Compressibility (1/GPa) = 0.01846023
#
# Stress axis : x y z
#
# Youngs Moduli (GPa) = 80.27287 59.40536 130.72145
#
# Poissons Ratio (x) = 0.35397 0.14458
# Poissons Ratio (y) = 0.47831 0.28442
# Poissons Ratio (z) = 0.08878 0.12925
#
# Static dielectric constant tensor:
#      x y z
#    x 4.431710 0.000000 0.107510 
#    y 0.000000 3.862560 0.000000 
#    z 0.107510 0.000000 4.659060 
# 
# 
# High freq. dielectric constant tensor:
#      x y z
#    x 1.948130 0.000000 0.006120 
#    y 0.000000 1.923930 0.000000 
#    z 0.006120 0.000000 1.968860 
# 
# From -- ./inp_files/210760.got.cif
#   From: 2010.06.25/outbox.cif.g09.slc.cpg/sg15_106_cif.got.tgz:210760.got - 2010.06.28 07:06:18.
