data_PCOD8153923
_publ_section_title
;
Structure prediction by ZEFSAII (Michael W. Deem and Ramdas Pophale) SiO2 
 PCOD8153923
Probable space group: C 2/C
;
_chemical_formula_sum "Si O2"
_cell_formula_units_Z 44
_cell_length_a 15.246411
_cell_length_b 8.403517
_cell_length_c 17.580157
_cell_angle_alpha 90.000000
_cell_angle_beta 123.889710
_cell_angle_gamma 90.000000
_cell_volume 1869.770817
_symmetry_space_group_name_H-M "C 2/C"
_symmetry_group_IT_number 15
_symmetry_cell_setting 'monoclinic'
loop_
_space_group_symop_operation_xyz
x,y,z
-x,y,1/2-z
-x,-y,-z
x,-y,1/2+z
1/2+x,1/2+y,z
1/2-x,1/2+y,1/2-z
1/2-x,1/2-y,-z
1/2+x,1/2-y,1/2+z
loop_
_atom_site_type_symbol
_atom_site_label
_atom_site_fract_x
_atom_site_fract_y
_atom_site_fract_z
Si Si1 0.382478 0.948721 0.284146
Si Si2 0.500000 0.287532 0.750000
Si Si3 0.521734 0.752949 0.606255
Si Si4 0.665499 0.180983 0.580712
Si Si5 0.360060 0.517627 0.597755
Si Si6 0.184758 0.048660 0.589164
O O1 0.475363 0.823122 0.311347
O O2 0.328842 0.916202 0.339033
O O3 0.421817 0.130980 0.305747
O O4 0.301708 0.922539 0.176304
O O5 0.397073 0.392950 0.679469
O O6 0.439265 0.861658 0.518373
O O7 0.462933 0.619096 0.626051
O O8 0.604767 0.670086 0.590226
O O9 0.769897 0.136108 0.584288
O O10 0.654540 0.367409 0.593459
O O11 0.317141 0.424505 0.502610
#
# Coordination Sequence:
#
# PCOD8153923 Si02
#       6
#     8   4   8   8   8   8
#     4  12  28  44  71 108 143 188 241 294 355 426
#     4  12  30  46  70 100 150 190 248 294 358 420
#     4  11  24  47  76 101 149 186 237 293 357 430
#     4  11  25  47  73 108 141 188 237 290 364 425
#     4  11  27  47  75 103 143 192 237 298 356 426
#     4  11  24  46  76 106 144 184 239 292 361 427
#
# _framework density 23.532295000000001
#
# number of rings (size 3 to 8) (size 9 to 14) (size 15 to 20)
#    0.000    0.727    0.000    8.182   15.273    0.727 
#    0.000    0.000    0.000    0.000    0.000    0.000 
#    0.000    0.000    0.000    0.000    0.000    0.000 
#
# Total GULP energy -272888.134984 kJ/mol
# GULP energy per Si atom -12404.006136 kJ/mol
# Density = 2.347873 g / cm^3
# Si number density = 23.532295 Si / 1000 Ang^3
#
#
#
# Elastic Constant Matrix: (Units=GPa)
#
#
# Indices 1 2 3 4 5 6 
#
# 1 78.2520 36.9671 46.3607 0.0000 1.0210 0.0000
# 2 36.9671 106.3839 49.5369 0.0000 0.2061 0.0000
# 3 46.3607 49.5369 117.8943 0.0000 4.7463 0.0000
# 4 0.0000 0.0000 0.0000 40.0567 0.0000 -2.5907
# 5 1.0210 0.2061 4.7463 0.0000 34.6274 0.0000
# 6 0.0000 0.0000 0.0000 -2.5907 0.0000 40.8885
#
#
#
# Elastic Compliance Matrix: (Units=1/GPa)
#
#
# Indices 1 2 3 4 5 6 
#
# 1 0.017718 -0.003616 -0.005458 0.000000 0.000247 0.000000
# 2 -0.003616 0.012437 -0.003826 0.000000 0.000557 0.000000
# 3 -0.005458 -0.003826 0.012297 0.000000 -0.001502 0.000000
# 4 0.000000 0.000000 0.000000 0.025067 0.000000 0.001588
# 5 0.000247 0.000557 -0.001502 0.000000 0.029074 0.000000
# 6 0.000000 0.000000 0.000000 0.001588 0.000000 0.024557
#
#
# Mechanical properties :
#
#
# Convention : Reuss Voigt Hill
#
# Bulk Modulus (GPa) = 60.05554 63.13996 61.59775
# Shear Modulus (GPa) = 32.78672 34.42555 33.60614
#
# Velocity S-wave (km/s) = 3.73670 3.82895 3.78310
# Velocity P-wave (km/s) = 6.64779 6.81449 6.73165
#
# Compressibility (1/GPa) = 0.01665125
#
# Stress axis : x y z
#
# Youngs Moduli (GPa) = 56.44065 80.40549 81.32255
#
# Poissons Ratio (x) = 0.29072 0.44386
# Poissons Ratio (y) = 0.20407 0.31117
# Poissons Ratio (z) = 0.30805 0.30766
#
# Static dielectric constant tensor:
#      x y z
#    x 4.054790 0.000000 0.116840 
#    y 0.000000 4.169820 0.000000 
#    z 0.116840 0.000000 4.467020 
# 
# 
# High freq. dielectric constant tensor:
#      x y z
#    x 1.933040 0.000000 0.004390 
#    y 0.000000 1.935830 0.000000 
#    z 0.004390 0.000000 1.941360 
# 
# From -- ./inp_files/203067.got.cif
#   From: 2010.06.25/outbox.cif.g09.slc.cpg/sg15_102_cif.got.tgz:203067.got - 2010.06.28 07:06:18.
