data_PCOD8153718
_publ_section_title
;
Structure prediction by ZEFSAII (Michael W. Deem and Ramdas Pophale) SiO2 
 PCOD8153718
Probable space group: C 2/C
;
_chemical_formula_sum "Si O2"
_cell_formula_units_Z 48
_cell_length_a 23.872527
_cell_length_b 13.027677
_cell_length_c 18.834476
_cell_angle_alpha 90.000000
_cell_angle_beta 22.294563
_cell_angle_gamma 90.000000
_cell_volume 2222.184052
_symmetry_space_group_name_H-M "C 2/C"
_symmetry_group_IT_number 15
_symmetry_cell_setting 'monoclinic'
loop_
_space_group_symop_operation_xyz
x,y,z
-x,y,1/2-z
-x,-y,-z
x,-y,1/2+z
1/2+x,1/2+y,z
1/2-x,1/2+y,1/2-z
1/2-x,1/2-y,-z
1/2+x,1/2-y,1/2+z
loop_
_atom_site_type_symbol
_atom_site_label
_atom_site_fract_x
_atom_site_fract_y
_atom_site_fract_z
Si Si1 0.624800 0.512536 0.951837
Si Si2 0.400920 0.152351 0.654297
Si Si3 0.539288 0.950789 0.123817
Si Si4 0.389152 0.674830 0.942895
Si Si5 0.350441 0.614762 0.217453
Si Si6 0.052536 0.337142 0.833908
O O1 0.779563 0.569456 0.775015
O O2 0.625672 0.430310 0.888112
O O3 0.598243 0.445772 0.053759
O O4 0.494808 0.594638 0.095999
O O5 0.466119 0.129905 0.655406
O O6 0.325207 0.263608 0.743573
O O7 0.531909 0.141008 0.442334
O O8 0.500000 0.920492 0.250000
O O9 0.484579 0.064825 0.170556
O O10 0.715277 0.943715 0.912467
O O11 0.500000 0.702875 0.750000
O O12 0.438313 0.746628 0.950351
O O13 0.219348 0.699728 0.122815
#
# Coordination Sequence:
#
# PCOD8153718 Si02
#       6
#     8   8   8   8   8   8
#     4  11  24  44  70 106 141 184 234 289 345 416
#     4  12  24  47  74 103 140 185 240 284 345 416
#     4  12  27  45  68 102 144 186 231 290 349 411
#     4  12  27  44  71 105 144 181 227 292 361 416
#     4  11  25  42  73 103 139 185 237 287 339 418
#     4  12  26  45  75 104 140 182 234 290 353 423
#
# _framework density 21.600370999999999
#
# number of rings (size 3 to 8) (size 9 to 14) (size 15 to 20)
#    0.000    0.333    5.000    3.500    7.000    0.667 
#    0.000    1.667    0.000    0.000    0.000    0.000 
#    0.000    0.000    0.000    0.000    0.000    0.000 
#
# Total GULP energy -297750.983248 kJ/mol
# GULP energy per Si atom -12406.290969 kJ/mol
# Density = 2.155121 g / cm^3
# Si number density = 21.600371 Si / 1000 Ang^3
#
#
#
# Elastic Constant Matrix: (Units=GPa)
#
#
# Indices 1 2 3 4 5 6 
#
# 1 100.6183 32.6702 54.2984 -0.0007 -0.1831 0.0004
# 2 32.6702 110.7717 28.1640 0.0023 -6.5041 -0.0010
# 3 54.2984 28.1640 141.8526 0.0037 -14.6595 -0.0018
# 4 -0.0007 0.0023 0.0037 27.9751 -0.0032 -4.9504
# 5 -0.1831 -6.5041 -14.6595 -0.0032 26.6678 0.0014
# 6 0.0004 -0.0010 -0.0018 -4.9504 0.0014 27.6795
#
#
#
# Elastic Compliance Matrix: (Units=1/GPa)
#
#
# Indices 1 2 3 4 5 6 
#
# 1 0.013559 -0.002936 -0.004953 0.000001 -0.003346 0.000000
# 2 -0.002936 0.010190 -0.000683 -0.000001 0.002089 0.000000
# 3 -0.004953 -0.000683 0.009606 -0.000001 0.005080 0.000000
# 4 0.000001 -0.000001 -0.000001 0.036914 0.000004 0.006602
# 5 -0.003346 0.002089 0.005080 0.000004 0.040777 -0.000001
# 6 0.000000 0.000000 0.000000 0.006602 -0.000001 0.037309
#
#
# Mechanical properties :
#
#
# Convention : Reuss Voigt Hill
#
# Bulk Modulus (GPa) = 61.68955 64.83419 63.26187
# Shear Modulus (GPa) = 29.25643 32.33847 30.79745
#
# Velocity S-wave (km/s) = 3.68427 3.87347 3.78005
# Velocity P-wave (km/s) = 6.83520 7.07711 6.95720
#
# Compressibility (1/GPa) = 0.01621020
#
# Stress axis : x y z
#
# Youngs Moduli (GPa) = 73.75443 98.13596 104.10136
#
# Poissons Ratio (x) = 0.28813 0.51559
# Poissons Ratio (y) = 0.21655 0.07114
# Poissons Ratio (z) = 0.36529 0.06706
#
# Static dielectric constant tensor:
#      x y z
#    x 3.927020 0.000000 -0.143530 
#    y 0.000000 3.907500 0.000000 
#    z -0.143530 0.000000 3.878970 
# 
# 
# High freq. dielectric constant tensor:
#      x y z
#    x 1.849450 0.000000 -0.011920 
#    y 0.000000 1.857430 0.000000 
#    z -0.011920 0.000000 1.852190 
# 
# From -- ./inp_files/257580.got.cif
#   From: 2010.06.25/outbox.cif.g09.slc.cpg/sg15_129_cif.got.tgz:257580.got - 2010.06.28 07:06:18.
