data_PCOD8153602
_publ_section_title
;
Structure prediction by ZEFSAII (Michael W. Deem and Ramdas Pophale) SiO2 
 PCOD8153602
Probable space group: C 2/C
;
_chemical_formula_sum "Si O2"
_cell_formula_units_Z 48
_cell_length_a 9.267032
_cell_length_b 10.789134
_cell_length_c 24.457631
_cell_angle_alpha 90.000000
_cell_angle_beta 67.829383
_cell_angle_gamma 90.000000
_cell_volume 2264.554349
_symmetry_space_group_name_H-M "C 2/C"
_symmetry_group_IT_number 15
_symmetry_cell_setting 'monoclinic'
loop_
_space_group_symop_operation_xyz
x,y,z
-x,y,1/2-z
-x,-y,-z
x,-y,1/2+z
1/2+x,1/2+y,z
1/2-x,1/2+y,1/2-z
1/2-x,1/2-y,-z
1/2+x,1/2-y,1/2+z
loop_
_atom_site_type_symbol
_atom_site_label
_atom_site_fract_x
_atom_site_fract_y
_atom_site_fract_z
Si Si1 0.475295 0.345478 0.904800
Si Si2 0.715489 0.655130 0.904526
Si Si3 0.684456 0.882680 0.228826
Si Si4 0.141767 0.882667 0.771497
Si Si5 0.027987 0.300205 0.500120
Si Si6 0.733825 0.009287 0.500163
O O1 0.354940 0.249945 0.895486
O O2 0.591019 0.390586 0.841668
O O3 0.569803 0.282537 0.941269
O O4 0.385584 0.465308 0.941460
O O5 0.725870 0.610444 0.841317
O O6 0.548582 0.718659 0.940707
O O7 0.730743 0.534950 0.941273
O O8 0.500000 0.896139 0.250000
O O9 0.726829 0.750168 0.250429
O O10 0.744038 0.000196 0.256041
O O11 0.000000 0.895553 0.750000
O O12 0.184322 0.366056 0.500186
O O13 0.902247 0.400646 0.499686
#
# Coordination Sequence:
#
# PCOD8153602 Si02
#       6
#     8   8   8   8   8   8
#     4   9  16  33  55  83 116 153 200 241 295 366
#     4   9  16  33  55  83 116 153 200 241 295 366
#     4  11  24  43  64  88 121 164 212 260 307 358
#     4  11  24  43  64  88 121 164 212 260 307 358
#     4   8  15  27  52  86 118 150 187 239 300 361
#     4   8  15  27  52  86 118 150 187 239 300 361
#
# _framework density 21.196224000000001
#
# number of rings (size 3 to 8) (size 9 to 14) (size 15 to 20)
#    0.000    2.667    3.333    2.000    0.000    3.333 
#    0.000    3.333    0.000    2.000    0.000    0.000 
#    0.000    0.000    0.000    0.000    0.000    0.000 
#
# Total GULP energy -297513.309068 kJ/mol
# GULP energy per Si atom -12396.387878 kJ/mol
# Density = 2.114798 g / cm^3
# Si number density = 21.196224 Si / 1000 Ang^3
#
#
#
# Elastic Constant Matrix: (Units=GPa)
#
#
# Indices 1 2 3 4 5 6 
#
# 1 46.4800 65.4361 31.2879 0.0000 -0.2073 0.0000
# 2 65.4361 165.3314 44.6641 0.0000 -0.9094 0.0000
# 3 31.2879 44.6641 142.5725 0.0000 -2.6870 0.0000
# 4 0.0000 0.0000 0.0000 -89.1334 0.0000 0.3842
# 5 -0.2073 -0.9094 -2.6870 0.0000 0.6193 0.0000
# 6 0.0000 0.0000 0.0000 0.3842 0.0000 44.9073
#
#
#
# Elastic Compliance Matrix: (Units=1/GPa)
#
#
# Indices 1 2 3 4 5 6 
#
# 1 0.052994 -0.019498 -0.006237 0.000000 -0.037952 0.000000
# 2 -0.019498 0.013782 0.000239 0.000000 0.014750 0.000000
# 3 -0.006237 0.000239 0.009012 0.000000 0.037363 0.000000
# 4 0.000000 0.000000 0.000000 -0.011219 0.000000 0.000096
# 5 -0.037952 0.014750 0.037363 0.000000 1.785775 0.000000
# 6 0.000000 0.000000 0.000000 0.000096 0.000000 0.022267
#
#
# Mechanical properties :
#
#
# Convention : Reuss Voigt Hill
#
# Bulk Modulus (GPa) = 40.32795 70.79559 55.56177
# Shear Modulus (GPa) = 2.58817 5.47838 4.03327
#
# Velocity S-wave (km/s) = 1.10621 1.60941 1.38093
# Velocity P-wave (km/s) = 4.54961 6.07669 5.36773
#
# Compressibility (1/GPa) = 0.02479670
#
# Stress axis : x y z
#
# Youngs Moduli (GPa) = 18.87015 72.55802 110.96581
#
# Poissons Ratio (x) = 1.41475 0.69205
# Poissons Ratio (y) = 0.36793 -0.02656
# Poissons Ratio (z) = 0.11769 -0.01737
#
# Static dielectric constant tensor:
#      x y z
#    x 3.699950 0.000000 -0.001360 
#    y 0.000000 4.175100 0.000000 
#    z -0.001360 0.000000 3.839010 
# 
# 
# High freq. dielectric constant tensor:
#      x y z
#    x 1.809770 0.000000 -0.000420 
#    y 0.000000 1.844200 0.000000 
#    z -0.000420 0.000000 1.824630 
# 
# From -- ./inp_files/263182.got.cif
#   From: 2010.06.25/outbox.cif.g09.slc.cpg/sg15_132_cif.got.tgz:263182.got - 2010.06.28 07:06:18.
