data_PCOD8153838
_publ_section_title
;
Structure prediction by ZEFSAII (Michael W. Deem and Ramdas Pophale) SiO2 
 PCOD8153838
Probable space group: C 2/C
;
_chemical_formula_sum "Si O2"
_cell_formula_units_Z 48
_cell_length_a 17.387683
_cell_length_b 8.188721
_cell_length_c 31.036246
_cell_angle_alpha 90.000000
_cell_angle_beta 149.293276
_cell_angle_gamma 90.000000
_cell_volume 2256.550498
_symmetry_space_group_name_H-M "C 2/C"
_symmetry_group_IT_number 15
_symmetry_cell_setting 'monoclinic'
loop_
_space_group_symop_operation_xyz
x,y,z
-x,y,1/2-z
-x,-y,-z
x,-y,1/2+z
1/2+x,1/2+y,z
1/2-x,1/2+y,1/2-z
1/2-x,1/2-y,-z
1/2+x,1/2-y,1/2+z
loop_
_atom_site_type_symbol
_atom_site_label
_atom_site_fract_x
_atom_site_fract_y
_atom_site_fract_z
Si Si1 0.620810 0.498538 0.214187
Si Si2 0.833599 0.759712 0.684766
Si Si3 0.641957 0.746237 0.150194
Si Si4 0.676098 0.100384 0.336893
Si Si5 0.304627 0.306350 0.072015
Si Si6 0.892700 0.569565 0.484215
O O1 0.665593 0.637515 0.270762
O O2 0.607161 0.586528 0.161591
O O3 0.763549 0.379077 0.277165
O O4 0.469071 0.395635 0.152070
O O5 0.764989 0.576125 0.651820
O O6 0.749372 0.850274 0.606479
O O7 0.000000 0.731556 0.750000
O O8 0.741243 0.724494 0.155086
O O9 0.478248 0.808447 0.057408
O O10 0.500000 0.124598 0.250000
O O11 0.710514 0.151650 0.402829
O O12 0.170516 0.427426 0.017498
O O13 0.250000 0.250000 0.000000
O O14 0.000000 0.500000 0.500000
#
# Coordination Sequence:
#
# PCOD8153838 Si02
#       6
#     8   8   8   8   8   8
#     4  12  26  47  72 106 148 185 236 299 357 415
#     4  11  24  45  74 102 139 187 239 286 356 423
#     4  12  27  44  74 105 144 185 238 294 355 422
#     4  11  24  47  74 101 137 194 237 283 357 430
#     4  12  28  46  73 104 147 186 235 295 356 421
#     4  12  25  45  74 103 141 190 236 286 354 420
#
# _framework density 21.271404
#
# number of rings (size 3 to 8) (size 9 to 14) (size 15 to 20)
#    0.000    0.333    6.667    1.000    4.667    5.333 
#    0.000    0.000    0.000    0.000    0.000    0.000 
#    0.000    0.000    0.000    0.000    0.000    0.000 
#
# Total GULP energy -297447.146767 kJ/mol
# GULP energy per Si atom -12393.631115 kJ/mol
# Density = 2.122299 g / cm^3
# Si number density = 21.271404 Si / 1000 Ang^3
#
#
#
# Elastic Constant Matrix: (Units=GPa)
#
#
# Indices 1 2 3 4 5 6 
#
# 1 89.8165 44.0131 43.3871 -0.0001 -11.3295 -0.0004
# 2 44.0131 107.8137 54.8423 -0.0002 -13.2581 -0.0008
# 3 43.3871 54.8423 105.3668 -0.0003 -30.2424 0.0001
# 4 -0.0001 -0.0002 -0.0003 -31.9322 0.0000 -47.4486
# 5 -11.3295 -13.2581 -30.2424 0.0000 27.2029 -0.0001
# 6 -0.0004 -0.0008 0.0001 -47.4486 -0.0001 27.0031
#
#
#
# Elastic Compliance Matrix: (Units=1/GPa)
#
#
# Indices 1 2 3 4 5 6 
#
# 1 0.015118 -0.004076 -0.004210 0.000000 -0.000371 0.000000
# 2 -0.004076 0.013767 -0.005946 0.000000 -0.001598 0.000000
# 3 -0.004210 -0.005946 0.019069 0.000000 0.016548 0.000000
# 4 0.000000 0.000000 0.000000 -0.008673 0.000000 -0.015239
# 5 -0.000371 -0.001598 0.016548 0.000000 0.054225 0.000000
# 6 0.000000 0.000000 0.000000 -0.015239 0.000000 0.010256
#
#
# Mechanical properties :
#
#
# Convention : Reuss Voigt Hill
#
# Bulk Modulus (GPa) = 51.30828 65.27579 58.29203
# Shear Modulus (GPa) = 36.04318 15.17173 25.60745
#
# Velocity S-wave (km/s) = 4.12083 2.67356 3.47341
# Velocity P-wave (km/s) = 6.84213 6.34699 6.59921
#
# Compressibility (1/GPa) = 0.01949003
#
# Stress axis : x y z
#
# Youngs Moduli (GPa) = 66.14602 72.63641 52.44155
#
# Poissons Ratio (x) = 0.29604 0.22079
# Poissons Ratio (y) = 0.26958 0.31183
# Poissons Ratio (z) = 0.27849 0.43191
#
# Static dielectric constant tensor:
#      x y z
#    x 3.802340 0.000000 0.067400 
#    y 0.000000 4.474320 0.000000 
#    z 0.067400 0.000000 4.040250 
# 
# 
# High freq. dielectric constant tensor:
#      x y z
#    x 1.837810 0.000000 -0.000460 
#    y 0.000000 1.847250 0.000000 
#    z -0.000460 0.000000 1.845840 
# 
# From -- ./inp_files/315771.got.cif
#   From: 2010.06.25/outbox.cif.g09.slc.cpg/sg15_158_cif.got.tgz:315771.got - 2010.06.28 07:06:18.
