data_PCOD8153125
_publ_section_title
;
Structure prediction by ZEFSAII (Michael W. Deem and Ramdas Pophale) SiO2 
 PCOD8153125
Probable space group: C 2/C
;
_chemical_formula_sum "Si O2"
_cell_formula_units_Z 52
_cell_length_a 11.789943
_cell_length_b 20.440476
_cell_length_c 13.608829
_cell_angle_alpha 90.000000
_cell_angle_beta 130.872845
_cell_angle_gamma 90.000000
_cell_volume 2479.929242
_symmetry_space_group_name_H-M "C 2/C"
_symmetry_group_IT_number 15
_symmetry_cell_setting 'monoclinic'
loop_
_space_group_symop_operation_xyz
x,y,z
-x,y,1/2-z
-x,-y,-z
x,-y,1/2+z
1/2+x,1/2+y,z
1/2-x,1/2+y,1/2-z
1/2-x,1/2-y,-z
1/2+x,1/2-y,1/2+z
loop_
_atom_site_type_symbol
_atom_site_label
_atom_site_fract_x
_atom_site_fract_y
_atom_site_fract_z
Si Si1 0.310700 0.419343 0.534330
Si Si2 0.678636 0.584461 0.680337
Si Si3 0.914323 0.776565 0.605918
Si Si4 0.378545 0.711555 0.753389
Si Si5 0.500000 0.518532 0.750000
Si Si6 0.943183 0.708602 0.995848
Si Si7 0.491345 0.931448 0.438999
O O1 0.359844 0.437437 0.451451
O O2 0.400835 0.354106 0.611683
O O3 0.360422 0.475758 0.636065
O O4 0.132001 0.414295 0.448711
O O5 0.673368 0.663183 0.688574
O O6 0.558643 0.558851 0.690534
O O7 0.846618 0.559642 0.789825
O O8 0.750000 0.750000 0.500000
O O9 0.000000 0.748087 0.750000
O O10 0.006125 0.753982 0.564570
O O11 0.500000 0.678208 0.750000
O O12 0.234421 0.726937 0.602156
O O13 0.462228 0.773446 0.852164
O O14 0.968292 0.630632 0.998452
O O15 0.500000 0.000000 0.500000
#
# Coordination Sequence:
#
# PCOD8153125 Si02
#       7
#     8   8   8   8   4   8   8
#     4  12  24  42  68  98 132 176 224 277 339 404
#     4  11  24  43  68  95 128 182 223 276 337 406
#     4  12  24  39  65 102 134 168 219 283 343 402
#     4  11  23  43  66  96 134 178 228 277 339 406
#     4  12  24  44  64  94 138 170 222 276 334 402
#     4  11  24  41  69  98 134 175 223 284 343 401
#     4  11  24  44  68  96 139 175 220 277 344 409
#
# _framework density 20.968339
#
# number of rings (size 3 to 8) (size 9 to 14) (size 15 to 20)
#    0.000    0.615    6.154    2.308    2.154    0.000 
#    0.000    1.538    0.000    0.000    0.000    0.000 
#    0.000    0.000    0.000    0.000    0.000    0.000 
#
# Total GULP energy -322261.222244 kJ/mol
# GULP energy per Si atom -12394.662394 kJ/mol
# Density = 2.092061 g / cm^3
# Si number density = 20.968339 Si / 1000 Ang^3
#
#
#
# Elastic Constant Matrix: (Units=GPa)
#
#
# Indices 1 2 3 4 5 6 
#
# 1 113.8980 15.6042 41.2403 0.0000 14.3550 0.0000
# 2 15.6042 91.1516 38.6695 0.0000 3.3129 0.0000
# 3 41.2403 38.6695 125.4127 0.0000 10.0977 0.0000
# 4 0.0000 0.0000 0.0000 31.7257 0.0000 -0.2934
# 5 14.3550 3.3129 10.0977 0.0000 39.9571 0.0000
# 6 0.0000 0.0000 0.0000 -0.2934 0.0000 29.5609
#
#
#
# Elastic Compliance Matrix: (Units=1/GPa)
#
#
# Indices 1 2 3 4 5 6 
#
# 1 0.010296 -0.000368 -0.003039 0.000000 -0.002901 0.000000
# 2 -0.000368 0.012635 -0.003778 0.000000 0.000039 0.000000
# 3 -0.003039 -0.003778 0.010233 0.000000 -0.001181 0.000000
# 4 0.000000 0.000000 0.000000 0.031523 0.000000 0.000313
# 5 -0.002901 0.000039 -0.001181 0.000000 0.026364 0.000000
# 6 0.000000 0.000000 0.000000 0.000313 0.000000 0.033832
#
#
# Mechanical properties :
#
#
# Convention : Reuss Voigt Hill
#
# Bulk Modulus (GPa) = 53.20705 57.94337 55.57521
# Shear Modulus (GPa) = 34.36025 35.91198 35.13612
#
# Velocity S-wave (km/s) = 4.05244 4.14294 4.09794
# Velocity P-wave (km/s) = 6.87942 7.11189 6.99662
#
# Compressibility (1/GPa) = 0.01879450
#
# Stress axis : x y z
#
# Youngs Moduli (GPa) = 97.12488 79.14483 97.72392
#
# Poissons Ratio (x) = 0.02913 0.29695
# Poissons Ratio (y) = 0.03575 0.36920
# Poissons Ratio (z) = 0.29513 0.29901
#
# Static dielectric constant tensor:
#      x y z
#    x 3.698360 0.000000 0.058300 
#    y 0.000000 3.667910 0.000000 
#    z 0.058300 0.000000 3.884970 
# 
# 
# High freq. dielectric constant tensor:
#      x y z
#    x 1.830550 0.000000 0.012120 
#    y 0.000000 1.816420 0.000000 
#    z 0.012120 0.000000 1.827020 
# 
# From -- ./inp_files/147233.got.cif
#   From: 2010.06.25/outbox.cif.g09.slc.cpg/sg15_74_cif.got.tgz:147233.got - 2010.06.28 07:06:18.
