data_PCOD8153924
_publ_section_title
;
Structure prediction by ZEFSAII (Michael W. Deem and Ramdas Pophale) SiO2 
 PCOD8153924
Probable space group: C 2/C
;
_chemical_formula_sum "Si O2"
_cell_formula_units_Z 32
_cell_length_a 5.096253
_cell_length_b 22.180688
_cell_length_c 11.974340
_cell_angle_alpha 90.000000
_cell_angle_beta 74.927751
_cell_angle_gamma 90.000000
_cell_volume 1306.995966
_symmetry_space_group_name_H-M "C 2/C"
_symmetry_group_IT_number 15
_symmetry_cell_setting 'monoclinic'
loop_
_space_group_symop_operation_xyz
x,y,z
-x,y,1/2-z
-x,-y,-z
x,-y,1/2+z
1/2+x,1/2+y,z
1/2-x,1/2+y,1/2-z
1/2-x,1/2-y,-z
1/2+x,1/2-y,1/2+z
loop_
_atom_site_type_symbol
_atom_site_label
_atom_site_fract_x
_atom_site_fract_y
_atom_site_fract_z
Si Si1 0.865153 0.402860 0.576439
Si Si2 0.500000 0.679149 0.750000
Si Si3 0.431272 0.581270 0.930357
Si Si4 0.000000 0.017111 0.250000
Si Si5 0.948427 0.266106 0.574402
O O1 0.649032 0.399050 0.498626
O O2 0.752763 0.439709 0.694620
O O3 0.933415 0.335849 0.610597
O O4 0.142888 0.437498 0.513774
O O5 0.344678 0.635304 0.854154
O O6 0.333469 0.725544 0.690343
O O7 0.561838 0.524417 0.851165
O O8 0.750000 0.250000 0.500000
O O9 0.250000 0.250000 0.500000
#
# Coordination Sequence:
#
# PCOD8153924 Si02
#       5
#     8   4   8   4   8
#     4  12  25  49  72 111 153 192 254 308 375 442
#     4  11  24  46  76 106 148 197 244 296 392 427
#     4  11  26  47  75 108 149 200 250 306 371 458
#     4  11  28  46  78 110 148 205 250 314 370 437
#     4  12  25  45  72 110 148 189 250 304 366 454
#
# _framework density 24.483622
#
# number of rings (size 3 to 8) (size 9 to 14) (size 15 to 20)
#    0.000    0.500    5.000    1.500    0.000   14.000 
#    0.000    0.000    0.000    0.000    0.000    0.000 
#    0.000    0.000    0.000    0.000    0.000    0.000 
#
# Total GULP energy -198275.725016 kJ/mol
# GULP energy per Si atom -12392.232813 kJ/mol
# Density = 2.442790 g / cm^3
# Si number density = 24.483622 Si / 1000 Ang^3
#
#
#
# Elastic Constant Matrix: (Units=GPa)
#
#
# Indices 1 2 3 4 5 6 
#
# 1 151.3665 48.8424 63.0798 0.0000 -6.6799 0.0000
# 2 48.8424 192.2882 83.5754 0.0000 -15.5581 0.0000
# 3 63.0798 83.5754 126.5267 0.0000 -19.9654 0.0000
# 4 0.0000 0.0000 0.0000 37.6334 0.0000 -5.0099
# 5 -6.6799 -15.5581 -19.9654 0.0000 32.5181 0.0000
# 6 0.0000 0.0000 0.0000 -5.0099 0.0000 37.4756
#
#
#
# Elastic Compliance Matrix: (Units=1/GPa)
#
#
# Indices 1 2 3 4 5 6 
#
# 1 0.008393 -0.000456 -0.004036 0.000000 -0.000972 0.000000
# 2 -0.000456 0.007330 -0.004513 0.000000 0.000642 0.000000
# 3 -0.004036 -0.004513 0.013758 0.000000 0.005459 0.000000
# 4 0.000000 0.000000 0.000000 0.027054 0.000000 0.003617
# 5 -0.000972 0.000642 0.005459 0.000000 0.034211 0.000000
# 6 0.000000 0.000000 0.000000 0.003617 0.000000 0.027168
#
#
# Mechanical properties :
#
#
# Convention : Reuss Voigt Hill
#
# Bulk Modulus (GPa) = 87.18381 95.68627 91.43504
# Shear Modulus (GPa) = 35.77890 39.83769 37.80829
#
# Velocity S-wave (km/s) = 3.82690 4.03813 3.93393
# Velocity P-wave (km/s) = 7.43056 7.80439 7.61977
#
# Compressibility (1/GPa) = 0.01147002
#
# Stress axis : x y z
#
# Youngs Moduli (GPa) = 119.14876 136.42934 72.68470
#
# Poissons Ratio (x) = 0.06223 0.29338
# Poissons Ratio (y) = 0.05435 0.32801
# Poissons Ratio (z) = 0.48093 0.61568
#
# Static dielectric constant tensor:
#      x y z
#    x 3.948400 0.000000 -0.026690 
#    y 0.000000 5.094740 0.000000 
#    z -0.026690 0.000000 4.484240 
# 
# 
# High freq. dielectric constant tensor:
#      x y z
#    x 1.947120 0.000000 0.002640 
#    y 0.000000 2.005590 0.000000 
#    z 0.002640 0.000000 1.986330 
# 
# From -- ./inp_files/72212.got.cif
#   From: 2010.06.25/outbox.cif.g09.slc.cpg/sg15_37_cif.got.tgz:72212.got - 2010.06.28 07:06:18.
