data_PCOD8153714
_publ_section_title
;
Structure prediction by ZEFSAII (Michael W. Deem and Ramdas Pophale) SiO2 
 PCOD8153714
Probable space group: C 2/C
;
_chemical_formula_sum "Si O2"
_cell_formula_units_Z 36
_cell_length_a 20.628373
_cell_length_b 10.196276
_cell_length_c 15.468545
_cell_angle_alpha 90.000000
_cell_angle_beta 151.189238
_cell_angle_gamma 90.000000
_cell_volume 1567.939891
_symmetry_space_group_name_H-M "C 2/C"
_symmetry_group_IT_number 15
_symmetry_cell_setting 'monoclinic'
loop_
_space_group_symop_operation_xyz
x,y,z
-x,y,1/2-z
-x,-y,-z
x,-y,1/2+z
1/2+x,1/2+y,z
1/2-x,1/2+y,1/2-z
1/2-x,1/2-y,-z
1/2+x,1/2-y,1/2+z
loop_
_atom_site_type_symbol
_atom_site_label
_atom_site_fract_x
_atom_site_fract_y
_atom_site_fract_z
Si Si1 0.907739 0.528419 0.811587
Si Si2 0.977110 0.118663 0.622921
Si Si3 0.500000 0.834314 0.250000
Si Si4 0.799257 0.738926 0.213289
Si Si5 0.649955 0.340027 0.047779
O O1 0.827895 0.396200 0.697568
O O2 0.808425 0.641130 0.726726
O O3 0.970653 0.571070 0.795159
O O4 0.000000 0.500000 0.000000
O O5 0.865934 0.236525 0.475177
O O6 0.000000 0.103138 0.750000
O O7 0.124325 0.148972 0.752981
O O8 0.928846 0.977271 0.529963
O O9 0.614395 0.736140 0.418181
O O10 0.868111 0.747760 0.388949
#
# Coordination Sequence:
#
# PCOD8153714 Si02
#       5
#     8   8   4   8   8
#     4  11  24  45  69 104 139 187 233 293 357 408
#     4  11  24  45  69 105 141 185 235 290 354 418
#     4  12  24  46  72 100 142 182 246 280 350 428
#     4  11  24  44  70 102 144 184 233 288 358 417
#     4  11  24  46  71 100 140 184 240 285 347 427
#
# _framework density 22.960063999999999
#
# number of rings (size 3 to 8) (size 9 to 14) (size 15 to 20)
#    0.000    0.889    3.333    3.333    1.556    0.000 
#    8.000    0.000    0.000    0.000    0.000    0.000 
#    0.000    0.000    0.000    0.000    0.000    0.000 
#
# Total GULP energy -222992.597240 kJ/mol
# GULP energy per Si atom -12388.477624 kJ/mol
# Density = 2.290781 g / cm^3
# Si number density = 22.960064 Si / 1000 Ang^3
#
#
#
# Elastic Constant Matrix: (Units=GPa)
#
#
# Indices 1 2 3 4 5 6 
#
# 1 116.7360 54.9991 44.5647 0.0000 -17.1656 0.0000
# 2 54.9991 93.3323 44.7364 0.0000 -6.1130 0.0000
# 3 44.5647 44.7364 119.8138 0.0000 -12.6820 0.0000
# 4 0.0000 0.0000 0.0000 41.0205 0.0000 -12.2229
# 5 -17.1656 -6.1130 -12.6820 0.0000 37.6989 0.0000
# 6 0.0000 0.0000 0.0000 -12.2229 0.0000 20.0068
#
#
#
# Elastic Compliance Matrix: (Units=1/GPa)
#
#
# Indices 1 2 3 4 5 6 
#
# 1 0.012961 -0.006413 -0.001982 0.000000 0.004195 0.000000
# 2 -0.006413 0.016232 -0.003843 0.000000 -0.001581 0.000000
# 3 -0.001982 -0.003843 0.010739 0.000000 0.002087 0.000000
# 4 0.000000 0.000000 0.000000 0.029803 0.000000 0.018208
# 5 0.004195 -0.001581 0.002087 0.000000 0.028882 0.000000
# 6 0.000000 0.000000 0.000000 0.018208 0.000000 0.061107
#
#
# Mechanical properties :
#
#
# Convention : Reuss Voigt Hill
#
# Bulk Modulus (GPa) = 64.69829 68.72026 66.70928
# Shear Modulus (GPa) = 26.40570 32.11736 29.26153
#
# Velocity S-wave (km/s) = 3.39495 3.74416 3.57382
# Velocity P-wave (km/s) = 6.60359 6.97760 6.79317
#
# Compressibility (1/GPa) = 0.01545636
#
# Stress axis : x y z
#
# Youngs Moduli (GPa) = 77.15205 61.60749 93.11534
#
# Poissons Ratio (x) = 0.39508 0.18460
# Poissons Ratio (y) = 0.49477 0.35781
# Poissons Ratio (z) = 0.15295 0.23674
#
# Static dielectric constant tensor:
#      x y z
#    x 4.381700 0.000000 0.067970 
#    y 0.000000 4.393480 0.000000 
#    z 0.067970 0.000000 4.479030 
# 
# 
# High freq. dielectric constant tensor:
#      x y z
#    x 1.905570 0.000000 -0.006850 
#    y 0.000000 1.907740 0.000000 
#    z -0.006850 0.000000 1.917660 
# 
# From -- ./inp_files/167788.got.cif
#   From: 2010.06.25/outbox.cif.g09.slc.cpg/sg15_84_cif.got.tgz:167788.got - 2010.06.28 07:06:18.
