data_PCOD8153435
_publ_section_title
;
Structure prediction by ZEFSAII (Michael W. Deem and Ramdas Pophale) SiO2 
 PCOD8153435
Probable space group: C 2/C
;
_chemical_formula_sum "Si O2"
_cell_formula_units_Z 40
_cell_length_a 22.046050
_cell_length_b 6.209348
_cell_length_c 19.460064
_cell_angle_alpha 90.000000
_cell_angle_beta 41.894006
_cell_angle_gamma 90.000000
_cell_volume 1778.844547
_symmetry_space_group_name_H-M "C 2/C"
_symmetry_group_IT_number 15
_symmetry_cell_setting 'monoclinic'
loop_
_space_group_symop_operation_xyz
x,y,z
-x,y,1/2-z
-x,-y,-z
x,-y,1/2+z
1/2+x,1/2+y,z
1/2-x,1/2+y,1/2-z
1/2-x,1/2-y,-z
1/2+x,1/2-y,1/2+z
loop_
_atom_site_type_symbol
_atom_site_label
_atom_site_fract_x
_atom_site_fract_y
_atom_site_fract_z
Si Si1 0.958719 0.403207 0.467348
Si Si2 0.812915 0.082362 0.644739
Si Si3 0.850136 0.241002 0.998009
Si Si4 0.196082 0.051072 0.078004
Si Si5 0.865965 0.827219 0.725228
O O1 0.866673 0.278352 0.564462
O O2 0.934943 0.595973 0.434271
O O3 0.000000 0.500000 0.500000
O O4 0.030955 0.244810 0.372753
O O5 0.706371 0.141009 0.733488
O O6 0.830178 0.863242 0.588790
O O7 0.845430 0.037737 0.695531
O O8 0.762510 0.370498 0.049602
O O9 0.869131 0.054689 0.925366
O O10 0.135613 0.125563 0.192640
O O11 0.250000 0.250000 0.000000
#
# Coordination Sequence:
#
# PCOD8153435 Si02
#       5
#     8   8   8   8   8
#     4  12  25  45  71 111 146 183 249 309 357 433
#     4  12  24  48  71 106 144 183 250 301 366 436
#     4  11  23  46  74  98 148 189 234 316 352 423
#     4  11  23  47  73 100 145 194 240 292 368 443
#     4  12  24  42  78 103 144 197 239 301 376 433
#
# _framework density 22.486505999999999
#
# number of rings (size 3 to 8) (size 9 to 14) (size 15 to 20)
#    0.000    0.400    6.000    3.000    0.000    0.000 
#    0.000    6.000    0.000    0.000    0.000    0.000 
#    0.000    0.000    0.000    0.000    0.000    0.000 
#
# Total GULP energy -248054.251049 kJ/mol
# GULP energy per Si atom -12402.712552 kJ/mol
# Density = 2.243533 g / cm^3
# Si number density = 22.486506 Si / 1000 Ang^3
#
#
#
# Elastic Constant Matrix: (Units=GPa)
#
#
# Indices 1 2 3 4 5 6 
#
# 1 91.4088 33.7881 32.4493 0.0241 15.9553 -0.0084
# 2 33.7881 98.5083 28.6798 0.0619 12.1215 -0.0286
# 3 32.4493 28.6798 99.3042 0.0875 21.1716 -0.0902
# 4 0.0241 0.0619 0.0875 28.1141 -0.0647 3.2001
# 5 15.9553 12.1215 21.1716 -0.0647 44.0151 0.0536
# 6 -0.0084 -0.0286 -0.0902 3.2001 0.0536 67.3469
#
#
#
# Elastic Compliance Matrix: (Units=1/GPa)
#
#
# Indices 1 2 3 4 5 6 
#
# 1 0.013738 -0.003544 -0.002910 -0.000001 -0.002604 -0.000002
# 2 -0.003544 0.012111 -0.002120 -0.000020 -0.001031 0.000004
# 3 -0.002910 -0.002120 0.012573 -0.000045 -0.004409 0.000021
# 4 -0.000001 -0.000020 -0.000045 0.035763 0.000082 -0.001699
# 5 -0.002604 -0.001031 -0.004409 0.000082 0.026068 -0.000031
# 6 -0.000002 0.000004 0.000021 -0.001699 -0.000031 0.014929
#
#
# Mechanical properties :
#
#
# Convention : Reuss Voigt Hill
#
# Bulk Modulus (GPa) = 47.00692 53.22840 50.11766
# Shear Modulus (GPa) = 35.86219 40.84883 38.35551
#
# Velocity S-wave (km/s) = 3.99787 4.26677 4.13451
# Velocity P-wave (km/s) = 6.50081 6.92795 6.71777
#
# Compressibility (1/GPa) = 0.02127346
#
# Stress axis : x y z
#
# Youngs Moduli (GPa) = 72.79309 82.56862 79.53323
#
# Poissons Ratio (x) = 0.29264 0.23146
# Poissons Ratio (y) = 0.25800 0.16860
# Poissons Ratio (z) = 0.21184 0.17503
#
# Static dielectric constant tensor:
#      x y z
#    x 4.738130 -0.000420 -0.217580 
#    y -0.000420 4.519550 0.000510 
#    z -0.217580 0.000510 4.754380 
# 
# 
# High freq. dielectric constant tensor:
#      x y z
#    x 1.897390 0.000000 0.014640 
#    y 0.000000 1.899440 0.000000 
#    z 0.014640 0.000000 1.873020 
# 
# From -- ./inp_files/223742.got.cif
#   From: 2010.06.25/outbox.cif.g09.slc.cpg/sg15_112_cif.got.tgz:223742.got - 2010.06.28 07:06:18.
