data_PCOD8153832
_publ_section_title
;
Structure prediction by ZEFSAII (Michael W. Deem and Ramdas Pophale) SiO2 
 PCOD8153832
Probable space group: C 2/C
;
_chemical_formula_sum "Si O2"
_cell_formula_units_Z 48
_cell_length_a 15.833149
_cell_length_b 7.762517
_cell_length_c 29.657226
_cell_angle_alpha 90.000000
_cell_angle_beta 146.268321
_cell_angle_gamma 90.000000
_cell_volume 2024.097608
_symmetry_space_group_name_H-M "C 2/C"
_symmetry_group_IT_number 15
_symmetry_cell_setting 'monoclinic'
loop_
_space_group_symop_operation_xyz
x,y,z
-x,y,1/2-z
-x,-y,-z
x,-y,1/2+z
1/2+x,1/2+y,z
1/2-x,1/2+y,1/2-z
1/2-x,1/2-y,-z
1/2+x,1/2-y,1/2+z
loop_
_atom_site_type_symbol
_atom_site_label
_atom_site_fract_x
_atom_site_fract_y
_atom_site_fract_z
Si Si1 0.592428 0.043126 0.997584
Si Si2 0.922897 0.116480 0.428758
Si Si3 0.365487 0.501947 0.304918
Si Si4 0.534845 0.121157 0.144587
Si Si5 0.415824 0.356252 0.668557
Si Si6 0.871897 0.536735 0.159732
O O1 0.532744 0.233826 0.958971
O O2 0.549858 0.902603 0.940747
O O3 0.771717 0.033225 0.087524
O O4 0.500000 0.000000 0.000000
O O5 0.876436 0.016911 0.363310
O O6 0.767891 0.159207 0.386979
O O7 0.000000 0.000000 0.500000
O O8 0.426069 0.312343 0.322023
O O9 0.189286 0.509626 0.212259
O O10 0.463040 0.641061 0.319166
O O11 0.411215 0.057565 0.125168
O O12 0.500000 0.437769 0.750000
O O13 0.350291 0.170150 0.654643
O O14 0.000000 0.602705 0.250000
#
# Coordination Sequence:
#
# PCOD8153832 Si02
#       6
#     8   8   8   8   8   8
#     4  12  27  46  73 108 147 189 241 300 359 430
#     4  12  25  45  73 103 147 187 238 296 366 427
#     4  12  27  47  72 106 144 195 241 301 360 429
#     4  12  27  46  73 104 148 188 248 296 361 430
#     4  11  26  47  75 104 144 187 240 300 367 433
#     4  11  24  45  73 105 143 190 236 294 365 432
#
# _framework density 23.714272000000001
#
# number of rings (size 3 to 8) (size 9 to 14) (size 15 to 20)
#    0.000    0.333    3.333    5.000    7.000    2.667 
#    0.000    0.000    0.000    0.000    0.000    0.000 
#    0.000    0.000    0.000    0.000    0.000    0.000 
#
# Total GULP energy -297472.760052 kJ/mol
# GULP energy per Si atom -12394.698335 kJ/mol
# Density = 2.366030 g / cm^3
# Si number density = 23.714272 Si / 1000 Ang^3
#
#
#
# Elastic Constant Matrix: (Units=GPa)
#
#
# Indices 1 2 3 4 5 6 
#
# 1 151.2591 -8.6274 53.6763 0.0000 -0.7153 0.0000
# 2 -8.6274 51.6894 7.7027 0.0000 4.3008 0.0002
# 3 53.6763 7.7027 157.7729 0.0001 2.0106 -0.0001
# 4 0.0000 0.0000 0.0001 25.3945 0.0000 -2.0843
# 5 -0.7153 4.3008 2.0106 0.0000 48.0810 0.0000
# 6 0.0000 0.0002 -0.0001 -2.0843 0.0000 36.0661
#
#
#
# Elastic Compliance Matrix: (Units=1/GPa)
#
#
# Indices 1 2 3 4 5 6 
#
# 1 0.007661 0.001673 -0.002689 0.000000 0.000077 0.000000
# 2 0.001673 0.019994 -0.001524 0.000000 -0.001700 0.000000
# 3 -0.002689 -0.001524 0.007330 0.000000 -0.000210 0.000000
# 4 0.000000 0.000000 0.000000 0.039566 0.000000 0.002287
# 5 0.000077 -0.001700 -0.000210 0.000000 0.020960 0.000000
# 6 0.000000 0.000000 0.000000 0.002287 0.000000 0.027859
#
#
# Mechanical properties :
#
#
# Convention : Reuss Voigt Hill
#
# Bulk Modulus (GPa) = 33.43808 51.80274 42.62041
# Shear Modulus (GPa) = 36.12217 42.43963 39.28090
#
# Velocity S-wave (km/s) = 3.90709 4.23498 4.07433
# Velocity P-wave (km/s) = 5.87237 6.76797 6.33602
#
# Compressibility (1/GPa) = 0.02990602
#
# Stress axis : x y z
#
# Youngs Moduli (GPa) = 130.52743 50.01482 136.42267
#
# Poissons Ratio (x) = -0.08368 0.36685
# Poissons Ratio (y) = -0.21838 0.20786
# Poissons Ratio (z) = 0.35100 0.07621
#
# Static dielectric constant tensor:
#      x y z
#    x 3.361290 -0.000020 -0.839960 
#    y -0.000020 3.773160 -0.000010 
#    z -0.839960 -0.000010 3.618030 
# 
# 
# High freq. dielectric constant tensor:
#      x y z
#    x 1.952840 0.000000 -0.002080 
#    y 0.000000 1.925460 0.000000 
#    z -0.002080 0.000000 1.957970 
# 
# From -- ./inp_files/295447.got.cif
#   From: 2010.06.25/outbox.cif.g09.slc.cpg/sg15_148_cif.got.tgz:295447.got - 2010.06.28 07:06:18.
