data_PCOD8153519
_publ_section_title
;
Structure prediction by ZEFSAII (Michael W. Deem and Ramdas Pophale) SiO2 
 PCOD8153519
Probable space group: C 2/C
;
_chemical_formula_sum "Si O2"
_cell_formula_units_Z 44
_cell_length_a 18.733378
_cell_length_b 17.048537
_cell_length_c 16.407397
_cell_angle_alpha 90.000000
_cell_angle_beta 24.960864
_cell_angle_gamma 90.000000
_cell_volume 2211.334452
_symmetry_space_group_name_H-M "C 2/C"
_symmetry_group_IT_number 15
_symmetry_cell_setting 'monoclinic'
loop_
_space_group_symop_operation_xyz
x,y,z
-x,y,1/2-z
-x,-y,-z
x,-y,1/2+z
1/2+x,1/2+y,z
1/2-x,1/2+y,1/2-z
1/2-x,1/2-y,-z
1/2+x,1/2-y,1/2+z
loop_
_atom_site_type_symbol
_atom_site_label
_atom_site_fract_x
_atom_site_fract_y
_atom_site_fract_z
Si Si1 0.875260 0.777613 0.938411
Si Si2 0.692047 0.703340 0.641280
Si Si3 0.415904 0.143777 0.688665
Si Si4 0.860565 0.478949 0.826789
Si Si5 0.514819 0.842971 0.901289
Si Si6 0.000000 0.076723 0.750000
O O1 0.000000 0.828079 0.750000
O O2 0.962043 0.703082 0.890609
O O3 0.750000 0.750000 0.000000
O O4 0.780120 0.827842 0.105563
O O5 0.750000 0.750000 0.500000
O O6 0.615327 0.761567 0.788071
O O7 0.553562 0.635940 0.767258
O O8 0.849662 0.659065 0.516562
O O9 0.471705 0.138637 0.538513
O O10 0.421458 0.060580 0.726566
O O11 0.865969 0.413140 0.751623
O O12 0.000000 0.456619 0.750000
O O13 0.663869 0.477893 0.060261
#
# Coordination Sequence:
#
# PCOD8153519 Si02
#       6
#     8   8   8   8   8   4
#     4   9  19  40  62  85 114 166 226 260 309 393
#     4  12  20  39  67  97 127 174 224 263 319 404
#     4  11  24  40  64  97 130 171 214 284 342 378
#     4  12  24  43  66  94 133 180 222 266 328 406
#     4  12  22  39  64  98 139 166 213 282 339 385
#     4  12  24  40  68 102 122 172 232 264 314 390
#
# _framework density 19.897487000000002
#
# number of rings (size 3 to 8) (size 9 to 14) (size 15 to 20)
#    0.000    0.727    5.455    3.273    1.273    0.000 
#    0.000    0.909    0.000    0.000    0.000    0.000 
#    0.000    0.000    0.000    0.000    0.000    0.000 
#
# Total GULP energy -272576.322243 kJ/mol
# GULP energy per Si atom -12389.832829 kJ/mol
# Density = 1.985220 g / cm^3
# Si number density = 19.897487 Si / 1000 Ang^3
#
#
#
# Elastic Constant Matrix: (Units=GPa)
#
#
# Indices 1 2 3 4 5 6 
#
# 1 82.1477 21.2169 49.8564 -0.0016 5.3327 0.0021
# 2 21.2169 83.7650 31.4317 -0.0025 10.7155 0.0018
# 3 49.8564 31.4317 139.5911 -0.0018 10.6696 0.0017
# 4 -0.0016 -0.0025 -0.0018 40.9963 0.0008 -1.2539
# 5 5.3327 10.7155 10.6696 0.0008 39.0479 -0.0013
# 6 0.0021 0.0018 0.0017 -1.2539 -0.0013 22.3622
#
#
#
# Elastic Compliance Matrix: (Units=1/GPa)
#
#
# Indices 1 2 3 4 5 6 
#
# 1 0.015864 -0.002047 -0.005191 0.000000 -0.000187 -0.000001
# 2 -0.002047 0.013619 -0.002115 0.000001 -0.002880 -0.000001
# 3 -0.005191 -0.002115 0.009596 0.000000 -0.001333 0.000000
# 4 0.000000 0.000001 0.000000 0.024434 -0.000001 0.001370
# 5 -0.000187 -0.002880 -0.001333 -0.000001 0.026789 0.000002
# 6 -0.000001 -0.000001 0.000000 0.001370 0.000002 0.044795
#
#
# Mechanical properties :
#
#
# Convention : Reuss Voigt Hill
#
# Bulk Modulus (GPa) = 49.08465 56.72375 52.90420
# Shear Modulus (GPa) = 31.13418 34.01453 32.57435
#
# Velocity S-wave (km/s) = 3.95996 4.13908 4.05051
# Velocity P-wave (km/s) = 6.75505 7.17025 6.96575
#
# Compressibility (1/GPa) = 0.02037297
#
# Stress axis : x y z
#
# Youngs Moduli (GPa) = 63.03423 73.42834 104.21001
#
# Poissons Ratio (x) = 0.15028 0.54096
# Poissons Ratio (y) = 0.12900 0.22045
# Poissons Ratio (z) = 0.32721 0.15533
#
# Static dielectric constant tensor:
#      x y z
#    x 4.315990 0.000000 -0.041970 
#    y 0.000000 3.544780 0.000010 
#    z -0.041970 0.000010 4.502350 
# 
# 
# High freq. dielectric constant tensor:
#      x y z
#    x 1.767680 0.000000 -0.007720 
#    y 0.000000 1.769930 0.000000 
#    z -0.007720 0.000000 1.797240 
# 
# From -- ./inp_files/56299.got.cif
#   From: 2010.06.25/outbox.cif.g09.slc.cpg/sg15_29_cif.got.tgz:56299.got - 2010.06.28 07:06:18.
