data_PCOD8153544
_publ_section_title
;
Structure prediction by ZEFSAII (Michael W. Deem and Ramdas Pophale) SiO2 
 PCOD8153544
Probable space group: C 2/C
;
_chemical_formula_sum "Si O2"
_cell_formula_units_Z 48
_cell_length_a 20.376422
_cell_length_b 18.509806
_cell_length_c 12.640884
_cell_angle_alpha 90.000000
_cell_angle_beta 153.510969
_cell_angle_gamma 90.000000
_cell_volume 2126.512190
_symmetry_space_group_name_H-M "C 2/C"
_symmetry_group_IT_number 15
_symmetry_cell_setting 'monoclinic'
loop_
_space_group_symop_operation_xyz
x,y,z
-x,y,1/2-z
-x,-y,-z
x,-y,1/2+z
1/2+x,1/2+y,z
1/2-x,1/2+y,1/2-z
1/2-x,1/2-y,-z
1/2+x,1/2-y,1/2+z
loop_
_atom_site_type_symbol
_atom_site_label
_atom_site_fract_x
_atom_site_fract_y
_atom_site_fract_z
Si Si1 0.396848 0.841279 0.198007
Si Si2 0.145850 0.562368 0.668151
Si Si3 0.603336 0.295036 0.672629
Si Si4 0.819310 0.579246 0.170442
Si Si5 0.307257 0.631840 0.714968
Si Si6 0.164752 0.220263 0.027035
O O1 0.500000 0.862995 0.250000
O O2 0.389670 0.906699 0.267960
O O3 0.461284 0.770207 0.349610
O O4 0.230908 0.832335 0.921707
O O5 0.212860 0.482857 0.788533
O O6 0.263797 0.604019 0.768043
O O7 0.989987 0.569044 0.382471
O O8 0.480511 0.354579 0.470787
O O9 0.665553 0.263614 0.653033
O O10 0.727340 0.573634 0.927556
O O11 0.776809 0.654977 0.164528
O O12 0.224352 0.705918 0.560099
O O13 0.000000 0.201866 0.750000
#
# Coordination Sequence:
#
# PCOD8153544 Si02
#       6
#     8   8   8   8   8   8
#     4  11  24  44  68  95 139 182 229 279 334 414
#     4  11  25  45  69  98 136 185 228 274 347 413
#     4  11  24  41  68 105 135 176 229 285 339 399
#     4  11  25  44  69 100 138 180 227 283 341 413
#     4  12  24  43  71 105 136 175 233 288 342 407
#     4  12  23  43  71 103 138 175 226 285 345 402
#
# _framework density 22.572171999999998
#
# number of rings (size 3 to 8) (size 9 to 14) (size 15 to 20)
#    0.000    0.667    3.333    5.000    2.333    4.000 
#    3.000    1.667    0.000    0.000    0.000    0.000 
#    0.000    0.000    0.000    0.000    0.000    0.000 
#
# Total GULP energy -297619.385318 kJ/mol
# GULP energy per Si atom -12400.807722 kJ/mol
# Density = 2.252080 g / cm^3
# Si number density = 22.572172 Si / 1000 Ang^3
#
#
#
# Elastic Constant Matrix: (Units=GPa)
#
#
# Indices 1 2 3 4 5 6 
#
# 1 98.8276 28.7729 23.4806 0.0000 -13.1275 0.0000
# 2 28.7729 102.4095 45.6103 0.0000 2.4049 0.0000
# 3 23.4806 45.6103 102.6239 0.0000 -8.5907 0.0000
# 4 0.0000 0.0000 0.0000 5.7400 0.0000 -6.6162
# 5 -13.1275 2.4049 -8.5907 0.0000 34.3155 0.0000
# 6 0.0000 0.0000 0.0000 -6.6162 0.0000 18.4111
#
#
#
# Elastic Compliance Matrix: (Units=1/GPa)
#
#
# Indices 1 2 3 4 5 6 
#
# 1 0.011820 -0.002978 -0.001006 0.000000 0.004478 0.000000
# 2 -0.002978 0.013098 -0.005426 0.000000 -0.003416 0.000000
# 3 -0.001006 -0.005426 0.012651 0.000000 0.003162 0.000000
# 4 0.000000 0.000000 0.000000 0.297408 0.000000 0.106876
# 5 0.004478 -0.003416 0.003162 0.000000 0.031886 0.000000
# 6 0.000000 0.000000 0.000000 0.106876 0.000000 0.092722
#
#
# Mechanical properties :
#
#
# Convention : Reuss Voigt Hill
#
# Bulk Modulus (GPa) = 53.33671 55.50984 54.42328
# Shear Modulus (GPa) = 10.31664 25.42644 17.87154
#
# Velocity S-wave (km/s) = 2.14020 3.35990 2.81686
# Velocity P-wave (km/s) = 5.45783 6.30059 5.89430
#
# Compressibility (1/GPa) = 0.01874881
#
# Stress axis : x y z
#
# Youngs Moduli (GPa) = 84.60568 76.34658 79.04700
#
# Poissons Ratio (x) = 0.22736 0.07951
# Poissons Ratio (y) = 0.25195 0.42890
# Poissons Ratio (z) = 0.08511 0.41425
#
# Static dielectric constant tensor:
#      x y z
#    x 4.068830 0.000000 -0.186600 
#    y 0.000000 3.950280 0.000000 
#    z -0.186600 0.000000 4.165630 
# 
# 
# High freq. dielectric constant tensor:
#      x y z
#    x 1.896680 0.000000 -0.011670 
#    y 0.000000 1.875590 0.000000 
#    z -0.011670 0.000000 1.899680 
# 
# From -- ./inp_files/114302.got.cif
#   From: 2010.06.25/outbox.cif.g09.slc.cpg/sg15_58_cif.got.tgz:114302.got - 2010.06.28 07:06:18.
