data_PCOD8153984
_publ_section_title
;
Structure prediction by ZEFSAII (Michael W. Deem and Ramdas Pophale) SiO2 
 PCOD8153984
Probable space group: C 2/C
;
_chemical_formula_sum "Si O2"
_cell_formula_units_Z 44
_cell_length_a 14.791443
_cell_length_b 11.577317
_cell_length_c 10.435497
_cell_angle_alpha 90.000000
_cell_angle_beta 94.544216
_cell_angle_gamma 90.000000
_cell_volume 1781.411481
_symmetry_space_group_name_H-M "C 2/C"
_symmetry_group_IT_number 15
_symmetry_cell_setting 'monoclinic'
loop_
_space_group_symop_operation_xyz
x,y,z
-x,y,1/2-z
-x,-y,-z
x,-y,1/2+z
1/2+x,1/2+y,z
1/2-x,1/2+y,1/2-z
1/2-x,1/2-y,-z
1/2+x,1/2-y,1/2+z
loop_
_atom_site_type_symbol
_atom_site_label
_atom_site_fract_x
_atom_site_fract_y
_atom_site_fract_z
Si Si1 0.642251 0.461268 0.412225
Si Si2 0.100204 0.443261 0.212737
Si Si3 0.219182 0.095355 0.661831
Si Si4 0.000000 0.905925 0.750000
Si Si5 0.927605 0.244238 0.451968
Si Si6 0.423385 0.792376 0.845090
O O1 0.684902 0.531522 0.532854
O O2 0.702539 0.475033 0.291917
O O3 0.544453 0.513871 0.364604
O O4 0.630788 0.326626 0.450352
O O5 0.171215 0.400809 0.330764
O O6 0.119710 0.367269 0.085872
O O7 0.108799 0.577215 0.180015
O O8 0.000000 0.411953 0.250000
O O9 0.168413 0.217552 0.670454
O O10 0.929135 0.827655 0.819575
O O11 0.029266 0.272051 0.512642
O O12 0.500000 0.755977 0.750000
#
# Coordination Sequence:
#
# PCOD8153984 Si02
#       6
#     8   8   8   4   8   8
#     4  12  25  43  77 119 152 194 252 324 378 453
#     4  11  29  51  74 108 160 207 250 315 387 457
#     4  12  27  47  78 115 152 201 260 314 376 460
#     4  12  22  42  72 116 154 196 242 318 390 446
#     4  12  23  45  76 107 153 199 254 311 390 449
#     4  11  24  47  77 110 150 201 252 311 384 455
#
# _framework density 24.699514000000001
#
# number of rings (size 3 to 8) (size 9 to 14) (size 15 to 20)
#    0.000    0.364    6.364    2.182    2.545    5.091 
#    0.000    2.727    0.000    0.000    0.000    0.000 
#    0.000    0.000    0.000    0.000    0.000    0.000 
#
# Total GULP energy -272751.891621 kJ/mol
# GULP energy per Si atom -12397.813256 kJ/mol
# Density = 2.464330 g / cm^3
# Si number density = 24.699514 Si / 1000 Ang^3
#
#
#
# Elastic Constant Matrix: (Units=GPa)
#
#
# Indices 1 2 3 4 5 6 
#
# 1 118.2665 54.6691 53.4478 0.0000 43.1799 0.0000
# 2 54.6691 130.9686 62.7428 0.0000 31.6498 0.0000
# 3 53.4478 62.7428 164.7072 0.0000 27.2852 0.0000
# 4 0.0000 0.0000 0.0000 35.7332 0.0000 3.1933
# 5 43.1799 31.6498 27.2852 0.0000 44.8503 0.0000
# 6 0.0000 0.0000 0.0000 3.1933 0.0000 21.7594
#
#
#
# Elastic Compliance Matrix: (Units=1/GPa)
#
#
# Indices 1 2 3 4 5 6 
#
# 1 0.014500 -0.002453 -0.001941 0.000000 -0.011049 0.000000
# 2 -0.002453 0.010846 -0.002735 0.000000 -0.003629 0.000000
# 3 -0.001941 -0.002735 0.007911 0.000000 -0.001015 0.000000
# 4 0.000000 0.000000 0.000000 0.028357 0.000000 -0.004162
# 5 -0.011049 -0.003629 -0.001015 0.000000 0.036112 0.000000
# 6 0.000000 0.000000 0.000000 -0.004162 0.000000 0.046568
#
#
# Mechanical properties :
#
#
# Convention : Reuss Voigt Hill
#
# Bulk Modulus (GPa) = 52.62874 83.96241 68.29557
# Shear Modulus (GPa) = 30.32430 36.67409 33.49920
#
# Velocity S-wave (km/s) = 3.50770 3.85750 3.68675
# Velocity P-wave (km/s) = 6.14484 7.34219 6.77004
#
# Compressibility (1/GPa) = 0.01900103
#
# Stress axis : x y z
#
# Youngs Moduli (GPa) = 68.96371 92.19698 126.40782
#
# Poissons Ratio (x) = 0.22616 0.24531
# Poissons Ratio (y) = 0.16917 0.34568
# Poissons Ratio (z) = 0.13383 0.25212
#
# Static dielectric constant tensor:
#      x y z
#    x 4.344480 0.000000 0.165110 
#    y 0.000000 4.542570 0.000000 
#    z 0.165110 0.000000 4.642870 
# 
# 
# High freq. dielectric constant tensor:
#      x y z
#    x 1.964990 0.000000 0.014170 
#    y 0.000000 1.990810 0.000000 
#    z 0.014170 0.000000 1.997030 
# 
# From -- ./inp_files/95049.got.cif
#   From: 2010.06.25/outbox.cif.g09.slc.cpg/sg15_48_cif.got.tgz:95049.got - 2010.06.28 07:06:18.
