data_PCOD8153476
_publ_section_title
;
Structure prediction by ZEFSAII (Michael W. Deem and Ramdas Pophale) SiO2 
 PCOD8153476
Probable space group: C 2/C
;
_chemical_formula_sum "Si O2"
_cell_formula_units_Z 44
_cell_length_a 18.177292
_cell_length_b 8.822016
_cell_length_c 11.325494
_cell_angle_alpha 90.000000
_cell_angle_beta 101.701280
_cell_angle_gamma 90.000000
_cell_volume 1778.417370
_symmetry_space_group_name_H-M "C 2/C"
_symmetry_group_IT_number 15
_symmetry_cell_setting 'monoclinic'
loop_
_space_group_symop_operation_xyz
x,y,z
-x,y,1/2-z
-x,-y,-z
x,-y,1/2+z
1/2+x,1/2+y,z
1/2-x,1/2+y,1/2-z
1/2-x,1/2-y,-z
1/2+x,1/2-y,1/2+z
loop_
_atom_site_type_symbol
_atom_site_label
_atom_site_fract_x
_atom_site_fract_y
_atom_site_fract_z
Si Si1 0.593340 0.622894 0.499993
Si Si2 0.329315 0.273802 0.687699
Si Si3 0.452340 0.821973 0.389487
Si Si4 0.200154 0.906712 0.244264
Si Si5 0.112115 0.207706 0.914519
Si Si6 0.500000 0.910376 0.750000
O O1 0.660457 0.704041 0.448475
O O2 0.518018 0.722237 0.469365
O O3 0.624234 0.618317 0.643022
O O4 0.576699 0.455862 0.440516
O O5 0.415582 0.249023 0.759863
O O6 0.276127 0.133477 0.700292
O O7 0.289758 0.415144 0.736271
O O8 0.384941 0.815268 0.467057
O O9 0.479974 0.989647 0.361015
O O10 0.190367 0.825705 0.370159
O O11 0.067249 0.299857 0.801768
#
# Coordination Sequence:
#
# PCOD8153476 Si02
#       6
#     8   8   8   8   8   4
#     4  11  23  47  75  99 137 185 237 287 347 418
#     4  11  25  45  69 102 139 188 235 281 349 415
#     4  12  24  47  73 104 142 179 235 294 347 409
#     4  11  26  46  69 101 142 188 230 286 346 422
#     4  11  26  43  71 106 138 183 234 282 353 415
#     4  12  26  42  68 110 144 178 230 298 346 402
#
# _framework density 24.741098000000001
#
# number of rings (size 3 to 8) (size 9 to 14) (size 15 to 20)
#    0.000    0.727    3.636    2.727    7.636    0.727 
#    0.000    0.000    0.000    0.000    0.000    0.000 
#    0.000    0.000    0.000    0.000    0.000    0.000 
#
# Total GULP energy -272637.106890 kJ/mol
# GULP energy per Si atom -12392.595768 kJ/mol
# Density = 2.468479 g / cm^3
# Si number density = 24.741098 Si / 1000 Ang^3
#
#
#
# Elastic Constant Matrix: (Units=GPa)
#
#
# Indices 1 2 3 4 5 6 
#
# 1 60.5497 28.9336 2.3059 0.0000 -11.1000 0.0000
# 2 28.9336 70.1953 2.8141 0.0000 -15.8225 0.0000
# 3 2.3059 2.8141 64.6130 0.0000 -17.1199 0.0000
# 4 0.0000 0.0000 0.0000 27.7531 0.0000 -8.4050
# 5 -11.1000 -15.8225 -17.1199 0.0000 23.8083 0.0000
# 6 0.0000 0.0000 0.0000 -8.4050 0.0000 41.2726
#
#
#
# Elastic Compliance Matrix: (Units=1/GPa)
#
#
# Indices 1 2 3 4 5 6 
#
# 1 0.021071 -0.007458 0.001066 0.000000 0.005634 0.000000
# 2 -0.007458 0.019799 0.002432 0.000000 0.011430 0.000000
# 3 0.001066 0.002432 0.019633 0.000000 0.016231 0.000000
# 4 0.000000 0.000000 0.000000 0.038400 0.000000 0.007820
# 5 0.005634 0.011430 0.016231 0.000000 0.063896 0.000000
# 6 0.000000 0.000000 0.000000 0.007820 0.000000 0.025822
#
#
# Mechanical properties :
#
#
# Convention : Reuss Voigt Hill
#
# Bulk Modulus (GPa) = 19.01753 29.27390 24.14571
# Shear Modulus (GPa) = 23.35680 29.32042 26.33861
#
# Velocity S-wave (km/s) = 3.07587 3.44625 3.26631
# Velocity P-wave (km/s) = 4.50754 5.26244 4.89955
#
# Compressibility (1/GPa) = 0.05258307
#
# Stress axis : x y z
#
# Youngs Moduli (GPa) = 47.45758 50.50763 50.93359
#
# Poissons Ratio (x) = 0.37670 -0.05427
# Poissons Ratio (y) = 0.35395 -0.12389
# Poissons Ratio (z) = -0.05057 -0.12285
#
# Static dielectric constant tensor:
#      x y z
#    x 4.067340 0.000000 -0.298930 
#    y 0.000000 4.415460 0.000000 
#    z -0.298930 0.000000 4.634320 
# 
# 
# High freq. dielectric constant tensor:
#      x y z
#    x 1.966840 0.000000 -0.025800 
#    y 0.000000 1.983750 0.000000 
#    z -0.025800 0.000000 1.997410 
# 
# From -- ./inp_files/110094.got.cif
#   From: 2010.06.25/outbox.cif.g09.slc.cpg/sg15_56_cif.got.tgz:110094.got - 2010.06.28 07:06:18.
