data_PCOD8153891
_publ_section_title
;
Structure prediction by ZEFSAII (Michael W. Deem and Ramdas Pophale) SiO2 
 PCOD8153891
Probable space group: C 2/C
;
_chemical_formula_sum "Si O2"
_cell_formula_units_Z 40
_cell_length_a 9.470249
_cell_length_b 18.182669
_cell_length_c 11.720014
_cell_angle_alpha 90.000000
_cell_angle_beta 112.945744
_cell_angle_gamma 90.000000
_cell_volume 1858.435877
_symmetry_space_group_name_H-M "C 2/C"
_symmetry_group_IT_number 15
_symmetry_cell_setting 'monoclinic'
loop_
_space_group_symop_operation_xyz
x,y,z
-x,y,1/2-z
-x,-y,-z
x,-y,1/2+z
1/2+x,1/2+y,z
1/2-x,1/2+y,1/2-z
1/2-x,1/2-y,-z
1/2+x,1/2-y,1/2+z
loop_
_atom_site_type_symbol
_atom_site_label
_atom_site_fract_x
_atom_site_fract_y
_atom_site_fract_z
Si Si1 0.167818 0.353359 0.133048
Si Si2 0.311588 0.440881 0.373956
Si Si3 0.189913 0.330456 0.514786
Si Si4 0.149624 0.202138 0.222601
Si Si5 0.644841 0.405775 0.518621
O O1 0.208760 0.419516 0.232409
O O2 0.231376 0.277512 0.206682
O O3 0.987839 0.342309 0.063083
O O4 0.238799 0.368864 0.032659
O O5 0.278982 0.391597 0.473073
O O6 0.492445 0.431434 0.402876
O O7 0.274605 0.524974 0.394550
O O8 0.250000 0.250000 0.500000
O O9 0.227349 0.341360 0.660662
O O10 0.100650 0.153870 0.099639
O O11 0.000000 0.221617 0.250000
#
# Coordination Sequence:
#
# PCOD8153891 Si02
#       5
#     8   8   8   8   8
#     4  12  25  45  71 105 140 177 239 299 342 416
#     4  11  24  46  71  99 140 190 228 289 358 421
#     4  12  23  44  72 100 133 189 232 283 356 422
#     4  12  23  44  73  95 139 187 233 283 355 426
#     4  11  27  44  71 104 139 182 237 289 353 421
#
# _framework density 21.523475999999999
#
# number of rings (size 3 to 8) (size 9 to 14) (size 15 to 20)
#    0.000    0.400    6.000    1.800    2.800    1.600 
#    7.200    0.000    0.000    0.000    0.000    0.000 
#    0.000    0.000    0.000    0.000    0.000    0.000 
#
# Total GULP energy -248070.595060 kJ/mol
# GULP energy per Si atom -12403.529753 kJ/mol
# Density = 2.147449 g / cm^3
# Si number density = 21.523476 Si / 1000 Ang^3
#
#
#
# Elastic Constant Matrix: (Units=GPa)
#
#
# Indices 1 2 3 4 5 6 
#
# 1 112.0399 51.8732 54.1538 0.0000 1.7304 0.0000
# 2 51.8732 114.3134 38.6225 0.0000 -26.5763 0.0000
# 3 54.1538 38.6225 129.1840 0.0000 0.9625 0.0000
# 4 0.0000 0.0000 0.0000 40.6998 0.0000 -2.3721
# 5 1.7304 -26.5763 0.9625 0.0000 41.4777 0.0000
# 6 0.0000 0.0000 0.0000 -2.3721 0.0000 26.0103
#
#
#
# Elastic Compliance Matrix: (Units=1/GPa)
#
#
# Indices 1 2 3 4 5 6 
#
# 1 0.013577 -0.005812 -0.003923 0.000000 -0.004199 0.000000
# 2 -0.005812 0.014203 -0.001880 0.000000 0.009386 0.000000
# 3 -0.003923 -0.001880 0.009957 0.000000 -0.001272 0.000000
# 4 0.000000 0.000000 0.000000 0.024701 0.000000 0.002253
# 5 -0.004199 0.009386 -0.001272 0.000000 0.030328 0.000000
# 6 0.000000 0.000000 0.000000 0.002253 0.000000 0.038652
#
#
# Mechanical properties :
#
#
# Convention : Reuss Voigt Hill
#
# Bulk Modulus (GPa) = 68.92892 71.64845 70.28869
# Shear Modulus (GPa) = 31.35149 35.69676 33.52412
#
# Velocity S-wave (km/s) = 3.82071 4.07689 3.95088
# Velocity P-wave (km/s) = 7.18041 7.45132 7.31712
#
# Compressibility (1/GPa) = 0.01450770
#
# Stress axis : x y z
#
# Youngs Moduli (GPa) = 73.65344 70.41011 100.43499
#
# Poissons Ratio (x) = 0.40922 0.39396
# Poissons Ratio (y) = 0.42808 0.18879
# Poissons Ratio (z) = 0.28891 0.13235
#
# Static dielectric constant tensor:
#      x y z
#    x 3.831520 0.000000 0.204460 
#    y 0.000000 4.064270 0.000000 
#    z 0.204460 0.000000 4.356580 
# 
# 
# High freq. dielectric constant tensor:
#      x y z
#    x 1.836170 0.000000 0.003840 
#    y 0.000000 1.848600 0.000000 
#    z 0.003840 0.000000 1.858830 
# 
# From -- ./inp_files/76710.got.cif
#   From: 2010.06.25/outbox.cif.g09.slc.cpg/sg15_39_cif.got.tgz:76710.got - 2010.06.28 07:06:18.
