data_PCOD8153893
_publ_section_title
;
Structure prediction by ZEFSAII (Michael W. Deem and Ramdas Pophale) SiO2 
 PCOD8153893
Probable space group: C 2/C
;
_chemical_formula_sum "Si O2"
_cell_formula_units_Z 40
_cell_length_a 7.458233
_cell_length_b 23.815868
_cell_length_c 13.149412
_cell_angle_alpha 90.000000
_cell_angle_beta 129.111458
_cell_angle_gamma 90.000000
_cell_volume 1812.282060
_symmetry_space_group_name_H-M "C 2/C"
_symmetry_group_IT_number 15
_symmetry_cell_setting 'monoclinic'
loop_
_space_group_symop_operation_xyz
x,y,z
-x,y,1/2-z
-x,-y,-z
x,-y,1/2+z
1/2+x,1/2+y,z
1/2-x,1/2+y,1/2-z
1/2-x,1/2-y,-z
1/2+x,1/2-y,1/2+z
loop_
_atom_site_type_symbol
_atom_site_label
_atom_site_fract_x
_atom_site_fract_y
_atom_site_fract_z
Si Si1 0.993659 0.256919 0.367748
Si Si2 0.767086 0.355381 0.727936
Si Si3 0.492560 0.135676 0.979874
Si Si4 0.863146 0.070405 0.006790
Si Si5 0.604644 0.450928 0.396282
O O1 0.250000 0.250000 0.500000
O O2 0.878999 0.309048 0.388641
O O3 0.000000 0.268071 0.250000
O O4 0.846202 0.202904 0.347894
O O5 0.591073 0.406668 0.646216
O O6 0.000000 0.367322 0.750000
O O7 0.819994 0.349723 0.866287
O O8 0.300846 0.096103 0.960458
O O9 0.635564 0.106898 0.940826
O O10 0.796120 0.008648 0.023176
O O11 0.906423 0.071086 0.901320
O O12 0.500000 0.463131 0.250000
#
# Coordination Sequence:
#
# PCOD8153893 Si02
#       5
#     8   8   8   8   8
#     4  12  25  45  72 105 143 192 243 298 363 430
#     4  12  24  46  73 104 140 193 243 294 365 434
#     4  12  25  45  73 101 145 189 237 294 363 431
#     4  11  24  46  72 100 143 185 238 293 364 430
#     4  11  26  44  68 109 140 183 239 299 355 429
#
# _framework density 22.071618000000001
#
# number of rings (size 3 to 8) (size 9 to 14) (size 15 to 20)
#    0.000    0.400    6.000    2.400    2.800    1.600 
#    0.000    0.000    0.000    0.000    0.000    0.000 
#    0.000    0.000    0.000    0.000    0.000    0.000 
#
# Total GULP energy -248099.336178 kJ/mol
# GULP energy per Si atom -12404.966809 kJ/mol
# Density = 2.202138 g / cm^3
# Si number density = 22.071618 Si / 1000 Ang^3
#
#
#
# Elastic Constant Matrix: (Units=GPa)
#
#
# Indices 1 2 3 4 5 6 
#
# 1 99.3565 53.4670 30.4443 0.0000 -13.0124 0.0000
# 2 53.4670 145.3148 20.3716 0.0000 4.1127 0.0000
# 3 30.4443 20.3716 73.2974 0.0000 -20.5879 0.0000
# 4 0.0000 0.0000 0.0000 22.6809 0.0000 2.7324
# 5 -13.0124 4.1127 -20.5879 0.0000 39.7813 0.0000
# 6 0.0000 0.0000 0.0000 2.7324 0.0000 46.0493
#
#
#
# Elastic Compliance Matrix: (Units=1/GPa)
#
#
# Indices 1 2 3 4 5 6 
#
# 1 0.014193 -0.004803 -0.003647 0.000000 0.003252 0.000000
# 2 -0.004803 0.008935 -0.001391 0.000000 -0.003215 0.000000
# 3 -0.003647 -0.001391 0.017844 0.000000 0.008186 0.000000
# 4 0.000000 0.000000 0.000000 0.044407 0.000000 -0.002635
# 5 0.003252 -0.003215 0.008186 0.000000 0.030770 0.000000
# 6 0.000000 0.000000 0.000000 -0.002635 0.000000 0.021872
#
#
# Mechanical properties :
#
#
# Convention : Reuss Voigt Hill
#
# Bulk Modulus (GPa) = 46.97230 58.50381 52.73805
# Shear Modulus (GPa) = 30.34008 35.94802 33.14405
#
# Velocity S-wave (km/s) = 3.71161 4.04009 3.87933
# Velocity P-wave (km/s) = 6.30048 6.95176 6.63412
#
# Compressibility (1/GPa) = 0.02128914
#
# Stress axis : x y z
#
# Youngs Moduli (GPa) = 70.45934 111.92206 56.04239
#
# Poissons Ratio (x) = 0.53754 0.20437
# Poissons Ratio (y) = 0.33840 0.07798
# Poissons Ratio (z) = 0.25695 0.15573
#
# Static dielectric constant tensor:
#      x y z
#    x 3.900560 0.000000 0.043820 
#    y 0.000000 4.351510 0.000000 
#    z 0.043820 0.000000 3.495820 
# 
# 
# High freq. dielectric constant tensor:
#      x y z
#    x 1.878060 0.000000 -0.013090 
#    y 0.000000 1.883430 0.000000 
#    z -0.013090 0.000000 1.862980 
# 
# From -- ./inp_files/137624.got.cif
#   From: 2010.06.25/outbox.cif.g09.slc.cpg/sg15_69_cif.got.tgz:137624.got - 2010.06.28 07:06:18.
