data_PCOD8153398
_publ_section_title
;
Structure prediction by ZEFSAII (Michael W. Deem and Ramdas Pophale) SiO2 
 PCOD8153398
Probable space group: C 2/C
;
_chemical_formula_sum "Si O2"
_cell_formula_units_Z 44
_cell_length_a 6.430750
_cell_length_b 26.136939
_cell_length_c 12.619238
_cell_angle_alpha 90.000000
_cell_angle_beta 69.637637
_cell_angle_gamma 90.000000
_cell_volume 1988.500677
_symmetry_space_group_name_H-M "C 2/C"
_symmetry_group_IT_number 15
_symmetry_cell_setting 'monoclinic'
loop_
_space_group_symop_operation_xyz
x,y,z
-x,y,1/2-z
-x,-y,-z
x,-y,1/2+z
1/2+x,1/2+y,z
1/2-x,1/2+y,1/2-z
1/2-x,1/2-y,-z
1/2+x,1/2-y,1/2+z
loop_
_atom_site_type_symbol
_atom_site_label
_atom_site_fract_x
_atom_site_fract_y
_atom_site_fract_z
Si Si1 0.500000 0.874644 0.250000
Si Si2 0.490195 0.805743 0.045981
Si Si3 0.645655 0.138378 0.126954
Si Si4 0.892361 0.954756 0.158662
Si Si5 0.170238 0.468943 0.546324
Si Si6 0.976837 0.198095 0.375506
O O1 0.465511 0.840171 0.153980
O O2 0.730693 0.906190 0.199584
O O3 0.424303 0.747357 0.080426
O O4 0.337618 0.826528 0.979899
O O5 0.731778 0.812181 0.955173
O O6 0.500000 0.160414 0.250000
O O7 0.555801 0.081864 0.113249
O O8 0.896671 0.144577 0.124249
O O9 0.000000 0.973063 0.250000
O O10 0.734194 0.997547 0.136229
O O11 0.107578 0.946581 0.047341
O O12 0.000000 0.500000 0.500000
O O13 0.000000 0.213041 0.250000
#
# Coordination Sequence:
#
# PCOD8153398 Si02
#       6
#     4   8   8   8   8   8
#     4  12  24  44  72 104 144 190 240 294 364 434
#     4  11  24  44  71  99 142 182 229 293 351 432
#     4  12  25  41  69 100 134 177 231 289 346 424
#     4  11  24  43  68  97 137 181 242 294 350 425
#     4  11  26  45  66  99 139 186 239 295 359 428
#     4  11  23  46  67 103 140 182 233 284 361 427
#
# _framework density 22.127222
#
# number of rings (size 3 to 8) (size 9 to 14) (size 15 to 20)
#    0.000    0.727    2.727    4.909    3.818    2.182 
#    0.000    0.909    0.000    0.000    0.000    0.000 
#    0.000    0.000    0.000    0.000    0.000    0.000 
#
# Total GULP energy -272613.819710 kJ/mol
# GULP energy per Si atom -12391.537260 kJ/mol
# Density = 2.207686 g / cm^3
# Si number density = 22.127222 Si / 1000 Ang^3
#
#
#
# Elastic Constant Matrix: (Units=GPa)
#
#
# Indices 1 2 3 4 5 6 
#
# 1 87.7967 26.5808 16.5941 0.0000 2.5774 0.0000
# 2 26.5808 51.8751 7.9323 0.0000 -10.2182 0.0000
# 3 16.5941 7.9323 108.9279 0.0000 -0.2969 0.0000
# 4 0.0000 0.0000 0.0000 26.2633 0.0000 15.7761
# 5 2.5774 -10.2182 -0.2969 0.0000 39.8630 0.0000
# 6 0.0000 0.0000 0.0000 15.7761 0.0000 37.4924
#
#
#
# Elastic Compliance Matrix: (Units=1/GPa)
#
#
# Indices 1 2 3 4 5 6 
#
# 1 0.014052 -0.007516 -0.001601 0.000000 -0.002847 0.000000
# 2 -0.007516 0.024559 -0.000625 0.000000 0.006776 0.000000
# 3 -0.001601 -0.000625 0.009470 0.000000 0.000014 0.000000
# 4 0.000000 0.000000 0.000000 0.050955 0.000000 -0.021441
# 5 -0.002847 0.006776 0.000014 0.000000 0.027007 0.000000
# 6 0.000000 0.000000 0.000000 -0.021441 0.000000 0.035694
#
#
# Mechanical properties :
#
#
# Convention : Reuss Voigt Hill
#
# Bulk Modulus (GPa) = 34.96985 38.97936 36.97461
# Shear Modulus (GPa) = 26.21195 33.88992 30.05093
#
# Velocity S-wave (km/s) = 3.44554 3.91780 3.68924
# Velocity P-wave (km/s) = 5.62737 6.17413 5.90708
#
# Compressibility (1/GPa) = 0.02859606
#
# Stress axis : x y z
#
# Youngs Moduli (GPa) = 71.16602 40.71886 105.59844
#
# Poissons Ratio (x) = 0.30604 0.16907
# Poissons Ratio (y) = 0.53489 0.06599
# Poissons Ratio (z) = 0.11394 0.02545
#
# Static dielectric constant tensor:
#      x y z
#    x 4.041970 0.000000 0.080170 
#    y 0.000000 3.943650 0.000000 
#    z 0.080170 0.000000 4.178740 
# 
# 
# High freq. dielectric constant tensor:
#      x y z
#    x 1.873440 0.000000 0.003830 
#    y 0.000000 1.867670 0.000000 
#    z 0.003830 0.000000 1.896960 
# 
# From -- ./inp_files/73846.got.cif
#   From: 2010.06.25/outbox.cif.g09.slc.cpg/sg15_37_cif.got.tgz:73846.got - 2010.06.28 07:06:18.
