data_PCOD8153808
_publ_section_title
;
Structure prediction by ZEFSAII (Michael W. Deem and Ramdas Pophale) SiO2 
 PCOD8153808
Probable space group: C 2/C
;
_chemical_formula_sum "Si O2"
_cell_formula_units_Z 36
_cell_length_a 5.202921
_cell_length_b 19.372162
_cell_length_c 16.210805
_cell_angle_alpha 90.000000
_cell_angle_beta 80.634775
_cell_angle_gamma 90.000000
_cell_volume 1612.138379
_symmetry_space_group_name_H-M "C 2/C"
_symmetry_group_IT_number 15
_symmetry_cell_setting 'monoclinic'
loop_
_space_group_symop_operation_xyz
x,y,z
-x,y,1/2-z
-x,-y,-z
x,-y,1/2+z
1/2+x,1/2+y,z
1/2-x,1/2+y,1/2-z
1/2-x,1/2-y,-z
1/2+x,1/2-y,1/2+z
loop_
_atom_site_type_symbol
_atom_site_label
_atom_site_fract_x
_atom_site_fract_y
_atom_site_fract_z
Si Si1 0.500000 0.517352 0.250000
Si Si2 0.652259 0.897302 0.326484
Si Si3 0.469915 0.920349 0.508351
Si Si4 0.584845 0.384436 0.891757
Si Si5 0.264451 0.748785 0.200131
O O1 0.324734 0.467058 0.316486
O O2 0.350435 0.567415 0.192217
O O3 0.500000 0.898639 0.250000
O O4 0.459350 0.894299 0.414635
O O5 0.814221 0.825619 0.327866
O O6 0.730772 0.898447 0.541369
O O7 0.215838 0.895037 0.569326
O O8 0.500000 0.000000 0.500000
O O9 0.628148 0.303565 0.873458
O O10 0.500000 0.758268 0.250000
O O11 0.000000 0.715327 0.250000
#
# Coordination Sequence:
#
# PCOD8153808 Si02
#       5
#     4   8   8   8   8
#     4  12  24  44  74 104 130 196 230 284 350 426
#     4  11  26  44  73  98 143 185 235 284 356 416
#     4  12  26  45  68 106 140 179 233 298 339 409
#     4  12  27  43  73 102 141 180 235 286 349 411
#     4  11  24  45  70 104 140 185 232 287 343 419
#
# _framework density 22.330590999999998
#
# number of rings (size 3 to 8) (size 9 to 14) (size 15 to 20)
#    0.000    0.444    4.444    3.333    3.111    1.778 
#    0.000    0.000    0.000    0.000    0.000    0.000 
#    0.000    0.000    0.000    0.000    0.000    0.000 
#
# Total GULP energy -223055.886184 kJ/mol
# GULP energy per Si atom -12391.993677 kJ/mol
# Density = 2.227977 g / cm^3
# Si number density = 22.330591 Si / 1000 Ang^3
#
#
#
# Elastic Constant Matrix: (Units=GPa)
#
#
# Indices 1 2 3 4 5 6 
#
# 1 94.7132 15.1885 29.9175 0.0000 -4.5727 0.0000
# 2 15.1885 123.5480 49.1816 0.0000 3.6680 0.0000
# 3 29.9175 49.1816 129.7076 0.0000 2.2793 0.0000
# 4 0.0000 0.0000 0.0000 92.1608 0.0000 2.2037
# 5 -4.5727 3.6680 2.2793 0.0000 46.1961 0.0000
# 6 0.0000 0.0000 0.0000 2.2037 0.0000 30.2932
#
#
#
# Elastic Compliance Matrix: (Units=1/GPa)
#
#
# Indices 1 2 3 4 5 6 
#
# 1 0.011483 -0.000456 -0.002499 0.000000 0.001296 0.000000
# 2 -0.000456 0.009566 -0.003511 0.000000 -0.000631 0.000000
# 3 -0.002499 -0.003511 0.009625 0.000000 -0.000443 0.000000
# 4 0.000000 0.000000 0.000000 0.010870 0.000000 -0.000791
# 5 0.001296 -0.000631 -0.000443 0.000000 0.021847 0.000000
# 6 0.000000 0.000000 0.000000 -0.000791 0.000000 0.033068
#
#
# Mechanical properties :
#
#
# Convention : Reuss Voigt Hill
#
# Bulk Modulus (GPa) = 56.35726 59.61601 57.98663
# Shear Modulus (GPa) = 43.36328 50.64210 47.00269
#
# Velocity S-wave (km/s) = 4.41145 4.76735 4.59285
# Velocity P-wave (km/s) = 7.15824 7.55370 7.35863
#
# Compressibility (1/GPa) = 0.01774394
#
# Stress axis : x y z
#
# Youngs Moduli (GPa) = 87.08465 104.53151 103.89480
#
# Poissons Ratio (x) = 0.04761 0.25960
# Poissons Ratio (y) = 0.03967 0.36479
# Poissons Ratio (z) = 0.21760 0.36703
#
# Static dielectric constant tensor:
#      x y z
#    x 3.712390 0.000000 -0.058830 
#    y 0.000000 4.490140 0.000000 
#    z -0.058830 0.000000 3.872640 
# 
# 
# High freq. dielectric constant tensor:
#      x y z
#    x 1.872320 0.000000 -0.002160 
#    y 0.000000 1.903800 0.000000 
#    z -0.002160 0.000000 1.882050 
# 
# From -- ./inp_files/128684.got.cif
#   From: 2010.06.25/outbox.cif.g09.slc.cpg/sg15_65_cif.got.tgz:128684.got - 2010.06.28 07:06:18.
