data_PCOD8153538
_publ_section_title
;
Structure prediction by ZEFSAII (Michael W. Deem and Ramdas Pophale) SiO2 
 PCOD8153538
Probable space group: C 2/C
;
_chemical_formula_sum "Si O2"
_cell_formula_units_Z 60
_cell_length_a 16.154768
_cell_length_b 6.466930
_cell_length_c 28.780916
_cell_angle_alpha 90.000000
_cell_angle_beta 75.613923
_cell_angle_gamma 90.000000
_cell_volume 2912.510468
_symmetry_space_group_name_H-M "C 2/C"
_symmetry_group_IT_number 15
_symmetry_cell_setting 'monoclinic'
loop_
_space_group_symop_operation_xyz
x,y,z
-x,y,1/2-z
-x,-y,-z
x,-y,1/2+z
1/2+x,1/2+y,z
1/2-x,1/2+y,1/2-z
1/2-x,1/2-y,-z
1/2+x,1/2-y,1/2+z
loop_
_atom_site_type_symbol
_atom_site_label
_atom_site_fract_x
_atom_site_fract_y
_atom_site_fract_z
Si Si1 0.339104 0.848294 0.974098
Si Si2 0.592741 0.865445 0.197137
Si Si3 0.424995 0.375385 0.711375
Si Si4 0.863080 0.564920 0.064904
Si Si5 0.502075 0.591005 0.550693
Si Si6 0.500000 0.244423 0.250000
Si Si7 0.728279 0.106248 0.598599
Si Si8 0.124524 0.168558 0.381430
O O1 0.402678 0.665007 0.948773
O O2 0.329094 0.017103 0.935044
O O3 0.250000 0.750000 0.000000
O O4 0.379973 0.954843 0.013499
O O5 0.621434 0.746318 0.240159
O O6 0.512535 0.743984 0.186523
O O7 0.670955 0.857515 0.151442
O O8 0.565856 0.101864 0.211818
O O9 0.445514 0.612035 0.722456
O O10 0.363487 0.368557 0.675256
O O11 0.771100 0.678565 0.076758
O O12 0.865326 0.408048 0.107765
O O13 0.940349 0.715552 0.063879
O O14 0.500000 0.500000 0.500000
O O15 0.469473 0.414705 0.590678
O O16 0.802973 0.946997 0.599754
#
# Coordination Sequence:
#
# PCOD8153538 Si02
#       8
#     8   8   8   8   8   4   8   8
#     4  12  23  43  64  92 129 167 206 267 311 369
#     4   9  21  40  62  96 118 160 217 255 314 376
#     4   9  21  40  64  91 124 163 209 258 315 381
#     4  11  24  44  61  89 136 166 207 260 315 372
#     4  11  24  41  65  94 124 166 219 253 312 385
#     4   8  18  40  66  88 126 154 206 270 314 368
#     4  11  25  40  62  95 126 166 215 257 315 382
#     4  11  24  42  61  93 128 169 209 257 317 381
#
# _framework density 20.600785999999999
#
# number of rings (size 3 to 8) (size 9 to 14) (size 15 to 20)
#    0.000    1.867    2.667    1.600    3.733    6.400 
#    4.800    0.000    0.000    0.000    0.000    0.000 
#    0.000    0.000    0.000    0.000    0.000    0.000 
#
# Total GULP energy -372068.605298 kJ/mol
# GULP energy per Si atom -12402.286843 kJ/mol
# Density = 2.055390 g / cm^3
# Si number density = 20.600786 Si / 1000 Ang^3
#
#
#
# Elastic Constant Matrix: (Units=GPa)
#
#
# Indices 1 2 3 4 5 6 
#
# 1 72.9708 24.7354 19.2501 -0.0004 -12.1338 -0.0005
# 2 24.7354 111.4055 21.7073 -0.0012 -3.2791 -0.0012
# 3 19.2501 21.7073 97.8152 -0.0007 0.0451 -0.0005
# 4 -0.0004 -0.0012 -0.0007 26.8187 -0.0004 0.5685
# 5 -12.1338 -3.2791 0.0451 -0.0004 47.9576 -0.0003
# 6 -0.0005 -0.0012 -0.0005 0.5685 -0.0003 29.7389
#
#
#
# Elastic Compliance Matrix: (Units=1/GPa)
#
#
# Indices 1 2 3 4 5 6 
#
# 1 0.016004 -0.002954 -0.002496 0.000000 0.003850 0.000000
# 2 -0.002954 0.009947 -0.001626 0.000000 -0.000066 0.000000
# 3 -0.002496 -0.001626 0.011076 0.000000 -0.000753 0.000000
# 4 0.000000 0.000000 0.000000 0.037303 0.000000 -0.000713
# 5 0.003850 -0.000066 -0.000753 0.000000 0.021822 0.000000
# 6 0.000000 0.000000 0.000000 -0.000713 0.000000 0.033640
#
#
# Mechanical properties :
#
#
# Convention : Reuss Voigt Hill
#
# Bulk Modulus (GPa) = 43.71545 45.95300 44.83423
# Shear Modulus (GPa) = 32.98869 35.33629 34.16249
#
# Velocity S-wave (km/s) = 4.00601 4.14610 4.07665
# Velocity P-wave (km/s) = 6.53175 6.72867 6.63094
#
# Compressibility (1/GPa) = 0.02287521
#
# Stress axis : x y z
#
# Youngs Moduli (GPa) = 62.48488 100.53334 90.28725
#
# Poissons Ratio (x) = 0.29695 0.22534
# Poissons Ratio (y) = 0.18456 0.14682
# Poissons Ratio (z) = 0.15595 0.16348
#
# Static dielectric constant tensor:
#      x y z
#    x 2.439400 -0.000110 1.598350 
#    y -0.000110 3.520780 0.000150 
#    z 1.598350 0.000150 1.512090 
# 
# 
# High freq. dielectric constant tensor:
#      x y z
#    x 1.792720 0.000000 -0.001550 
#    y 0.000000 1.819320 0.000000 
#    z -0.001550 0.000000 1.805930 
# 
# From -- ./inp_files/314866.got.cif
#   From: 2010.06.25/outbox.cif.g09.slc.cpg/sg15_158_cif.got.tgz:314866.got - 2010.06.28 07:06:18.
