data_PCOD8153908
_publ_section_title
;
Structure prediction by ZEFSAII (Michael W. Deem and Ramdas Pophale) SiO2 
 PCOD8153908
Probable space group: C 2/C
;
_chemical_formula_sum "Si O2"
_cell_formula_units_Z 40
_cell_length_a 21.133308
_cell_length_b 7.767199
_cell_length_c 11.082803
_cell_angle_alpha 90.000000
_cell_angle_beta 74.882018
_cell_angle_gamma 90.000000
_cell_volume 1756.243361
_symmetry_space_group_name_H-M "C 2/C"
_symmetry_group_IT_number 15
_symmetry_cell_setting 'monoclinic'
loop_
_space_group_symop_operation_xyz
x,y,z
-x,y,1/2-z
-x,-y,-z
x,-y,1/2+z
1/2+x,1/2+y,z
1/2-x,1/2+y,1/2-z
1/2-x,1/2-y,-z
1/2+x,1/2-y,1/2+z
loop_
_atom_site_type_symbol
_atom_site_label
_atom_site_fract_x
_atom_site_fract_y
_atom_site_fract_z
Si Si1 0.568596 0.570934 0.009890
Si Si2 0.362446 0.238306 0.449750
Si Si3 0.569769 0.089447 0.664347
Si Si4 0.315231 0.222911 0.736880
Si Si5 0.320867 0.393704 0.238156
O O1 0.615490 0.626837 0.876968
O O2 0.500000 0.500000 0.000000
O O3 0.596359 0.413923 0.073614
O O4 0.558333 0.737096 0.096410
O O5 0.317575 0.230802 0.590270
O O6 0.321555 0.252684 0.345560
O O7 0.407042 0.067720 0.430949
O O8 0.500000 0.031803 0.750000
O O9 0.623968 0.114673 0.741870
O O10 0.318183 0.413182 0.792512
O O11 0.245330 0.139607 0.807125
#
# Coordination Sequence:
#
# PCOD8153908 Si02
#       5
#     8   8   8   8   8
#     4  11  27  47  73 101 143 190 239 290 354 419
#     4  11  26  46  71 103 141 186 235 291 356 420
#     4  12  27  45  73 104 142 186 240 293 352 421
#     4  11  25  46  70 107 142 182 240 285 357 427
#     4  11  24  46  73 102 146 187 229 299 352 415
#
# _framework density 22.775887000000001
#
# number of rings (size 3 to 8) (size 9 to 14) (size 15 to 20)
#    0.000    0.800    2.000    4.200    8.400    4.000 
#    0.000    0.000    0.000    0.000    0.000    0.000 
#    0.000    0.000    0.000    0.000    0.000    0.000 
#
# Total GULP energy -248026.750975 kJ/mol
# GULP energy per Si atom -12401.337549 kJ/mol
# Density = 2.272405 g / cm^3
# Si number density = 22.775887 Si / 1000 Ang^3
#
#
#
# Elastic Constant Matrix: (Units=GPa)
#
#
# Indices 1 2 3 4 5 6 
#
# 1 153.0498 19.7870 52.1795 0.0000 -17.6245 0.0000
# 2 19.7870 123.6709 31.6777 0.0000 -7.6234 0.0000
# 3 52.1795 31.6777 89.6117 0.0000 -5.0609 0.0000
# 4 0.0000 0.0000 0.0000 28.5854 0.0000 -2.8967
# 5 -17.6245 -7.6234 -5.0609 0.0000 34.0717 0.0000
# 6 0.0000 0.0000 0.0000 -2.8967 0.0000 34.2811
#
#
#
# Elastic Compliance Matrix: (Units=1/GPa)
#
#
# Indices 1 2 3 4 5 6 
#
# 1 0.008600 0.000092 -0.004828 0.000000 0.003752 0.000000
# 2 0.000092 0.008972 -0.003136 0.000000 0.001589 0.000000
# 3 -0.004828 -0.003136 0.015025 0.000000 -0.000967 0.000000
# 4 0.000000 0.000000 0.000000 0.035285 0.000000 0.002982
# 5 0.003752 0.001589 -0.000967 0.000000 0.031503 0.000000
# 6 0.000000 0.000000 0.000000 0.002982 0.000000 0.029423
#
#
# Mechanical properties :
#
#
# Convention : Reuss Voigt Hill
#
# Bulk Modulus (GPa) = 59.33562 63.73562 61.53562
# Shear Modulus (GPa) = 33.29588 36.90019 35.09804
#
# Velocity S-wave (km/s) = 3.82762 4.02947 3.92984
# Velocity P-wave (km/s) = 6.75594 7.04935 6.90420
#
# Compressibility (1/GPa) = 0.01685328
#
# Stress axis : x y z
#
# Youngs Moduli (GPa) = 116.27737 111.45309 66.55788
#
# Poissons Ratio (x) = -0.01026 0.32137
# Poissons Ratio (y) = -0.01070 0.20870
# Poissons Ratio (z) = 0.56143 0.34947
#
# Static dielectric constant tensor:
#      x y z
#    x 4.229750 0.000000 -0.023720 
#    y 0.000000 4.313050 0.000000 
#    z -0.023720 0.000000 3.833300 
# 
# 
# High freq. dielectric constant tensor:
#      x y z
#    x 1.911690 0.000000 -0.003390 
#    y 0.000000 1.916090 0.000000 
#    z -0.003390 0.000000 1.885440 
# 
# From -- ./inp_files/109574.got.cif
#   From: 2010.06.25/outbox.cif.g09.slc.cpg/sg15_55_cif.got.tgz:109574.got - 2010.06.28 07:06:18.
