data_PCOD8153758
_publ_section_title
;
Structure prediction by ZEFSAII (Michael W. Deem and Ramdas Pophale) SiO2 
 PCOD8153758
Probable space group: C 2/C
;
_chemical_formula_sum "Si O2"
_cell_formula_units_Z 44
_cell_length_a 13.091016
_cell_length_b 6.458950
_cell_length_c 26.971549
_cell_angle_alpha 90.000000
_cell_angle_beta 61.339470
_cell_angle_gamma 90.000000
_cell_volume 2001.136874
_symmetry_space_group_name_H-M "C 2/C"
_symmetry_group_IT_number 15
_symmetry_cell_setting 'monoclinic'
loop_
_space_group_symop_operation_xyz
x,y,z
-x,y,1/2-z
-x,-y,-z
x,-y,1/2+z
1/2+x,1/2+y,z
1/2-x,1/2+y,1/2-z
1/2-x,1/2-y,-z
1/2+x,1/2-y,1/2+z
loop_
_atom_site_type_symbol
_atom_site_label
_atom_site_fract_x
_atom_site_fract_y
_atom_site_fract_z
Si Si1 0.500000 0.235333 0.250000
Si Si2 0.726356 0.038014 0.154096
Si Si3 0.451749 0.564991 0.659647
Si Si4 0.146883 0.765903 0.595418
Si Si5 0.963165 0.595169 0.435793
Si Si6 0.326042 0.891902 0.060752
O O1 0.606513 0.094688 0.208230
O O2 0.549167 0.375706 0.282713
O O3 0.821611 0.987051 0.173289
O O4 0.763671 0.213178 0.106190
O O5 0.707436 0.825688 0.129799
O O6 0.520535 0.352273 0.638217
O O7 0.516308 0.742916 0.612847
O O8 0.124239 0.589240 0.559869
O O9 0.231343 0.951990 0.558750
O O10 0.899927 0.704613 0.497646
O O11 0.088319 0.510958 0.422285
#
# Coordination Sequence:
#
# PCOD8153758 Si02
#       6
#     4   8   8   8   8   8
#     4  12  28  50  70 102 134 192 240 300 352 398
#     4  12  27  47  73 106 141 183 241 291 350 420
#     4  12  27  47  73 106 141 183 241 291 350 420
#     4  12  23  45  74 104 142 185 231 286 348 420
#     4  11  24  44  74 111 147 184 229 285 355 427
#     4  11  24  44  74 111 147 184 229 285 355 427
#
# _framework density 21.987501000000002
#
# number of rings (size 3 to 8) (size 9 to 14) (size 15 to 20)
#    0.000    0.364    7.273    0.545    0.000   10.182 
#    0.000    0.000    0.000    0.000    0.000    0.000 
#    0.000    0.000    0.000    0.000    0.000    0.000 
#
# Total GULP energy -272826.299115 kJ/mol
# GULP energy per Si atom -12401.195414 kJ/mol
# Density = 2.193746 g / cm^3
# Si number density = 21.987501 Si / 1000 Ang^3
#
#
#
# Elastic Constant Matrix: (Units=GPa)
#
#
# Indices 1 2 3 4 5 6 
#
# 1 124.2498 15.5235 12.4208 0.0001 -14.6087 -0.0001
# 2 15.5235 61.0653 23.8459 0.0001 -7.7582 -0.0002
# 3 12.4208 23.8459 106.7960 0.0002 -13.3702 0.0001
# 4 0.0001 0.0001 0.0002 2.1615 0.0000 -1.4306
# 5 -14.6087 -7.7582 -13.3702 0.0000 27.3018 0.0001
# 6 -0.0001 -0.0002 0.0001 -1.4306 0.0001 49.0389
#
#
#
# Elastic Compliance Matrix: (Units=1/GPa)
#
#
# Indices 1 2 3 4 5 6 
#
# 1 0.008755 -0.001647 -0.000131 0.000000 0.004153 0.000000
# 2 -0.001647 0.018541 -0.003621 -0.000001 0.002614 0.000000
# 3 -0.000131 -0.003621 0.010706 -0.000001 0.004144 0.000000
# 4 0.000000 -0.000001 -0.000001 0.471744 -0.000002 0.013762
# 5 0.004153 0.002614 0.004144 -0.000002 0.041622 0.000000
# 6 0.000000 0.000000 0.000000 0.013762 0.000000 0.020793
#
#
# Mechanical properties :
#
#
# Convention : Reuss Voigt Hill
#
# Bulk Modulus (GPa) = 36.75818 43.96572 40.36195
# Shear Modulus (GPa) = 8.44555 31.72183 20.08369
#
# Velocity S-wave (km/s) = 1.96199 3.80244 3.02555
# Velocity P-wave (km/s) = 4.67831 6.27034 5.53190
#
# Compressibility (1/GPa) = 0.02720483
#
# Stress axis : x y z
#
# Youngs Moduli (GPa) = 114.21498 53.93532 93.40393
#
# Poissons Ratio (x) = 0.08884 0.01220
# Poissons Ratio (y) = 0.18812 0.33822
# Poissons Ratio (z) = 0.01492 0.19530
#
# Static dielectric constant tensor:
#      x y z
#    x 4.298200 0.000000 0.040220 
#    y 0.000000 3.888820 0.000000 
#    z 0.040220 0.000000 3.890190 
# 
# 
# High freq. dielectric constant tensor:
#      x y z
#    x 1.896030 0.000000 -0.000380 
#    y 0.000000 1.861420 0.000000 
#    z -0.000380 0.000000 1.859430 
# 
# From -- ./inp_files/260413.got.cif
#   From: 2010.06.25/outbox.cif.g09.slc.cpg/sg15_131_cif.got.tgz:260413.got - 2010.06.28 07:06:18.
