data_PCOD8153685
_publ_section_title
;
Structure prediction by ZEFSAII (Michael W. Deem and Ramdas Pophale) SiO2 
 PCOD8153685
Probable space group: C 2/C
;
_chemical_formula_sum "Si O2"
_cell_formula_units_Z 40
_cell_length_a 21.051865
_cell_length_b 8.742564
_cell_length_c 9.403308
_cell_angle_alpha 90.000000
_cell_angle_beta 84.667282
_cell_angle_gamma 90.000000
_cell_volume 1723.162600
_symmetry_space_group_name_H-M "C 2/C"
_symmetry_group_IT_number 15
_symmetry_cell_setting 'monoclinic'
loop_
_space_group_symop_operation_xyz
x,y,z
-x,y,1/2-z
-x,-y,-z
x,-y,1/2+z
1/2+x,1/2+y,z
1/2-x,1/2+y,1/2-z
1/2-x,1/2-y,-z
1/2+x,1/2-y,1/2+z
loop_
_atom_site_type_symbol
_atom_site_label
_atom_site_fract_x
_atom_site_fract_y
_atom_site_fract_z
Si Si1 0.955966 0.469396 0.142063
Si Si2 0.637199 0.430882 0.077048
Si Si3 0.935466 0.113991 0.189454
Si Si4 0.266266 0.080144 0.035327
Si Si5 0.163306 0.601672 0.204799
O O1 0.940369 0.294439 0.177963
O O2 0.890032 0.558230 0.166948
O O3 0.000000 0.544429 0.250000
O O4 0.000000 0.500000 0.000000
O O5 0.621344 0.559945 0.196552
O O6 0.707647 0.469578 0.005632
O O7 0.642587 0.264014 0.145659
O O8 0.582884 0.443228 0.965441
O O9 0.000000 0.045528 0.250000
O O10 0.275775 0.090059 0.204159
O O11 0.250000 0.250000 0.000000
O O12 0.326246 0.013924 0.930282
#
# Coordination Sequence:
#
# PCOD8153685 Si02
#       5
#     8   8   8   8   8
#     4  11  24  44  67  95 130 173 221 272 328 392
#     4  12  25  44  68 101 137 176 223 277 335 399
#     4  11  25  44  68  98 136 178 224 276 334 399
#     4  12  25  44  68  99 136 179 224 276 336 402
#     4  12  25  44  70  99 135 178 225 279 336 398
#
# _framework density 23.213131000000001
#
# number of rings (size 3 to 8) (size 9 to 14) (size 15 to 20)
#    0.000    0.400    0.000    9.600    0.000    7.200 
#    0.000    0.000    0.000    0.000    0.000    0.000 
#    0.000    0.000    0.000    0.000    0.000    0.000 
#
# Total GULP energy -247771.061478 kJ/mol
# GULP energy per Si atom -12388.553074 kJ/mol
# Density = 2.316030 g / cm^3
# Si number density = 23.213131 Si / 1000 Ang^3
#
#
#
# Elastic Constant Matrix: (Units=GPa)
#
#
# Indices 1 2 3 4 5 6 
#
# 1 107.0114 46.8961 66.0305 0.0000 4.1003 0.0000
# 2 46.8961 126.5960 67.4605 0.0000 -15.8513 0.0000
# 3 66.0305 67.4605 169.5839 0.0000 11.2548 0.0000
# 4 0.0000 0.0000 0.0000 38.0429 0.0000 -7.0645
# 5 4.1003 -15.8513 11.2548 0.0000 66.6741 0.0000
# 6 0.0000 0.0000 0.0000 -7.0645 0.0000 31.5830
#
#
#
# Elastic Compliance Matrix: (Units=1/GPa)
#
#
# Indices 1 2 3 4 5 6 
#
# 1 0.013023 -0.002861 -0.003878 0.000000 -0.000827 0.000000
# 2 -0.002861 0.011325 -0.003622 0.000000 0.003480 0.000000
# 3 -0.003878 -0.003622 0.008989 0.000000 -0.002140 0.000000
# 4 0.000000 0.000000 0.000000 0.027425 0.000000 0.006134
# 5 -0.000827 0.003480 -0.002140 0.000000 0.016238 0.000000
# 6 0.000000 0.000000 0.000000 0.006134 0.000000 0.033035
#
#
# Mechanical properties :
#
#
# Convention : Reuss Voigt Hill
#
# Bulk Modulus (GPa) = 79.26717 84.88503 82.07610
# Shear Modulus (GPa) = 37.04747 42.11363 39.58055
#
# Velocity S-wave (km/s) = 3.99929 4.26398 4.13376
# Velocity P-wave (km/s) = 7.45302 7.80315 7.63009
#
# Compressibility (1/GPa) = 0.01261556
#
# Stress axis : x y z
#
# Youngs Moduli (GPa) = 76.78650 88.30155 111.24230
#
# Poissons Ratio (x) = 0.25267 0.43136
# Poissons Ratio (y) = 0.21972 0.40290
# Poissons Ratio (z) = 0.29775 0.31981
#
# Static dielectric constant tensor:
#      x y z
#    x 4.997110 0.000000 -0.016520 
#    y 0.000000 4.075560 0.000000 
#    z -0.016520 0.000000 4.138140 
# 
# 
# High freq. dielectric constant tensor:
#      x y z
#    x 1.933570 0.000000 0.011160 
#    y 0.000000 1.911920 0.000000 
#    z 0.011160 0.000000 1.938210 
# 
# From -- ./inp_files/59881.got.cif
#   From: 2010.06.25/outbox.cif.g09.slc.cpg/sg15_30_cif.got.tgz:59881.got - 2010.06.28 07:06:18.
