data_PCOD8153127
_publ_section_title
;
Structure prediction by ZEFSAII (Michael W. Deem and Ramdas Pophale) SiO2 
 PCOD8153127
Probable space group: C 2/C
;
_chemical_formula_sum "Si O2"
_cell_formula_units_Z 48
_cell_length_a 6.547418
_cell_length_b 27.821839
_cell_length_c 14.812281
_cell_angle_alpha 90.000000
_cell_angle_beta 124.124768
_cell_angle_gamma 90.000000
_cell_volume 2233.637322
_symmetry_space_group_name_H-M "C 2/C"
_symmetry_group_IT_number 15
_symmetry_cell_setting 'monoclinic'
loop_
_space_group_symop_operation_xyz
x,y,z
-x,y,1/2-z
-x,-y,-z
x,-y,1/2+z
1/2+x,1/2+y,z
1/2-x,1/2+y,1/2-z
1/2-x,1/2-y,-z
1/2+x,1/2-y,1/2+z
loop_
_atom_site_type_symbol
_atom_site_label
_atom_site_fract_x
_atom_site_fract_y
_atom_site_fract_z
Si Si1 0.969350 0.688503 0.988404
Si Si2 0.713541 0.778898 0.863036
Si Si3 0.239266 0.902149 0.370153
Si Si4 0.368014 0.434213 0.966601
Si Si5 0.605898 0.974408 0.372607
Si Si6 0.994091 0.141141 0.146493
O O1 0.934830 0.741007 0.935080
O O2 0.834393 0.652243 0.883826
O O3 0.865174 0.694537 0.063952
O O4 0.244372 0.668281 0.057542
O O5 0.500000 0.753100 0.750000
O O6 0.794824 0.820012 0.814355
O O7 0.189062 0.899828 0.464354
O O8 0.441290 0.944317 0.402833
O O9 0.000000 0.912071 0.250000
O O10 0.122256 0.467905 0.892830
O O11 0.441817 0.405539 0.895728
O O12 0.608353 0.462502 0.056569
O O13 0.500000 0.960822 0.250000
O O14 0.000000 0.122601 0.250000
#
# Coordination Sequence:
#
# PCOD8153127 Si02
#       6
#     8   8   8   8   8   8
#     4  11  24  41  67  99 138 178 221 280 337 402
#     4  11  23  43  66  97 138 178 226 277 337 400
#     4  12  23  43  72  98 133 180 222 279 342 404
#     4  11  25  44  67  98 132 177 227 278 336 405
#     4  11  24  45  66  96 136 175 224 279 338 402
#     4  12  24  44  70  99 135 180 229 279 339 403
#
# _framework density 21.489611
#
# number of rings (size 3 to 8) (size 9 to 14) (size 15 to 20)
#    0.000    0.667    6.667    1.500    0.000    2.000 
#    6.000    0.833    0.000    0.000    0.000    0.000 
#    0.000    0.000    0.000    0.000    0.000    0.000 
#
# Total GULP energy -297334.064020 kJ/mol
# GULP energy per Si atom -12388.919334 kJ/mol
# Density = 2.144070 g / cm^3
# Si number density = 21.489611 Si / 1000 Ang^3
#
#
#
# Elastic Constant Matrix: (Units=GPa)
#
#
# Indices 1 2 3 4 5 6 
#
# 1 60.2494 29.5841 33.5956 0.0000 -6.6641 0.0000
# 2 29.5841 107.6634 48.2410 0.0000 -4.3306 0.0000
# 3 33.5956 48.2410 112.1812 0.0000 -10.9045 0.0000
# 4 0.0000 0.0000 0.0000 34.0515 0.0000 -1.5123
# 5 -6.6641 -4.3306 -10.9045 0.0000 41.9139 0.0000
# 6 0.0000 0.0000 0.0000 -1.5123 0.0000 42.4956
#
#
#
# Elastic Compliance Matrix: (Units=1/GPa)
#
#
# Indices 1 2 3 4 5 6 
#
# 1 0.021160 -0.003692 -0.004575 0.000000 0.001793 0.000000
# 2 -0.003692 0.012150 -0.004159 0.000000 -0.000414 0.000000
# 3 -0.004575 -0.004159 0.012271 0.000000 0.002035 0.000000
# 4 0.000000 0.000000 0.000000 0.029414 0.000000 0.001047
# 5 0.001793 -0.000414 0.002035 0.000000 0.024630 0.000000
# 6 0.000000 0.000000 0.000000 0.001047 0.000000 0.023569
#
#
# Mechanical properties :
#
#
# Convention : Reuss Voigt Hill
#
# Bulk Modulus (GPa) = 48.24503 55.88170 52.06336
# Shear Modulus (GPa) = 32.26731 34.93708 33.60219
#
# Velocity S-wave (km/s) = 3.87916 4.03645 3.95859
# Velocity P-wave (km/s) = 6.52403 6.91263 6.72114
#
# Compressibility (1/GPa) = 0.02072752
#
# Stress axis : x y z
#
# Youngs Moduli (GPa) = 47.25895 82.30582 81.49565
#
# Poissons Ratio (x) = 0.30391 0.37283
# Poissons Ratio (y) = 0.17450 0.33895
# Poissons Ratio (z) = 0.21620 0.34232
#
# Static dielectric constant tensor:
#      x y z
#    x 3.866000 0.000000 0.074710 
#    y 0.000000 4.007230 0.000000 
#    z 0.074710 0.000000 3.895750 
# 
# 
# High freq. dielectric constant tensor:
#      x y z
#    x 1.839460 0.000000 0.003290 
#    y 0.000000 1.850510 0.000000 
#    z 0.003290 0.000000 1.853390 
# 
# From -- ./inp_files/130913.got.cif
#   From: 2010.06.25/outbox.cif.g09.slc.cpg/sg15_66_cif.got.tgz:130913.got - 2010.06.28 07:06:18.
