data_PCOD8153734
_publ_section_title
;
Structure prediction by ZEFSAII (Michael W. Deem and Ramdas Pophale) SiO2 
 PCOD8153734
Probable space group: C 2/C
;
_chemical_formula_sum "Si O2"
_cell_formula_units_Z 44
_cell_length_a 10.631604
_cell_length_b 16.927253
_cell_length_c 16.337796
_cell_angle_alpha 90.000000
_cell_angle_beta 139.787366
_cell_angle_gamma 90.000000
_cell_volume 1898.278025
_symmetry_space_group_name_H-M "C 2/C"
_symmetry_group_IT_number 15
_symmetry_cell_setting 'monoclinic'
loop_
_space_group_symop_operation_xyz
x,y,z
-x,y,1/2-z
-x,-y,-z
x,-y,1/2+z
1/2+x,1/2+y,z
1/2-x,1/2+y,1/2-z
1/2-x,1/2-y,-z
1/2+x,1/2-y,1/2+z
loop_
_atom_site_type_symbol
_atom_site_label
_atom_site_fract_x
_atom_site_fract_y
_atom_site_fract_z
Si Si1 0.000000 0.822089 0.750000
Si Si2 0.608252 0.182903 0.702682
Si Si3 0.875668 0.086765 0.605714
Si Si4 0.551664 0.630986 0.532470
Si Si5 0.747372 0.078242 0.020970
Si Si6 0.284393 0.260169 0.134820
O O1 0.982165 0.769206 0.823847
O O2 0.813801 0.877465 0.637621
O O3 0.731824 0.166254 0.846197
O O4 0.455319 0.113573 0.609882
O O5 0.758901 0.185787 0.702848
O O6 0.772766 0.174822 0.554515
O O7 0.000000 0.078772 0.750000
O O8 0.001488 0.075307 0.584911
O O9 0.719312 0.015072 0.526121
O O10 0.575707 0.586300 0.458084
O O11 0.386812 0.697812 0.449746
O O12 0.500000 0.220868 0.250000
#
# Coordination Sequence:
#
# PCOD8153734 Si02
#       6
#     4   8   8   8   8   8
#     4  12  22  42  68 102 134 174 236 288 344 406
#     4  12  23  41  73 103 133 180 235 286 340 411
#     4  11  24  45  66 100 143 186 224 287 351 415
#     4  12  23  46  72 101 140 181 236 290 340 419
#     4  12  25  43  72 103 142 182 230 293 350 408
#     4  11  24  44  72 101 135 186 231 283 342 421
#
# _framework density 23.178902999999998
#
# number of rings (size 3 to 8) (size 9 to 14) (size 15 to 20)
#    0.000    0.364    8.182    2.727    0.000    0.727 
#    0.000    3.636    0.000    0.000    0.000    0.000 
#    0.000    0.000    0.000    0.000    0.000    0.000 
#
# Total GULP energy -272620.078432 kJ/mol
# GULP energy per Si atom -12391.821747 kJ/mol
# Density = 2.312615 g / cm^3
# Si number density = 23.178903 Si / 1000 Ang^3
#
#
#
# Elastic Constant Matrix: (Units=GPa)
#
#
# Indices 1 2 3 4 5 6 
#
# 1 74.6296 4.8363 15.8915 0.0001 -1.9208 0.0000
# 2 4.8363 113.2221 48.6502 -0.0001 25.7922 0.0000
# 3 15.8915 48.6502 113.2985 0.0007 29.4899 0.0002
# 4 0.0001 -0.0001 0.0007 22.2533 0.0004 7.3778
# 5 -1.9208 25.7922 29.4899 0.0004 38.3311 0.0001
# 6 0.0000 0.0000 0.0002 7.3778 0.0001 18.7264
#
#
#
# Elastic Compliance Matrix: (Units=1/GPa)
#
#
# Indices 1 2 3 4 5 6 
#
# 1 0.014045 -0.000098 -0.002661 0.000000 0.002817 0.000000
# 2 -0.000098 0.011534 -0.003648 0.000000 -0.004959 0.000000
# 3 -0.002661 -0.003648 0.012706 0.000000 -0.007454 0.000000
# 4 0.000000 0.000000 0.000000 0.051689 0.000000 -0.020364
# 5 0.002817 -0.004959 -0.007454 0.000000 0.035301 0.000000
# 6 0.000000 0.000000 0.000000 -0.020364 0.000000 0.061424
#
#
# Mechanical properties :
#
#
# Convention : Reuss Voigt Hill
#
# Bulk Modulus (GPa) = 39.26165 48.87845 44.07005
# Shear Modulus (GPa) = 24.03810 31.31362 27.67586
#
# Velocity S-wave (km/s) = 3.22385 3.67952 3.45920
# Velocity P-wave (km/s) = 5.55274 6.25980 5.91684
#
# Compressibility (1/GPa) = 0.02547015
#
# Stress axis : x y z
#
# Youngs Moduli (GPa) = 71.19950 86.70349 78.70230
#
# Poissons Ratio (x) = 0.00852 0.20943
# Poissons Ratio (y) = 0.00700 0.28710
# Poissons Ratio (z) = 0.18947 0.31629
#
# Static dielectric constant tensor:
#      x y z
#    x 4.548080 0.000000 -0.391280 
#    y 0.000000 4.187290 0.000000 
#    z -0.391280 0.000000 3.945230 
# 
# 
# High freq. dielectric constant tensor:
#      x y z
#    x 1.929050 0.000000 -0.019800 
#    y 0.000000 1.906870 0.000000 
#    z -0.019800 0.000000 1.907230 
# 
# From -- ./inp_files/199648.got.cif
#   From: 2010.06.25/outbox.cif.g09.slc.cpg/sg15_100_cif.got.tgz:199648.got - 2010.06.28 07:06:18.
