data_PCOD8153001
_publ_section_title
;
Structure prediction by ZEFSAII (Michael W. Deem and Ramdas Pophale) SiO2 
 PCOD8153001
Probable space group: C 2/C
;
_chemical_formula_sum "Si O2"
_cell_formula_units_Z 48
_cell_length_a 16.406012
_cell_length_b 24.009919
_cell_length_c 13.042087
_cell_angle_alpha 90.000000
_cell_angle_beta 153.809191
_cell_angle_gamma 90.000000
_cell_volume 2267.439291
_symmetry_space_group_name_H-M "C 2/C"
_symmetry_group_IT_number 15
_symmetry_cell_setting 'monoclinic'
loop_
_space_group_symop_operation_xyz
x,y,z
-x,y,1/2-z
-x,-y,-z
x,-y,1/2+z
1/2+x,1/2+y,z
1/2-x,1/2+y,1/2-z
1/2-x,1/2-y,-z
1/2+x,1/2-y,1/2+z
loop_
_atom_site_type_symbol
_atom_site_label
_atom_site_fract_x
_atom_site_fract_y
_atom_site_fract_z
Si Si1 0.260289 0.385595 0.790036
Si Si2 0.181115 0.548686 0.395272
Si Si3 0.612596 0.449209 0.170004
Si Si4 0.120073 0.434267 0.205056
Si Si5 0.274561 0.178326 0.595889
Si Si6 0.810586 0.710706 0.422066
O O1 0.234436 0.400550 0.880039
O O2 0.251382 0.319493 0.753732
O O3 0.098119 0.418947 0.544142
O O4 0.468649 0.399170 0.991367
O O5 0.345388 0.541092 0.662692
O O6 0.147878 0.490825 0.298644
O O7 0.000000 0.568138 0.250000
O O8 0.805138 0.441359 0.326449
O O9 0.500000 0.500000 0.000000
O O10 0.248991 0.386155 0.400310
O O11 0.195042 0.221872 0.591535
O O12 0.188861 0.190289 0.385266
O O13 0.487635 0.190353 0.828847
#
# Coordination Sequence:
#
# PCOD8153001 Si02
#       6
#     8   8   8   8   8   8
#     4  11  23  42  62  91 127 169 207 259 315 380
#     4  12  24  41  64  88 132 171 210 261 316 380
#     4  12  25  40  59  93 124 165 217 256 314 377
#     4  11  24  40  62  91 128 168 205 257 323 376
#     4   9  20  37  60  92 123 160 205 255 318 379
#     4   9  20  38  61  90 124 160 204 257 320 374
#
# _framework density 21.169253999999999
#
# number of rings (size 3 to 8) (size 9 to 14) (size 15 to 20)
#    0.000    1.333    3.333    2.000    9.333    0.000 
#    0.000    0.000    0.000    1.000    4.333    0.000 
#    0.000    0.000    0.000    0.000    0.000    0.000 
#
# Total GULP energy -297325.191948 kJ/mol
# GULP energy per Si atom -12388.549664 kJ/mol
# Density = 2.112107 g / cm^3
# Si number density = 21.169254 Si / 1000 Ang^3
#
#
#
# Elastic Constant Matrix: (Units=GPa)
#
#
# Indices 1 2 3 4 5 6 
#
# 1 88.0876 47.5220 25.0774 0.0000 -14.4226 0.0000
# 2 47.5220 97.5016 20.0633 0.0000 -13.7715 0.0000
# 3 25.0774 20.0633 87.1806 0.0001 -16.3185 0.0000
# 4 0.0000 0.0000 0.0001 22.9175 0.0001 -10.0834
# 5 -14.4226 -13.7715 -16.3185 0.0001 31.7800 0.0000
# 6 0.0000 0.0000 0.0000 -10.0834 0.0000 44.3908
#
#
#
# Elastic Compliance Matrix: (Units=1/GPa)
#
#
# Indices 1 2 3 4 5 6 
#
# 1 0.016361 -0.007021 -0.002512 0.000000 0.003093 0.000000
# 2 -0.007021 0.014199 -0.000767 0.000000 0.002573 0.000000
# 3 -0.002512 -0.000767 0.013380 0.000000 0.005398 0.000000
# 4 0.000000 0.000000 0.000000 0.048480 0.000000 0.011012
# 5 0.003093 0.002573 0.005398 0.000000 0.036757 0.000000
# 6 0.000000 0.000000 0.000000 0.011012 0.000000 0.025029
#
#
# Mechanical properties :
#
#
# Convention : Reuss Voigt Hill
#
# Bulk Modulus (GPa) = 42.84022 50.89946 46.86984
# Shear Modulus (GPa) = 27.38450 31.82480 29.60465
#
# Velocity S-wave (km/s) = 3.60056 3.88151 3.74367
# Velocity P-wave (km/s) = 6.12914 6.64714 6.39339
#
# Compressibility (1/GPa) = 0.02334255
#
# Stress axis : x y z
#
# Youngs Moduli (GPa) = 61.11936 70.42574 74.73966
#
# Poissons Ratio (x) = 0.49444 0.18772
# Poissons Ratio (y) = 0.42911 0.05729
# Poissons Ratio (z) = 0.15351 0.05399
#
# Static dielectric constant tensor:
#      x y z
#    x 4.865200 0.000000 0.628930 
#    y 0.000000 4.309240 0.000000 
#    z 0.628930 0.000000 5.533460 
# 
# 
# High freq. dielectric constant tensor:
#      x y z
#    x 1.824890 0.000000 0.014350 
#    y 0.000000 1.810790 0.000000 
#    z 0.014350 0.000000 1.831710 
# 
# From -- ./inp_files/101401.got.cif
#   From: 2010.06.25/outbox.cif.g09.slc.cpg/sg15_51_cif.got.tgz:101401.got - 2010.06.28 07:06:18.
