data_PCOD8153048
_publ_section_title
;
Structure prediction by ZEFSAII (Michael W. Deem and Ramdas Pophale) SiO2 
 PCOD8153048
Probable space group: C 2/C
;
_chemical_formula_sum "Si O2"
_cell_formula_units_Z 40
_cell_length_a 16.096188
_cell_length_b 7.695955
_cell_length_c 31.498151
_cell_angle_alpha 90.000000
_cell_angle_beta 153.720094
_cell_angle_gamma 90.000000
_cell_volume 1727.570649
_symmetry_space_group_name_H-M "C 2/C"
_symmetry_group_IT_number 15
_symmetry_cell_setting 'monoclinic'
loop_
_space_group_symop_operation_xyz
x,y,z
-x,y,1/2-z
-x,-y,-z
x,-y,1/2+z
1/2+x,1/2+y,z
1/2-x,1/2+y,1/2-z
1/2-x,1/2-y,-z
1/2+x,1/2-y,1/2+z
loop_
_atom_site_type_symbol
_atom_site_label
_atom_site_fract_x
_atom_site_fract_y
_atom_site_fract_z
Si Si1 0.463486 0.829659 0.957419
Si Si2 0.375020 0.208359 0.651537
Si Si3 0.408035 0.955750 0.844848
Si Si4 0.754189 0.092854 0.458035
Si Si5 0.478246 0.647140 0.363779
O O1 0.340596 0.711598 0.932012
O O2 0.344723 0.881526 0.861229
O O3 0.655349 0.734954 0.031346
O O4 0.500000 0.000000 0.000000
O O5 0.500000 0.232093 0.750000
O O6 0.426697 0.354367 0.639621
O O7 0.391752 0.020202 0.637664
O O8 0.470259 0.156076 0.877466
O O9 0.594714 0.835568 0.918131
O O10 0.231476 0.932725 0.732791
O O11 0.904820 0.967995 0.549753
#
# Coordination Sequence:
#
# PCOD8153048 Si02
#       5
#     8   8   8   8   8
#     4  12  24  43  66 101 136 172 224 287 345 396
#     4  11  23  44  66  98 139 174 222 285 350 401
#     4  11  23  42  68  98 134 176 232 283 333 414
#     4  11  25  44  70  94 134 186 228 274 342 420
#     4  11  23  44  69  98 132 186 231 277 344 409
#
# _framework density 23.1539
#
# number of rings (size 3 to 8) (size 9 to 14) (size 15 to 20)
#    0.000    0.800    2.000    7.200    2.800    1.600 
#    0.000    0.000    0.000    0.000    0.000    0.000 
#    0.000    0.000    0.000    0.000    0.000    0.000 
#
# Total GULP energy -247932.189035 kJ/mol
# GULP energy per Si atom -12396.609452 kJ/mol
# Density = 2.310120 g / cm^3
# Si number density = 23.153900 Si / 1000 Ang^3
#
#
#
# Elastic Constant Matrix: (Units=GPa)
#
#
# Indices 1 2 3 4 5 6 
#
# 1 111.4947 33.2506 41.4588 0.0010 17.6477 -0.0003
# 2 33.2506 72.2098 21.0476 0.0029 5.8709 -0.0009
# 3 41.4588 21.0476 83.8032 0.0035 17.0618 -0.0020
# 4 0.0010 0.0029 0.0035 31.4746 -0.0029 6.7830
# 5 17.6477 5.8709 17.0618 -0.0029 42.1193 0.0015
# 6 -0.0003 -0.0009 -0.0020 6.7830 0.0015 36.5849
#
#
#
# Elastic Compliance Matrix: (Units=1/GPa)
#
#
# Indices 1 2 3 4 5 6 
#
# 1 0.012308 -0.004135 -0.004488 0.000000 -0.002763 0.000000
# 2 -0.004135 0.016346 -0.002124 -0.000001 0.000314 0.000000
# 3 -0.004488 -0.002124 0.015524 -0.000002 -0.004112 0.000001
# 4 0.000000 -0.000001 -0.000002 0.033094 0.000003 -0.006136
# 5 -0.002763 0.000314 -0.004112 0.000003 0.026521 -0.000002
# 6 0.000000 0.000000 0.000001 -0.006136 -0.000002 0.028471
#
#
# Mechanical properties :
#
#
# Convention : Reuss Voigt Hill
#
# Bulk Modulus (GPa) = 44.08330 51.00242 47.54286
# Shear Modulus (GPa) = 30.99435 33.48582 32.24008
#
# Velocity S-wave (km/s) = 3.66269 3.80706 3.73557
# Velocity P-wave (km/s) = 6.08010 6.43431 6.25971
#
# Compressibility (1/GPa) = 0.02268432
#
# Stress axis : x y z
#
# Youngs Moduli (GPa) = 81.24560 61.17703 64.41788
#
# Poissons Ratio (x) = 0.25296 0.28912
# Poissons Ratio (y) = 0.33594 0.13681
# Poissons Ratio (z) = 0.36465 0.12993
#
# Static dielectric constant tensor:
#      x y z
#    x 2.783290 0.000010 -0.294630 
#    y 0.000010 3.978190 0.000010 
#    z -0.294630 0.000010 4.044720 
# 
# 
# High freq. dielectric constant tensor:
#      x y z
#    x 1.939220 0.000000 0.004600 
#    y 0.000000 1.904690 0.000000 
#    z 0.004600 0.000000 1.915150 
# 
# From -- ./inp_files/150568.got.cif
#   From: 2010.06.25/outbox.cif.g09.slc.cpg/sg15_76_cif.got.tgz:150568.got - 2010.06.28 07:06:18.
