data_PCOD8153143
_publ_section_title
;
Structure prediction by ZEFSAII (Michael W. Deem and Ramdas Pophale) SiO2 
 PCOD8153143
Probable space group: C 2/C
;
_chemical_formula_sum "Si O2"
_cell_formula_units_Z 56
_cell_length_a 16.237385
_cell_length_b 9.718096
_cell_length_c 15.933870
_cell_angle_alpha 90.000000
_cell_angle_beta 106.851755
_cell_angle_gamma 90.000000
_cell_volume 2406.339014
_symmetry_space_group_name_H-M "C 2/C"
_symmetry_group_IT_number 15
_symmetry_cell_setting 'monoclinic'
loop_
_space_group_symop_operation_xyz
x,y,z
-x,y,1/2-z
-x,-y,-z
x,-y,1/2+z
1/2+x,1/2+y,z
1/2-x,1/2+y,1/2-z
1/2-x,1/2-y,-z
1/2+x,1/2-y,1/2+z
loop_
_atom_site_type_symbol
_atom_site_label
_atom_site_fract_x
_atom_site_fract_y
_atom_site_fract_z
Si Si1 0.893595 0.580041 0.543018
Si Si2 0.437612 0.943944 0.860853
Si Si3 0.944419 0.886730 0.812875
Si Si4 0.602094 0.610484 0.468617
Si Si5 0.874191 0.843628 0.331392
Si Si6 0.805171 0.342440 0.294606
Si Si7 0.257226 0.599594 0.539268
O O1 0.918470 0.565334 0.453534
O O2 0.870085 0.738205 0.558721
O O3 0.809252 0.491126 0.534330
O O4 0.970062 0.518322 0.624069
O O5 0.431792 0.789082 0.823757
O O6 0.366747 0.030376 0.787893
O O7 0.865046 0.790948 0.814943
O O8 0.000000 0.832577 0.750000
O O9 0.002700 0.903104 0.912914
O O10 0.903897 0.035057 0.777865
O O11 0.609520 0.605474 0.569959
O O12 0.652697 0.481861 0.442532
O O13 0.771813 0.815590 0.293379
O O14 0.763524 0.382409 0.370199
O O15 0.250000 0.750000 0.500000
#
# Coordination Sequence:
#
# PCOD8153143 Si02
#       7
#     8   8   8   8   8   8   8
#     4   9  19  38  64  94 127 170 224 271 333 401
#     4   9  19  38  65  92 125 174 222 275 332 398
#     4  12  26  44  69 101 139 176 227 285 342 408
#     4  11  23  43  68 101 131 183 225 281 341 414
#     4  11  24  41  71  96 137 180 230 280 347 405
#     4  11  23  46  65  98 138 183 223 283 347 407
#     4  11  24  38  68 102 139 173 229 287 340 407
#
# _framework density 23.271864000000001
#
# number of rings (size 3 to 8) (size 9 to 14) (size 15 to 20)
#    0.000    1.429    1.429    3.429    4.000    3.429 
#    0.000    0.714    0.000    0.000    0.000    0.000 
#    0.000    0.000    0.000    0.000    0.000    0.000 
#
# Total GULP energy -347098.136265 kJ/mol
# GULP energy per Si atom -12396.362009 kJ/mol
# Density = 2.321890 g / cm^3
# Si number density = 23.271864 Si / 1000 Ang^3
#
#
#
# Elastic Constant Matrix: (Units=GPa)
#
#
# Indices 1 2 3 4 5 6 
#
# 1 83.1241 45.4074 42.0669 0.0000 26.3299 0.0000
# 2 45.4074 188.2862 19.3663 0.0000 12.1708 0.0000
# 3 42.0669 19.3663 83.1205 0.0000 29.4563 0.0000
# 4 0.0000 0.0000 0.0000 20.9439 0.0000 12.8379
# 5 26.3299 12.1708 29.4563 0.0000 36.0764 0.0000
# 6 0.0000 0.0000 0.0000 12.8379 0.0000 50.7865
#
#
#
# Elastic Compliance Matrix: (Units=1/GPa)
#
#
# Indices 1 2 3 4 5 6 
#
# 1 0.019725 -0.003589 -0.006296 0.000000 -0.008045 0.000000
# 2 -0.003589 0.006127 0.000272 0.000000 0.000331 0.000000
# 3 -0.006296 0.000272 0.019078 0.000000 -0.011074 0.000000
# 4 0.000000 0.000000 0.000000 0.056501 0.000000 -0.014283
# 5 -0.008045 0.000331 -0.011074 0.000000 0.042521 0.000000
# 6 0.000000 0.000000 0.000000 -0.014283 0.000000 0.023301
#
#
# Mechanical properties :
#
#
# Convention : Reuss Voigt Hill
#
# Bulk Modulus (GPa) = 38.90404 63.13465 51.01934
# Shear Modulus (GPa) = 25.63471 38.07404 31.85437
#
# Velocity S-wave (km/s) = 3.32253 4.04921 3.70373
# Velocity P-wave (km/s) = 5.61003 7.00353 6.34515
#
# Compressibility (1/GPa) = 0.02570427
#
# Stress axis : x y z
#
# Youngs Moduli (GPa) = 50.69647 163.20235 52.41633
#
# Poissons Ratio (x) = 0.58580 0.32999
# Poissons Ratio (y) = 0.18197 -0.01425
# Poissons Ratio (z) = 0.31916 -0.04436
#
# Static dielectric constant tensor:
#      x y z
#    x 4.237050 0.000000 0.252850 
#    y 0.000000 4.542720 0.000000 
#    z 0.252850 0.000000 4.191110 
# 
# 
# High freq. dielectric constant tensor:
#      x y z
#    x 1.912580 0.000000 0.025470 
#    y 0.000000 1.939960 0.000000 
#    z 0.025470 0.000000 1.908300 
# 
# From -- ./inp_files/209634.got.cif
#   From: 2010.06.25/outbox.cif.g09.slc.cpg/sg15_105_cif.got.tgz:209634.got - 2010.06.28 07:06:18.
