data_PCOD8153503
_publ_section_title
;
Structure prediction by ZEFSAII (Michael W. Deem and Ramdas Pophale) SiO2 
 PCOD8153503
Probable space group: C 2/C
;
_chemical_formula_sum "Si O2"
_cell_formula_units_Z 36
_cell_length_a 6.543961
_cell_length_b 23.759640
_cell_length_c 10.378352
_cell_angle_alpha 90.000000
_cell_angle_beta 108.517796
_cell_angle_gamma 90.000000
_cell_volume 1530.101995
_symmetry_space_group_name_H-M "C 2/C"
_symmetry_group_IT_number 15
_symmetry_cell_setting 'monoclinic'
loop_
_space_group_symop_operation_xyz
x,y,z
-x,y,1/2-z
-x,-y,-z
x,-y,1/2+z
1/2+x,1/2+y,z
1/2-x,1/2+y,1/2-z
1/2-x,1/2-y,-z
1/2+x,1/2-y,1/2+z
loop_
_atom_site_type_symbol
_atom_site_label
_atom_site_fract_x
_atom_site_fract_y
_atom_site_fract_z
Si Si1 0.000000 0.533889 0.750000
Si Si2 0.889070 0.202124 0.594794
Si Si3 0.656718 0.541141 0.104489
Si Si4 0.948658 0.392091 0.477446
Si Si5 0.400007 0.348801 0.605807
O O1 0.784947 0.496540 0.735918
O O2 0.048919 0.574089 0.879403
O O3 0.750000 0.250000 0.500000
O O4 0.739015 0.150077 0.604969
O O5 0.000000 0.223344 0.750000
O O6 0.063861 0.183087 0.522339
O O7 0.524469 0.591819 0.137823
O O8 0.500000 0.500000 0.000000
O O9 0.852561 0.563395 0.056692
O O10 0.145428 0.356648 0.578807
O O11 0.500000 0.314992 0.750000
#
# Coordination Sequence:
#
# PCOD8153503 Si02
#       5
#     4   8   8   8   8
#     4  12  22  40  68  98 144 186 236 286 342 422
#     4  11  28  51  77 105 141 182 238 306 368 428
#     4  11  24  38  63 101 144 191 229 284 344 418
#     4  11  25  44  67 102 141 186 241 287 356 423
#     4  11  25  46  72 105 143 189 241 293 355 429
#
# _framework density 23.527842
#
# number of rings (size 3 to 8) (size 9 to 14) (size 15 to 20)
#    0.000    0.889    2.222    3.333    9.333    2.667 
#    2.000    0.000    0.000    0.000    0.000    0.000 
#    0.000    0.000    0.000    0.000    0.000    0.000 
#
# Total GULP energy -223184.245804 kJ/mol
# GULP energy per Si atom -12399.124767 kJ/mol
# Density = 2.347429 g / cm^3
# Si number density = 23.527842 Si / 1000 Ang^3
#
#
#
# Elastic Constant Matrix: (Units=GPa)
#
#
# Indices 1 2 3 4 5 6 
#
# 1 120.4262 16.0210 41.1038 0.0000 6.6193 0.0000
# 2 16.0210 68.2347 26.7878 0.0000 0.8466 0.0000
# 3 41.1038 26.7878 160.1087 0.0000 8.4001 0.0000
# 4 0.0000 0.0000 0.0000 34.9282 0.0000 10.2346
# 5 6.6193 0.8466 8.4001 0.0000 43.8708 0.0000
# 6 0.0000 0.0000 0.0000 10.2346 0.0000 21.9689
#
#
#
# Elastic Compliance Matrix: (Units=1/GPa)
#
#
# Indices 1 2 3 4 5 6 
#
# 1 0.009252 -0.001335 -0.002101 0.000000 -0.000968 0.000000
# 2 -0.001335 0.015880 -0.002332 0.000000 0.000342 0.000000
# 3 -0.002101 -0.002332 0.007229 0.000000 -0.001022 0.000000
# 4 0.000000 0.000000 0.000000 0.033156 0.000000 -0.015446
# 5 -0.000968 0.000342 -0.001022 0.000000 0.023129 0.000000
# 6 0.000000 0.000000 0.000000 -0.015446 0.000000 0.052715
#
#
# Mechanical properties :
#
#
# Convention : Reuss Voigt Hill
#
# Bulk Modulus (GPa) = 48.02135 57.39942 52.71039
# Shear Modulus (GPa) = 31.28143 37.81071 34.54607
#
# Velocity S-wave (km/s) = 3.65025 4.01317 3.83600
# Velocity P-wave (km/s) = 6.18228 6.77668 6.48629
#
# Compressibility (1/GPa) = 0.02082407
#
# Stress axis : x y z
#
# Youngs Moduli (GPa) = 108.08709 62.97181 138.33346
#
# Poissons Ratio (x) = 0.08410 0.29063
# Poissons Ratio (y) = 0.14435 0.32259
# Poissons Ratio (z) = 0.22708 0.14685
#
# Static dielectric constant tensor:
#      x y z
#    x 4.366390 0.000000 0.069540 
#    y 0.000000 4.292690 0.000000 
#    z 0.069540 0.000000 4.381370 
# 
# 
# High freq. dielectric constant tensor:
#      x y z
#    x 1.940170 0.000000 0.011260 
#    y 0.000000 1.924960 0.000000 
#    z 0.011260 0.000000 1.937260 
# 
# From -- ./inp_files/72708.got.cif
#   From: 2010.06.25/outbox.cif.g09.slc.cpg/sg15_37_cif.got.tgz:72708.got - 2010.06.28 07:06:18.
