data_PCOD8153461
_publ_section_title
;
Structure prediction by ZEFSAII (Michael W. Deem and Ramdas Pophale) SiO2 
 PCOD8153461
Probable space group: C 2/C
;
_chemical_formula_sum "Si O2"
_cell_formula_units_Z 48
_cell_length_a 16.126021
_cell_length_b 14.123715
_cell_length_c 9.195967
_cell_angle_alpha 90.000000
_cell_angle_beta 93.548180
_cell_angle_gamma 90.000000
_cell_volume 2090.452370
_symmetry_space_group_name_H-M "C 2/C"
_symmetry_group_IT_number 15
_symmetry_cell_setting 'monoclinic'
loop_
_space_group_symop_operation_xyz
x,y,z
-x,y,1/2-z
-x,-y,-z
x,-y,1/2+z
1/2+x,1/2+y,z
1/2-x,1/2+y,1/2-z
1/2-x,1/2-y,-z
1/2+x,1/2-y,1/2+z
loop_
_atom_site_type_symbol
_atom_site_label
_atom_site_fract_x
_atom_site_fract_y
_atom_site_fract_z
Si Si1 0.251592 0.701595 0.264394
Si Si2 0.180784 0.477832 0.622729
Si Si3 0.802149 0.129270 0.573334
Si Si4 0.010285 0.098304 0.921767
Si Si5 0.929004 0.778672 0.636103
Si Si6 0.577756 0.939945 0.345721
O O1 0.190440 0.633248 0.164867
O O2 0.215907 0.808010 0.282241
O O3 0.252218 0.663966 0.427943
O O4 0.338629 0.700587 0.190015
O O5 0.270913 0.520675 0.589220
O O6 0.105541 0.490522 0.498301
O O7 0.156956 0.547323 0.751387
O O8 0.897722 0.136602 0.541257
O O9 0.000000 0.084574 0.750000
O O10 0.942950 0.171898 0.980656
O O11 0.000000 0.000000 0.000000
O O12 0.943058 0.667593 0.618914
O O13 0.000000 0.820829 0.750000
O O14 0.500000 0.987651 0.250000
#
# Coordination Sequence:
#
# PCOD8153461 Si02
#       6
#     8   8   8   8   8   8
#     4  11  24  44  75 102 148 189 239 303 364 434
#     4  12  24  46  72 103 142 190 241 300 363 439
#     4  11  25  45  72 109 143 189 244 297 366 435
#     4  12  28  46  74 105 145 193 244 302 366 438
#     4  11  23  47  72 101 146 188 235 309 369 425
#     4  11  26  45  70 103 144 187 237 298 365 438
#
# _framework density 22.961538000000001
#
# number of rings (size 3 to 8) (size 9 to 14) (size 15 to 20)
#    0.000    0.667    5.000    2.000    4.667    2.000 
#    3.000    0.000    0.000    0.000    0.000    0.000 
#    0.000    0.000    0.000    0.000    0.000    0.000 
#
# Total GULP energy -297473.622975 kJ/mol
# GULP energy per Si atom -12394.734291 kJ/mol
# Density = 2.290928 g / cm^3
# Si number density = 22.961538 Si / 1000 Ang^3
#
#
#
# Elastic Constant Matrix: (Units=GPa)
#
#
# Indices 1 2 3 4 5 6 
#
# 1 107.5753 37.5281 36.8988 0.0000 -11.3205 0.0000
# 2 37.5281 107.2435 45.8793 0.0000 -7.9758 0.0000
# 3 36.8988 45.8793 128.6192 0.0000 -7.7677 0.0000
# 4 0.0000 0.0000 0.0000 33.5659 0.0000 -10.3028
# 5 -11.3205 -7.9758 -7.7677 0.0000 42.3906 0.0000
# 6 0.0000 0.0000 0.0000 -10.3028 0.0000 37.7583
#
#
#
# Elastic Compliance Matrix: (Units=1/GPa)
#
#
# Indices 1 2 3 4 5 6 
#
# 1 0.011232 -0.002892 -0.002065 0.000000 0.002077 0.000000
# 2 -0.002892 0.011827 -0.003338 0.000000 0.000841 0.000000
# 3 -0.002065 -0.003338 0.009593 0.000000 0.000578 0.000000
# 4 0.000000 0.000000 0.000000 0.032515 0.000000 0.008872
# 5 0.002077 0.000841 0.000578 0.000000 0.024409 0.000000
# 6 0.000000 0.000000 0.000000 0.008872 0.000000 0.028905
#
#
# Mechanical properties :
#
#
# Convention : Reuss Voigt Hill
#
# Bulk Modulus (GPa) = 62.26421 64.89449 63.57935
# Shear Modulus (GPa) = 35.60572 37.61842 36.61207
#
# Velocity S-wave (km/s) = 3.94212 4.05201 3.99745
# Velocity P-wave (km/s) = 6.92070 7.08628 7.00398
#
# Compressibility (1/GPa) = 0.01606059
#
# Stress axis : x y z
#
# Youngs Moduli (GPa) = 89.03352 84.54907 104.24233
#
# Poissons Ratio (x) = 0.24456 0.21526
# Poissons Ratio (y) = 0.25753 0.34799
# Poissons Ratio (z) = 0.18386 0.28225
#
# Static dielectric constant tensor:
#      x y z
#    x 4.078490 0.000000 0.003400 
#    y 0.000000 4.089360 0.000000 
#    z 0.003400 0.000000 4.268220 
# 
# 
# High freq. dielectric constant tensor:
#      x y z
#    x 1.906220 0.000000 -0.008040 
#    y 0.000000 1.900630 0.000000 
#    z -0.008040 0.000000 1.915370 
# 
# From -- ./inp_files/47483.got.cif
#   From: 2010.06.25/outbox.cif.g09.slc.cpg/sg15_24_cif.got.tgz:47483.got - 2010.06.28 07:06:18.
