data_PCOD8153501
_publ_section_title
;
Structure prediction by ZEFSAII (Michael W. Deem and Ramdas Pophale) SiO2 
 PCOD8153501
Probable space group: C 2/C
;
_chemical_formula_sum "Si O2"
_cell_formula_units_Z 24
_cell_length_a 10.653260
_cell_length_b 22.579280
_cell_length_c 10.342028
_cell_angle_alpha 90.000000
_cell_angle_beta 26.848947
_cell_angle_gamma 90.000000
_cell_volume 1123.545403
_symmetry_space_group_name_H-M "C 2/C"
_symmetry_group_IT_number 15
_symmetry_cell_setting 'monoclinic'
loop_
_space_group_symop_operation_xyz
x,y,z
-x,y,1/2-z
-x,-y,-z
x,-y,1/2+z
1/2+x,1/2+y,z
1/2-x,1/2+y,1/2-z
1/2-x,1/2-y,-z
1/2+x,1/2-y,1/2+z
loop_
_atom_site_type_symbol
_atom_site_label
_atom_site_fract_x
_atom_site_fract_y
_atom_site_fract_z
Si Si1 0.500000 0.513523 0.250000
Si Si2 0.465976 0.393153 0.577376
Si Si3 0.000000 0.206881 0.250000
Si Si4 0.395773 0.913004 0.976237
O O1 0.393159 0.555415 0.465365
O O2 0.234488 0.475186 0.451135
O O3 0.437884 0.332498 0.681346
O O4 0.165698 0.419658 0.817394
O O5 0.655128 0.379359 0.277608
O O6 0.750000 0.250000 0.500000
O O7 0.500000 0.878450 0.750000
#
# Coordination Sequence:
#
# PCOD8153501 Si02
#       4
#     4   8   4   8
#     4  11  24  36  62  94 136 170 204 241 302 370
#     4  11  25  39  64  94 127 162 213 256 302 365
#     4  11  24  48  72  92 112 156 214 279 318 344
#     4  12  23  38  59  94 138 170 198 238 306 383
#
# _framework density 21.360952999999999
#
# number of rings (size 3 to 8) (size 9 to 14) (size 15 to 20)
#    0.000    0.667    3.333    4.000    4.667    2.667 
#    0.000    0.000    0.000   20.000    0.000    0.000 
#    0.000    0.000    0.000    0.000    0.000    0.000 
#
# Total GULP energy -148726.403689 kJ/mol
# GULP energy per Si atom -12393.866974 kJ/mol
# Density = 2.131233 g / cm^3
# Si number density = 21.360953 Si / 1000 Ang^3
#
#
#
# Elastic Constant Matrix: (Units=GPa)
#
#
# Indices 1 2 3 4 5 6 
#
# 1 121.9389 86.7995 73.9104 -0.0009 -2.2061 0.0007
# 2 86.7995 117.7628 70.7293 0.0007 3.1479 -0.0008
# 3 73.9104 70.7293 181.8151 -0.0085 7.3532 0.0053
# 4 -0.0009 0.0007 -0.0085 23.1789 -0.0002 -0.0391
# 5 -2.2061 3.1479 7.3532 -0.0002 47.2943 0.0004
# 6 0.0007 -0.0008 0.0053 -0.0391 0.0004 -4.6382
#
#
#
# Elastic Compliance Matrix: (Units=1/GPa)
#
#
# Indices 1 2 3 4 5 6 
#
# 1 0.018539 -0.011931 -0.002981 0.000000 0.002122 0.000002
# 2 -0.011931 0.018759 -0.002390 -0.000002 -0.001434 -0.000008
# 3 -0.002981 -0.002390 0.007689 0.000003 -0.001175 0.000009
# 4 0.000000 -0.000002 0.000003 0.043142 0.000000 -0.000363
# 5 0.002122 -0.001434 -0.001175 0.000000 0.021521 0.000001
# 6 0.000002 -0.000008 0.000009 -0.000363 0.000001 -0.215597
#
#
# Mechanical properties :
#
#
# Convention : Reuss Voigt Hill
#
# Bulk Modulus (GPa) = 96.29873 98.26614 97.28243
# Shear Modulus (GPa) = -73.65517 25.83882 -23.90818
#
# Velocity S-wave (km/s) = -5.87844 3.48174 -3.34914
# Velocity P-wave (km/s) = 0.94617 7.89088 5.53944
#
# Compressibility (1/GPa) = 0.01038435
#
# Stress axis : x y z
#
# Youngs Moduli (GPa) = 53.94169 53.30799 130.05677
#
# Poissons Ratio (x) = 0.63600 0.38767
# Poissons Ratio (y) = 0.64356 0.31078
# Poissons Ratio (z) = 0.16079 0.12738
#
# Static dielectric constant tensor:
#      x y z
#    x 4.365640 0.000010 0.216290 
#    y 0.000010 3.128440 0.000140 
#    z 0.216290 0.000140 4.079120 
# 
# 
# High freq. dielectric constant tensor:
#      x y z
#    x 1.862590 0.000000 0.005170 
#    y 0.000000 1.786560 0.000000 
#    z 0.005170 0.000000 1.860570 
# 
# From -- ./inp_files/3950.got.cif
#   From: 2010.06.25/outbox.cif.g09.slc.cpg/sg15_2_cif.got.tgz:3950.got - 2010.06.28 07:06:18.
