data_PCOD8153454
_publ_section_title
;
Structure prediction by ZEFSAII (Michael W. Deem and Ramdas Pophale) SiO2 
 PCOD8153454
Probable space group: C 2/C
;
_chemical_formula_sum "Si O2"
_cell_formula_units_Z 56
_cell_length_a 11.474551
_cell_length_b 8.711235
_cell_length_c 30.844976
_cell_angle_alpha 90.000000
_cell_angle_beta 123.593385
_cell_angle_gamma 90.000000
_cell_volume 2568.248917
_symmetry_space_group_name_H-M "C 2/C"
_symmetry_group_IT_number 15
_symmetry_cell_setting 'monoclinic'
loop_
_space_group_symop_operation_xyz
x,y,z
-x,y,1/2-z
-x,-y,-z
x,-y,1/2+z
1/2+x,1/2+y,z
1/2-x,1/2+y,1/2-z
1/2-x,1/2-y,-z
1/2+x,1/2-y,1/2+z
loop_
_atom_site_type_symbol
_atom_site_label
_atom_site_fract_x
_atom_site_fract_y
_atom_site_fract_z
Si Si1 0.617467 0.550121 0.163797
Si Si2 0.589939 0.951438 0.729754
Si Si3 0.805259 0.912597 0.494121
Si Si4 0.037998 0.432484 0.961234
Si Si5 0.878997 0.382228 0.354952
Si Si6 0.444968 0.375166 0.194388
Si Si7 0.927418 0.906583 0.430648
O O1 0.753819 0.578351 0.220985
O O2 0.560563 0.710778 0.133679
O O3 0.488798 0.482081 0.164043
O O4 0.649904 0.431447 0.131215
O O5 0.500000 0.032973 0.750000
O O6 0.514319 0.791982 0.702717
O O7 0.601369 0.051037 0.689102
O O8 0.750000 0.750000 0.500000
O O9 0.806933 0.912103 0.442102
O O10 0.703286 0.046950 0.489037
O O11 0.961525 0.953670 0.541961
O O12 0.960392 0.521518 0.907070
O O13 0.005934 0.254328 0.950667
O O14 0.000000 0.500000 0.000000
O O15 0.720645 0.368227 0.338385
O O16 0.500000 0.451277 0.250000
#
# Coordination Sequence:
#
# PCOD8153454 Si02
#       7
#     8   8   8   8   8   8   8
#     4  12  24  43  74 103 139 187 233 293 364 426
#     4  11  23  47  70 103 146 181 232 297 359 433
#     4  11  24  49  73 101 143 182 244 299 353 423
#     4  12  27  47  73 101 144 194 244 294 361 424
#     4  12  27  45  70 105 141 191 241 295 358 427
#     4  11  23  47  70  99 147 182 232 295 353 431
#     4  11  27  45  71 106 141 189 236 299 362 424
#
# _framework density 21.804739999999999
#
# number of rings (size 3 to 8) (size 9 to 14) (size 15 to 20)
#    0.000    0.571    5.714    2.143    6.000    2.857 
#    2.571    0.000    0.000    0.000    0.000    0.000 
#    0.000    0.000    0.000    0.000    0.000    0.000 
#
# Total GULP energy -347210.145661 kJ/mol
# GULP energy per Si atom -12400.362345 kJ/mol
# Density = 2.175511 g / cm^3
# Si number density = 21.804740 Si / 1000 Ang^3
#
#
#
# Elastic Constant Matrix: (Units=GPa)
#
#
# Indices 1 2 3 4 5 6 
#
# 1 155.2419 54.0086 37.7261 0.0000 -28.8734 0.0000
# 2 54.0086 103.3595 26.7513 0.0000 -19.6838 0.0000
# 3 37.7261 26.7513 87.1150 0.0000 -25.2859 0.0000
# 4 0.0000 0.0000 0.0000 32.3809 0.0000 1.0867
# 5 -28.8734 -19.6838 -25.2859 0.0000 38.7265 0.0000
# 6 0.0000 0.0000 0.0000 1.0867 0.0000 28.7684
#
#
#
# Elastic Compliance Matrix: (Units=1/GPa)
#
#
# Indices 1 2 3 4 5 6 
#
# 1 0.008721 -0.003428 -0.001656 0.000000 0.003678 0.000000
# 2 -0.003428 0.012383 -0.001521 0.000000 0.002745 0.000000
# 3 -0.001656 -0.001521 0.014906 0.000000 0.007724 0.000000
# 4 0.000000 0.000000 0.000000 0.030922 0.000000 -0.001168
# 5 0.003678 0.002745 0.007724 0.000000 0.035003 0.000000
# 6 0.000000 0.000000 0.000000 -0.001168 0.000000 0.034805
#
#
# Mechanical properties :
#
#
# Convention : Reuss Voigt Hill
#
# Bulk Modulus (GPa) = 43.86345 64.74316 54.30331
# Shear Modulus (GPa) = 31.73638 35.12385 33.43012
#
# Velocity S-wave (km/s) = 3.81922 4.01788 3.91980
# Velocity P-wave (km/s) = 6.29354 7.16108 6.74128
#
# Compressibility (1/GPa) = 0.02279802
#
# Stress axis : x y z
#
# Youngs Moduli (GPa) = 114.67014 80.75913 67.08898
#
# Poissons Ratio (x) = 0.27681 0.11113
# Poissons Ratio (y) = 0.39305 0.10206
# Poissons Ratio (z) = 0.18994 0.12286
#
# Static dielectric constant tensor:
#      x y z
#    x 4.254270 0.000000 -0.198210 
#    y 0.000000 4.027060 0.000000 
#    z -0.198210 0.000000 3.994470 
# 
# 
# High freq. dielectric constant tensor:
#      x y z
#    x 1.874000 0.000000 -0.012150 
#    y 0.000000 1.858020 0.000000 
#    z -0.012150 0.000000 1.864020 
# 
# From -- ./inp_files/310368.got.cif
#   From: 2010.06.25/outbox.cif.g09.slc.cpg/sg15_156_cif.got.tgz:310368.got - 2010.06.28 07:06:18.
