data_PCOD8153615
_publ_section_title
;
Structure prediction by ZEFSAII (Michael W. Deem and Ramdas Pophale) SiO2 
 PCOD8153615
Probable space group: C 2/C
;
_chemical_formula_sum "Si O2"
_cell_formula_units_Z 52
_cell_length_a 12.363552
_cell_length_b 13.534341
_cell_length_c 23.057258
_cell_angle_alpha 90.000000
_cell_angle_beta 40.428539
_cell_angle_gamma 90.000000
_cell_volume 2502.058384
_symmetry_space_group_name_H-M "C 2/C"
_symmetry_group_IT_number 15
_symmetry_cell_setting 'monoclinic'
loop_
_space_group_symop_operation_xyz
x,y,z
-x,y,1/2-z
-x,-y,-z
x,-y,1/2+z
1/2+x,1/2+y,z
1/2-x,1/2+y,1/2-z
1/2-x,1/2-y,-z
1/2+x,1/2-y,1/2+z
loop_
_atom_site_type_symbol
_atom_site_label
_atom_site_fract_x
_atom_site_fract_y
_atom_site_fract_z
Si Si1 0.447705 0.871280 0.145986
Si Si2 0.794414 0.636960 0.472736
Si Si3 0.680254 0.458441 0.907151
Si Si4 0.500000 0.912745 0.250000
Si Si5 0.340353 0.930300 0.646104
Si Si6 0.251555 0.556463 0.448691
Si Si7 0.406788 0.345186 0.669351
O O1 0.393138 0.763666 0.146016
O O2 0.449026 0.850476 0.214622
O O3 0.319289 0.958198 0.180425
O O4 0.625658 0.903452 0.048432
O O5 0.750000 0.750000 0.500000
O O6 0.736487 0.622128 0.430672
O O7 0.701980 0.557656 0.553527
O O8 0.989981 0.620164 0.402198
O O9 0.835702 0.531651 0.839721
O O10 0.666217 0.415940 0.849116
O O11 0.500000 0.500000 0.000000
O O12 0.332606 0.937007 0.579895
O O13 0.196760 0.860244 0.729390
O O14 0.406284 0.628822 0.389267
#
# Coordination Sequence:
#
# PCOD8153615 Si02
#       7
#     8   8   8   4   8   8   8
#     4  11  24  43  66  94 129 177 217 268 331 383
#     4  11  24  43  68  97 127 176 218 261 332 394
#     4  12  23  44  69  96 135 170 222 280 322 389
#     4  12  22  46  66  92 140 170 220 280 326 382
#     4  11  25  45  64  94 138 171 214 274 326 396
#     4  11  24  46  64  95 134 174 217 268 328 397
#     4  12  25  42  67 101 127 172 223 269 327 387
#
# _framework density 20.782888
#
# number of rings (size 3 to 8) (size 9 to 14) (size 15 to 20)
#    0.000    0.615    6.154    2.769    6.462    2.462 
#    0.000    0.000    0.000    0.000    0.000    0.000 
#    0.000    0.000    0.000    0.000    0.000    0.000 
#
# Total GULP energy -322219.826391 kJ/mol
# GULP energy per Si atom -12393.070246 kJ/mol
# Density = 2.073559 g / cm^3
# Si number density = 20.782888 Si / 1000 Ang^3
#
#
#
# Elastic Constant Matrix: (Units=GPa)
#
#
# Indices 1 2 3 4 5 6 
#
# 1 98.0652 6.5809 25.0302 -0.0003 16.6909 0.0001
# 2 6.5809 123.9812 34.8656 -0.0001 -8.4255 0.0001
# 3 25.0302 34.8656 104.1749 0.0000 1.8429 0.0001
# 4 -0.0003 -0.0001 0.0000 19.7041 0.0001 1.5502
# 5 16.6909 -8.4255 1.8429 0.0001 39.5438 -0.0001
# 6 0.0001 0.0001 0.0001 1.5502 -0.0001 19.9425
#
#
#
# Elastic Compliance Matrix: (Units=1/GPa)
#
#
# Indices 1 2 3 4 5 6 
#
# 1 0.011718 -0.000204 -0.002661 0.000000 -0.004866 0.000000
# 2 -0.000204 0.009074 -0.003026 0.000000 0.002161 0.000000
# 3 -0.002661 -0.003026 0.011252 0.000000 -0.000046 0.000000
# 4 0.000000 0.000000 0.000000 0.051063 0.000000 -0.003969
# 5 -0.004866 0.002161 -0.000046 0.000000 0.027805 0.000000
# 6 0.000000 0.000000 0.000000 -0.003969 0.000000 0.050453
#
#
# Mechanical properties :
#
#
# Convention : Reuss Voigt Hill
#
# Bulk Modulus (GPa) = 49.35395 51.01940 50.18668
# Shear Modulus (GPa) = 27.79278 33.15439 30.47358
#
# Velocity S-wave (km/s) = 3.66087 3.99842 3.83336
# Velocity P-wave (km/s) = 6.45509 6.77632 6.61766
#
# Compressibility (1/GPa) = 0.02026180
#
# Stress axis : x y z
#
# Youngs Moduli (GPa) = 85.33604 110.19957 88.87097
#
# Poissons Ratio (x) = 0.02252 0.23650
# Poissons Ratio (y) = 0.01744 0.26894
# Poissons Ratio (z) = 0.22709 0.33349
#
# Static dielectric constant tensor:
#      x y z
#    x 3.954040 0.000000 0.057820 
#    y 0.000000 3.896780 0.000000 
#    z 0.057820 0.000000 3.666220 
# 
# 
# High freq. dielectric constant tensor:
#      x y z
#    x 1.829280 0.000000 0.008900 
#    y 0.000000 1.808840 0.000000 
#    z 0.008900 0.000000 1.818030 
# 
# From -- ./inp_files/269904.got.cif
#   From: 2010.06.25/outbox.cif.g09.slc.cpg/sg15_135_cif.got.tgz:269904.got - 2010.06.28 07:06:18.
