data_PCOD8153355
_publ_section_title
;
Structure prediction by ZEFSAII (Michael W. Deem and Ramdas Pophale) SiO2 
 PCOD8153355
Probable space group: C 2/C
;
_chemical_formula_sum "Si O2"
_cell_formula_units_Z 48
_cell_length_a 24.825000
_cell_length_b 13.012450
_cell_length_c 15.087082
_cell_angle_alpha 90.000000
_cell_angle_beta 154.115933
_cell_angle_gamma 90.000000
_cell_volume 2127.596099
_symmetry_space_group_name_H-M "C 2/C"
_symmetry_group_IT_number 15
_symmetry_cell_setting 'monoclinic'
loop_
_space_group_symop_operation_xyz
x,y,z
-x,y,1/2-z
-x,-y,-z
x,-y,1/2+z
1/2+x,1/2+y,z
1/2-x,1/2+y,1/2-z
1/2-x,1/2-y,-z
1/2+x,1/2-y,1/2+z
loop_
_atom_site_type_symbol
_atom_site_label
_atom_site_fract_x
_atom_site_fract_y
_atom_site_fract_z
Si Si1 0.106081 0.294457 0.661954
Si Si2 0.145544 0.607198 0.689298
Si Si3 0.637340 0.014487 0.481756
Si Si4 0.502721 0.585252 0.928183
Si Si5 0.255044 0.816609 0.804832
Si Si6 0.765678 0.943447 0.995332
O O1 0.054017 0.190747 0.622080
O O2 0.159670 0.271715 0.645271
O O3 0.220206 0.336251 0.888116
O O4 0.999915 0.383050 0.503330
O O5 0.165186 0.561005 0.620181
O O6 0.205969 0.720313 0.788081
O O7 0.209917 0.538517 0.858912
O O8 0.500000 0.043154 0.250000
O O9 0.658049 0.891439 0.509011
O O10 0.728712 0.061249 0.544355
O O11 0.415696 0.549031 0.717389
O O12 0.500000 0.500000 0.000000
O O13 0.641607 0.610740 0.101472
#
# Coordination Sequence:
#
# PCOD8153355 Si02
#       6
#     8   8   8   8   8   8
#     4  11  23  45  72  99 137 184 236 284 344 417
#     4  11  25  46  68 104 140 178 235 291 340 415
#     4  12  23  44  73 101 136 184 232 286 346 418
#     4  11  25  45  68 102 144 180 225 294 350 407
#     4  11  25  45  68 100 143 183 230 282 354 416
#     4  12  23  44  73  99 139 182 231 286 345 409
#
# _framework density 22.560673000000001
#
# number of rings (size 3 to 8) (size 9 to 14) (size 15 to 20)
#    0.000    0.667    5.000    3.000    0.000    1.333 
#    3.000    0.000    0.000    0.000    0.000    0.000 
#    0.000    0.000    0.000    0.000    0.000    0.000 
#
# Total GULP energy -297564.431379 kJ/mol
# GULP energy per Si atom -12398.517974 kJ/mol
# Density = 2.250932 g / cm^3
# Si number density = 22.560673 Si / 1000 Ang^3
#
#
#
# Elastic Constant Matrix: (Units=GPa)
#
#
# Indices 1 2 3 4 5 6 
#
# 1 68.9482 -6.7047 6.8173 0.0000 4.0361 0.0000
# 2 -6.7047 87.8951 32.5886 0.0000 -4.6422 0.0000
# 3 6.8173 32.5886 88.9717 0.0000 -6.3660 0.0000
# 4 0.0000 0.0000 0.0000 33.6118 0.0000 2.1743
# 5 4.0361 -4.6422 -6.3660 0.0000 24.5929 0.0000
# 6 0.0000 0.0000 0.0000 2.1743 0.0000 20.5168
#
#
#
# Elastic Compliance Matrix: (Units=1/GPa)
#
#
# Indices 1 2 3 4 5 6 
#
# 1 0.015023 0.001739 -0.001978 0.000000 -0.002649 0.000000
# 2 0.001739 0.013405 -0.004975 0.000000 0.000957 0.000000
# 3 -0.001978 -0.004975 0.013418 0.000000 0.002859 0.000000
# 4 0.000000 0.000000 0.000000 0.029957 0.000000 -0.003175
# 5 -0.002649 0.000957 0.002859 0.000000 0.042018 0.000000
# 6 0.000000 0.000000 0.000000 -0.003175 0.000000 0.049077
#
#
# Mechanical properties :
#
#
# Convention : Reuss Voigt Hill
#
# Bulk Modulus (GPa) = 31.82711 34.57973 33.20342
# Shear Modulus (GPa) = 27.20388 29.95188 28.57788
#
# Velocity S-wave (km/s) = 3.47624 3.64760 3.56295
# Velocity P-wave (km/s) = 5.50003 5.75332 5.62810
#
# Compressibility (1/GPa) = 0.03141975
#
# Stress axis : x y z
#
# Youngs Moduli (GPa) = 66.56273 74.59953 74.52798
#
# Poissons Ratio (x) = -0.12976 0.14740
# Poissons Ratio (y) = -0.11578 0.37076
# Poissons Ratio (z) = 0.13165 0.37111
#
# Static dielectric constant tensor:
#      x y z
#    x 4.127110 0.000000 0.227500 
#    y 0.000000 4.185990 0.000000 
#    z 0.227500 0.000000 4.534740 
# 
# 
# High freq. dielectric constant tensor:
#      x y z
#    x 1.881290 0.000000 0.017070 
#    y 0.000000 1.901820 0.000000 
#    z 0.017070 0.000000 1.897570 
# 
# From -- ./inp_files/144081.got.cif
#   From: 2010.06.25/outbox.cif.g09.slc.cpg/sg15_73_cif.got.tgz:144081.got - 2010.06.28 07:06:18.
