data_PCOD8153093
_publ_section_title
;
Structure prediction by ZEFSAII (Michael W. Deem and Ramdas Pophale) SiO2 
 PCOD8153093
Probable space group: C 2/C
;
_chemical_formula_sum "Si O2"
_cell_formula_units_Z 48
_cell_length_a 10.996751
_cell_length_b 17.333335
_cell_length_c 11.659900
_cell_angle_alpha 90.000000
_cell_angle_beta 108.798300
_cell_angle_gamma 90.000000
_cell_volume 2103.947187
_symmetry_space_group_name_H-M "C 2/C"
_symmetry_group_IT_number 15
_symmetry_cell_setting 'monoclinic'
loop_
_space_group_symop_operation_xyz
x,y,z
-x,y,1/2-z
-x,-y,-z
x,-y,1/2+z
1/2+x,1/2+y,z
1/2-x,1/2+y,1/2-z
1/2-x,1/2-y,-z
1/2+x,1/2-y,1/2+z
loop_
_atom_site_type_symbol
_atom_site_label
_atom_site_fract_x
_atom_site_fract_y
_atom_site_fract_z
Si Si1 0.646568 0.450898 0.261270
Si Si2 0.562447 0.155120 0.014211
Si Si3 0.265366 0.111190 0.227797
Si Si4 0.492168 0.302508 0.875185
Si Si5 0.715246 0.400584 0.037867
Si Si6 0.824354 0.565855 0.002785
O O1 0.500000 0.467795 0.250000
O O2 0.726897 0.529161 0.269319
O O3 0.655442 0.403643 0.145819
O O4 0.715874 0.400488 0.382318
O O5 0.645946 0.156981 0.156001
O O6 0.494003 0.237280 0.974948
O O7 0.658528 0.152907 0.933032
O O8 0.462841 0.082562 0.985110
O O9 0.141648 0.156341 0.149764
O O10 0.342019 0.104281 0.131814
O O11 0.500000 0.266913 0.750000
O O12 0.604131 0.366975 0.922095
O O13 0.772843 0.479246 0.003666
#
# Coordination Sequence:
#
# PCOD8153093 Si02
#       6
#     8   8   8   8   8   8
#     4  11  23  42  72 105 135 175 238 289 344 409
#     4  12  26  43  67 104 142 181 230 282 355 421
#     4  11  24  45  69  99 142 183 230 289 345 411
#     4  12  25  44  71  97 139 189 236 282 347 424
#     4  11  24  44  72 102 137 179 234 294 342 410
#     4  11  24  44  71 101 140 180 229 292 352 406
#
# _framework density 22.814260000000001
#
# number of rings (size 3 to 8) (size 9 to 14) (size 15 to 20)
#    0.000    0.667    3.333    4.000    2.333    3.333 
#    0.000    3.333    0.000    0.000    0.000    0.000 
#    0.000    0.000    0.000    0.000    0.000    0.000 
#
# Total GULP energy -297390.024822 kJ/mol
# GULP energy per Si atom -12391.251034 kJ/mol
# Density = 2.276233 g / cm^3
# Si number density = 22.814260 Si / 1000 Ang^3
#
#
#
# Elastic Constant Matrix: (Units=GPa)
#
#
# Indices 1 2 3 4 5 6 
#
# 1 110.8175 22.6565 52.1440 0.0000 11.0881 0.0000
# 2 22.6565 82.0048 41.8494 0.0000 11.3693 0.0000
# 3 52.1440 41.8494 150.5219 0.0000 -3.1943 0.0000
# 4 0.0000 0.0000 0.0000 25.5689 0.0000 112.9232
# 5 11.0881 11.3693 -3.1943 0.0000 41.6425 0.0000
# 6 0.0000 0.0000 0.0000 112.9232 0.0000 -964.1136
#
#
#
# Elastic Compliance Matrix: (Units=1/GPa)
#
#
# Indices 1 2 3 4 5 6 
#
# 1 0.011253 -0.000769 -0.003750 0.000000 -0.003074 0.000000
# 2 -0.000769 0.015033 -0.004002 0.000000 -0.004206 0.000000
# 3 -0.003750 -0.004002 0.009114 0.000000 0.002790 0.000000
# 4 0.000000 0.000000 0.000000 0.025776 0.000000 0.003019
# 5 -0.003074 -0.004206 0.002790 0.000000 0.026195 0.000000
# 6 0.000000 0.000000 0.000000 0.003019 0.000000 -0.000684
#
#
# Mechanical properties :
#
#
# Convention : Reuss Voigt Hill
#
# Bulk Modulus (GPa) = 54.47300 64.07154 59.27227
# Shear Modulus (GPa) = 45.51686 -164.26749 -59.37531
#
# Velocity S-wave (km/s) = 4.47151 -8.49461 -5.10706
# Velocity P-wave (km/s) = 7.11250 8.25023 2.95623
#
# Compressibility (1/GPa) = 0.01835772
#
# Stress axis : x y z
#
# Youngs Moduli (GPa) = 88.86481 66.52210 109.71576
#
# Poissons Ratio (x) = 0.05118 0.41139
# Poissons Ratio (y) = 0.06836 0.43911
# Poissons Ratio (z) = 0.33321 0.26624
#
# Static dielectric constant tensor:
#      x y z
#    x 4.264130 0.000000 -0.058340 
#    y 0.000000 3.876540 0.000000 
#    z -0.058340 0.000000 4.422550 
# 
# 
# High freq. dielectric constant tensor:
#      x y z
#    x 1.912420 0.000000 0.002860 
#    y 0.000000 1.870940 0.000000 
#    z 0.002860 0.000000 1.920320 
# 
# From -- ./inp_files/87871.got.cif
#   From: 2010.06.25/outbox.cif.g09.slc.cpg/sg15_44_cif.got.tgz:87871.got - 2010.06.28 07:06:18.
