data_PCOD8153841
_publ_section_title
;
Structure prediction by ZEFSAII (Michael W. Deem and Ramdas Pophale) SiO2 
 PCOD8153841
Probable space group: C 2/C
;
_chemical_formula_sum "Si O2"
_cell_formula_units_Z 48
_cell_length_a 11.642285
_cell_length_b 20.949139
_cell_length_c 11.476395
_cell_angle_alpha 90.000000
_cell_angle_beta 131.377378
_cell_angle_gamma 90.000000
_cell_volume 2100.325376
_symmetry_space_group_name_H-M "C 2/C"
_symmetry_group_IT_number 15
_symmetry_cell_setting 'monoclinic'
loop_
_space_group_symop_operation_xyz
x,y,z
-x,y,1/2-z
-x,-y,-z
x,-y,1/2+z
1/2+x,1/2+y,z
1/2-x,1/2+y,1/2-z
1/2-x,1/2-y,-z
1/2+x,1/2-y,1/2+z
loop_
_atom_site_type_symbol
_atom_site_label
_atom_site_fract_x
_atom_site_fract_y
_atom_site_fract_z
Si Si1 0.103982 0.186854 0.592327
Si Si2 0.322024 0.111246 0.877192
Si Si3 0.327701 0.980151 0.171846
Si Si4 0.874438 0.329580 0.846868
Si Si5 0.311612 0.610952 0.466697
Si Si6 0.659519 0.622026 0.401599
O O1 0.266116 0.171217 0.762625
O O2 0.058011 0.258549 0.594088
O O3 0.122409 0.179370 0.466414
O O4 0.982783 0.134625 0.557186
O O5 0.323915 0.048412 0.798863
O O6 0.490699 0.120931 0.039933
O O7 0.208130 0.103792 0.908910
O O8 0.500000 0.998977 0.250000
O O9 0.219542 0.041810 0.110552
O O10 0.262851 0.931630 0.031649
O O11 0.807843 0.338884 0.671876
O O12 0.740843 0.343902 0.848450
O O13 0.500000 0.591320 0.250000
#
# Coordination Sequence:
#
# PCOD8153841 Si02
#       6
#     8   8   8   8   8   8
#     4  11  26  45  69 103 144 187 236 292 352 424
#     4  11  26  43  71 104 136 189 235 291 356 428
#     4  11  25  47  74 104 143 184 246 297 354 420
#     4  12  24  46  71 104 143 187 239 288 357 421
#     4  12  27  44  71 105 142 194 226 297 361 421
#     4  11  24  45  74 107 138 189 240 302 351 408
#
# _framework density 22.853601999999999
#
# number of rings (size 3 to 8) (size 9 to 14) (size 15 to 20)
#    0.000    0.667    3.333    3.500    2.333    9.333 
#    0.000    0.000    0.000    0.000    0.000    0.000 
#    0.000    0.000    0.000    0.000    0.000    0.000 
#
# Total GULP energy -297705.260135 kJ/mol
# GULP energy per Si atom -12404.385839 kJ/mol
# Density = 2.280159 g / cm^3
# Si number density = 22.853602 Si / 1000 Ang^3
#
#
#
# Elastic Constant Matrix: (Units=GPa)
#
#
# Indices 1 2 3 4 5 6 
#
# 1 103.1944 19.5414 20.1761 0.0000 -11.4238 0.0000
# 2 19.5414 115.2333 7.9755 0.0000 -4.8830 0.0000
# 3 20.1761 7.9755 93.7741 0.0000 -4.2731 0.0000
# 4 0.0000 0.0000 0.0000 26.0431 0.0000 3.6080
# 5 -11.4238 -4.8830 -4.2731 0.0000 40.4779 0.0000
# 6 0.0000 0.0000 0.0000 3.6080 0.0000 26.6580
#
#
#
# Elastic Compliance Matrix: (Units=1/GPa)
#
#
# Indices 1 2 3 4 5 6 
#
# 1 0.010674 -0.001558 -0.002045 0.000000 0.002609 0.000000
# 2 -0.001558 0.008996 -0.000402 0.000000 0.000603 0.000000
# 3 -0.002045 -0.000402 0.011163 0.000000 0.000553 0.000000
# 4 0.000000 0.000000 0.000000 0.039132 0.000000 -0.005296
# 5 0.002609 0.000603 0.000553 0.000000 0.025572 0.000000
# 6 0.000000 0.000000 0.000000 -0.005296 0.000000 0.038229
#
#
# Mechanical properties :
#
#
# Convention : Reuss Voigt Hill
#
# Bulk Modulus (GPa) = 43.81761 45.28754 44.55257
# Shear Modulus (GPa) = 33.47069 36.26973 34.87021
#
# Velocity S-wave (km/s) = 3.83112 3.98810 3.91040
# Velocity P-wave (km/s) = 6.22774 6.40827 6.31865
#
# Compressibility (1/GPa) = 0.02282188
#
# Stress axis : x y z
#
# Youngs Moduli (GPa) = 93.68434 111.16471 89.57862
#
# Poissons Ratio (x) = 0.17320 0.18321
# Poissons Ratio (y) = 0.14596 0.03604
# Poissons Ratio (z) = 0.19161 0.04473
#
# Static dielectric constant tensor:
#      x y z
#    x 4.076400 0.000000 -0.056840 
#    y 0.000000 3.861240 0.000000 
#    z -0.056840 0.000000 4.379840 
# 
# 
# High freq. dielectric constant tensor:
#      x y z
#    x 1.905380 0.000000 -0.002890 
#    y 0.000000 1.889900 0.000000 
#    z -0.002890 0.000000 1.927020 
# 
# From -- ./inp_files/89793.got.cif
#   From: 2010.06.25/outbox.cif.g09.slc.cpg/sg15_45_cif.got.tgz:89793.got - 2010.06.28 07:06:18.
