data_PCOD8153470
_publ_section_title
;
Structure prediction by ZEFSAII (Michael W. Deem and Ramdas Pophale) SiO2 
 PCOD8153470
Probable space group: C 2/C
;
_chemical_formula_sum "Si O2"
_cell_formula_units_Z 48
_cell_length_a 12.352687
_cell_length_b 9.583142
_cell_length_c 26.962108
_cell_angle_alpha 90.000000
_cell_angle_beta 44.324711
_cell_angle_gamma 90.000000
_cell_volume 2230.122900
_symmetry_space_group_name_H-M "C 2/C"
_symmetry_group_IT_number 15
_symmetry_cell_setting 'monoclinic'
loop_
_space_group_symop_operation_xyz
x,y,z
-x,y,1/2-z
-x,-y,-z
x,-y,1/2+z
1/2+x,1/2+y,z
1/2-x,1/2+y,1/2-z
1/2-x,1/2-y,-z
1/2+x,1/2-y,1/2+z
loop_
_atom_site_type_symbol
_atom_site_label
_atom_site_fract_x
_atom_site_fract_y
_atom_site_fract_z
Si Si1 0.803481 0.849968 0.939628
Si Si2 0.831585 0.030939 0.280937
Si Si3 0.826488 0.757894 0.326424
Si Si4 0.145187 0.744231 0.396701
Si Si5 0.806059 0.334184 0.028430
Si Si6 0.129183 0.970929 0.845289
O O1 0.775501 0.768170 0.896988
O O2 0.983093 0.869714 0.892242
O O3 0.723909 0.001331 0.965441
O O4 0.750000 0.750000 0.000000
O O5 0.713270 0.159383 0.327396
O O6 0.840649 0.985627 0.220858
O O7 0.000000 0.064516 0.250000
O O8 0.744406 0.900184 0.335088
O O9 0.795451 0.759746 0.395298
O O10 0.770521 0.615647 0.320794
O O11 0.000000 0.776790 0.250000
O O12 0.990398 0.684130 0.473058
O O13 0.108214 0.898131 0.388707
O O14 0.750000 0.250000 0.000000
#
# Coordination Sequence:
#
# PCOD8153470 Si02
#       6
#     8   8   8   8   8   8
#     4  12  26  46  71 105 139 182 239 303 362 436
#     4  11  23  47  74 101 144 193 243 297 366 433
#     4  11  26  48  72 102 147 189 239 298 361 442
#     4  12  26  46  75 103 145 188 243 300 363 438
#     4  12  26  47  75 104 142 194 240 298 376 431
#     4  12  26  46  70 110 143 189 243 301 364 433
#
# _framework density 21.523478000000001
#
# number of rings (size 3 to 8) (size 9 to 14) (size 15 to 20)
#    0.000    0.333    5.000    3.500    7.000    2.000 
#    3.000    0.000    0.000    0.000    0.000    0.000 
#    0.000    0.000    0.000    0.000    0.000    0.000 
#
# Total GULP energy -297498.687704 kJ/mol
# GULP energy per Si atom -12395.778654 kJ/mol
# Density = 2.147449 g / cm^3
# Si number density = 21.523478 Si / 1000 Ang^3
#
#
#
# Elastic Constant Matrix: (Units=GPa)
#
#
# Indices 1 2 3 4 5 6 
#
# 1 88.9132 52.5314 41.0249 0.0000 23.4677 0.0000
# 2 52.5314 60.2354 39.2211 0.0000 11.4068 0.0000
# 3 41.0249 39.2211 130.8174 0.0000 13.8281 0.0000
# 4 0.0000 0.0000 0.0000 37.9047 0.0000 4.4382
# 5 23.4677 11.4068 13.8281 0.0000 41.5261 0.0000
# 6 0.0000 0.0000 0.0000 4.4382 0.0000 39.6536
#
#
#
# Elastic Compliance Matrix: (Units=1/GPa)
#
#
# Indices 1 2 3 4 5 6 
#
# 1 0.026142 -0.020379 -0.001159 0.000000 -0.008790 0.000000
# 2 -0.020379 0.037091 -0.005048 0.000000 0.003009 0.000000
# 3 -0.001159 -0.005048 0.009645 0.000000 -0.001170 0.000000
# 4 0.000000 0.000000 0.000000 0.026732 0.000000 -0.002992
# 5 -0.008790 0.003009 -0.001170 0.000000 0.028612 0.000000
# 6 0.000000 0.000000 0.000000 -0.002992 0.000000 0.025553
#
#
# Mechanical properties :
#
#
# Convention : Reuss Voigt Hill
#
# Bulk Modulus (GPa) = 50.74590 60.61344 55.67967
# Shear Modulus (GPa) = 23.41744 33.62945 28.52345
#
# Velocity S-wave (km/s) = 3.30206 3.95708 3.64431
# Velocity P-wave (km/s) = 6.17789 7.00718 6.60556
#
# Compressibility (1/GPa) = 0.01970602
#
# Stress axis : x y z
#
# Youngs Moduli (GPa) = 38.25236 26.96061 103.68308
#
# Poissons Ratio (x) = 0.54944 0.12018
# Poissons Ratio (y) = 0.77956 0.52335
# Poissons Ratio (z) = 0.04434 0.13609
#
# Static dielectric constant tensor:
#      x y z
#    x 3.964800 0.000000 -0.174510 
#    y 0.000000 4.075660 0.000000 
#    z -0.174510 0.000000 4.419850 
# 
# 
# High freq. dielectric constant tensor:
#      x y z
#    x 1.845550 0.000000 0.007250 
#    y 0.000000 1.852990 0.000000 
#    z 0.007250 0.000000 1.860040 
# 
# From -- ./inp_files/312809.got.cif
#   From: 2010.06.25/outbox.cif.g09.slc.cpg/sg15_157_cif.got.tgz:312809.got - 2010.06.28 07:06:18.
