data_PCOD8153301
_publ_section_title
;
Structure prediction by ZEFSAII (Michael W. Deem and Ramdas Pophale) SiO2 
 PCOD8153301
Probable space group: C 2/C
;
_chemical_formula_sum "Si O2"
_cell_formula_units_Z 40
_cell_length_a 13.886980
_cell_length_b 14.533314
_cell_length_c 17.328776
_cell_angle_alpha 90.000000
_cell_angle_beta 146.481271
_cell_angle_gamma 90.000000
_cell_volume 1931.275624
_symmetry_space_group_name_H-M "C 2/C"
_symmetry_group_IT_number 15
_symmetry_cell_setting 'monoclinic'
loop_
_space_group_symop_operation_xyz
x,y,z
-x,y,1/2-z
-x,-y,-z
x,-y,1/2+z
1/2+x,1/2+y,z
1/2-x,1/2+y,1/2-z
1/2-x,1/2-y,-z
1/2+x,1/2-y,1/2+z
loop_
_atom_site_type_symbol
_atom_site_label
_atom_site_fract_x
_atom_site_fract_y
_atom_site_fract_z
Si Si1 0.323505 0.628715 0.098689
Si Si2 0.157886 0.544638 0.559365
Si Si3 0.073879 0.690984 0.383280
Si Si4 0.390130 0.706430 0.988683
Si Si5 0.245662 0.794232 0.265538
O O1 0.500000 0.672687 0.250000
O O2 0.294558 0.530839 0.120354
O O3 0.163699 0.694705 0.012668
O O4 0.350094 0.625126 0.023542
O O5 0.096879 0.593995 0.440757
O O6 0.250110 0.615392 0.678858
O O7 0.000000 0.500000 0.500000
O O8 0.250000 0.750000 0.500000
O O9 0.000000 0.670073 0.250000
O O10 0.934960 0.745460 0.339618
O O11 0.273600 0.678312 0.837175
O O12 0.596885 0.722446 0.111835
#
# Coordination Sequence:
#
# PCOD8153301 Si02
#       5
#     8   8   8   8   8
#     4  11  24  42  69 104 142 174 228 288 339 404
#     4  12  26  44  69 103 142 175 232 292 337 397
#     4  12  25  45  70  97 135 191 229 274 348 420
#     4  11  23  44  73  98 137 186 224 271 357 413
#     4  12  22  45  70  98 136 184 229 282 342 414
#
# _framework density 20.7117
#
# number of rings (size 3 to 8) (size 9 to 14) (size 15 to 20)
#    0.000    0.400    8.000    0.000    2.800    1.600 
#    0.000    1.000    0.000    0.000    0.000    0.000 
#    0.000    0.000    0.000    0.000    0.000    0.000 
#
# Total GULP energy -247980.411508 kJ/mol
# GULP energy per Si atom -12399.020575 kJ/mol
# Density = 2.066456 g / cm^3
# Si number density = 20.711700 Si / 1000 Ang^3
#
#
#
# Elastic Constant Matrix: (Units=GPa)
#
#
# Indices 1 2 3 4 5 6 
#
# 1 104.2531 41.6838 46.6054 -0.0008 -13.0970 -0.0002
# 2 41.6838 75.2431 18.5922 -0.0025 -2.3501 -0.0013
# 3 46.6054 18.5922 120.0368 -0.0028 -18.8104 -0.0010
# 4 -0.0008 -0.0025 -0.0028 24.5188 -0.0004 -12.4327
# 5 -13.0970 -2.3501 -18.8104 -0.0004 62.2229 0.0002
# 6 -0.0002 -0.0013 -0.0010 -12.4327 0.0002 38.3845
#
#
#
# Elastic Compliance Matrix: (Units=1/GPa)
#
#
# Indices 1 2 3 4 5 6 
#
# 1 0.014467 -0.006902 -0.004316 -0.000001 0.001480 -0.000001
# 2 -0.006902 0.017113 -0.000102 0.000002 -0.000837 0.000001
# 3 -0.004316 -0.000102 0.010371 0.000001 0.002223 0.000001
# 4 -0.000001 0.000002 0.000001 0.048800 0.000001 0.015806
# 5 0.001480 -0.000837 0.002223 0.000001 0.017023 0.000000
# 6 -0.000001 0.000001 0.000001 0.015806 0.000000 0.031172
#
#
# Mechanical properties :
#
#
# Convention : Reuss Voigt Hill
#
# Bulk Modulus (GPa) = 51.78514 57.03287 54.40901
# Shear Modulus (GPa) = 29.75799 37.86867 33.81333
#
# Velocity S-wave (km/s) = 3.79459 4.28058 4.04489
# Velocity P-wave (km/s) = 6.65249 7.21301 6.93841
#
# Compressibility (1/GPa) = 0.01931056
#
# Stress axis : x y z
#
# Youngs Moduli (GPa) = 69.12303 58.43557 96.42591
#
# Poissons Ratio (x) = 0.40331 0.41618
# Poissons Ratio (y) = 0.47708 0.00984
# Poissons Ratio (z) = 0.29834 0.00596
#
# Static dielectric constant tensor:
#      x y z
#    x 3.991270 0.000020 0.100440 
#    y 0.000020 3.672290 -0.000040 
#    z 0.100440 -0.000040 3.496530 
# 
# 
# High freq. dielectric constant tensor:
#      x y z
#    x 1.836040 0.000000 -0.002250 
#    y 0.000000 1.785060 0.000000 
#    z -0.002250 0.000000 1.825330 
# 
# From -- ./inp_files/37965.got.cif
#   From: 2010.06.25/outbox.cif.g09.slc.cpg/sg15_19_cif.got.tgz:37965.got - 2010.06.28 07:06:18.
