data_PCOD8153445
_publ_section_title
;
Structure prediction by ZEFSAII (Michael W. Deem and Ramdas Pophale) SiO2 
 PCOD8153445
Probable space group: C 2/C
;
_chemical_formula_sum "Si O2"
_cell_formula_units_Z 40
_cell_length_a 10.887451
_cell_length_b 10.098027
_cell_length_c 15.261392
_cell_angle_alpha 90.000000
_cell_angle_beta 90.000010
_cell_angle_gamma 90.000000
_cell_volume 1677.864513
_symmetry_space_group_name_H-M "C 2/C"
_symmetry_group_IT_number 15
_symmetry_cell_setting 'monoclinic'
loop_
_space_group_symop_operation_xyz
x,y,z
-x,y,1/2-z
-x,-y,-z
x,-y,1/2+z
1/2+x,1/2+y,z
1/2-x,1/2+y,1/2-z
1/2-x,1/2-y,-z
1/2+x,1/2-y,1/2+z
loop_
_atom_site_type_symbol
_atom_site_label
_atom_site_fract_x
_atom_site_fract_y
_atom_site_fract_z
Si Si1 0.829944 0.880582 0.991673
Si Si2 0.829944 0.619418 0.508327
Si Si3 0.385000 0.505047 0.807936
Si Si4 0.115000 0.494953 0.807936
Si Si5 1.000000 0.750000 0.382490
O O1 0.750000 0.000000 0.028865
O O2 0.876447 0.912257 0.893672
O O3 0.750000 0.750000 0.000000
O O4 0.943396 0.864805 0.056763
O O5 0.750000 0.750000 0.500000
O O6 0.876447 0.587743 0.606328
O O7 0.943396 0.635195 0.443237
O O8 0.500000 0.452368 0.750000
O O9 0.250000 0.500000 0.760524
O O10 0.404999 0.662825 0.825881
O O11 0.000000 0.547632 0.750000
O O12 0.095001 0.337175 0.825881
#
# Coordination Sequence:
#
# PCOD8153445 Si02
#       5
#     8   8   8   8   8
#     4  11  23  46  80 113 149 204 271 321 385 477
#     4  11  23  46  80 113 149 204 271 321 385 477
#     4  11  25  48  76 114 159 208 259 329 405 464
#     4  11  25  48  76 114 159 208 259 329 405 464
#     4  12  23  48  79 108 152 206 266 324 383 482
#
# _framework density 23.839827
#
# number of rings (size 3 to 8) (size 9 to 14) (size 15 to 20)
#    0.000    0.800    8.000    1.800    0.000    1.600 
#    0.000    1.000    0.000    0.000    0.000    0.000 
#    0.000    0.000    0.000    0.000    0.000    0.000 
#
# Total GULP energy -247812.264901 kJ/mol
# GULP energy per Si atom -12390.613245 kJ/mol
# Density = 2.378557 g / cm^3
# Si number density = 23.839827 Si / 1000 Ang^3
#
#
#
# Elastic Constant Matrix: (Units=GPa)
#
#
# Indices 1 2 3 4 5 6 
#
# 1 202.2174 66.6278 62.9024 0.0000 0.0000 0.0000
# 2 66.6278 165.2150 51.5724 0.0000 0.0000 0.0000
# 3 62.9024 51.5724 70.6195 0.0000 0.0000 0.0000
# 4 0.0000 0.0000 0.0000 40.7177 0.0000 0.0000
# 5 0.0000 0.0000 0.0000 0.0000 47.1539 0.0000
# 6 0.0000 0.0000 0.0000 0.0000 0.0000 65.5391
#
#
#
# Elastic Compliance Matrix: (Units=1/GPa)
#
#
# Indices 1 2 3 4 5 6 
#
# 1 0.007001 -0.001136 -0.005407 0.000000 0.000000 0.000000
# 2 -0.001136 0.008024 -0.004848 0.000000 0.000000 0.000000
# 3 -0.005407 -0.004848 0.022517 0.000000 0.000000 0.000000
# 4 0.000000 0.000000 0.000000 0.024559 0.000000 0.000000
# 5 0.000000 0.000000 0.000000 0.000000 0.021207 0.000000
# 6 0.000000 0.000000 0.000000 0.000000 0.000000 0.015258
#
#
# Mechanical properties :
#
#
# Convention : Reuss Voigt Hill
#
# Bulk Modulus (GPa) = 67.74715 88.91746 78.33231
# Shear Modulus (GPa) = 39.59811 47.81209 43.70510
#
# Velocity S-wave (km/s) = 4.07997 4.48320 4.28633
# Velocity P-wave (km/s) = 7.11858 8.01109 7.57799
#
# Compressibility (1/GPa) = 0.01476077
#
# Stress axis : x y z
#
# Youngs Moduli (GPa) = 142.83241 124.62386 44.41100
#
# Poissons Ratio (x) = 0.14154 0.24012
# Poissons Ratio (y) = 0.16222 0.21532
# Poissons Ratio (z) = 0.77226 0.60422
#
# Static dielectric constant tensor:
#      x y z
#    x 4.738930 0.000000 0.000000 
#    y 0.000000 4.217910 0.000000 
#    z 0.000000 0.000000 4.463580 
# 
# 
# High freq. dielectric constant tensor:
#      x y z
#    x 1.963760 0.000000 0.000000 
#    y 0.000000 1.949120 0.000000 
#    z 0.000000 0.000000 1.929510 
# 
# From -- ./inp_files/195189.got.cif
#   From: 2010.06.25/outbox.cif.g09.slc.cpg/sg15_98_cif.got.tgz:195189.got - 2010.06.28 07:06:18.
