data_PCOD8153643
_publ_section_title
;
Structure prediction by ZEFSAII (Michael W. Deem and Ramdas Pophale) SiO2 
 PCOD8153643
Probable space group: C 2/C
;
_chemical_formula_sum "Si O2"
_cell_formula_units_Z 56
_cell_length_a 6.636472
_cell_length_b 17.894045
_cell_length_c 24.515385
_cell_angle_alpha 90.000000
_cell_angle_beta 61.439774
_cell_angle_gamma 90.000000
_cell_volume 2557.024221
_symmetry_space_group_name_H-M "C 2/C"
_symmetry_group_IT_number 15
_symmetry_cell_setting 'monoclinic'
loop_
_space_group_symop_operation_xyz
x,y,z
-x,y,1/2-z
-x,-y,-z
x,-y,1/2+z
1/2+x,1/2+y,z
1/2-x,1/2+y,1/2-z
1/2-x,1/2-y,-z
1/2+x,1/2-y,1/2+z
loop_
_atom_site_type_symbol
_atom_site_label
_atom_site_fract_x
_atom_site_fract_y
_atom_site_fract_z
Si Si1 0.778375 0.664172 0.483933
Si Si2 0.912412 0.090104 0.091379
Si Si3 0.235965 0.829201 0.631493
Si Si4 0.061899 0.065066 0.599385
Si Si5 0.727179 0.432959 0.193555
Si Si6 0.074989 0.582280 0.299243
Si Si7 0.882617 0.663464 0.823974
O O1 0.750000 0.750000 0.500000
O O2 0.586220 0.639091 0.464151
O O3 0.732531 0.619136 0.545107
O O4 0.037574 0.649698 0.431661
O O5 0.650547 0.071147 0.136565
O O6 0.020752 0.135654 0.127712
O O7 0.028545 0.009360 0.067422
O O8 0.255435 0.860774 0.690920
O O9 0.203085 0.740844 0.639951
O O10 0.829751 0.106503 0.648150
O O11 0.185401 0.036881 0.638238
O O12 0.500000 0.397203 0.250000
O O13 0.803217 0.501848 0.222492
O O14 0.919007 0.369206 0.163129
O O15 0.000000 0.614269 0.250000
O O16 0.000000 0.672471 0.750000
#
# Coordination Sequence:
#
# PCOD8153643 Si02
#       7
#     8   8   8   8   8   8   8
#     4  11  26  47  70 104 141 185 236 290 347 416
#     4  11  25  46  71 101 136 183 239 290 345 412
#     4  11  27  46  69 104 140 185 234 286 355 410
#     4  12  24  47  72 100 139 184 235 287 345 418
#     4  12  24  42  73 103 137 184 234 282 352 422
#     4  11  24  43  71 102 139 181 232 287 349 423
#     4  12  26  44  68 105 143 180 226 288 353 417
#
# _framework density 21.900455999999998
#
# number of rings (size 3 to 8) (size 9 to 14) (size 15 to 20)
#    0.000    0.571    5.714    1.714    4.000    2.286 
#    0.000    0.000    0.000    0.000    0.000    0.000 
#    0.000    0.000    0.000    0.000    0.000    0.000 
#
# Total GULP energy -347256.789410 kJ/mol
# GULP energy per Si atom -12402.028193 kJ/mol
# Density = 2.185061 g / cm^3
# Si number density = 21.900456 Si / 1000 Ang^3
#
#
#
# Elastic Constant Matrix: (Units=GPa)
#
#
# Indices 1 2 3 4 5 6 
#
# 1 109.7914 44.0865 32.2806 0.0000 6.3005 0.0000
# 2 44.0865 131.6798 26.1027 0.0000 8.8861 0.0000
# 3 32.2806 26.1027 91.5858 0.0000 6.2327 0.0000
# 4 0.0000 0.0000 0.0000 36.2479 0.0000 2.5198
# 5 6.3005 8.8861 6.2327 0.0000 34.3827 0.0000
# 6 0.0000 0.0000 0.0000 2.5198 0.0000 32.8267
#
#
#
# Elastic Compliance Matrix: (Units=1/GPa)
#
#
# Indices 1 2 3 4 5 6 
#
# 1 0.011301 -0.003133 -0.003042 0.000000 -0.000710 0.000000
# 2 -0.003133 0.009015 -0.001362 0.000000 -0.001509 0.000000
# 3 -0.003042 -0.001362 0.012471 0.000000 -0.001351 0.000000
# 4 0.000000 0.000000 0.000000 0.027736 0.000000 -0.002129
# 5 -0.000710 -0.001509 -0.001351 0.000000 0.029849 0.000000
# 6 0.000000 0.000000 0.000000 -0.002129 0.000000 0.030626
#
#
# Mechanical properties :
#
#
# Convention : Reuss Voigt Hill
#
# Bulk Modulus (GPa) = 56.45648 59.77742 58.11695
# Shear Modulus (GPa) = 35.21672 36.06393 35.64033
#
# Velocity S-wave (km/s) = 4.01438 4.06238 4.03845
# Velocity P-wave (km/s) = 6.87907 7.02554 6.95269
#
# Compressibility (1/GPa) = 0.01771276
#
# Stress axis : x y z
#
# Youngs Moduli (GPa) = 88.48534 110.92715 80.18455
#
# Poissons Ratio (x) = 0.34751 0.24393
# Poissons Ratio (y) = 0.27720 0.10925
# Poissons Ratio (z) = 0.26918 0.15114
#
# Static dielectric constant tensor:
#      x y z
#    x 4.198400 0.000000 0.014800 
#    y 0.000000 3.948920 0.000000 
#    z 0.014800 0.000000 3.959690 
# 
# 
# High freq. dielectric constant tensor:
#      x y z
#    x 1.873040 0.000000 -0.000160 
#    y 0.000000 1.863300 0.000000 
#    z -0.000160 0.000000 1.858430 
# 
# From -- ./inp_files/286009.got.cif
#   From: 2010.06.25/outbox.cif.g09.slc.cpg/sg15_144_cif.got.tgz:286009.got - 2010.06.28 07:06:18.
