data_PCOD8153064
_publ_section_title
;
Structure prediction by ZEFSAII (Michael W. Deem and Ramdas Pophale) SiO2 
 PCOD8153064
Probable space group: C 2/C
;
_chemical_formula_sum "Si O2"
_cell_formula_units_Z 64
_cell_length_a 17.638570
_cell_length_b 8.567957
_cell_length_c 28.960001
_cell_angle_alpha 90.000000
_cell_angle_beta 138.089002
_cell_angle_gamma 90.000000
_cell_volume 2923.477138
_symmetry_space_group_name_H-M "C 2/C"
_symmetry_group_IT_number 15
_symmetry_cell_setting 'monoclinic'
loop_
_space_group_symop_operation_xyz
x,y,z
-x,y,1/2-z
-x,-y,-z
x,-y,1/2+z
1/2+x,1/2+y,z
1/2-x,1/2+y,1/2-z
1/2-x,1/2-y,-z
1/2+x,1/2-y,1/2+z
loop_
_atom_site_type_symbol
_atom_site_label
_atom_site_fract_x
_atom_site_fract_y
_atom_site_fract_z
Si Si1 0.046235 0.591120 0.957497
Si Si2 0.768987 0.404550 0.605594
Si Si3 0.325688 0.902245 0.218146
Si Si4 0.055529 0.051584 0.477051
Si Si5 0.405793 0.393611 0.335089
Si Si6 0.181495 0.424813 0.093253
Si Si7 0.988260 0.584432 0.146265
Si Si8 0.395078 0.434655 0.733920
O O1 0.081747 0.765455 0.986827
O O2 0.051311 0.556294 0.905187
O O3 0.917967 0.558228 0.914705
O O4 0.135165 0.474914 0.022226
O O5 0.783337 0.543313 0.648935
O O6 0.674642 0.460736 0.525912
O O7 0.726875 0.251095 0.612978
O O8 0.885302 0.366789 0.632514
O O9 0.220634 0.866585 0.203895
O O10 0.402030 0.747458 0.249540
O O11 0.404503 0.037322 0.274333
O O12 0.000000 0.000000 0.500000
O O13 0.971689 0.014790 0.397189
O O14 0.474468 0.231936 0.367473
O O15 0.398443 0.458547 0.280393
O O16 0.280126 0.540698 0.153408
O O17 0.500000 0.484713 0.750000
#
# Coordination Sequence:
#
# PCOD8153064 Si02
#       8
#     8   8   8   8   8   8   8   8
#     4  11  24  42  69 100 130 177 227 283 332 410
#     4  12  25  44  70  99 141 181 221 289 346 402
#     4  12  24  45  69  96 138 183 228 276 334 412
#     4  12  24  45  71 100 134 177 235 280 338 409
#     4  12  25  44  72  98 135 181 230 278 336 411
#     4  11  23  42  69  96 135 176 227 272 342 405
#     4  12  27  43  67 106 138 175 230 284 349 406
#     4  12  26  43  67 101 138 175 221 281 343 401
#
# _framework density 21.891741
#
# number of rings (size 3 to 8) (size 9 to 14) (size 15 to 20)
#    0.000    0.250    2.500    7.125    1.750    3.500 
#    0.000    0.000    0.000    0.000    0.000    0.000 
#    0.000    0.000    0.000    0.000    0.000    0.000 
#
# Total GULP energy -397114.698738 kJ/mol
# GULP energy per Si atom -12409.834336 kJ/mol
# Density = 2.184191 g / cm^3
# Si number density = 21.891741 Si / 1000 Ang^3
#
#
#
# Elastic Constant Matrix: (Units=GPa)
#
#
# Indices 1 2 3 4 5 6 
#
# 1 119.8847 19.4063 52.7033 0.0000 11.3224 0.0000
# 2 19.4063 95.3164 16.1982 -0.0001 2.3099 0.0000
# 3 52.7033 16.1982 104.3552 0.0000 4.5593 0.0000
# 4 0.0000 -0.0001 0.0000 43.1036 0.0000 -1.9432
# 5 11.3224 2.3099 4.5593 0.0000 30.0914 0.0000
# 6 0.0000 0.0000 0.0000 -1.9432 0.0000 21.3421
#
#
#
# Elastic Compliance Matrix: (Units=1/GPa)
#
#
# Indices 1 2 3 4 5 6 
#
# 1 0.011198 -0.001297 -0.005309 0.000000 -0.003309 0.000000
# 2 -0.001297 0.010936 -0.001034 0.000000 -0.000195 0.000000
# 3 -0.005309 -0.001034 0.012416 0.000000 0.000196 0.000000
# 4 0.000000 0.000000 0.000000 0.023296 0.000000 0.002121
# 5 -0.003309 -0.000195 0.000196 0.000000 0.034463 0.000000
# 6 0.000000 0.000000 0.000000 0.002121 0.000000 0.047049
#
#
# Mechanical properties :
#
#
# Convention : Reuss Voigt Hill
#
# Bulk Modulus (GPa) = 51.89744 55.13020 53.51382
# Shear Modulus (GPa) = 31.04410 34.32398 32.68404
#
# Velocity S-wave (km/s) = 3.76982 3.96396 3.86811
# Velocity P-wave (km/s) = 6.53503 6.79621 6.66690
#
# Compressibility (1/GPa) = 0.01926877
#
# Stress axis : x y z
#
# Youngs Moduli (GPa) = 89.30135 91.44178 80.54105
#
# Poissons Ratio (x) = 0.11864 0.42763
# Poissons Ratio (y) = 0.11586 0.08326
# Poissons Ratio (z) = 0.47414 0.09453
#
# Static dielectric constant tensor:
#      x y z
#    x 3.907040 0.000000 0.085840 
#    y 0.000000 3.899610 0.000000 
#    z 0.085840 0.000000 4.083630 
# 
# 
# High freq. dielectric constant tensor:
#      x y z
#    x 1.860090 0.000000 0.005310 
#    y 0.000000 1.871210 0.000000 
#    z 0.005310 0.000000 1.875640 
# 
# From -- ./inp_files/315735.got.cif
#   From: 2010.06.25/outbox.cif.g09.slc.cpg/sg15_158_cif.got.tgz:315735.got - 2010.06.28 07:06:18.
