data_PCOD8153518
_publ_section_title
;
Structure prediction by ZEFSAII (Michael W. Deem and Ramdas Pophale) SiO2 
 PCOD8153518
Probable space group: C 2/C
;
_chemical_formula_sum "Si O2"
_cell_formula_units_Z 40
_cell_length_a 11.543750
_cell_length_b 9.464457
_cell_length_c 19.065389
_cell_angle_alpha 90.000000
_cell_angle_beta 123.455531
_cell_angle_gamma 90.000000
_cell_volume 1737.872012
_symmetry_space_group_name_H-M "C 2/C"
_symmetry_group_IT_number 15
_symmetry_cell_setting 'monoclinic'
loop_
_space_group_symop_operation_xyz
x,y,z
-x,y,1/2-z
-x,-y,-z
x,-y,1/2+z
1/2+x,1/2+y,z
1/2-x,1/2+y,1/2-z
1/2-x,1/2-y,-z
1/2+x,1/2-y,1/2+z
loop_
_atom_site_type_symbol
_atom_site_label
_atom_site_fract_x
_atom_site_fract_y
_atom_site_fract_z
Si Si1 0.683444 0.669360 0.177769
Si Si2 0.550246 0.777334 0.491204
Si Si3 0.165256 0.553207 0.494126
Si Si4 0.114289 0.767945 0.369309
Si Si5 0.667675 0.654995 0.672630
O O1 0.526902 0.682596 0.093765
O O2 0.800034 0.754176 0.172962
O O3 0.719783 0.504920 0.195397
O O4 0.703133 0.743023 0.261188
O O5 0.431380 0.882502 0.477888
O O6 0.618332 0.686119 0.576264
O O7 0.666077 0.881496 0.495025
O O8 0.113923 0.610037 0.402163
O O9 0.319796 0.613251 0.557212
O O10 0.955328 0.817765 0.311209
#
# Coordination Sequence:
#
# PCOD8153518 Si02
#       5
#     8   8   8   8   8
#     4  11  24  40  64  91 125 168 211 260 320 377
#     4   9  19  37  63  89 129 160 211 258 316 374
#     4   8  16  33  66  92 115 165 205 253 318 378
#     4   9  19  38  62  89 125 160 207 253 318 381
#     4  11  24  40  64  91 125 168 211 260 320 377
#
# _framework density 23.016655
#
# number of rings (size 3 to 8) (size 9 to 14) (size 15 to 20)
#    0.000    2.400    0.000    2.400   11.200    0.000 
#    0.000    4.000    0.000    0.000    0.000    0.000 
#    0.000    0.000    0.000    0.000    0.000    0.000 
#
# Total GULP energy -247789.455363 kJ/mol
# GULP energy per Si atom -12389.472768 kJ/mol
# Density = 2.296427 g / cm^3
# Si number density = 23.016655 Si / 1000 Ang^3
#
#
#
# Elastic Constant Matrix: (Units=GPa)
#
#
# Indices 1 2 3 4 5 6 
#
# 1 18.8426 7.8157 16.7249 0.0000 3.5975 0.0000
# 2 7.8157 137.7856 69.7892 0.0000 16.0982 0.0000
# 3 16.7249 69.7892 159.6969 0.0000 23.6819 0.0000
# 4 0.0000 0.0000 0.0000 31.2427 0.0000 0.8586
# 5 3.5975 16.0982 23.6819 0.0000 11.3360 0.0000
# 6 0.0000 0.0000 0.0000 0.8586 0.0000 27.9917
#
#
#
# Elastic Compliance Matrix: (Units=1/GPa)
#
#
# Indices 1 2 3 4 5 6 
#
# 1 0.059065 0.000180 -0.004994 0.000000 -0.008567 0.000000
# 2 0.000180 0.009703 -0.003198 0.000000 -0.007155 0.000000
# 3 -0.004994 -0.003198 0.010539 0.000000 -0.015890 0.000000
# 4 0.000000 0.000000 0.000000 0.032034 0.000000 -0.000983
# 5 -0.008567 -0.007155 -0.015890 0.000000 0.134291 0.000000
# 6 0.000000 0.000000 0.000000 -0.000983 0.000000 0.035755
#
#
# Mechanical properties :
#
#
# Convention : Reuss Voigt Hill
#
# Bulk Modulus (GPa) = 15.80205 56.10942 35.95573
# Shear Modulus (GPa) = 15.69827 28.91378 22.30602
#
# Velocity S-wave (km/s) = 2.61442 3.54815 3.11646
# Velocity P-wave (km/s) = 3.99925 6.42001 5.34839
#
# Compressibility (1/GPa) = 0.06328294
#
# Stress axis : x y z
#
# Youngs Moduli (GPa) = 16.93051 103.05705 94.88614
#
# Poissons Ratio (x) = -0.01856 0.47387
# Poissons Ratio (y) = -0.00305 0.30347
# Poissons Ratio (z) = 0.08455 0.32960
#
# Static dielectric constant tensor:
#      x y z
#    x 3.942910 0.000000 0.153460 
#    y 0.000000 4.078520 0.000000 
#    z 0.153460 0.000000 4.267750 
# 
# 
# High freq. dielectric constant tensor:
#      x y z
#    x 1.873910 0.000000 0.010670 
#    y 0.000000 1.901840 0.000000 
#    z 0.010670 0.000000 1.916720 
# 
# From -- ./inp_files/242658.got.cif
#   From: 2010.06.25/outbox.cif.g09.slc.cpg/sg15_122_cif.got.tgz:242658.got - 2010.06.28 07:06:18.
