data_PCOD8153360
_publ_section_title
;
Structure prediction by ZEFSAII (Michael W. Deem and Ramdas Pophale) SiO2 
 PCOD8153360
Probable space group: C 2/C
;
_chemical_formula_sum "Si O2"
_cell_formula_units_Z 44
_cell_length_a 8.184942
_cell_length_b 11.226048
_cell_length_c 23.030220
_cell_angle_alpha 90.000000
_cell_angle_beta 115.216111
_cell_angle_gamma 90.000000
_cell_volume 1914.470499
_symmetry_space_group_name_H-M "C 2/C"
_symmetry_group_IT_number 15
_symmetry_cell_setting 'monoclinic'
loop_
_space_group_symop_operation_xyz
x,y,z
-x,y,1/2-z
-x,-y,-z
x,-y,1/2+z
1/2+x,1/2+y,z
1/2-x,1/2+y,1/2-z
1/2-x,1/2-y,-z
1/2+x,1/2-y,1/2+z
loop_
_atom_site_type_symbol
_atom_site_label
_atom_site_fract_x
_atom_site_fract_y
_atom_site_fract_z
Si Si1 0.440056 0.418379 0.145288
Si Si2 0.376332 0.183632 0.286940
Si Si3 0.450453 0.925132 0.581488
Si Si4 0.500000 0.594058 0.250000
Si Si5 0.435189 0.422161 0.937499
Si Si6 0.549391 0.837438 0.045290
O O1 0.577069 0.318442 0.188824
O O2 0.392981 0.508727 0.189438
O O3 0.546705 0.499018 0.116035
O O4 0.261136 0.361354 0.090482
O O5 0.500000 0.145573 0.250000
O O6 0.403352 0.098772 0.346738
O O7 0.158544 0.173053 0.242286
O O8 0.267733 0.881221 0.582579
O O9 0.490309 0.849636 0.529377
O O10 0.435451 0.064704 0.563299
O O11 0.528270 0.291362 0.946516
O O12 0.500000 0.500000 0.000000
#
# Coordination Sequence:
#
# PCOD8153360 Si02
#       6
#     8   8   8   4   8   8
#     4  12  25  48  71 100 146 184 239 306 355 428
#     4  12  26  50  74 103 147 191 246 304 355 441
#     4  11  23  45  73 104 142 189 234 296 372 423
#     4  12  28  48  72 106 138 198 246 294 372 426
#     4  12  24  41  72 107 141 186 233 291 370 433
#     4  11  24  45  72 104 147 180 234 305 357 435
#
# _framework density 22.982856000000002
#
# number of rings (size 3 to 8) (size 9 to 14) (size 15 to 20)
#    0.000    0.364    6.364    2.727    0.000    2.182 
#    4.909    0.000    0.000    0.000    0.000    0.000 
#    0.000    0.000    0.000    0.000    0.000    0.000 
#
# Total GULP energy -272678.993393 kJ/mol
# GULP energy per Si atom -12394.499700 kJ/mol
# Density = 2.293055 g / cm^3
# Si number density = 22.982856 Si / 1000 Ang^3
#
#
#
# Elastic Constant Matrix: (Units=GPa)
#
#
# Indices 1 2 3 4 5 6 
#
# 1 85.0468 21.9885 35.7850 0.0000 -8.8655 0.0000
# 2 21.9885 133.5638 44.8027 0.0000 -6.6221 0.0000
# 3 35.7850 44.8027 117.8020 0.0000 -11.8397 0.0000
# 4 0.0000 0.0000 0.0000 23.8050 0.0000 5.8114
# 5 -8.8655 -6.6221 -11.8397 0.0000 31.8237 0.0000
# 6 0.0000 0.0000 0.0000 5.8114 0.0000 29.6803
#
#
#
# Elastic Compliance Matrix: (Units=1/GPa)
#
#
# Indices 1 2 3 4 5 6 
#
# 1 0.013752 -0.000947 -0.003586 0.000000 0.002300 0.000000
# 2 -0.000947 0.008658 -0.002961 0.000000 0.000436 0.000000
# 3 -0.003586 -0.002961 0.010952 0.000000 0.002459 0.000000
# 4 0.000000 0.000000 0.000000 0.044117 0.000000 -0.008638
# 5 0.002300 0.000436 0.002459 0.000000 0.033069 0.000000
# 6 0.000000 0.000000 0.000000 -0.008638 0.000000 0.035384
#
#
# Mechanical properties :
#
#
# Convention : Reuss Voigt Hill
#
# Bulk Modulus (GPa) = 54.42934 60.17389 57.30161
# Shear Modulus (GPa) = 29.93223 32.65089 31.29156
#
# Velocity S-wave (km/s) = 3.61275 3.77326 3.69388
# Velocity P-wave (km/s) = 6.41379 6.72475 6.57111
#
# Compressibility (1/GPa) = 0.01837245
#
# Stress axis : x y z
#
# Youngs Moduli (GPa) = 72.71825 115.50109 91.31095
#
# Poissons Ratio (x) = 0.10938 0.32745
# Poissons Ratio (y) = 0.06886 0.27040
# Poissons Ratio (z) = 0.26077 0.34203
#
# Static dielectric constant tensor:
#      x y z
#    x 3.768110 0.000000 0.003590 
#    y 0.000000 4.236870 0.000000 
#    z 0.003590 0.000000 3.350600 
# 
# 
# High freq. dielectric constant tensor:
#      x y z
#    x 1.899920 0.000000 -0.000220 
#    y 0.000000 1.918490 0.000000 
#    z -0.000220 0.000000 1.916150 
# 
# From -- ./inp_files/230139.got.cif
#   From: 2010.06.25/outbox.cif.g09.slc.cpg/sg15_116_cif.got.tgz:230139.got - 2010.06.28 07:06:18.
