data_PCOD8153885
_publ_section_title
;
Structure prediction by ZEFSAII (Michael W. Deem and Ramdas Pophale) SiO2 
 PCOD8153885
Probable space group: C 2/C
;
_chemical_formula_sum "Si O2"
_cell_formula_units_Z 48
_cell_length_a 8.637217
_cell_length_b 14.710420
_cell_length_c 17.298827
_cell_angle_alpha 90.000000
_cell_angle_beta 93.613213
_cell_angle_gamma 90.000000
_cell_volume 2193.569599
_symmetry_space_group_name_H-M "C 2/C"
_symmetry_group_IT_number 15
_symmetry_cell_setting 'monoclinic'
loop_
_space_group_symop_operation_xyz
x,y,z
-x,y,1/2-z
-x,-y,-z
x,-y,1/2+z
1/2+x,1/2+y,z
1/2-x,1/2+y,1/2-z
1/2-x,1/2-y,-z
1/2+x,1/2-y,1/2+z
loop_
_atom_site_type_symbol
_atom_site_label
_atom_site_fract_x
_atom_site_fract_y
_atom_site_fract_z
Si Si1 0.289110 0.803556 0.422574
Si Si2 0.084960 0.678340 0.833615
Si Si3 0.209244 0.355799 0.680677
Si Si4 0.792302 0.975886 0.413525
Si Si5 0.640718 0.500932 0.914745
Si Si6 0.368707 0.145515 0.150667
O O1 0.250000 0.750000 0.500000
O O2 0.469282 0.815526 0.403941
O O3 0.203982 0.898278 0.422233
O O4 0.219222 0.741217 0.353619
O O5 0.170073 0.774178 0.824623
O O6 0.210798 0.602334 0.860656
O O7 0.000000 0.651446 0.750000
O O8 0.275720 0.448327 0.650044
O O9 0.165438 0.388014 0.764735
O O10 0.046660 0.332492 0.634162
O O11 0.822951 0.947901 0.503783
O O12 0.690701 0.068238 0.410036
O O13 0.961083 0.997601 0.384400
#
# Coordination Sequence:
#
# PCOD8153885 Si02
#       6
#     8   8   8   8   8   8
#     4  12  25  45  73 102 139 184 232 293 349 417
#     4  12  27  47  71 104 143 187 235 288 356 423
#     4  11  26  44  72 101 137 186 231 289 352 416
#     4  11  26  45  71 105 139 183 237 288 353 417
#     4  11  26  46  71 104 139 185 235 292 348 415
#     4  11  24  46  71 102 140 178 235 288 351 418
#
# _framework density 21.88214
#
# number of rings (size 3 to 8) (size 9 to 14) (size 15 to 20)
#    0.000    0.667    3.333    3.000    9.333    2.000 
#    0.000    0.000    0.000    0.000    0.000    0.000 
#    0.000    0.000    0.000    0.000    0.000    0.000 
#
# Total GULP energy -297555.022365 kJ/mol
# GULP energy per Si atom -12398.125932 kJ/mol
# Density = 2.183234 g / cm^3
# Si number density = 21.882140 Si / 1000 Ang^3
#
#
#
# Elastic Constant Matrix: (Units=GPa)
#
#
# Indices 1 2 3 4 5 6 
#
# 1 93.0115 7.1369 34.3084 0.0000 17.3189 0.0000
# 2 7.1369 97.1454 29.1688 0.0000 21.2411 0.0000
# 3 34.3084 29.1688 85.0185 0.0000 2.8471 0.0000
# 4 0.0000 0.0000 0.0000 36.3506 0.0000 2.1539
# 5 17.3189 21.2411 2.8471 0.0000 35.7451 0.0000
# 6 0.0000 0.0000 0.0000 2.1539 0.0000 46.2112
#
#
#
# Elastic Compliance Matrix: (Units=1/GPa)
#
#
# Indices 1 2 3 4 5 6 
#
# 1 0.014429 0.002638 -0.006458 0.000000 -0.008044 0.000000
# 2 0.002638 0.013706 -0.005466 0.000000 -0.008988 0.000000
# 3 -0.006458 -0.005466 0.016073 0.000000 0.005097 0.000000
# 4 0.000000 0.000000 0.000000 0.027586 0.000000 -0.001286
# 5 -0.008044 -0.008988 0.005097 0.000000 0.036808 0.000000
# 6 0.000000 0.000000 0.000000 -0.001286 0.000000 0.021700
#
#
# Mechanical properties :
#
#
# Convention : Reuss Voigt Hill
#
# Bulk Modulus (GPa) = 39.00819 46.26706 42.63762
# Shear Modulus (GPa) = 31.76202 37.29880 34.53041
#
# Velocity S-wave (km/s) = 3.81399 4.13308 3.97674
# Velocity P-wave (km/s) = 6.10415 6.63069 6.37286
#
# Compressibility (1/GPa) = 0.02563564
#
# Stress axis : x y z
#
# Youngs Moduli (GPa) = 69.30464 72.95824 62.21599
#
# Poissons Ratio (x) = -0.19247 0.40182
# Poissons Ratio (y) = -0.18283 0.34008
# Poissons Ratio (z) = 0.44760 0.39880
#
# Static dielectric constant tensor:
#      x y z
#    x 4.249200 0.000000 0.098510 
#    y 0.000000 3.943310 0.000000 
#    z 0.098510 0.000000 4.123410 
# 
# 
# High freq. dielectric constant tensor:
#      x y z
#    x 1.879010 0.000000 -0.001560 
#    y 0.000000 1.865460 0.000000 
#    z -0.001560 0.000000 1.864460 
# 
# From -- ./inp_files/189228.got.cif
#   From: 2010.06.25/outbox.cif.g09.slc.cpg/sg15_95_cif.got.tgz:189228.got - 2010.06.28 07:06:18.
