data_PCOD8153212
_publ_section_title
;
Structure prediction by ZEFSAII (Michael W. Deem and Ramdas Pophale) SiO2 
 PCOD8153212
Probable space group: C 2/C
;
_chemical_formula_sum "Si O2"
_cell_formula_units_Z 40
_cell_length_a 15.474353
_cell_length_b 6.476773
_cell_length_c 17.945259
_cell_angle_alpha 90.000000
_cell_angle_beta 104.181761
_cell_angle_gamma 90.000000
_cell_volume 1743.729831
_symmetry_space_group_name_H-M "C 2/C"
_symmetry_group_IT_number 15
_symmetry_cell_setting 'monoclinic'
loop_
_space_group_symop_operation_xyz
x,y,z
-x,y,1/2-z
-x,-y,-z
x,-y,1/2+z
1/2+x,1/2+y,z
1/2-x,1/2+y,1/2-z
1/2-x,1/2-y,-z
1/2+x,1/2-y,1/2+z
loop_
_atom_site_type_symbol
_atom_site_label
_atom_site_fract_x
_atom_site_fract_y
_atom_site_fract_z
Si Si1 0.168362 0.378468 0.448664
Si Si2 0.270405 0.191528 0.160566
Si Si3 0.629810 0.609446 0.694300
Si Si4 0.004724 0.760351 0.834570
Si Si5 0.624373 0.007585 0.094270
O O1 0.250000 0.250000 0.500000
O O2 0.201385 0.569124 0.406581
O O3 0.108060 0.474779 0.502201
O O4 0.107001 0.229188 0.384210
O O5 0.356690 0.262854 0.226303
O O6 0.218307 0.394841 0.124860
O O7 0.210223 0.052716 0.202591
O O8 0.535777 0.490280 0.675707
O O9 0.630633 0.759120 0.624151
O O10 0.953676 0.613243 0.881002
O O11 0.000000 0.666373 0.750000
#
# Coordination Sequence:
#
# PCOD8153212 Si02
#       5
#     8   8   8   8   8
#     4  12  26  47  75 109 148 192 243 304 372 436
#     4  11  23  43  77 106 141 190 247 298 359 438
#     4  11  23  43  75 102 145 189 245 298 361 436
#     4  11  28  47  70 106 147 191 244 298 369 438
#     4  11  24  47  72 106 146 190 235 305 366 434
#
# _framework density 22.939333000000001
#
# number of rings (size 3 to 8) (size 9 to 14) (size 15 to 20)
#    0.000    0.800    4.000    2.400    5.600    3.200 
#    3.600    0.000    0.000    0.000    0.000    0.000 
#    0.000    0.000    0.000    0.000    0.000    0.000 
#
# Total GULP energy -248071.702752 kJ/mol
# GULP energy per Si atom -12403.585138 kJ/mol
# Density = 2.288712 g / cm^3
# Si number density = 22.939333 Si / 1000 Ang^3
#
#
#
# Elastic Constant Matrix: (Units=GPa)
#
#
# Indices 1 2 3 4 5 6 
#
# 1 107.7870 44.8916 61.4984 0.0000 11.3235 0.0000
# 2 44.8916 97.8150 35.0032 0.0000 5.6823 0.0000
# 3 61.4984 35.0032 160.9629 0.0000 -1.8922 0.0000
# 4 0.0000 0.0000 0.0000 41.6878 0.0000 0.3517
# 5 11.3235 5.6823 -1.8922 0.0000 48.0319 0.0000
# 6 0.0000 0.0000 0.0000 0.3517 0.0000 29.8223
#
#
#
# Elastic Compliance Matrix: (Units=1/GPa)
#
#
# Indices 1 2 3 4 5 6 
#
# 1 0.014043 -0.004709 -0.004376 0.000000 -0.002926 0.000000
# 2 -0.004709 0.012761 -0.000981 0.000000 -0.000438 0.000000
# 3 -0.004376 -0.000981 0.008115 0.000000 0.001467 0.000000
# 4 0.000000 0.000000 0.000000 0.023990 0.000000 -0.000283
# 5 -0.002926 -0.000438 0.001467 0.000000 0.021619 0.000000
# 6 0.000000 0.000000 0.000000 -0.000283 0.000000 0.033535
#
#
# Mechanical properties :
#
#
# Convention : Reuss Voigt Hill
#
# Bulk Modulus (GPa) = 67.62503 72.15013 69.88758
# Shear Modulus (GPa) = 35.93929 38.91986 37.42957
#
# Velocity S-wave (km/s) = 3.96246 4.12350 4.04378
# Velocity P-wave (km/s) = 7.10484 7.36151 7.23432
#
# Compressibility (1/GPa) = 0.01478742
#
# Stress axis : x y z
#
# Youngs Moduli (GPa) = 71.21149 78.36326 123.22917
#
# Poissons Ratio (x) = 0.36901 0.53920
# Poissons Ratio (y) = 0.33534 0.12089
# Poissons Ratio (z) = 0.31159 0.07688
#
# Static dielectric constant tensor:
#      x y z
#    x 4.071340 0.000000 -0.096560 
#    y 0.000000 4.109980 0.000000 
#    z -0.096560 0.000000 4.332280 
# 
# 
# High freq. dielectric constant tensor:
#      x y z
#    x 1.902010 0.000000 -0.005890 
#    y 0.000000 1.906570 0.000000 
#    z -0.005890 0.000000 1.921670 
# 
# From -- ./inp_files/208090.got.cif
#   From: 2010.06.25/outbox.cif.g09.slc.cpg/sg15_105_cif.got.tgz:208090.got - 2010.06.28 07:06:18.
