data_PCOD8153189
_publ_section_title
;
Structure prediction by ZEFSAII (Michael W. Deem and Ramdas Pophale) SiO2 
 PCOD8153189
Probable space group: C 2/C
;
_chemical_formula_sum "Si O2"
_cell_formula_units_Z 44
_cell_length_a 8.469927
_cell_length_b 11.540354
_cell_length_c 25.204630
_cell_angle_alpha 90.000000
_cell_angle_beta 125.418364
_cell_angle_gamma 90.000000
_cell_volume 2007.732605
_symmetry_space_group_name_H-M "C 2/C"
_symmetry_group_IT_number 15
_symmetry_cell_setting 'monoclinic'
loop_
_space_group_symop_operation_xyz
x,y,z
-x,y,1/2-z
-x,-y,-z
x,-y,1/2+z
1/2+x,1/2+y,z
1/2-x,1/2+y,1/2-z
1/2-x,1/2-y,-z
1/2+x,1/2-y,1/2+z
loop_
_atom_site_type_symbol
_atom_site_label
_atom_site_fract_x
_atom_site_fract_y
_atom_site_fract_z
Si Si1 0.202442 0.360231 0.956109
Si Si2 0.773401 0.866565 0.213078
Si Si3 0.271603 0.904997 0.852057
Si Si4 0.224567 0.580482 0.030542
Si Si5 0.953452 0.743312 0.926957
Si Si6 0.000000 0.726767 0.750000
O O1 0.332182 0.346518 0.929438
O O2 0.985489 0.352802 0.892311
O O3 0.250000 0.250000 0.000000
O O4 0.265354 0.480089 0.996185
O O5 0.654861 0.801524 0.145359
O O6 0.666358 0.844188 0.249217
O O7 0.000000 0.828405 0.250000
O O8 0.760099 0.004320 0.201553
O O9 0.250216 0.968529 0.905049
O O10 0.116599 0.802807 0.815349
O O11 0.352484 0.694682 0.053105
O O12 0.007240 0.633470 0.976834
#
# Coordination Sequence:
#
# PCOD8153189 Si02
#       6
#     8   8   8   8   8   4
#     4  12  23  40  71 108 141 185 229 291 374 433
#     4  12  26  51  77 101 145 198 243 299 363 428
#     4  12  24  49  70 102 147 183 242 302 353 433
#     4  11  23  43  72 103 146 180 231 302 360 427
#     4  11  23  44  70 107 140 183 239 293 362 433
#     4  12  28  52  72 104 144 196 248 298 354 430
#
# _framework density 21.915268000000001
#
# number of rings (size 3 to 8) (size 9 to 14) (size 15 to 20)
#    0.000    0.364    6.364    3.273    0.000    0.000 
#   11.455    0.000    0.000    0.000    0.000    0.000 
#    0.000    0.000    0.000    0.000    0.000    0.000 
#
# Total GULP energy -272621.792769 kJ/mol
# GULP energy per Si atom -12391.899671 kJ/mol
# Density = 2.186539 g / cm^3
# Si number density = 21.915268 Si / 1000 Ang^3
#
#
#
# Elastic Constant Matrix: (Units=GPa)
#
#
# Indices 1 2 3 4 5 6 
#
# 1 113.6835 21.3349 34.7061 0.0000 -2.3867 0.0000
# 2 21.3349 88.7119 28.4969 0.0000 2.2445 0.0000
# 3 34.7061 28.4969 100.3817 0.0000 9.4815 0.0000
# 4 0.0000 0.0000 0.0000 39.5763 0.0000 4.6936
# 5 -2.3867 2.2445 9.4815 0.0000 36.6852 0.0000
# 6 0.0000 0.0000 0.0000 4.6936 0.0000 36.5890
#
#
#
# Elastic Compliance Matrix: (Units=1/GPa)
#
#
# Indices 1 2 3 4 5 6 
#
# 1 0.010083 -0.001427 -0.003230 0.000000 0.001578 0.000000
# 2 -0.001427 0.012606 -0.003079 0.000000 -0.000068 0.000000
# 3 -0.003230 -0.003079 0.012254 0.000000 -0.003189 0.000000
# 4 0.000000 0.000000 0.000000 0.025658 0.000000 -0.003291
# 5 0.001578 -0.000068 -0.003189 0.000000 0.028190 0.000000
# 6 0.000000 0.000000 0.000000 -0.003291 0.000000 0.027753
#
#
# Mechanical properties :
#
#
# Convention : Reuss Voigt Hill
#
# Bulk Modulus (GPa) = 51.35764 52.42809 51.89286
# Shear Modulus (GPa) = 36.09906 37.11941 36.60923
#
# Velocity S-wave (km/s) = 4.06299 4.12001 4.09160
# Velocity P-wave (km/s) = 6.74507 6.82698 6.78615
#
# Compressibility (1/GPa) = 0.01947130
#
# Stress axis : x y z
#
# Youngs Moduli (GPa) = 99.17211 79.32447 81.60592
#
# Poissons Ratio (x) = 0.11322 0.26360
# Poissons Ratio (y) = 0.14155 0.25125
# Poissons Ratio (z) = 0.32034 0.24423
#
# Static dielectric constant tensor:
#      x y z
#    x 4.319760 0.000000 0.120990 
#    y 0.000000 4.040900 0.000000 
#    z 0.120990 0.000000 3.987150 
# 
# 
# High freq. dielectric constant tensor:
#      x y z
#    x 1.867420 0.000000 0.009820 
#    y 0.000000 1.862260 0.000000 
#    z 0.009820 0.000000 1.872950 
# 
# From -- ./inp_files/230218.got.cif
#   From: 2010.06.25/outbox.cif.g09.slc.cpg/sg15_116_cif.got.tgz:230218.got - 2010.06.28 07:06:18.
