data_PCOD8153971
_publ_section_title
;
Structure prediction by ZEFSAII (Michael W. Deem and Ramdas Pophale) SiO2 
 PCOD8153971
Probable space group: C 2/C
;
_chemical_formula_sum "Si O2"
_cell_formula_units_Z 40
_cell_length_a 13.397826
_cell_length_b 23.437046
_cell_length_c 8.840221
_cell_angle_alpha 90.000000
_cell_angle_beta 138.964660
_cell_angle_gamma 90.000000
_cell_volume 1822.431465
_symmetry_space_group_name_H-M "C 2/C"
_symmetry_group_IT_number 15
_symmetry_cell_setting 'monoclinic'
loop_
_space_group_symop_operation_xyz
x,y,z
-x,y,1/2-z
-x,-y,-z
x,-y,1/2+z
1/2+x,1/2+y,z
1/2-x,1/2+y,1/2-z
1/2-x,1/2-y,-z
1/2+x,1/2-y,1/2+z
loop_
_atom_site_type_symbol
_atom_site_label
_atom_site_fract_x
_atom_site_fract_y
_atom_site_fract_z
Si Si1 0.894929 0.852033 0.341833
Si Si2 0.136245 0.740444 0.002121
Si Si3 0.768369 0.851245 0.876513
Si Si4 0.103991 0.035170 0.503125
Si Si5 0.894594 0.535511 0.272736
O O1 0.905321 0.800784 0.471554
O O2 0.822729 0.909417 0.331456
O O3 0.066658 0.868666 0.495073
O O4 0.789016 0.835362 0.077694
O O5 0.000000 0.712280 0.750000
O O6 0.250000 0.750000 0.000000
O O7 0.197871 0.701718 0.207497
O O8 0.650318 0.902499 0.715346
O O9 0.236041 0.998424 0.572158
O O10 0.000000 0.000000 0.500000
O O11 0.000000 0.058766 0.250000
O O12 0.000000 0.544178 0.250000
O O13 0.000000 0.500000 0.500000
#
# Coordination Sequence:
#
# PCOD8153971 Si02
#       5
#     8   8   8   8   8
#     4  11  24  47  74 104 137 193 250 287 350 445
#     4  12  26  46  72 107 143 181 240 301 363 426
#     4  11  25  47  73 100 147 191 239 296 361 431
#     4  12  24  44  77 103 140 194 247 293 353 441
#     4  12  27  45  67 109 147 181 234 301 363 415
#
# _framework density 21.948698
#
# number of rings (size 3 to 8) (size 9 to 14) (size 15 to 20)
#    0.000    0.400    4.000    4.800    0.000    4.000 
#    3.600    0.000    0.000    0.000    0.000    0.000 
#    0.000    0.000    0.000    0.000    0.000    0.000 
#
# Total GULP energy -247915.537206 kJ/mol
# GULP energy per Si atom -12395.776860 kJ/mol
# Density = 2.189874 g / cm^3
# Si number density = 21.948698 Si / 1000 Ang^3
#
#
#
# Elastic Constant Matrix: (Units=GPa)
#
#
# Indices 1 2 3 4 5 6 
#
# 1 128.6576 53.9770 44.2820 0.0000 2.8680 0.0000
# 2 53.9770 133.3337 53.6183 0.0000 -9.2089 0.0000
# 3 44.2820 53.6183 139.0350 0.0000 -10.7767 0.0000
# 4 0.0000 0.0000 0.0000 46.4272 0.0000 -0.4714
# 5 2.8680 -9.2089 -10.7767 0.0000 40.0301 0.0000
# 6 0.0000 0.0000 0.0000 -0.4714 0.0000 37.4212
#
#
#
# Elastic Compliance Matrix: (Units=1/GPa)
#
#
# Indices 1 2 3 4 5 6 
#
# 1 0.009916 -0.003339 -0.002028 0.000000 -0.002024 0.000000
# 2 -0.003339 0.010052 -0.002671 0.000000 0.001833 0.000000
# 3 -0.002028 -0.002671 0.009020 0.000000 0.001959 0.000000
# 4 0.000000 0.000000 0.000000 0.021542 0.000000 0.000271
# 5 -0.002024 0.001833 0.001959 0.000000 0.026075 0.000000
# 6 0.000000 0.000000 0.000000 0.000271 0.000000 0.026726
#
#
# Mechanical properties :
#
#
# Convention : Reuss Voigt Hill
#
# Bulk Modulus (GPa) = 77.43762 78.30899 77.87331
# Shear Modulus (GPa) = 40.41638 41.38563 40.90101
#
# Velocity S-wave (km/s) = 4.29581 4.34702 4.32149
# Velocity P-wave (km/s) = 7.74359 7.80712 7.77542
#
# Compressibility (1/GPa) = 0.01291362
#
# Stress axis : x y z
#
# Youngs Moduli (GPa) = 100.84360 99.47869 110.86211
#
# Poissons Ratio (x) = 0.33214 0.22479
# Poissons Ratio (y) = 0.33670 0.29614
# Poissons Ratio (z) = 0.20447 0.26573
#
# Static dielectric constant tensor:
#      x y z
#    x 4.183850 0.000000 0.018150 
#    y 0.000000 3.665080 0.000000 
#    z 0.018150 0.000000 4.117820 
# 
# 
# High freq. dielectric constant tensor:
#      x y z
#    x 1.874680 0.000000 -0.003980 
#    y 0.000000 1.865020 0.000000 
#    z -0.003980 0.000000 1.875850 
# 
# From -- ./inp_files/41935.got.cif
#   From: 2010.06.25/outbox.cif.g09.slc.cpg/sg15_21_cif.got.tgz:41935.got - 2010.06.28 07:06:18.
