data_PCOD8153941
_publ_section_title
;
Structure prediction by ZEFSAII (Michael W. Deem and Ramdas Pophale) SiO2 
 PCOD8153941
Probable space group: C 2/C
;
_chemical_formula_sum "Si O2"
_cell_formula_units_Z 56
_cell_length_a 11.574294
_cell_length_b 7.893426
_cell_length_c 26.837470
_cell_angle_alpha 90.000000
_cell_angle_beta 110.017401
_cell_angle_gamma 90.000000
_cell_volume 2303.771549
_symmetry_space_group_name_H-M "C 2/C"
_symmetry_group_IT_number 15
_symmetry_cell_setting 'monoclinic'
loop_
_space_group_symop_operation_xyz
x,y,z
-x,y,1/2-z
-x,-y,-z
x,-y,1/2+z
1/2+x,1/2+y,z
1/2-x,1/2+y,1/2-z
1/2-x,1/2-y,-z
1/2+x,1/2-y,1/2+z
loop_
_atom_site_type_symbol
_atom_site_label
_atom_site_fract_x
_atom_site_fract_y
_atom_site_fract_z
Si Si1 0.882574 0.847745 0.962667
Si Si2 0.413843 0.107475 0.522777
Si Si3 0.175146 0.520258 0.886206
Si Si4 0.127319 0.613657 0.280252
Si Si5 0.400379 0.618474 0.164204
Si Si6 0.192363 0.044193 0.946484
Si Si7 0.348643 0.515407 0.756049
O O1 0.782171 0.698422 0.946388
O O2 0.017024 0.790078 0.960793
O O3 0.821124 0.999403 0.921023
O O4 0.901853 0.904894 0.022922
O O5 0.403623 0.011203 0.574333
O O6 0.500000 0.000000 0.500000
O O7 0.277862 0.116098 0.477411
O O8 0.141375 0.368869 0.842453
O O9 0.140054 0.691565 0.853018
O O10 0.234280 0.493575 0.275805
O O11 0.119285 0.789618 0.249198
O O12 0.000000 0.516869 0.250000
O O13 0.383743 0.505050 0.112879
O O14 0.540630 0.590239 0.202445
O O15 0.313079 0.561928 0.196911
#
# Coordination Sequence:
#
# PCOD8153941 Si02
#       7
#     8   8   8   8   8   8   8
#     4   9  19  38  65 101 137 187 241 290 356 441
#     4   9  20  40  64 104 139 185 245 297 355 437
#     4  11  25  39  71 102 142 192 237 301 371 437
#     4  12  27  49  76 106 142 195 247 306 377 440
#     4  11  24  47  69 107 152 188 247 311 368 446
#     4   9  19  40  65  93 142 184 236 300 354 431
#     4  11  27  50  74 106 145 191 250 312 371 447
#
# _framework density 24.307964999999999
#
# number of rings (size 3 to 8) (size 9 to 14) (size 15 to 20)
#    0.000    1.714    1.429    2.571    6.000    4.571 
#    5.143    1.429    0.000    0.000    0.000    0.000 
#    0.000    0.000    0.000    0.000    0.000    0.000 
#
# Total GULP energy -347000.027053 kJ/mol
# GULP energy per Si atom -12392.858109 kJ/mol
# Density = 2.425264 g / cm^3
# Si number density = 24.307965 Si / 1000 Ang^3
#
#
#
# Elastic Constant Matrix: (Units=GPa)
#
#
# Indices 1 2 3 4 5 6 
#
# 1 130.6110 24.3406 68.3570 0.0000 -6.1840 0.0000
# 2 24.3406 87.5579 42.5762 0.0000 6.9414 0.0000
# 3 68.3570 42.5762 188.2893 0.0000 -4.5788 0.0000
# 4 0.0000 0.0000 0.0000 44.4905 0.0000 1.2750
# 5 -6.1840 6.9414 -4.5788 0.0000 33.2421 0.0000
# 6 0.0000 0.0000 0.0000 1.2750 0.0000 31.1778
#
#
#
# Elastic Compliance Matrix: (Units=1/GPa)
#
#
# Indices 1 2 3 4 5 6 
#
# 1 0.009628 -0.001263 -0.003170 0.000000 0.001618 0.000000
# 2 -0.001263 0.013322 -0.002636 0.000000 -0.003380 0.000000
# 3 -0.003170 -0.002636 0.007081 0.000000 0.000936 0.000000
# 4 0.000000 0.000000 0.000000 0.022503 0.000000 -0.000920
# 5 0.001618 -0.003380 0.000936 0.000000 0.031218 0.000000
# 6 0.000000 0.000000 0.000000 -0.000920 0.000000 0.032112
#
#
# Mechanical properties :
#
#
# Convention : Reuss Voigt Hill
#
# Bulk Modulus (GPa) = 62.92685 75.22286 69.07486
# Shear Modulus (GPa) = 36.95525 39.86104 38.40815
#
# Velocity S-wave (km/s) = 3.90332 4.05388 3.97931
# Velocity P-wave (km/s) = 6.80133 7.27495 7.04212
#
# Compressibility (1/GPa) = 0.01589147
#
# Stress axis : x y z
#
# Youngs Moduli (GPa) = 103.86897 75.06441 141.22851
#
# Poissons Ratio (x) = 0.09481 0.44773
# Poissons Ratio (y) = 0.13120 0.37228
# Poissons Ratio (z) = 0.32929 0.19787
#
# Static dielectric constant tensor:
#      x y z
#    x 4.791390 0.000000 -0.028960 
#    y 0.000000 4.642300 0.000000 
#    z -0.028960 0.000000 4.680340 
# 
# 
# High freq. dielectric constant tensor:
#      x y z
#    x 1.961850 0.000000 -0.007160 
#    y 0.000000 1.968090 0.000000 
#    z -0.007160 0.000000 1.978150 
# 
# From -- ./inp_files/291638.got.cif
#   From: 2010.06.25/outbox.cif.g09.slc.cpg/sg15_146_cif.got.tgz:291638.got - 2010.06.28 07:06:18.
