data_PCOD8153900
_publ_section_title
;
Structure prediction by ZEFSAII (Michael W. Deem and Ramdas Pophale) SiO2 
 PCOD8153900
Probable space group: C 2/C
;
_chemical_formula_sum "Si O2"
_cell_formula_units_Z 44
_cell_length_a 16.217848
_cell_length_b 11.700230
_cell_length_c 10.589124
_cell_angle_alpha 90.000000
_cell_angle_beta 98.851051
_cell_angle_gamma 90.000000
_cell_volume 1985.385749
_symmetry_space_group_name_H-M "C 2/C"
_symmetry_group_IT_number 15
_symmetry_cell_setting 'monoclinic'
loop_
_space_group_symop_operation_xyz
x,y,z
-x,y,1/2-z
-x,-y,-z
x,-y,1/2+z
1/2+x,1/2+y,z
1/2-x,1/2+y,1/2-z
1/2-x,1/2-y,-z
1/2+x,1/2-y,1/2+z
loop_
_atom_site_type_symbol
_atom_site_label
_atom_site_fract_x
_atom_site_fract_y
_atom_site_fract_z
Si Si1 0.342477 0.766707 0.570498
Si Si2 0.135796 0.826172 0.902068
Si Si3 0.088576 0.533718 0.572649
Si Si4 0.813203 0.695823 0.349065
Si Si5 0.449988 0.551318 0.607078
Si Si6 0.000000 0.324438 0.250000
O O1 0.250000 0.750000 0.500000
O O2 0.371343 0.886334 0.522557
O O3 0.346263 0.770548 0.721459
O O4 0.406256 0.666643 0.545841
O O5 0.212662 0.800616 0.826650
O O6 0.051786 0.756166 0.854917
O O7 0.121898 0.960328 0.880033
O O8 0.156768 0.796057 0.051197
O O9 0.150484 0.427322 0.603516
O O10 0.000000 0.500000 0.500000
O O11 0.070975 0.599165 0.699292
O O12 0.500000 0.572734 0.750000
O O13 0.500000 0.500000 0.500000
#
# Coordination Sequence:
#
# PCOD8153900 Si02
#       6
#     8   8   8   8   8   4
#     4  12  28  49  72 107 145 189 241 297 362 432
#     4  11  24  46  72 105 143 192 235 299 363 435
#     4  12  25  44  73 103 138 187 237 296 351 423
#     4  11  26  47  72 106 148 188 241 298 365 430
#     4  12  27  46  76 107 148 192 246 304 371 437
#     4  12  22  44  70 104 138 184 240 286 358 426
#
# _framework density 22.161940000000001
#
# number of rings (size 3 to 8) (size 9 to 14) (size 15 to 20)
#    0.000    0.364    2.727    5.455    5.091    0.000 
#    6.545    0.000    0.000    0.000    0.000    0.000 
#    0.000    0.000    0.000    0.000    0.000    0.000 
#
# Total GULP energy -272831.154623 kJ/mol
# GULP energy per Si atom -12401.416119 kJ/mol
# Density = 2.211150 g / cm^3
# Si number density = 22.161940 Si / 1000 Ang^3
#
#
#
# Elastic Constant Matrix: (Units=GPa)
#
#
# Indices 1 2 3 4 5 6 
#
# 1 120.0387 41.4108 42.3210 0.0000 9.2699 0.0000
# 2 41.4108 115.1873 22.7175 0.0000 13.7557 0.0000
# 3 42.3210 22.7175 86.5356 0.0000 -7.0916 0.0000
# 4 0.0000 0.0000 0.0000 35.6166 0.0000 -3.8691
# 5 9.2699 13.7557 -7.0916 0.0000 42.5273 0.0000
# 6 0.0000 0.0000 0.0000 -3.8691 0.0000 46.5139
#
#
#
# Elastic Compliance Matrix: (Units=1/GPa)
#
#
# Indices 1 2 3 4 5 6 
#
# 1 0.011216 -0.002772 -0.004952 0.000000 -0.002374 0.000000
# 2 -0.002772 0.010356 -0.001610 0.000000 -0.003014 0.000000
# 3 -0.004952 -0.001610 0.014733 0.000000 0.004057 0.000000
# 4 0.000000 0.000000 0.000000 0.028333 0.000000 0.002357
# 5 -0.002374 -0.003014 0.004057 0.000000 0.025683 0.000000
# 6 0.000000 0.000000 0.000000 0.002357 0.000000 0.021695
#
#
# Mechanical properties :
#
#
# Convention : Reuss Voigt Hill
#
# Bulk Modulus (GPa) = 56.70084 59.40670 58.05377
# Shear Modulus (GPa) = 36.61322 39.28572 37.94947
#
# Velocity S-wave (km/s) = 4.06898 4.21487 4.14257
# Velocity P-wave (km/s) = 6.90766 7.10991 7.00952
#
# Compressibility (1/GPa) = 0.01763642
#
# Stress axis : x y z
#
# Youngs Moduli (GPa) = 89.15615 96.56692 67.87514
#
# Poissons Ratio (x) = 0.26770 0.33613
# Poissons Ratio (y) = 0.24715 0.10926
# Poissons Ratio (z) = 0.44152 0.15545
#
# Static dielectric constant tensor:
#      x y z
#    x 3.010860 0.000000 0.797410 
#    y 0.000000 4.651370 0.000000 
#    z 0.797410 0.000000 3.514320 
# 
# 
# High freq. dielectric constant tensor:
#      x y z
#    x 1.888370 0.000000 -0.001320 
#    y 0.000000 1.885710 0.000000 
#    z -0.001320 0.000000 1.880270 
# 
# From -- ./inp_files/95082.got.cif
#   From: 2010.06.25/outbox.cif.g09.slc.cpg/sg15_48_cif.got.tgz:95082.got - 2010.06.28 07:06:18.
