data_PCOD8153054
_publ_section_title
;
Structure prediction by ZEFSAII (Michael W. Deem and Ramdas Pophale) SiO2 
 PCOD8153054
Probable space group: C 2/C
;
_chemical_formula_sum "Si O2"
_cell_formula_units_Z 56
_cell_length_a 13.964841
_cell_length_b 19.831252
_cell_length_c 9.606083
_cell_angle_alpha 90.000000
_cell_angle_beta 63.211373
_cell_angle_gamma 90.000000
_cell_volume 2374.794206
_symmetry_space_group_name_H-M "C 2/C"
_symmetry_group_IT_number 15
_symmetry_cell_setting 'monoclinic'
loop_
_space_group_symop_operation_xyz
x,y,z
-x,y,1/2-z
-x,-y,-z
x,-y,1/2+z
1/2+x,1/2+y,z
1/2-x,1/2+y,1/2-z
1/2-x,1/2-y,-z
1/2+x,1/2-y,1/2+z
loop_
_atom_site_type_symbol
_atom_site_label
_atom_site_fract_x
_atom_site_fract_y
_atom_site_fract_z
Si Si1 0.620158 0.375695 0.203642
Si Si2 0.401264 0.776526 0.727482
Si Si3 0.078202 0.500531 0.817943
Si Si4 0.765436 0.387141 0.369065
Si Si5 0.102007 0.731713 0.603120
Si Si6 0.746664 0.606861 0.360726
Si Si7 0.616163 0.614760 0.189719
O O1 0.500000 0.404006 0.250000
O O2 0.618809 0.295477 0.188954
O O3 0.667433 0.390294 0.324465
O O4 0.703834 0.410721 0.042171
O O5 0.500000 0.809079 0.750000
O O6 0.417673 0.776713 0.549649
O O7 0.298030 0.819902 0.830332
O O8 0.129715 0.573862 0.754329
O O9 0.174035 0.447096 0.760868
O O10 0.000000 0.476672 0.750000
O O11 0.000000 0.500000 0.000000
O O12 0.797971 0.311154 0.398457
O O13 0.710159 0.423206 0.539956
O O14 0.114490 0.809609 0.631195
O O15 0.000000 0.701361 0.750000
O O16 0.640979 0.611965 0.335728
O O17 0.500000 0.580074 0.250000
#
# Coordination Sequence:
#
# PCOD8153054 Si02
#       7
#     8   8   8   8   8   8   8
#     4  11  25  43  65 100 140 181 226 286 347 412
#     4  11  24  41  68 105 144 178 224 286 358 416
#     4  12  28  49  72 102 136 177 234 291 341 410
#     4  12  23  45  71  96 136 186 231 282 345 404
#     4  11  24  39  70 108 137 179 231 283 351 419
#     4  12  25  44  67  98 139 185 229 282 350 407
#     4  11  23  42  69 101 139 174 232 286 336 410
#
# _framework density 23.580991000000001
#
# number of rings (size 3 to 8) (size 9 to 14) (size 15 to 20)
#    0.000    0.571    2.857    5.143   10.000    0.000 
#    0.000    4.286    0.000    0.000    0.000    0.000 
#    0.000    0.000    0.000    0.000    0.000    0.000 
#
# Total GULP energy -347025.707604 kJ/mol
# GULP energy per Si atom -12393.775272 kJ/mol
# Density = 2.352732 g / cm^3
# Si number density = 23.580991 Si / 1000 Ang^3
#
#
#
# Elastic Constant Matrix: (Units=GPa)
#
#
# Indices 1 2 3 4 5 6 
#
# 1 142.4133 6.9909 37.9627 0.0000 17.8169 0.0000
# 2 6.9909 51.6009 17.3616 0.0000 -4.5328 0.0000
# 3 37.9627 17.3616 152.0647 0.0000 -4.6837 0.0000
# 4 0.0000 0.0000 0.0000 20.8557 0.0000 8.6395
# 5 17.8169 -4.5328 -4.6837 0.0000 53.5046 0.0000
# 6 0.0000 0.0000 0.0000 8.6395 0.0000 -14.6118
#
#
#
# Elastic Compliance Matrix: (Units=1/GPa)
#
#
# Indices 1 2 3 4 5 6 
#
# 1 0.007946 -0.000657 -0.001997 0.000000 -0.002877 0.000000
# 2 -0.000657 0.020330 -0.002103 0.000000 0.001757 0.000000
# 3 -0.001997 -0.002103 0.007350 0.000000 0.001130 0.000000
# 4 0.000000 0.000000 0.000000 0.038515 0.000000 0.022773
# 5 -0.002877 0.001757 0.001130 0.000000 0.019896 0.000000
# 6 0.000000 0.000000 0.000000 0.022773 0.000000 -0.054973
#
#
# Mechanical properties :
#
#
# Convention : Reuss Voigt Hill
#
# Bulk Modulus (GPa) = 38.29744 52.30103 45.29924
# Shear Modulus (GPa) = 87.28558 30.86726 59.07642
#
# Velocity S-wave (km/s) = 6.09061 3.62192 5.01068
# Velocity P-wave (km/s) = 8.10783 6.30227 7.26138
#
# Compressibility (1/GPa) = 0.02611140
#
# Stress axis : x y z
#
# Youngs Moduli (GPa) = 125.84305 49.18723 136.05981
#
# Poissons Ratio (x) = 0.03233 0.27176
# Poissons Ratio (y) = 0.08271 0.28613
# Poissons Ratio (z) = 0.25136 0.10344
#
# Static dielectric constant tensor:
#      x y z
#    x 4.715340 0.000000 -0.249530 
#    y 0.000000 3.939350 0.000000 
#    z -0.249530 0.000000 4.826990 
# 
# 
# High freq. dielectric constant tensor:
#      x y z
#    x 1.957200 0.000000 -0.003410 
#    y 0.000000 1.907140 0.000000 
#    z -0.003410 0.000000 1.949170 
# 
# From -- ./inp_files/42512.got.cif
#   From: 2010.06.25/outbox.cif.g09.slc.cpg/sg15_22_cif.got.tgz:42512.got - 2010.06.28 07:06:18.
