data_PCOD8153392
_publ_section_title
;
Structure prediction by ZEFSAII (Michael W. Deem and Ramdas Pophale) SiO2 
 PCOD8153392
Probable space group: C 2/C
;
_chemical_formula_sum "Si O2"
_cell_formula_units_Z 40
_cell_length_a 11.714552
_cell_length_b 8.144607
_cell_length_c 19.842362
_cell_angle_alpha 90.000000
_cell_angle_beta 77.346197
_cell_angle_gamma 90.000000
_cell_volume 1847.185897
_symmetry_space_group_name_H-M "C 2/C"
_symmetry_group_IT_number 15
_symmetry_cell_setting 'monoclinic'
loop_
_space_group_symop_operation_xyz
x,y,z
-x,y,1/2-z
-x,-y,-z
x,-y,1/2+z
1/2+x,1/2+y,z
1/2-x,1/2+y,1/2-z
1/2-x,1/2-y,-z
1/2+x,1/2-y,1/2+z
loop_
_atom_site_type_symbol
_atom_site_label
_atom_site_fract_x
_atom_site_fract_y
_atom_site_fract_z
Si Si1 0.871216 0.309567 0.769519
Si Si2 0.413983 0.148395 0.525658
Si Si3 0.153960 0.853196 0.092504
Si Si4 0.841294 0.684097 0.768836
Si Si5 0.985520 0.175926 0.357778
O O1 0.824013 0.279790 0.851031
O O2 0.873227 0.498392 0.746677
O O3 0.796226 0.211510 0.723584
O O4 0.000000 0.234567 0.750000
O O5 0.284034 0.078666 0.558923
O O6 0.406299 0.265524 0.462405
O O7 0.470814 0.254518 0.577505
O O8 0.500000 0.000000 0.500000
O O9 0.064038 0.993145 0.127305
O O10 0.877473 0.717572 0.841452
O O11 0.908620 0.810901 0.710053
#
# Coordination Sequence:
#
# PCOD8153392 Si02
#       5
#     8   8   8   8   8
#     4  12  25  44  69 102 136 182 224 287 344 404
#     4  11  25  47  68  98 139 180 231 282 335 411
#     4  11  26  43  72  99 136 182 229 277 346 408
#     4  11  25  42  69 102 142 174 229 280 344 412
#     4  11  23  46  66 101 139 175 224 284 337 408
#
# _framework density 21.654561000000001
#
# number of rings (size 3 to 8) (size 9 to 14) (size 15 to 20)
#    0.000    0.800    4.000    3.000    5.600    0.800 
#    0.000    0.000    0.000    0.000    0.000    0.000 
#    0.000    0.000    0.000    0.000    0.000    0.000 
#
# Total GULP energy -247973.973076 kJ/mol
# GULP energy per Si atom -12398.698654 kJ/mol
# Density = 2.160527 g / cm^3
# Si number density = 21.654561 Si / 1000 Ang^3
#
#
#
# Elastic Constant Matrix: (Units=GPa)
#
#
# Indices 1 2 3 4 5 6 
#
# 1 172.7821 55.3717 39.1731 0.0000 18.8195 0.0000
# 2 55.3717 96.9662 30.3133 0.0000 -7.9020 0.0000
# 3 39.1731 30.3133 71.9814 0.0000 20.5420 0.0000
# 4 0.0000 0.0000 0.0000 34.0787 0.0000 -2.1401
# 5 18.8195 -7.9020 20.5420 0.0000 52.4889 0.0000
# 6 0.0000 0.0000 0.0000 -2.1401 0.0000 33.3802
#
#
#
# Elastic Compliance Matrix: (Units=1/GPa)
#
#
# Indices 1 2 3 4 5 6 
#
# 1 0.007805 -0.004144 -0.001717 0.000000 -0.002750 0.000000
# 2 -0.004144 0.014968 -0.005758 0.000000 0.005993 0.000000
# 3 -0.001717 -0.005758 0.019502 0.000000 -0.007883 0.000000
# 4 0.000000 0.000000 0.000000 0.029462 0.000000 0.001889
# 5 -0.002750 0.005993 -0.007883 0.000000 0.024025 0.000000
# 6 0.000000 0.000000 0.000000 0.001889 0.000000 0.030079
#
#
# Mechanical properties :
#
#
# Convention : Reuss Voigt Hill
#
# Bulk Modulus (GPa) = 52.53541 65.71622 59.12581
# Shear Modulus (GPa) = 32.16989 38.44767 35.30878
#
# Velocity S-wave (km/s) = 3.85852 4.21824 4.04238
# Velocity P-wave (km/s) = 6.64562 7.35786 7.01079
#
# Compressibility (1/GPa) = 0.01903478
#
# Stress axis : x y z
#
# Youngs Moduli (GPa) = 128.13046 66.81042 51.27722
#
# Poissons Ratio (x) = 0.27686 0.08806
# Poissons Ratio (y) = 0.53096 0.29527
# Poissons Ratio (z) = 0.22005 0.38472
#
# Static dielectric constant tensor:
#      x y z
#    x 4.402200 0.000000 0.331720 
#    y 0.000000 3.720060 0.000000 
#    z 0.331720 0.000000 4.174720 
# 
# 
# High freq. dielectric constant tensor:
#      x y z
#    x 1.877270 0.000000 0.020400 
#    y 0.000000 1.842300 0.000000 
#    z 0.020400 0.000000 1.847450 
# 
# From -- ./inp_files/195094.got.cif
#   From: 2010.06.25/outbox.cif.g09.slc.cpg/sg15_98_cif.got.tgz:195094.got - 2010.06.28 07:06:18.
