data_PCOD8153436
_publ_section_title
;
Structure prediction by ZEFSAII (Michael W. Deem and Ramdas Pophale) SiO2 
 PCOD8153436
Probable space group: C 2/C
;
_chemical_formula_sum "Si O2"
_cell_formula_units_Z 48
_cell_length_a 19.734266
_cell_length_b 11.599467
_cell_length_c 26.945081
_cell_angle_alpha 90.000000
_cell_angle_beta 158.293944
_cell_angle_gamma 90.000000
_cell_volume 2281.172944
_symmetry_space_group_name_H-M "C 2/C"
_symmetry_group_IT_number 15
_symmetry_cell_setting 'monoclinic'
loop_
_space_group_symop_operation_xyz
x,y,z
-x,y,1/2-z
-x,-y,-z
x,-y,1/2+z
1/2+x,1/2+y,z
1/2-x,1/2+y,1/2-z
1/2-x,1/2-y,-z
1/2+x,1/2-y,1/2+z
loop_
_atom_site_type_symbol
_atom_site_label
_atom_site_fract_x
_atom_site_fract_y
_atom_site_fract_z
Si Si1 0.461663 0.577002 0.076012
Si Si2 0.378794 0.486805 0.713154
Si Si3 0.061521 0.675650 0.974574
Si Si4 0.320498 0.092339 0.159146
Si Si5 0.403738 0.186934 0.972885
Si Si6 0.656983 0.959768 0.712121
O O1 0.489657 0.540209 0.151659
O O2 0.430586 0.714008 0.055401
O O3 0.628838 0.537999 0.154707
O O4 0.278462 0.518268 0.931147
O O5 0.500000 0.531005 0.750000
O O6 0.265112 0.374401 0.619626
O O7 0.241773 0.586798 0.636277
O O8 0.988646 0.719722 0.977912
O O9 0.927706 0.582774 0.858885
O O10 0.500000 0.121653 0.250000
O O11 0.186858 0.201867 0.064105
O O12 0.378285 0.066158 0.254579
O O13 0.564279 0.142991 0.117956
#
# Coordination Sequence:
#
# PCOD8153436 Si02
#       6
#     8   8   8   8   8   8
#     4  12  26  43  74  97 141 183 227 284 334 417
#     4  11  25  45  69 103 136 181 228 278 353 404
#     4  11  24  44  72 101 131 181 233 283 337 411
#     4  12  30  44  68 108 141 177 225 289 355 397
#     4  11  23  46  74  99 135 178 231 290 337 413
#     4  11  24  45  70 100 137 178 233 280 339 415
#
# _framework density 21.041806000000001
#
# number of rings (size 3 to 8) (size 9 to 14) (size 15 to 20)
#    0.000    0.667    5.000    2.000   11.667    2.000 
#    0.000    0.000    0.000    0.000    0.000    0.000 
#    0.000    0.000    0.000    0.000    0.000    0.000 
#
# Total GULP energy -297814.849121 kJ/mol
# GULP energy per Si atom -12408.952047 kJ/mol
# Density = 2.099391 g / cm^3
# Si number density = 21.041806 Si / 1000 Ang^3
#
#
#
# Elastic Constant Matrix: (Units=GPa)
#
#
# Indices 1 2 3 4 5 6 
#
# 1 92.4415 -3.3625 16.1124 -0.0429 -11.0609 0.0010
# 2 -3.3625 95.0726 19.9772 -0.0560 -5.1180 0.0020
# 3 16.1124 19.9772 71.7747 -0.1195 -7.5691 0.0153
# 4 -0.0429 -0.0560 -0.1195 14.0030 0.0071 -3.2961
# 5 -11.0609 -5.1180 -7.5691 0.0071 39.0380 -0.0099
# 6 0.0010 0.0020 0.0153 -3.2961 -0.0099 19.7208
#
#
#
# Elastic Compliance Matrix: (Units=1/GPa)
#
#
# Indices 1 2 3 4 5 6 
#
# 1 0.011668 0.001122 -0.002621 0.000018 0.002945 0.000006
# 2 0.001122 0.011309 -0.003277 0.000021 0.001165 0.000005
# 3 -0.002621 -0.003277 0.015629 0.000113 0.001858 0.000008
# 4 0.000018 0.000021 0.000113 0.074339 0.000019 0.012425
# 5 0.002945 0.001165 0.001858 0.000019 0.026963 0.000015
# 6 0.000006 0.000005 0.000008 0.012425 0.000015 0.052784
#
#
# Mechanical properties :
#
#
# Convention : Reuss Voigt Hill
#
# Bulk Modulus (GPa) = 34.41805 36.08257 35.25031
# Shear Modulus (GPa) = 23.59281 29.65648 26.62464
#
# Velocity S-wave (km/s) = 3.35212 3.75828 3.56099
# Velocity P-wave (km/s) = 5.60132 6.00151 5.80486
#
# Compressibility (1/GPa) = 0.02905452
#
# Stress axis : x y z
#
# Youngs Moduli (GPa) = 85.70713 88.42357 63.98371
#
# Poissons Ratio (x) = -0.09920 0.16770
# Poissons Ratio (y) = -0.09616 0.20965
# Poissons Ratio (z) = 0.22463 0.28973
#
# Static dielectric constant tensor:
#      x y z
#    x 3.783610 0.000000 -0.023700 
#    y 0.000000 3.826220 -0.000110 
#    z -0.023700 -0.000110 3.846020 
# 
# 
# High freq. dielectric constant tensor:
#      x y z
#    x 1.826530 0.000000 -0.004990 
#    y 0.000000 1.831310 -0.000010 
#    z -0.004990 -0.000010 1.832820 
# 
# From -- ./inp_files/111428.got.cif
#   From: 2010.06.25/outbox.cif.g09.slc.cpg/sg15_56_cif.got.tgz:111428.got - 2010.06.28 07:06:18.
