data_PCOD8153822
_publ_section_title
;
Structure prediction by ZEFSAII (Michael W. Deem and Ramdas Pophale) SiO2 
 PCOD8153822
Probable space group: C 2/C
;
_chemical_formula_sum "Si O2"
_cell_formula_units_Z 44
_cell_length_a 23.443070
_cell_length_b 15.623640
_cell_length_c 9.441872
_cell_angle_alpha 90.000000
_cell_angle_beta 35.976149
_cell_angle_gamma 90.000000
_cell_volume 2031.536175
_symmetry_space_group_name_H-M "C 2/C"
_symmetry_group_IT_number 15
_symmetry_cell_setting 'monoclinic'
loop_
_space_group_symop_operation_xyz
x,y,z
-x,y,1/2-z
-x,-y,-z
x,-y,1/2+z
1/2+x,1/2+y,z
1/2-x,1/2+y,1/2-z
1/2-x,1/2-y,-z
1/2+x,1/2-y,1/2+z
loop_
_atom_site_type_symbol
_atom_site_label
_atom_site_fract_x
_atom_site_fract_y
_atom_site_fract_z
Si Si1 0.000000 0.362124 0.750000
Si Si2 0.791100 0.417527 0.118943
Si Si3 0.481550 0.745038 0.058319
Si Si4 0.659745 0.751614 0.910090
Si Si5 0.756562 0.078977 0.101945
Si Si6 0.975309 0.077030 0.646017
O O1 0.097737 0.417732 0.550894
O O2 0.997849 0.310577 0.608173
O O3 0.736424 0.327063 0.258205
O O4 0.740859 0.494328 0.305858
O O5 0.794659 0.439323 0.945159
O O6 0.387795 0.767658 0.340427
O O7 0.576974 0.733029 0.962007
O O8 0.456029 0.655607 0.034686
O O9 0.710015 0.841039 0.775034
O O10 0.865378 0.107132 0.850197
O O11 0.000000 0.043597 0.750000
O O12 0.000000 0.000000 0.500000
#
# Coordination Sequence:
#
# PCOD8153822 Si02
#       6
#     4   8   8   8   8   8
#     4  12  26  46  70 100 140 184 242 290 340 416
#     4  12  27  47  70 105 142 187 239 289 350 419
#     4  11  24  45  72 101 134 186 234 291 354 420
#     4  11  25  48  73  99 144 186 232 288 361 422
#     4  12  26  47  72 101 146 188 230 296 356 413
#     4  12  25  42  69 102 140 180 237 295 354 418
#
# _framework density 21.658486
#
# number of rings (size 3 to 8) (size 9 to 14) (size 15 to 20)
#    0.000    0.364    4.545    3.818    5.091    2.909 
#    0.000    0.000    0.000    0.000    0.000    0.000 
#    0.000    0.000    0.000    0.000    0.000    0.000 
#
# Total GULP energy -272821.316543 kJ/mol
# GULP energy per Si atom -12400.968934 kJ/mol
# Density = 2.160919 g / cm^3
# Si number density = 21.658486 Si / 1000 Ang^3
#
#
#
# Elastic Constant Matrix: (Units=GPa)
#
#
# Indices 1 2 3 4 5 6 
#
# 1 89.9747 17.7451 39.8740 0.0000 3.9765 0.0000
# 2 17.7451 106.1394 44.6105 0.0000 16.8386 0.0000
# 3 39.8740 44.6105 137.0636 0.0000 12.3963 0.0000
# 4 0.0000 0.0000 0.0000 71.4842 0.0000 7.5360
# 5 3.9765 16.8386 12.3963 0.0000 44.9110 0.0000
# 6 0.0000 0.0000 0.0000 7.5360 0.0000 31.7790
#
#
#
# Elastic Compliance Matrix: (Units=1/GPa)
#
#
# Indices 1 2 3 4 5 6 
#
# 1 0.012800 -0.000679 -0.003511 0.000000 0.000090 0.000000
# 2 -0.000679 0.011416 -0.003217 0.000000 -0.003332 0.000000
# 3 -0.003511 -0.003217 0.009463 0.000000 -0.001095 0.000000
# 4 0.000000 0.000000 0.000000 0.014348 0.000000 -0.003402
# 5 0.000090 -0.003332 -0.001095 0.000000 0.023810 0.000000
# 6 0.000000 0.000000 0.000000 -0.003402 0.000000 0.032274
#
#
# Mechanical properties :
#
#
# Convention : Reuss Voigt Hill
#
# Bulk Modulus (GPa) = 53.00459 59.73745 56.37102
# Shear Modulus (GPa) = 39.93219 45.03139 42.48179
#
# Velocity S-wave (km/s) = 4.29851 4.56472 4.43362
# Velocity P-wave (km/s) = 7.01159 7.44471 7.23139
#
# Compressibility (1/GPa) = 0.01886629
#
# Stress axis : x y z
#
# Youngs Moduli (GPa) = 78.12461 87.59914 105.67149
#
# Poissons Ratio (x) = 0.05945 0.37102
# Poissons Ratio (y) = 0.05302 0.33991
# Poissons Ratio (z) = 0.27430 0.28178
#
# Static dielectric constant tensor:
#      x y z
#    x 4.054560 0.000000 0.050330 
#    y 0.000000 4.390790 0.000000 
#    z 0.050330 0.000000 4.128550 
# 
# 
# High freq. dielectric constant tensor:
#      x y z
#    x 1.860700 0.000000 0.009190 
#    y 0.000000 1.851980 0.000000 
#    z 0.009190 0.000000 1.870430 
# 
# From -- ./inp_files/62645.got.cif
#   From: 2010.06.25/outbox.cif.g09.slc.cpg/sg15_32_cif.got.tgz:62645.got - 2010.06.28 07:06:18.
