data_PCOD8153845
_publ_section_title
;
Structure prediction by ZEFSAII (Michael W. Deem and Ramdas Pophale) SiO2 
 PCOD8153845
Probable space group: C 2/C
;
_chemical_formula_sum "Si O2"
_cell_formula_units_Z 48
_cell_length_a 9.701013
_cell_length_b 20.351194
_cell_length_c 12.418074
_cell_angle_alpha 90.000000
_cell_angle_beta 65.770150
_cell_angle_gamma 90.000000
_cell_volume 2235.689579
_symmetry_space_group_name_H-M "C 2/C"
_symmetry_group_IT_number 15
_symmetry_cell_setting 'monoclinic'
loop_
_space_group_symop_operation_xyz
x,y,z
-x,y,1/2-z
-x,-y,-z
x,-y,1/2+z
1/2+x,1/2+y,z
1/2-x,1/2+y,1/2-z
1/2-x,1/2-y,-z
1/2+x,1/2-y,1/2+z
loop_
_atom_site_type_symbol
_atom_site_label
_atom_site_fract_x
_atom_site_fract_y
_atom_site_fract_z
Si Si1 0.500000 0.499878 0.750000
Si Si2 0.500000 0.978345 0.750000
Si Si3 0.000000 0.782717 0.750000
Si Si4 0.191510 0.894542 0.582869
Si Si5 0.494660 0.129002 0.429727
Si Si6 0.000000 0.266937 0.750000
Si Si7 0.797716 0.689819 0.671596
Si Si8 0.289672 0.429294 0.162010
O O1 0.640832 0.454518 0.673603
O O2 0.560821 0.544887 0.826459
O O3 0.540525 0.934201 0.632786
O O4 0.351510 0.021769 0.780079
O O5 0.884545 0.826913 0.855137
O O6 0.917450 0.740468 0.684036
O O7 0.370619 0.887527 0.532462
O O8 0.150165 0.915221 0.476125
O O9 0.541619 0.189560 0.339774
O O10 0.355188 0.149052 0.549664
O O11 0.147206 0.224545 0.676304
O O12 0.759138 0.640734 0.778815
#
# Coordination Sequence:
#
# PCOD8153845 Si02
#       8
#     4   4   4   8   8   4   8   8
#     4  11  25  48  66 106 143 183 230 288 350 417
#     4  11  25  46  72 102 141 185 240 284 348 417
#     4  11  25  46  72 102 141 185 240 284 348 417
#     4  11  24  45  75 100 140 189 230 291 346 410
#     4  11  24  45  75 100 140 189 230 291 346 410
#     4  11  25  48  66 106 143 183 230 288 350 417
#     4  12  26  44  71 104 139 184 233 290 348 412
#     4  12  26  44  71 104 139 184 233 290 348 412
#
# _framework density 21.469885999999999
#
# number of rings (size 3 to 8) (size 9 to 14) (size 15 to 20)
#    0.000    0.667    3.333    4.000    4.667    2.667 
#    6.000    0.000    0.000    0.000    0.000    0.000 
#    0.000    0.000    0.000    0.000    0.000    0.000 
#
# Total GULP energy -297693.670515 kJ/mol
# GULP energy per Si atom -12403.902938 kJ/mol
# Density = 2.142102 g / cm^3
# Si number density = 21.469886 Si / 1000 Ang^3
#
#
#
# Elastic Constant Matrix: (Units=GPa)
#
#
# Indices 1 2 3 4 5 6 
#
# 1 108.1064 27.9289 -1.6400 0.0000 12.4281 0.0000
# 2 27.9289 89.2671 9.2279 0.0000 14.0083 0.0000
# 3 -1.6400 9.2279 73.1761 0.0000 16.5966 0.0000
# 4 0.0000 0.0000 0.0000 35.4484 0.0000 13.1531
# 5 12.4281 14.0083 16.5966 0.0000 33.4961 0.0000
# 6 0.0000 0.0000 0.0000 13.1531 0.0000 -14.1977
#
#
#
# Elastic Compliance Matrix: (Units=1/GPa)
#
#
# Indices 1 2 3 4 5 6 
#
# 1 0.010394 -0.002870 0.001349 0.000000 -0.003325 0.000000
# 2 -0.002870 0.012793 -0.000795 0.000000 -0.003892 0.000000
# 3 0.001349 -0.000795 0.015586 0.000000 -0.007890 0.000000
# 4 0.000000 0.000000 0.000000 0.020994 0.000000 0.019449
# 5 -0.003325 -0.003892 -0.007890 0.000000 0.036625 0.000000
# 6 0.000000 0.000000 0.000000 0.019449 0.000000 -0.052416
#
#
# Mechanical properties :
#
#
# Convention : Reuss Voigt Hill
#
# Bulk Modulus (GPa) = 29.28996 37.95367 33.62181
# Shear Modulus (GPa) = 83.35074 26.61821 54.98448
#
# Velocity S-wave (km/s) = 6.23750 3.52489 5.06613
# Velocity P-wave (km/s) = 8.09612 5.85512 7.06504
#
# Compressibility (1/GPa) = 0.03414140
#
# Stress axis : x y z
#
# Youngs Moduli (GPa) = 96.20737 78.16752 64.16133
#
# Poissons Ratio (x) = 0.22432 -0.08655
# Poissons Ratio (y) = 0.27609 0.05101
# Poissons Ratio (z) = -0.12977 0.06214
#
# Static dielectric constant tensor:
#      x y z
#    x 3.816720 0.000000 0.034360 
#    y 0.000000 4.097140 0.000000 
#    z 0.034360 0.000000 3.841360 
# 
# 
# High freq. dielectric constant tensor:
#      x y z
#    x 1.850040 0.000000 0.004280 
#    y 0.000000 1.861330 0.000000 
#    z 0.004280 0.000000 1.848370 
# 
# From -- ./inp_files/79837.got.cif
#   From: 2010.06.25/outbox.cif.g09.slc.cpg/sg15_40_cif.got.tgz:79837.got - 2010.06.28 07:06:18.
