data_PCOD8153699
_publ_section_title
;
Structure prediction by ZEFSAII (Michael W. Deem and Ramdas Pophale) SiO2 
 PCOD8153699
Probable space group: C 2/C
;
_chemical_formula_sum "Si O2"
_cell_formula_units_Z 40
_cell_length_a 23.065177
_cell_length_b 9.054872
_cell_length_c 8.642849
_cell_angle_alpha 90.000000
_cell_angle_beta 96.146291
_cell_angle_gamma 90.000000
_cell_volume 1794.702235
_symmetry_space_group_name_H-M "C 2/C"
_symmetry_group_IT_number 15
_symmetry_cell_setting 'monoclinic'
loop_
_space_group_symop_operation_xyz
x,y,z
-x,y,1/2-z
-x,-y,-z
x,-y,1/2+z
1/2+x,1/2+y,z
1/2-x,1/2+y,1/2-z
1/2-x,1/2-y,-z
1/2+x,1/2-y,1/2+z
loop_
_atom_site_type_symbol
_atom_site_label
_atom_site_fract_x
_atom_site_fract_y
_atom_site_fract_z
Si Si1 0.067984 0.319781 0.748291
Si Si2 0.353428 0.440227 0.333103
Si Si3 0.738111 0.149624 0.643746
Si Si4 0.160146 0.799018 0.848261
Si Si5 0.874989 0.488626 0.995814
O O1 0.094477 0.165753 0.701124
O O2 0.080936 0.447216 0.628191
O O3 0.000000 0.297379 0.750000
O O4 0.098498 0.366987 0.916619
O O5 0.297329 0.430426 0.205776
O O6 0.333633 0.408624 0.502476
O O7 0.373973 0.609093 0.299018
O O8 0.750000 0.250000 0.500000
O O9 0.721204 0.249976 0.787722
O O10 0.688762 0.026952 0.591004
O O11 0.126925 0.649761 0.886630
#
# Coordination Sequence:
#
# PCOD8153699 Si02
#       5
#     8   8   8   8   8
#     4  11  24  46  69  97 136 181 233 278 335 409
#     4  11  26  41  66 100 138 184 219 280 344 409
#     4  12  24  40  69 100 142 176 225 286 343 410
#     4  11  26  43  65 102 141 176 227 278 349 408
#     4  11  24  44  69 103 133 178 230 287 339 400
#
# _framework density 22.287821999999998
#
# number of rings (size 3 to 8) (size 9 to 14) (size 15 to 20)
#    0.000    0.800    4.000    2.400   11.200    0.000 
#    0.000    5.000    0.000    0.000    0.000    0.000 
#    0.000    0.000    0.000    0.000    0.000    0.000 
#
# Total GULP energy -247889.791909 kJ/mol
# GULP energy per Si atom -12394.489595 kJ/mol
# Density = 2.223709 g / cm^3
# Si number density = 22.287822 Si / 1000 Ang^3
#
#
#
# Elastic Constant Matrix: (Units=GPa)
#
#
# Indices 1 2 3 4 5 6 
#
# 1 129.0301 29.5740 54.3071 0.0000 -21.0417 0.0000
# 2 29.5740 91.3905 49.0916 0.0000 -12.1889 0.0000
# 3 54.3071 49.0916 106.3889 0.0000 -21.3710 0.0000
# 4 0.0000 0.0000 0.0000 56.2002 0.0000 -5.7489
# 5 -21.0417 -12.1889 -21.3710 0.0000 30.1718 0.0000
# 6 0.0000 0.0000 0.0000 -5.7489 0.0000 23.7278
#
#
#
# Elastic Compliance Matrix: (Units=1/GPa)
#
#
# Indices 1 2 3 4 5 6 
#
# 1 0.010293 -0.000541 -0.004205 0.000000 0.003982 0.000000
# 2 -0.000541 0.014621 -0.006249 0.000000 0.001103 0.000000
# 3 -0.004205 -0.006249 0.015545 0.000000 0.005554 0.000000
# 4 0.000000 0.000000 0.000000 0.018246 0.000000 0.004421
# 5 0.003982 0.001103 0.005554 0.000000 0.040300 0.000000
# 6 0.000000 0.000000 0.000000 0.004421 0.000000 0.043216
#
#
# Mechanical properties :
#
#
# Convention : Reuss Voigt Hill
#
# Bulk Modulus (GPa) = 54.14318 65.86166 60.00242
# Shear Modulus (GPa) = 29.34861 34.94243 32.14552
#
# Velocity S-wave (km/s) = 3.63271 3.96382 3.80187
# Velocity P-wave (km/s) = 6.47618 7.11082 6.80091
#
# Compressibility (1/GPa) = 0.01846955
#
# Stress axis : x y z
#
# Youngs Moduli (GPa) = 97.15177 68.39522 64.33017
#
# Poissons Ratio (x) = 0.03702 0.27049
# Poissons Ratio (y) = 0.05258 0.40198
# Poissons Ratio (z) = 0.40849 0.42738
#
# Static dielectric constant tensor:
#      x y z
#    x 3.613440 0.000000 -0.274650 
#    y 0.000000 4.497160 0.000000 
#    z -0.274650 0.000000 4.398540 
# 
# 
# High freq. dielectric constant tensor:
#      x y z
#    x 1.836770 0.000000 -0.028020 
#    y 0.000000 1.894860 0.000000 
#    z -0.028020 0.000000 1.899700 
# 
# From -- ./inp_files/59923.got.cif
#   From: 2010.06.25/outbox.cif.g09.slc.cpg/sg15_30_cif.got.tgz:59923.got - 2010.06.28 07:06:18.
