data_PCOD8153104
_publ_section_title
;
Structure prediction by ZEFSAII (Michael W. Deem and Ramdas Pophale) SiO2 
 PCOD8153104
Probable space group: C 2/C
;
_chemical_formula_sum "Si O2"
_cell_formula_units_Z 40
_cell_length_a 17.926466
_cell_length_b 8.067623
_cell_length_c 19.518013
_cell_angle_alpha 90.000000
_cell_angle_beta 38.449173
_cell_angle_gamma 90.000000
_cell_volume 1755.256804
_symmetry_space_group_name_H-M "C 2/C"
_symmetry_group_IT_number 15
_symmetry_cell_setting 'monoclinic'
loop_
_space_group_symop_operation_xyz
x,y,z
-x,y,1/2-z
-x,-y,-z
x,-y,1/2+z
1/2+x,1/2+y,z
1/2-x,1/2+y,1/2-z
1/2-x,1/2-y,-z
1/2+x,1/2-y,1/2+z
loop_
_atom_site_type_symbol
_atom_site_label
_atom_site_fract_x
_atom_site_fract_y
_atom_site_fract_z
Si Si1 0.277945 0.364477 0.284225
Si Si2 0.378881 0.092399 0.480797
Si Si3 0.138173 0.489242 0.261266
Si Si4 0.744464 0.084389 0.546338
Si Si5 0.025271 0.045128 0.560136
O O1 0.199407 0.462832 0.397159
O O2 0.209662 0.370665 0.261252
O O3 0.303462 0.172548 0.283188
O O4 0.402403 0.464496 0.190748
O O5 0.499634 0.985635 0.384156
O O6 0.413814 0.278192 0.472894
O O7 0.295486 0.069370 0.473618
O O8 0.150748 0.411108 0.176737
O O9 0.750000 0.250000 0.500000
O O10 0.879793 0.080368 0.476916
O O11 0.000000 0.000000 0.500000
#
# Coordination Sequence:
#
# PCOD8153104 Si02
#       5
#     8   8   8   8   8
#     4  11  23  42  76 104 145 190 246 287 368 432
#     4  11  25  45  73 105 147 190 240 300 371 425
#     4  11  25  45  71 106 148 192 238 302 359 443
#     4  12  27  48  71 105 149 188 249 304 366 427
#     4  11  23  47  75 104 145 189 242 295 359 445
#
# _framework density 22.788688
#
# number of rings (size 3 to 8) (size 9 to 14) (size 15 to 20)
#    0.000    0.800    4.000    1.800    2.800    4.000 
#    3.600    0.000    0.000    0.000    0.000    0.000 
#    0.000    0.000    0.000    0.000    0.000    0.000 
#
# Total GULP energy -247970.178406 kJ/mol
# GULP energy per Si atom -12398.508920 kJ/mol
# Density = 2.273682 g / cm^3
# Si number density = 22.788688 Si / 1000 Ang^3
#
#
#
# Elastic Constant Matrix: (Units=GPa)
#
#
# Indices 1 2 3 4 5 6 
#
# 1 183.9681 57.6543 76.9284 0.0001 6.2037 -0.0001
# 2 57.6543 69.9716 56.8036 0.0003 3.6819 -0.0004
# 3 76.9284 56.8036 226.0891 0.0001 6.8203 0.0000
# 4 0.0001 0.0003 0.0001 28.5911 -0.0001 3.6773
# 5 6.2037 3.6819 6.8203 -0.0001 45.5207 0.0001
# 6 -0.0001 -0.0004 0.0000 3.6773 0.0001 46.0692
#
#
#
# Elastic Compliance Matrix: (Units=1/GPa)
#
#
# Indices 1 2 3 4 5 6 
#
# 1 0.007617 -0.005226 -0.001266 0.000000 -0.000426 0.000000
# 2 -0.005226 0.021567 -0.003625 0.000000 -0.000489 0.000000
# 3 -0.001266 -0.003625 0.005777 0.000000 -0.000400 0.000000
# 4 0.000000 0.000000 0.000000 0.035339 0.000000 -0.002821
# 5 -0.000426 -0.000489 -0.000400 0.000000 0.022125 0.000000
# 6 0.000000 0.000000 0.000000 -0.002821 0.000000 0.021932
#
#
# Mechanical properties :
#
#
# Convention : Reuss Voigt Hill
#
# Bulk Modulus (GPa) = 67.91018 95.86683 81.88850
# Shear Modulus (GPa) = 35.84214 43.27904 39.56059
#
# Velocity S-wave (km/s) = 3.97016 4.36265 4.17102
# Velocity P-wave (km/s) = 7.13308 8.21803 7.69470
#
# Compressibility (1/GPa) = 0.01472533
#
# Stress axis : x y z
#
# Youngs Moduli (GPa) = 131.27937 46.36761 173.10887
#
# Poissons Ratio (x) = 0.24233 0.21914
# Poissons Ratio (y) = 0.68611 0.62760
# Poissons Ratio (z) = 0.16619 0.16810
#
# Static dielectric constant tensor:
#      x y z
#    x 4.888310 0.000000 -0.390250 
#    y 0.000000 3.833090 0.000000 
#    z -0.390250 0.000000 4.713850 
# 
# 
# High freq. dielectric constant tensor:
#      x y z
#    x 1.911030 0.000000 -0.006310 
#    y 0.000000 1.882370 0.000000 
#    z -0.006310 0.000000 1.923220 
# 
# From -- ./inp_files/221963.got.cif
#   From: 2010.06.25/outbox.cif.g09.slc.cpg/sg15_111_cif.got.tgz:221963.got - 2010.06.28 07:06:18.
