data_PCOD8153618
_publ_section_title
;
Structure prediction by ZEFSAII (Michael W. Deem and Ramdas Pophale) SiO2 
 PCOD8153618
Probable space group: C 2/C
;
_chemical_formula_sum "Si O2"
_cell_formula_units_Z 32
_cell_length_a 9.322755
_cell_length_b 11.297693
_cell_length_c 29.439843
_cell_angle_alpha 90.000000
_cell_angle_beta 151.363946
_cell_angle_gamma 90.000000
_cell_volume 1486.026092
_symmetry_space_group_name_H-M "C 2/C"
_symmetry_group_IT_number 15
_symmetry_cell_setting 'monoclinic'
loop_
_space_group_symop_operation_xyz
x,y,z
-x,y,1/2-z
-x,-y,-z
x,-y,1/2+z
1/2+x,1/2+y,z
1/2-x,1/2+y,1/2-z
1/2-x,1/2-y,-z
1/2+x,1/2-y,1/2+z
loop_
_atom_site_type_symbol
_atom_site_label
_atom_site_fract_x
_atom_site_fract_y
_atom_site_fract_z
Si Si1 0.993497 0.133157 0.514390
Si Si2 0.952363 0.222560 0.367206
Si Si3 0.143560 0.041136 0.649982
Si Si4 0.058987 0.775984 0.339230
O O1 0.239667 0.214072 0.558262
O O2 0.041269 0.130839 0.581728
O O3 0.676168 0.189170 0.411716
O O4 0.000000 0.000000 0.500000
O O5 0.799744 0.294604 0.366026
O O6 0.741369 0.217510 0.264319
O O7 0.006886 0.087405 0.398512
O O8 0.500000 0.026560 0.750000
O O9 0.023472 0.095943 0.663516
#
# Coordination Sequence:
#
# PCOD8153618 Si02
#       4
#     8   8   8   8
#     4  12  24  45  73  97 136 177 224 274 335 398
#     4  11  24  46  68  97 138 175 224 272 336 396
#     4  12  23  45  68  97 141 177 220 280 329 391
#     4  11  24  43  67 101 131 178 224 274 331 393
#
# _framework density 21.533944000000002
#
# number of rings (size 3 to 8) (size 9 to 14) (size 15 to 20)
#    0.000    0.500    7.500    1.500    0.000    1.000 
#    4.500    0.000    0.000    0.000    0.000    0.000 
#    0.000    0.000    0.000    0.000    0.000    0.000 
#
# Total GULP energy -198442.898854 kJ/mol
# GULP energy per Si atom -12402.681178 kJ/mol
# Density = 2.148493 g / cm^3
# Si number density = 21.533944 Si / 1000 Ang^3
#
#
#
# Elastic Constant Matrix: (Units=GPa)
#
#
# Indices 1 2 3 4 5 6 
#
# 1 99.4667 67.9125 22.8123 0.0000 -1.8793 0.0000
# 2 67.9125 126.9456 41.7338 -0.0001 16.7850 0.0000
# 3 22.8123 41.7338 114.2777 0.0000 -12.7923 -0.0004
# 4 0.0000 -0.0001 0.0000 30.3312 -0.0001 -6.2877
# 5 -1.8793 16.7850 -12.7923 -0.0001 23.2397 0.0000
# 6 0.0000 0.0000 -0.0004 -6.2877 0.0000 38.2667
#
#
#
# Elastic Compliance Matrix: (Units=1/GPa)
#
#
# Indices 1 2 3 4 5 6 
#
# 1 0.017676 -0.011496 0.001875 0.000000 0.010764 0.000000
# 2 -0.011496 0.018515 -0.006466 0.000000 -0.017861 0.000000
# 3 0.001875 -0.006466 0.012018 0.000000 0.011437 0.000000
# 4 0.000000 0.000000 0.000000 0.034132 0.000000 0.005608
# 5 0.010764 -0.017861 0.011437 0.000000 0.063096 0.000000
# 6 0.000000 0.000000 0.000000 0.005608 0.000000 0.027054
#
#
# Mechanical properties :
#
#
# Convention : Reuss Voigt Hill
#
# Bulk Modulus (GPa) = 62.36612 67.28971 64.82791
# Shear Modulus (GPa) = 23.80840 32.24961 28.02901
#
# Velocity S-wave (km/s) = 3.32870 3.87410 3.61171
# Velocity P-wave (km/s) = 6.61803 7.16433 6.89659
#
# Compressibility (1/GPa) = 0.01603435
#
# Stress axis : x y z
#
# Youngs Moduli (GPa) = 56.57411 54.01117 83.20800
#
# Poissons Ratio (x) = 0.62090 -0.15598
# Poissons Ratio (y) = 0.65036 0.53803
# Poissons Ratio (z) = -0.10606 0.34924
#
# Static dielectric constant tensor:
#      x y z
#    x 4.002260 0.000000 -0.327050 
#    y 0.000000 3.825890 0.000000 
#    z -0.327050 0.000000 4.255240 
# 
# 
# High freq. dielectric constant tensor:
#      x y z
#    x 1.840700 0.000000 -0.020770 
#    y 0.000000 1.839230 0.000000 
#    z -0.020770 0.000000 1.862510 
# 
# From -- ./inp_files/131730.got.cif
#   From: 2010.06.25/outbox.cif.g09.slc.cpg/sg15_66_cif.got.tgz:131730.got - 2010.06.28 07:06:18.
