data_PCOD8153482
_publ_section_title
;
Structure prediction by ZEFSAII (Michael W. Deem and Ramdas Pophale) SiO2 
 PCOD8153482
Probable space group: C 2/C
;
_chemical_formula_sum "Si O2"
_cell_formula_units_Z 60
_cell_length_a 10.183784
_cell_length_b 9.550239
_cell_length_c 27.288341
_cell_angle_alpha 90.000000
_cell_angle_beta 109.732628
_cell_angle_gamma 90.000000
_cell_volume 2498.150844
_symmetry_space_group_name_H-M "C 2/C"
_symmetry_group_IT_number 15
_symmetry_cell_setting 'monoclinic'
loop_
_space_group_symop_operation_xyz
x,y,z
-x,y,1/2-z
-x,-y,-z
x,-y,1/2+z
1/2+x,1/2+y,z
1/2-x,1/2+y,1/2-z
1/2-x,1/2-y,-z
1/2+x,1/2-y,1/2+z
loop_
_atom_site_type_symbol
_atom_site_label
_atom_site_fract_x
_atom_site_fract_y
_atom_site_fract_z
Si Si1 0.061297 0.646326 0.356462
Si Si2 0.630757 0.691528 0.132797
Si Si3 0.022913 0.572400 0.933376
Si Si4 0.943573 0.051681 0.624726
Si Si5 0.231417 0.297101 0.247845
Si Si6 0.643497 0.539289 0.284226
Si Si7 0.500000 0.006271 0.750000
Si Si8 0.720726 0.905905 0.018462
O O1 0.229335 0.681340 0.383148
O O2 0.993592 0.542291 0.387499
O O3 0.991328 0.796715 0.356079
O O4 0.023429 0.596715 0.297992
O O5 0.496240 0.774018 0.092964
O O6 0.583751 0.534527 0.136121
O O7 0.658400 0.765257 0.187366
O O8 0.908554 0.583468 0.961240
O O9 0.176912 0.524726 0.972365
O O10 0.859328 0.045480 0.563322
O O11 0.844980 0.993716 0.656615
O O12 0.360845 0.396333 0.248910
O O13 0.263866 0.152455 0.282389
O O14 0.134427 0.396959 0.267378
O O15 0.500000 0.616344 0.250000
O O16 0.750000 0.750000 0.000000
#
# Coordination Sequence:
#
# PCOD8153482 Si02
#       8
#     8   8   8   8   8   8   4   8
#     4  12  26  48  70 109 145 193 241 299 366 438
#     4  12  24  49  68 106 150 184 244 299 355 439
#     4  11  23  47  81 103 146 191 245 307 367 437
#     4  12  26  46  73 103 148 188 240 308 363 435
#     4  12  24  47  69 100 149 191 240 298 350 433
#     4  12  26  46  68 104 144 194 242 293 363 434
#     4  12  26  42  76 104 146 196 240 294 368 432
#     4  11  23  49  79 108 144 191 244 312 375 431
#
# _framework density 24.017764
#
# number of rings (size 3 to 8) (size 9 to 14) (size 15 to 20)
#    0.000    0.267    7.333    0.800    0.933    0.533 
#    2.400    2.667    0.000    0.000    0.000    0.000 
#    0.000    0.000    0.000    0.000    0.000    0.000 
#
# Total GULP energy -371643.273761 kJ/mol
# GULP energy per Si atom -12388.109125 kJ/mol
# Density = 2.396310 g / cm^3
# Si number density = 24.017764 Si / 1000 Ang^3
#
#
#
# Elastic Constant Matrix: (Units=GPa)
#
#
# Indices 1 2 3 4 5 6 
#
# 1 55.6509 47.1705 8.0521 0.0000 -11.1021 0.0000
# 2 47.1705 158.9994 36.5075 0.0000 -14.5262 0.0000
# 3 8.0521 36.5075 87.9756 0.0000 -20.3377 0.0000
# 4 0.0000 0.0000 0.0000 41.2976 0.0000 0.9166
# 5 -11.1021 -14.5262 -20.3377 0.0000 18.1012 0.0000
# 6 0.0000 0.0000 0.0000 0.9166 0.0000 30.2570
#
#
#
# Elastic Compliance Matrix: (Units=1/GPa)
#
#
# Indices 1 2 3 4 5 6 
#
# 1 0.026732 -0.007509 0.004143 0.000000 0.015024 0.000000
# 2 -0.007509 0.009197 -0.003361 0.000000 -0.001001 0.000000
# 3 0.004143 -0.003361 0.016678 0.000000 0.018583 0.000000
# 4 0.000000 0.000000 0.000000 0.024231 0.000000 -0.000734
# 5 0.015024 -0.001001 0.018583 0.000000 0.084535 0.000000
# 6 0.000000 0.000000 0.000000 -0.000734 0.000000 0.033072
#
#
# Mechanical properties :
#
#
# Convention : Reuss Voigt Hill
#
# Bulk Modulus (GPa) = 25.54102 54.00956 39.77529
# Shear Modulus (GPa) = 22.62944 31.99088 27.31016
#
# Velocity S-wave (km/s) = 3.07285 3.65357 3.37572
# Velocity P-wave (km/s) = 4.82153 6.35093 5.63833
#
# Compressibility (1/GPa) = 0.03915271
#
# Stress axis : x y z
#
# Youngs Moduli (GPa) = 37.40855 108.72772 59.95906
#
# Poissons Ratio (x) = 0.81645 -0.24839
# Poissons Ratio (y) = 0.28091 0.20150
# Poissons Ratio (z) = -0.15497 0.36540
#
# Static dielectric constant tensor:
#      x y z
#    x 4.473340 0.000000 0.115690 
#    y 0.000000 4.680380 0.000000 
#    z 0.115690 0.000000 4.819670 
# 
# 
# High freq. dielectric constant tensor:
#      x y z
#    x 1.941720 0.000000 -0.005720 
#    y 0.000000 1.969200 0.000000 
#    z -0.005720 0.000000 1.957900 
# 
# From -- ./inp_files/310343.got.cif
#   From: 2010.06.25/outbox.cif.g09.slc.cpg/sg15_156_cif.got.tgz:310343.got - 2010.06.28 07:06:18.
