data_PCOD8153417
_publ_section_title
;
Structure prediction by ZEFSAII (Michael W. Deem and Ramdas Pophale) SiO2 
 PCOD8153417
Probable space group: C 2/C
;
_chemical_formula_sum "Si O2"
_cell_formula_units_Z 36
_cell_length_a 27.856773
_cell_length_b 6.521425
_cell_length_c 28.009903
_cell_angle_alpha 90.000000
_cell_angle_beta 160.238235
_cell_angle_gamma 90.000000
_cell_volume 1720.453311
_symmetry_space_group_name_H-M "C 2/C"
_symmetry_group_IT_number 15
_symmetry_cell_setting 'monoclinic'
loop_
_space_group_symop_operation_xyz
x,y,z
-x,y,1/2-z
-x,-y,-z
x,-y,1/2+z
1/2+x,1/2+y,z
1/2-x,1/2+y,1/2-z
1/2-x,1/2-y,-z
1/2+x,1/2-y,1/2+z
loop_
_atom_site_type_symbol
_atom_site_label
_atom_site_fract_x
_atom_site_fract_y
_atom_site_fract_z
Si Si1 0.887580 0.482874 0.826591
Si Si2 0.092921 0.196088 0.075898
Si Si3 0.009094 0.540182 0.339954
Si Si4 0.000000 0.214664 0.250000
Si Si5 0.694621 0.640825 0.901368
O O1 0.873217 0.693105 0.842389
O O2 0.739811 0.362904 0.688613
O O3 0.925146 0.540120 0.807522
O O4 0.012407 0.344201 0.964465
O O5 0.000000 0.000000 0.000000
O O6 0.034307 0.354229 0.327500
O O7 0.925202 0.728029 0.237270
O O8 0.167359 0.613386 0.503385
O O9 0.865944 0.077461 0.138969
O O10 0.750000 0.750000 0.000000
#
# Coordination Sequence:
#
# PCOD8153417 Si02
#       5
#     8   8   8   4   8
#     4  11  25  44  69 101 130 176 219 274 332 395
#     4  11  23  46  70  93 137 169 219 277 333 390
#     4  12  26  42  70  99 133 176 224 268 331 394
#     4  12  24  42  70  92 138 174 222 264 326 394
#     4  12  23  46  64  94 137 176 216 277 320 381
#
# _framework density 20.924717000000001
#
# number of rings (size 3 to 8) (size 9 to 14) (size 15 to 20)
#    0.000    0.444    6.667    2.000    0.000    3.556 
#    0.000    0.000    0.000    0.000    0.000    0.000 
#    0.000    0.000    0.000    0.000    0.000    0.000 
#
# Total GULP energy -223263.321633 kJ/mol
# GULP energy per Si atom -12403.517869 kJ/mol
# Density = 2.087709 g / cm^3
# Si number density = 20.924717 Si / 1000 Ang^3
#
#
#
# Elastic Constant Matrix: (Units=GPa)
#
#
# Indices 1 2 3 4 5 6 
#
# 1 135.6689 34.2189 46.7195 -0.0018 20.7642 -0.0004
# 2 34.2189 99.8263 41.4882 -0.0019 9.8274 -0.0020
# 3 46.7195 41.4882 129.7855 -0.0025 33.1665 -0.0004
# 4 -0.0018 -0.0019 -0.0025 36.5051 -0.0003 12.5285
# 5 20.7642 9.8274 33.1665 -0.0003 37.5360 0.0002
# 6 -0.0004 -0.0020 -0.0004 12.5285 0.0002 25.5978
#
#
#
# Elastic Compliance Matrix: (Units=1/GPa)
#
#
# Indices 1 2 3 4 5 6 
#
# 1 0.008947 -0.002018 -0.001868 0.000000 -0.002771 0.000000
# 2 -0.002018 0.012010 -0.003351 0.000000 0.000933 0.000001
# 3 -0.001868 -0.003351 0.011574 0.000001 -0.008316 0.000000
# 4 0.000000 0.000000 0.000001 0.032924 0.000000 -0.016114
# 5 -0.002771 0.000933 -0.008316 0.000000 0.035277 0.000000
# 6 0.000000 0.000001 0.000000 -0.016114 0.000000 0.046953
#
#
# Mechanical properties :
#
#
# Convention : Reuss Voigt Hill
#
# Bulk Modulus (GPa) = 55.37931 67.79264 61.58597
# Shear Modulus (GPa) = 29.73050 36.11805 32.92427
#
# Velocity S-wave (km/s) = 3.77348 4.15914 3.97099
# Velocity P-wave (km/s) = 6.74603 7.45206 7.10782
#
# Compressibility (1/GPa) = 0.01805729
#
# Stress axis : x y z
#
# Youngs Moduli (GPa) = 111.76848 83.26345 86.40283
#
# Poissons Ratio (x) = 0.16802 0.16136
# Poissons Ratio (y) = 0.22555 0.28956
# Poissons Ratio (z) = 0.20873 0.27904
#
# Static dielectric constant tensor:
#      x y z
#    x 4.148040 -0.000010 0.572370 
#    y -0.000010 4.082990 -0.000020 
#    z 0.572370 -0.000020 4.529780 
# 
# 
# High freq. dielectric constant tensor:
#      x y z
#    x 1.819430 0.000000 0.018100 
#    y 0.000000 1.825980 0.000000 
#    z 0.018100 0.000000 1.838120 
# 
# From -- ./inp_files/319883.got.cif
#   From: 2010.06.25/outbox.cif.g09.slc.cpg/sg15_160_cif.got.tgz:319883.got - 2010.06.28 07:06:18.
