data_PCOD8153956
_publ_section_title
;
Structure prediction by ZEFSAII (Michael W. Deem and Ramdas Pophale) SiO2 
 PCOD8153956
Probable space group: C 2/C
;
_chemical_formula_sum "Si O2"
_cell_formula_units_Z 52
_cell_length_a 9.157316
_cell_length_b 16.451065
_cell_length_c 17.522748
_cell_angle_alpha 90.000000
_cell_angle_beta 118.331912
_cell_angle_gamma 90.000000
_cell_volume 2323.551454
_symmetry_space_group_name_H-M "C 2/C"
_symmetry_group_IT_number 15
_symmetry_cell_setting 'monoclinic'
loop_
_space_group_symop_operation_xyz
x,y,z
-x,y,1/2-z
-x,-y,-z
x,-y,1/2+z
1/2+x,1/2+y,z
1/2-x,1/2+y,1/2-z
1/2-x,1/2-y,-z
1/2+x,1/2-y,1/2+z
loop_
_atom_site_type_symbol
_atom_site_label
_atom_site_fract_x
_atom_site_fract_y
_atom_site_fract_z
Si Si1 0.771829 0.267908 0.124734
Si Si2 0.754996 0.997862 0.730389
Si Si3 0.598634 0.481200 0.395364
Si Si4 0.557245 0.654546 0.441705
Si Si5 0.500000 0.102171 0.750000
Si Si6 0.421077 0.834677 0.809284
Si Si7 0.757884 0.838966 0.965716
O O1 0.895741 0.196018 0.127381
O O2 0.670308 0.240813 0.173993
O O3 0.877073 0.345864 0.169446
O O4 0.643939 0.293776 0.028814
O O5 0.783031 0.010281 0.647894
O O6 0.594021 0.048184 0.711914
O O7 0.909325 0.026413 0.820086
O O8 0.715758 0.903986 0.737778
O O9 0.615343 0.560551 0.453471
O O10 0.651765 0.401523 0.454747
O O11 0.361415 0.661885 0.411848
O O12 0.500000 0.802678 0.750000
O O13 0.570955 0.867720 0.900364
O O14 0.750000 0.750000 0.000000
#
# Coordination Sequence:
#
# PCOD8153956 Si02
#       7
#     8   8   8   8   4   8   8
#     4  11  27  45  72 105 145 190 239 303 371 438
#     4  11  26  47  72 112 139 197 248 303 370 442
#     4  11  26  47  79  99 153 192 249 299 373 447
#     4  11  24  47  71 105 142 189 244 293 371 441
#     4  12  28  44  70 102 150 182 244 300 372 428
#     4  12  26  47  74 105 147 192 253 308 368 440
#     4  12  27  45  72 109 144 192 246 309 371 433
#
# _framework density 22.379535000000001
#
# number of rings (size 3 to 8) (size 9 to 14) (size 15 to 20)
#    0.000    0.615    3.846    2.308    8.615    0.615 
#    0.000    0.000    0.000    0.000    0.000    0.000 
#    0.000    0.000    0.000    0.000    0.000    0.000 
#
# Total GULP energy -322510.631963 kJ/mol
# GULP energy per Si atom -12404.255076 kJ/mol
# Density = 2.232860 g / cm^3
# Si number density = 22.379535 Si / 1000 Ang^3
#
#
#
# Elastic Constant Matrix: (Units=GPa)
#
#
# Indices 1 2 3 4 5 6 
#
# 1 166.5045 60.1564 37.4080 0.0000 -22.7971 0.0000
# 2 60.1564 136.4273 29.6626 0.0000 -15.2426 0.0000
# 3 37.4080 29.6626 62.4319 0.0000 -9.8096 0.0000
# 4 0.0000 0.0000 0.0000 39.5053 0.0000 -4.6997
# 5 -22.7971 -15.2426 -9.8096 0.0000 39.6895 0.0000
# 6 0.0000 0.0000 0.0000 -4.6997 0.0000 46.3260
#
#
#
# Elastic Compliance Matrix: (Units=1/GPa)
#
#
# Indices 1 2 3 4 5 6 
#
# 1 0.008020 -0.002532 -0.003154 0.000000 0.002855 0.000000
# 2 -0.002532 0.009174 -0.002619 0.000000 0.001422 0.000000
# 3 -0.003154 -0.002619 0.019465 0.000000 0.001994 0.000000
# 4 0.000000 0.000000 0.000000 0.025622 0.000000 0.002599
# 5 0.002855 0.001422 0.001994 0.000000 0.027874 0.000000
# 6 0.000000 0.000000 0.000000 0.002599 0.000000 0.021850
#
#
# Mechanical properties :
#
#
# Convention : Reuss Voigt Hill
#
# Bulk Modulus (GPa) = 49.87393 68.86863 59.37128
# Shear Modulus (GPa) = 36.95561 40.97993 38.96777
#
# Velocity S-wave (km/s) = 4.06804 4.28382 4.17732
# Velocity P-wave (km/s) = 6.66327 7.43693 7.06071
#
# Compressibility (1/GPa) = 0.02005056
#
# Stress axis : x y z
#
# Youngs Moduli (GPa) = 124.68884 108.99859 51.37508
#
# Poissons Ratio (x) = 0.27594 0.16204
# Poissons Ratio (y) = 0.31566 0.13453
# Poissons Ratio (z) = 0.39327 0.28542
#
# Static dielectric constant tensor:
#      x y z
#    x 4.218950 0.000000 0.126750 
#    y 0.000000 3.993630 0.000000 
#    z 0.126750 0.000000 3.887470 
# 
# 
# High freq. dielectric constant tensor:
#      x y z
#    x 1.906640 0.000000 -0.001820 
#    y 0.000000 1.884160 0.000000 
#    z -0.001820 0.000000 1.878900 
# 
# From -- ./inp_files/190577.got.cif
#   From: 2010.06.25/outbox.cif.g09.slc.cpg/sg15_96_cif.got.tgz:190577.got - 2010.06.28 07:06:18.
