data_PCOD8153427
_publ_section_title
;
Structure prediction by ZEFSAII (Michael W. Deem and Ramdas Pophale) SiO2 
 PCOD8153427
Probable space group: C 2/C
;
_chemical_formula_sum "Si O2"
_cell_formula_units_Z 56
_cell_length_a 15.560712
_cell_length_b 11.281990
_cell_length_c 14.459477
_cell_angle_alpha 90.000000
_cell_angle_beta 91.171836
_cell_angle_gamma 90.000000
_cell_volume 2537.914114
_symmetry_space_group_name_H-M "C 2/C"
_symmetry_group_IT_number 15
_symmetry_cell_setting 'monoclinic'
loop_
_space_group_symop_operation_xyz
x,y,z
-x,y,1/2-z
-x,-y,-z
x,-y,1/2+z
1/2+x,1/2+y,z
1/2-x,1/2+y,1/2-z
1/2-x,1/2-y,-z
1/2+x,1/2-y,1/2+z
loop_
_atom_site_type_symbol
_atom_site_label
_atom_site_fract_x
_atom_site_fract_y
_atom_site_fract_z
Si Si1 0.624070 0.943727 0.828312
Si Si2 0.406303 0.550966 0.488144
Si Si3 0.137350 0.719900 0.157440
Si Si4 0.950650 0.692296 0.662073
Si Si5 0.186150 0.889116 0.877470
Si Si6 0.470244 0.794957 0.530593
Si Si7 0.683959 0.488679 0.187110
O O1 0.604500 0.847056 0.748513
O O2 0.581832 0.901316 0.923474
O O3 0.582412 0.067711 0.798799
O O4 0.724489 0.964259 0.845804
O O5 0.500000 0.500000 0.500000
O O6 0.335991 0.465496 0.532871
O O7 0.407155 0.681306 0.532642
O O8 0.385301 0.554551 0.378959
O O9 0.213920 0.645040 0.112024
O O10 0.059754 0.732448 0.084154
O O11 0.174738 0.847440 0.184832
O O12 0.871329 0.772108 0.628135
O O13 0.012655 0.672071 0.575665
O O14 0.000000 0.752380 0.750000
O O15 0.166046 0.972085 0.790485
#
# Coordination Sequence:
#
# PCOD8153427 Si02
#       7
#     8   8   8   8   8   8   8
#     4  11  26  44  67 103 134 176 226 270 340 397
#     4  12  24  43  68 105 129 173 231 276 331 396
#     4  11  23  46  72  96 134 180 225 274 331 406
#     4  12  24  42  65  96 139 175 225 269 336 400
#     4  11  25  41  69 100 134 181 220 281 339 388
#     4  12  25  44  72  99 134 178 222 281 331 395
#     4  11  24  45  69  97 141 170 225 282 333 395
#
# _framework density 22.065363999999999
#
# number of rings (size 3 to 8) (size 9 to 14) (size 15 to 20)
#    0.000    0.571    4.286    3.429    2.000    1.714 
#    2.571    0.000    0.000    0.000    0.000    0.000 
#    0.000    0.000    0.000    0.000    0.000    0.000 
#
# Total GULP energy -347359.908078 kJ/mol
# GULP energy per Si atom -12405.711003 kJ/mol
# Density = 2.201514 g / cm^3
# Si number density = 22.065364 Si / 1000 Ang^3
#
#
#
# Elastic Constant Matrix: (Units=GPa)
#
#
# Indices 1 2 3 4 5 6 
#
# 1 58.8978 24.2241 24.8599 0.0000 -10.5727 0.0000
# 2 24.2241 102.6765 27.2246 0.0000 3.7982 0.0000
# 3 24.8599 27.2246 101.5028 0.0000 -6.1147 0.0000
# 4 0.0000 0.0000 0.0000 37.6155 0.0000 -9.2224
# 5 -10.5727 3.7982 -6.1147 0.0000 38.0360 0.0000
# 6 0.0000 0.0000 0.0000 -9.2224 0.0000 33.6051
#
#
#
# Elastic Compliance Matrix: (Units=1/GPa)
#
#
# Indices 1 2 3 4 5 6 
#
# 1 0.021340 -0.004256 -0.003738 0.000000 0.005756 0.000000
# 2 -0.004256 0.011421 -0.002182 0.000000 -0.002674 0.000000
# 3 -0.003738 -0.002182 0.011414 0.000000 0.001014 0.000000
# 4 0.000000 0.000000 0.000000 0.028503 0.000000 0.007822
# 5 0.005756 -0.002674 0.001014 0.000000 0.028321 0.000000
# 6 0.000000 0.000000 0.000000 0.007822 0.000000 0.031904
#
#
# Mechanical properties :
#
#
# Convention : Reuss Voigt Hill
#
# Bulk Modulus (GPa) = 41.97822 46.18825 44.08323
# Shear Modulus (GPa) = 31.01807 34.30258 32.66032
#
# Velocity S-wave (km/s) = 3.75338 3.94711 3.85146
# Velocity P-wave (km/s) = 6.15220 6.46148 6.30874
#
# Compressibility (1/GPa) = 0.02382188
#
# Stress axis : x y z
#
# Youngs Moduli (GPa) = 46.85970 87.55800 87.61327
#
# Poissons Ratio (x) = 0.37269 0.32752
# Poissons Ratio (y) = 0.19946 0.19116
# Poissons Ratio (z) = 0.17517 0.19104
#
# Static dielectric constant tensor:
#      x y z
#    x 4.042570 0.000000 -0.104930 
#    y 0.000000 4.201900 0.000000 
#    z -0.104930 0.000000 4.081240 
# 
# 
# High freq. dielectric constant tensor:
#      x y z
#    x 1.872540 0.000000 -0.001490 
#    y 0.000000 1.878800 0.000000 
#    z -0.001490 0.000000 1.875060 
# 
# From -- ./inp_files/152605.got.cif
#   From: 2010.06.25/outbox.cif.g09.slc.cpg/sg15_77_cif.got.tgz:152605.got - 2010.06.28 07:06:18.
