data_PCOD8153465
_publ_section_title
;
Structure prediction by ZEFSAII (Michael W. Deem and Ramdas Pophale) SiO2 
 PCOD8153465
Probable space group: C 2/C
;
_chemical_formula_sum "Si O2"
_cell_formula_units_Z 32
_cell_length_a 19.022764
_cell_length_b 6.567876
_cell_length_c 15.082568
_cell_angle_alpha 90.000000
_cell_angle_beta 45.574295
_cell_angle_gamma 90.000000
_cell_volume 1345.763038
_symmetry_space_group_name_H-M "C 2/C"
_symmetry_group_IT_number 15
_symmetry_cell_setting 'monoclinic'
loop_
_space_group_symop_operation_xyz
x,y,z
-x,y,1/2-z
-x,-y,-z
x,-y,1/2+z
1/2+x,1/2+y,z
1/2-x,1/2+y,1/2-z
1/2-x,1/2-y,-z
1/2+x,1/2-y,1/2+z
loop_
_atom_site_type_symbol
_atom_site_label
_atom_site_fract_x
_atom_site_fract_y
_atom_site_fract_z
Si Si1 0.145060 0.005536 0.315984
Si Si2 0.523392 0.807167 0.039315
Si Si3 0.751098 0.686273 0.376653
Si Si4 0.600410 0.085394 0.116532
O O1 0.236435 0.085531 0.294053
O O2 0.076735 0.191540 0.344712
O O3 0.089747 0.844003 0.425604
O O4 0.189350 0.898401 0.189671
O O5 0.500000 0.000000 0.000000
O O6 0.578053 0.880643 0.080681
O O7 0.644593 0.736006 0.514424
O O8 0.817175 0.540356 0.380897
O O9 0.500000 0.167809 0.250000
#
# Coordination Sequence:
#
# PCOD8153465 Si02
#       4
#     8   8   8   8
#     4  11  25  45  78 104 142 196 249 299 365 439
#     4  11  23  47  73 104 144 195 240 299 370 437
#     4  11  25  45  75 106 144 191 248 303 359 442
#     4  11  25  46  68 105 153 181 240 307 360 431
#
# _framework density 23.77833
#
# number of rings (size 3 to 8) (size 9 to 14) (size 15 to 20)
#    0.000    1.000    2.500    3.000    7.000    1.000 
#    9.000    0.000    0.000    0.000    0.000    0.000 
#    0.000    0.000    0.000    0.000    0.000    0.000 
#
# Total GULP energy -198425.502924 kJ/mol
# GULP energy per Si atom -12401.593933 kJ/mol
# Density = 2.372421 g / cm^3
# Si number density = 23.778330 Si / 1000 Ang^3
#
#
#
# Elastic Constant Matrix: (Units=GPa)
#
#
# Indices 1 2 3 4 5 6 
#
# 1 160.7250 65.1681 28.5764 -0.0031 -0.0113 0.0020
# 2 65.1681 110.9530 34.3198 -0.0225 -7.2373 0.0170
# 3 28.5764 34.3198 117.6348 -0.0035 -11.9419 0.0052
# 4 -0.0031 -0.0225 -0.0035 29.7718 0.0043 -4.3221
# 5 -0.0113 -7.2373 -11.9419 0.0043 32.9549 -0.0040
# 6 0.0020 0.0170 0.0052 -4.3221 -0.0040 51.8199
#
#
#
# Elastic Compliance Matrix: (Units=1/GPa)
#
#
# Indices 1 2 3 4 5 6 
#
# 1 0.008265 -0.004702 -0.000769 -0.000002 -0.001308 0.000001
# 2 -0.004702 0.012626 -0.002346 0.000008 0.001921 -0.000003
# 3 -0.000769 -0.002346 0.009676 -0.000001 0.002991 0.000000
# 4 -0.000002 0.000008 -0.000001 0.034001 -0.000003 0.002836
# 5 -0.001308 0.001921 0.002991 -0.000003 0.031850 0.000001
# 6 0.000001 -0.000003 0.000000 0.002836 0.000001 0.019534
#
#
# Mechanical properties :
#
#
# Convention : Reuss Voigt Hill
#
# Bulk Modulus (GPa) = 66.96917 71.71572 69.34245
# Shear Modulus (GPa) = 36.61345 40.32588 38.46966
#
# Velocity S-wave (km/s) = 3.92826 4.12261 4.02661
# Velocity P-wave (km/s) = 6.98571 7.27233 7.13046
#
# Compressibility (1/GPa) = 0.01493224
#
# Stress axis : x y z
#
# Youngs Moduli (GPa) = 120.99438 79.20469 103.35101
#
# Poissons Ratio (x) = 0.37241 0.07945
# Poissons Ratio (y) = 0.56890 0.24249
# Poissons Ratio (z) = 0.09302 0.18584
#
# Static dielectric constant tensor:
#      x y z
#    x 3.928200 -0.001500 0.514490 
#    y -0.001500 -1.429580 0.001340 
#    z 0.514490 0.001340 3.840440 
# 
# 
# High freq. dielectric constant tensor:
#      x y z
#    x 1.951160 0.000000 -0.007630 
#    y 0.000000 1.925290 0.000000 
#    z -0.007630 0.000000 1.952580 
# 
# From -- ./inp_files/217379.got.cif
#   From: 2010.06.25/outbox.cif.g09.slc.cpg/sg15_109_cif.got.tgz:217379.got - 2010.06.28 07:06:18.
