data_PCOD8153453
_publ_section_title
;
Structure prediction by ZEFSAII (Michael W. Deem and Ramdas Pophale) SiO2 
 PCOD8153453
Probable space group: C 2/C
;
_chemical_formula_sum "Si O2"
_cell_formula_units_Z 52
_cell_length_a 26.439541
_cell_length_b 6.597121
_cell_length_c 17.275037
_cell_angle_alpha 90.000000
_cell_angle_beta 126.712202
_cell_angle_gamma 90.000000
_cell_volume 2415.523416
_symmetry_space_group_name_H-M "C 2/C"
_symmetry_group_IT_number 15
_symmetry_cell_setting 'monoclinic'
loop_
_space_group_symop_operation_xyz
x,y,z
-x,y,1/2-z
-x,-y,-z
x,-y,1/2+z
1/2+x,1/2+y,z
1/2-x,1/2+y,1/2-z
1/2-x,1/2-y,-z
1/2+x,1/2-y,1/2+z
loop_
_atom_site_type_symbol
_atom_site_label
_atom_site_fract_x
_atom_site_fract_y
_atom_site_fract_z
Si Si1 0.303150 0.154589 0.712845
Si Si2 0.563176 0.025372 0.952276
Si Si3 0.023374 0.202806 0.558661
Si Si4 0.298470 0.987509 0.874436
Si Si5 0.000000 0.253111 0.250000
Si Si6 0.603512 0.510266 0.253102
Si Si7 0.711019 0.238360 0.388012
O O1 0.235997 0.270077 0.649501
O O2 0.360978 0.307804 0.757585
O O3 0.316338 0.028930 0.802417
O O4 0.305271 0.994872 0.644527
O O5 0.532292 0.808044 0.942790
O O6 0.534301 0.108621 0.845660
O O7 0.549012 0.165226 0.012271
O O8 0.639029 0.009618 0.014401
O O9 0.079709 0.149490 0.667904
O O10 0.000000 0.000000 0.500000
O O11 0.251880 0.168368 0.855700
O O12 0.049248 0.103193 0.255644
O O13 0.649673 0.376127 0.348226
O O14 0.750000 0.250000 0.500000
#
# Coordination Sequence:
#
# PCOD8153453 Si02
#       7
#     8   8   8   8   4   8   8
#     4  11  24  46  71 105 138 180 240 286 352 417
#     4  11  27  42  72 102 142 181 239 289 352 421
#     4  11  23  47  70 101 134 189 236 287 346 415
#     4  11  24  43  73 103 133 185 229 288 344 428
#     4  12  28  48  66 108 142 194 228 294 358 422
#     4  11  27  46  71  99 144 183 237 290 347 428
#     4  11  27  44  70 103 140 183 225 296 357 410
#
# _framework density 21.527422999999999
#
# number of rings (size 3 to 8) (size 9 to 14) (size 15 to 20)
#    0.000    0.923    3.077    1.846   10.769    4.308 
#    0.000    0.000    0.000    0.000    0.000    0.000 
#    0.000    0.000    0.000    0.000    0.000    0.000 
#
# Total GULP energy -322495.930362 kJ/mol
# GULP energy per Si atom -12403.689629 kJ/mol
# Density = 2.147843 g / cm^3
# Si number density = 21.527423 Si / 1000 Ang^3
#
#
#
# Elastic Constant Matrix: (Units=GPa)
#
#
# Indices 1 2 3 4 5 6 
#
# 1 104.1990 47.7205 45.9163 0.0000 18.3121 0.0000
# 2 47.7205 132.7712 54.5736 -0.0001 9.0419 0.0000
# 3 45.9163 54.5736 154.4181 0.0000 11.3672 0.0000
# 4 0.0000 -0.0001 0.0000 41.1900 0.0000 8.2382
# 5 18.3121 9.0419 11.3672 0.0000 38.3316 0.0000
# 6 0.0000 0.0000 0.0000 8.2382 0.0000 28.0730
#
#
#
# Elastic Compliance Matrix: (Units=1/GPa)
#
#
# Indices 1 2 3 4 5 6 
#
# 1 0.013006 -0.003400 -0.002318 0.000000 -0.004724 0.000000
# 2 -0.003400 0.009753 -0.002439 0.000000 0.000047 0.000000
# 3 -0.002318 -0.002439 0.008080 0.000000 -0.000713 0.000000
# 4 0.000000 0.000000 0.000000 0.025792 0.000000 -0.007569
# 5 -0.004724 0.000047 -0.000713 0.000000 0.028545 0.000000
# 6 0.000000 0.000000 0.000000 -0.007569 0.000000 0.037842
#
#
# Mechanical properties :
#
#
# Convention : Reuss Voigt Hill
#
# Bulk Modulus (GPa) = 68.85124 76.42323 72.63724
# Shear Modulus (GPa) = 34.68029 37.73080 36.20554
#
# Velocity S-wave (km/s) = 4.01806 4.19105 4.10547
# Velocity P-wave (km/s) = 7.31976 7.68097 7.50254
#
# Compressibility (1/GPa) = 0.01452407
#
# Stress axis : x y z
#
# Youngs Moduli (GPa) = 76.88910 102.52963 123.76576
#
# Poissons Ratio (x) = 0.34861 0.28688
# Poissons Ratio (y) = 0.26143 0.30191
# Poissons Ratio (z) = 0.17822 0.25011
#
# Static dielectric constant tensor:
#      x y z
#    x 4.264700 0.000000 0.277600 
#    y 0.000000 3.173900 0.000000 
#    z 0.277600 0.000000 4.243630 
# 
# 
# High freq. dielectric constant tensor:
#      x y z
#    x 1.846840 0.000000 0.008140 
#    y 0.000000 1.859490 0.000000 
#    z 0.008140 0.000000 1.856690 
# 
# From -- ./inp_files/221356.got.cif
#   From: 2010.06.25/outbox.cif.g09.slc.cpg/sg15_111_cif.got.tgz:221356.got - 2010.06.28 07:06:18.
