data_PCOD8153480
_publ_section_title
;
Structure prediction by ZEFSAII (Michael W. Deem and Ramdas Pophale) SiO2 
 PCOD8153480
Probable space group: C 2/C
;
_chemical_formula_sum "Si O2"
_cell_formula_units_Z 40
_cell_length_a 15.349336
_cell_length_b 15.496806
_cell_length_c 10.892571
_cell_angle_alpha 90.000000
_cell_angle_beta 139.588654
_cell_angle_gamma 90.000000
_cell_volume 1679.649158
_symmetry_space_group_name_H-M "C 2/C"
_symmetry_group_IT_number 15
_symmetry_cell_setting 'monoclinic'
loop_
_space_group_symop_operation_xyz
x,y,z
-x,y,1/2-z
-x,-y,-z
x,-y,1/2+z
1/2+x,1/2+y,z
1/2-x,1/2+y,1/2-z
1/2-x,1/2-y,-z
1/2+x,1/2-y,1/2+z
loop_
_atom_site_type_symbol
_atom_site_label
_atom_site_fract_x
_atom_site_fract_y
_atom_site_fract_z
Si Si1 0.500000 0.341581 0.750000
Si Si2 0.000000 0.643438 0.250000
Si Si3 0.157006 0.266248 0.241493
Si Si4 0.610870 0.265210 0.186277
Si Si5 0.718318 0.557237 0.594038
Si Si6 0.746016 0.059062 0.606006
O O1 0.375115 0.285207 0.667645
O O2 0.430375 0.398799 0.569261
O O3 0.884887 0.699039 0.195484
O O4 0.088902 0.585681 0.437518
O O5 0.294945 0.234714 0.325370
O O6 0.166384 0.368514 0.281897
O O7 0.042045 0.241264 0.021915
O O8 0.653611 0.359179 0.281668
O O9 0.730288 0.507609 0.738698
O O10 0.726815 0.496797 0.485203
#
# Coordination Sequence:
#
# PCOD8153480 Si02
#       6
#     4   4   8   8   8   8
#     4  12  24  48  78 110 150 204 268 314 388 460
#     4  12  24  48  78 110 150 204 268 314 388 460
#     4  11  23  47  79 111 148 201 265 319 376 465
#     4  11  23  47  79 111 148 201 265 319 376 465
#     4  11  26  48  74 113 156 201 255 321 393 458
#     4  11  26  48  74 113 156 201 255 321 393 458
#
# _framework density 23.814495999999998
#
# number of rings (size 3 to 8) (size 9 to 14) (size 15 to 20)
#    0.000    0.800    8.000    1.200    0.000    4.800 
#    0.000    0.000    0.000    0.000    0.000    0.000 
#    0.000    0.000    0.000    0.000    0.000    0.000 
#
# Total GULP energy -247837.077962 kJ/mol
# GULP energy per Si atom -12391.853898 kJ/mol
# Density = 2.376029 g / cm^3
# Si number density = 23.814496 Si / 1000 Ang^3
#
#
#
# Elastic Constant Matrix: (Units=GPa)
#
#
# Indices 1 2 3 4 5 6 
#
# 1 151.4436 47.1599 25.8601 0.0000 -31.0457 0.0000
# 2 47.1599 75.0161 44.0291 0.0000 -11.5638 0.0000
# 3 25.8601 44.0291 132.3020 0.0000 -25.2822 0.0000
# 4 0.0000 0.0000 0.0000 41.8648 0.0000 -12.0520
# 5 -31.0457 -11.5638 -25.2822 0.0000 51.6670 0.0000
# 6 0.0000 0.0000 0.0000 -12.0520 0.0000 32.5860
#
#
#
# Elastic Compliance Matrix: (Units=1/GPa)
#
#
# Indices 1 2 3 4 5 6 
#
# 1 0.009147 -0.005596 0.000977 0.000000 0.004722 0.000000
# 2 -0.005596 0.020048 -0.005916 0.000000 -0.001770 0.000000
# 3 0.000977 -0.005916 0.010144 0.000000 0.004227 0.000000
# 4 0.000000 0.000000 0.000000 0.026733 0.000000 0.009887
# 5 0.004722 -0.001770 0.004227 0.000000 0.023864 0.000000
# 6 0.000000 0.000000 0.000000 0.009887 0.000000 0.034345
#
#
# Mechanical properties :
#
#
# Convention : Reuss Voigt Hill
#
# Bulk Modulus (GPa) = 54.74035 65.87332 60.30683
# Shear Modulus (GPa) = 33.01636 41.33770 37.17703
#
# Velocity S-wave (km/s) = 3.72748 4.17084 3.95537
# Velocity P-wave (km/s) = 6.44682 7.13552 6.79989
#
# Compressibility (1/GPa) = 0.01826806
#
# Stress axis : x y z
#
# Youngs Moduli (GPa) = 109.32836 49.88082 98.57892
#
# Poissons Ratio (x) = 0.27911 -0.09627
# Poissons Ratio (y) = 0.61176 0.58323
# Poissons Ratio (z) = -0.10677 0.29511
#
# Static dielectric constant tensor:
#      x y z
#    x 4.353390 0.000000 -0.203640 
#    y 0.000000 4.174100 0.000000 
#    z -0.203640 0.000000 4.708620 
# 
# 
# High freq. dielectric constant tensor:
#      x y z
#    x 1.934340 0.000000 -0.013830 
#    y 0.000000 1.911820 0.000000 
#    z -0.013830 0.000000 1.987150 
# 
# From -- ./inp_files/105563.got.cif
#   From: 2010.06.25/outbox.cif.g09.slc.cpg/sg15_53_cif.got.tgz:105563.got - 2010.06.28 07:06:18.
