data_PCOD8153649
_publ_section_title
;
Structure prediction by ZEFSAII (Michael W. Deem and Ramdas Pophale) SiO2 
 PCOD8153649
Probable space group: C 2/C
;
_chemical_formula_sum "Si O2"
_cell_formula_units_Z 52
_cell_length_a 16.046012
_cell_length_b 9.548884
_cell_length_c 14.324941
_cell_angle_alpha 90.000000
_cell_angle_beta 80.968262
_cell_angle_gamma 90.000000
_cell_volume 2167.675796
_symmetry_space_group_name_H-M "C 2/C"
_symmetry_group_IT_number 15
_symmetry_cell_setting 'monoclinic'
loop_
_space_group_symop_operation_xyz
x,y,z
-x,y,1/2-z
-x,-y,-z
x,-y,1/2+z
1/2+x,1/2+y,z
1/2-x,1/2+y,1/2-z
1/2-x,1/2-y,-z
1/2+x,1/2-y,1/2+z
loop_
_atom_site_type_symbol
_atom_site_label
_atom_site_fract_x
_atom_site_fract_y
_atom_site_fract_z
Si Si1 0.315266 0.052422 0.157400
Si Si2 0.133370 0.542155 0.660450
Si Si3 0.662066 0.824419 0.496472
Si Si4 0.416695 0.458181 0.462181
Si Si5 0.318375 0.353131 0.107087
Si Si6 0.875989 0.028321 0.263113
Si Si7 0.000000 0.260632 0.250000
O O1 0.371019 0.040913 0.240789
O O2 0.342397 0.188994 0.092448
O O3 0.218473 0.077047 0.201055
O O4 0.330159 0.908242 0.100764
O O5 0.130271 0.428372 0.580992
O O6 0.218730 0.632742 0.641279
O O7 0.051370 0.643650 0.666417
O O8 0.750000 0.750000 0.500000
O O9 0.595095 0.700521 0.501926
O O10 0.500000 0.500000 0.500000
O O11 0.341035 0.561575 0.509149
O O12 0.421001 0.469112 0.349016
O O13 0.373871 0.410386 0.183814
O O14 0.929619 0.160418 0.213816
#
# Coordination Sequence:
#
# PCOD8153649 Si02
#       7
#     8   8   8   8   8   8   4
#     4  11  25  43  78 109 146 197 254 303 371 453
#     4  11  26  44  77 105 157 194 253 306 382 444
#     4  12  25  48  76 111 150 196 252 313 373 452
#     4  12  27  45  75 108 150 193 249 311 383 444
#     4  11  24  46  73 109 142 204 250 299 374 459
#     4  11  24  43  72 103 154 190 247 303 373 444
#     4  12  26  44  72 114 148 194 246 320 376 432
#
# _framework density 23.988826
#
# number of rings (size 3 to 8) (size 9 to 14) (size 15 to 20)
#    0.000    0.615    4.615    1.846    8.615    2.462 
#    0.000    3.077    0.000    0.000    0.000    0.000 
#    0.000    0.000    0.000    0.000    0.000    0.000 
#
# Total GULP energy -322419.398356 kJ/mol
# GULP energy per Si atom -12400.746091 kJ/mol
# Density = 2.393423 g / cm^3
# Si number density = 23.988826 Si / 1000 Ang^3
#
#
#
# Elastic Constant Matrix: (Units=GPa)
#
#
# Indices 1 2 3 4 5 6 
#
# 1 112.6923 48.8645 28.1210 0.0000 -6.9455 0.0000
# 2 48.8645 156.2453 24.7865 0.0000 -14.8531 0.0000
# 3 28.1210 24.7865 80.4245 0.0000 0.3381 0.0000
# 4 0.0000 0.0000 0.0000 45.1768 0.0000 -12.8366
# 5 -6.9455 -14.8531 0.3381 0.0000 28.2197 0.0000
# 6 0.0000 0.0000 0.0000 -12.8366 0.0000 46.0183
#
#
#
# Elastic Compliance Matrix: (Units=1/GPa)
#
#
# Indices 1 2 3 4 5 6 
#
# 1 0.010912 -0.002828 -0.002949 0.000000 0.001233 0.000000
# 2 -0.002828 0.007841 -0.001442 0.000000 0.003448 0.000000
# 3 -0.002949 -0.001442 0.013917 0.000000 -0.001652 0.000000
# 4 0.000000 0.000000 0.000000 0.024041 0.000000 0.006706
# 5 0.001233 0.003448 -0.001652 0.000000 0.037574 0.000000
# 6 0.000000 0.000000 0.000000 0.006706 0.000000 0.023601
#
#
# Mechanical properties :
#
#
# Convention : Reuss Voigt Hill
#
# Bulk Modulus (GPa) = 54.85049 61.43401 58.14225
# Shear Modulus (GPa) = 36.12694 40.38898 38.25796
#
# Velocity S-wave (km/s) = 3.88492 4.10769 3.99786
# Velocity P-wave (km/s) = 6.56034 6.93992 6.75280
#
# Compressibility (1/GPa) = 0.01823138
#
# Stress axis : x y z
#
# Youngs Moduli (GPa) = 91.64530 127.53286 71.85617
#
# Poissons Ratio (x) = 0.36060 0.21191
# Poissons Ratio (y) = 0.25913 0.10365
# Poissons Ratio (z) = 0.27027 0.18396
#
# Static dielectric constant tensor:
#      x y z
#    x 3.322500 0.000000 0.331270 
#    y 0.000000 5.177450 0.000000 
#    z 0.331270 0.000000 4.189710 
# 
# 
# High freq. dielectric constant tensor:
#      x y z
#    x 1.946500 0.000000 -0.004560 
#    y 0.000000 1.963970 0.000000 
#    z -0.004560 0.000000 1.947670 
# 
# From -- ./inp_files/209085.got.cif
#   From: 2010.06.25/outbox.cif.g09.slc.cpg/sg15_105_cif.got.tgz:209085.got - 2010.06.28 07:06:18.
