data_PCOD8153874
_publ_section_title
;
Structure prediction by ZEFSAII (Michael W. Deem and Ramdas Pophale) SiO2 
 PCOD8153874
Probable space group: C 2/C
;
_chemical_formula_sum "Si O2"
_cell_formula_units_Z 44
_cell_length_a 21.286785
_cell_length_b 6.630771
_cell_length_c 16.246132
_cell_angle_alpha 90.000000
_cell_angle_beta 112.442130
_cell_angle_gamma 90.000000
_cell_volume 2119.438703
_symmetry_space_group_name_H-M "C 2/C"
_symmetry_group_IT_number 15
_symmetry_cell_setting 'monoclinic'
loop_
_space_group_symop_operation_xyz
x,y,z
-x,y,1/2-z
-x,-y,-z
x,-y,1/2+z
1/2+x,1/2+y,z
1/2-x,1/2+y,1/2-z
1/2-x,1/2-y,-z
1/2+x,1/2-y,1/2+z
loop_
_atom_site_type_symbol
_atom_site_label
_atom_site_fract_x
_atom_site_fract_y
_atom_site_fract_z
Si Si1 0.346704 0.704887 0.498828
Si Si2 0.500000 0.225075 0.250000
Si Si3 0.778524 0.554246 0.561192
Si Si4 0.460590 0.172938 0.931422
Si Si5 0.903052 0.386425 0.225273
Si Si6 0.451192 0.444196 0.628832
O O1 0.279497 0.592127 0.431510
O O2 0.403697 0.724100 0.458069
O O3 0.377358 0.545489 0.579294
O O4 0.326601 0.925080 0.523468
O O5 0.495518 0.373971 0.326543
O O6 0.432867 0.093027 0.202716
O O7 0.750000 0.750000 0.500000
O O8 0.823305 0.622515 0.662634
O O9 0.419358 0.101204 0.830135
O O10 0.520130 0.327962 0.936009
O O11 0.500000 0.000000 0.000000
O O12 0.942377 0.200612 0.203454
#
# Coordination Sequence:
#
# PCOD8153874 Si02
#       6
#     8   4   8   8   8   8
#     4  11  25  43  67 100 133 181 230 279 349 404
#     4  12  20  40  70  98 130 174 234 276 336 414
#     4  11  24  46  69  90 135 188 235 279 329 422
#     4  12  25  44  66 107 144 168 224 297 352 403
#     4  12  23  43  68 100 134 180 227 280 344 413
#     4  12  22  43  71  99 134 180 231 279 346 422
#
# _framework density 20.760211999999999
#
# number of rings (size 3 to 8) (size 9 to 14) (size 15 to 20)
#    0.000    0.364    7.273    2.727    0.000    0.000 
#    3.273    0.000    0.000    0.000    0.000    0.000 
#    0.000    0.000    0.000    0.000    0.000    0.000 
#
# Total GULP energy -272633.728539 kJ/mol
# GULP energy per Si atom -12392.442206 kJ/mol
# Density = 2.071296 g / cm^3
# Si number density = 20.760212 Si / 1000 Ang^3
#
#
#
# Elastic Constant Matrix: (Units=GPa)
#
#
# Indices 1 2 3 4 5 6 
#
# 1 87.8564 42.4829 45.9679 0.0000 16.4727 0.0000
# 2 42.4829 134.0471 63.4588 0.0000 11.4802 0.0000
# 3 45.9679 63.4588 133.3946 0.0000 21.6318 0.0000
# 4 0.0000 0.0000 0.0000 45.1654 0.0000 9.1481
# 5 16.4727 11.4802 21.6318 0.0000 39.6550 0.0000
# 6 0.0000 0.0000 0.0000 9.1481 0.0000 42.5665
#
#
#
# Elastic Compliance Matrix: (Units=1/GPa)
#
#
# Indices 1 2 3 4 5 6 
#
# 1 0.015200 -0.002975 -0.003224 0.000000 -0.003694 0.000000
# 2 -0.002975 0.010214 -0.003900 0.000000 0.000406 0.000000
# 3 -0.003224 -0.003900 0.011039 0.000000 -0.003554 0.000000
# 4 0.000000 0.000000 0.000000 0.023148 0.000000 -0.004975
# 5 -0.003694 0.000406 -0.003554 0.000000 0.028573 0.000000
# 6 0.000000 0.000000 0.000000 -0.004975 0.000000 0.024562
#
#
# Mechanical properties :
#
#
# Convention : Reuss Voigt Hill
#
# Bulk Modulus (GPa) = 61.51353 73.23527 67.37440
# Shear Modulus (GPa) = 36.13963 39.03662 37.58813
#
# Velocity S-wave (km/s) = 4.17683 4.34101 4.25971
# Velocity P-wave (km/s) = 7.27709 7.77684 7.53111
#
# Compressibility (1/GPa) = 0.01625659
#
# Stress axis : x y z
#
# Youngs Moduli (GPa) = 65.78939 97.90179 90.58798
#
# Poissons Ratio (x) = 0.29123 0.29203
# Poissons Ratio (y) = 0.19571 0.35329
# Poissons Ratio (z) = 0.21208 0.38181
#
# Static dielectric constant tensor:
#      x y z
#    x 3.731660 0.000000 0.367780 
#    y 0.000000 4.031660 0.000000 
#    z 0.367780 0.000000 3.886880 
# 
# 
# High freq. dielectric constant tensor:
#      x y z
#    x 1.796410 0.000000 0.029320 
#    y 0.000000 1.838210 0.000000 
#    z 0.029320 0.000000 1.812280 
# 
# From -- ./inp_files/212964.got.cif
#   From: 2010.06.25/outbox.cif.g09.slc.cpg/sg15_107_cif.got.tgz:212964.got - 2010.06.28 07:06:18.
