data_PCOD8153330
_publ_section_title
;
Structure prediction by ZEFSAII (Michael W. Deem and Ramdas Pophale) SiO2 
 PCOD8153330
Probable space group: C 2/C
;
_chemical_formula_sum "Si O2"
_cell_formula_units_Z 44
_cell_length_a 23.727571
_cell_length_b 5.654580
_cell_length_c 14.123973
_cell_angle_alpha 90.000000
_cell_angle_beta 95.033654
_cell_angle_gamma 90.000000
_cell_volume 1887.697262
_symmetry_space_group_name_H-M "C 2/C"
_symmetry_group_IT_number 15
_symmetry_cell_setting 'monoclinic'
loop_
_space_group_symop_operation_xyz
x,y,z
-x,y,1/2-z
-x,-y,-z
x,-y,1/2+z
1/2+x,1/2+y,z
1/2-x,1/2+y,1/2-z
1/2-x,1/2-y,-z
1/2+x,1/2-y,1/2+z
loop_
_atom_site_type_symbol
_atom_site_label
_atom_site_fract_x
_atom_site_fract_y
_atom_site_fract_z
Si Si1 0.325761 0.001439 0.341571
Si Si2 0.500000 0.603340 0.750000
Si Si3 0.481803 0.250094 0.044697
Si Si4 0.297108 0.322423 0.173389
Si Si5 0.869496 0.542744 0.047122
Si Si6 0.111252 0.800207 0.794830
O O1 0.269590 0.847196 0.348564
O O2 0.349616 0.078068 0.446922
O O3 0.374275 0.855762 0.294747
O O4 0.310380 0.235935 0.281696
O O5 0.495338 0.761512 0.843766
O O6 0.556905 0.451835 0.762097
O O7 0.413250 0.257494 0.034135
O O8 0.500000 0.500000 0.000000
O O9 0.500000 0.000000 0.000000
O O10 0.315204 0.130827 0.097700
O O11 0.332458 0.559968 0.165573
O O12 0.904170 0.355437 0.115682
#
# Coordination Sequence:
#
# PCOD8153330 Si02
#       6
#     8   4   8   8   8   8
#     4  11  24  44  73 102 146 187 247 315 369 459
#     4  12  26  52  76 102 162 192 244 326 366 452
#     4  12  28  47  76 112 146 203 257 304 383 455
#     4  11  23  45  68 105 139 193 243 299 392 444
#     4  11  26  44  71 106 143 188 254 306 380 451
#     4  11  25  47  72 106 145 197 244 304 387 446
#
# _framework density 23.308823
#
# number of rings (size 3 to 8) (size 9 to 14) (size 15 to 20)
#    0.000    0.727    3.636    2.727    2.545    5.091 
#    0.000    0.000    0.000    0.000    0.000    0.000 
#    0.000    0.000    0.000    0.000    0.000    0.000 
#
# Total GULP energy -272798.077698 kJ/mol
# GULP energy per Si atom -12399.912623 kJ/mol
# Density = 2.325577 g / cm^3
# Si number density = 23.308823 Si / 1000 Ang^3
#
#
#
# Elastic Constant Matrix: (Units=GPa)
#
#
# Indices 1 2 3 4 5 6 
#
# 1 122.5258 36.7529 50.3536 0.0000 -0.8781 0.0000
# 2 36.7529 102.0684 49.5534 0.0000 -9.0955 0.0000
# 3 50.3536 49.5534 188.3953 0.0000 -2.6259 0.0000
# 4 0.0000 0.0000 0.0000 27.2675 0.0000 3.9043
# 5 -0.8781 -9.0955 -2.6259 0.0000 28.0193 0.0000
# 6 0.0000 0.0000 0.0000 3.9043 0.0000 25.4361
#
#
#
# Elastic Compliance Matrix: (Units=1/GPa)
#
#
# Indices 1 2 3 4 5 6 
#
# 1 0.009736 -0.002640 -0.001918 0.000000 -0.000732 0.000000
# 2 -0.002640 0.012275 -0.002472 0.000000 0.003670 0.000000
# 3 -0.001918 -0.002472 0.006467 0.000000 -0.000256 0.000000
# 4 0.000000 0.000000 0.000000 0.037498 0.000000 -0.005756
# 5 -0.000732 0.003670 -0.000256 0.000000 0.036834 0.000000
# 6 0.000000 0.000000 0.000000 -0.005756 0.000000 0.040198
#
#
# Mechanical properties :
#
#
# Convention : Reuss Voigt Hill
#
# Bulk Modulus (GPa) = 69.35362 76.25660 72.80511
# Shear Modulus (GPa) = 30.88808 34.56656 32.72732
#
# Velocity S-wave (km/s) = 3.64423 3.85513 3.75116
# Velocity P-wave (km/s) = 6.89392 7.25278 7.07562
#
# Compressibility (1/GPa) = 0.01441886
#
# Stress axis : x y z
#
# Youngs Moduli (GPa) = 102.70687 81.46572 154.62418
#
# Poissons Ratio (x) = 0.21506 0.29659
# Poissons Ratio (y) = 0.27113 0.38223
# Poissons Ratio (z) = 0.19701 0.20138
#
# Static dielectric constant tensor:
#      x y z
#    x 4.444620 0.000000 -0.317940 
#    y 0.000000 4.085490 0.000000 
#    z -0.317940 0.000000 4.483260 
# 
# 
# High freq. dielectric constant tensor:
#      x y z
#    x 1.938050 0.000000 -0.013050 
#    y 0.000000 1.913220 0.000000 
#    z -0.013050 0.000000 1.932590 
# 
# From -- ./inp_files/170810.got.cif
#   From: 2010.06.25/outbox.cif.g09.slc.cpg/sg15_86_cif.got.tgz:170810.got - 2010.06.28 07:06:18.
