data_PCOD8153106
_publ_section_title
;
Structure prediction by ZEFSAII (Michael W. Deem and Ramdas Pophale) SiO2 
 PCOD8153106
Probable space group: C 2/C
;
_chemical_formula_sum "Si O2"
_cell_formula_units_Z 52
_cell_length_a 12.922659
_cell_length_b 8.653154
_cell_length_c 22.721117
_cell_angle_alpha 90.000000
_cell_angle_beta 74.844475
_cell_angle_gamma 90.000000
_cell_volume 2452.348479
_symmetry_space_group_name_H-M "C 2/C"
_symmetry_group_IT_number 15
_symmetry_cell_setting 'monoclinic'
loop_
_space_group_symop_operation_xyz
x,y,z
-x,y,1/2-z
-x,-y,-z
x,-y,1/2+z
1/2+x,1/2+y,z
1/2-x,1/2+y,1/2-z
1/2-x,1/2-y,-z
1/2+x,1/2-y,1/2+z
loop_
_atom_site_type_symbol
_atom_site_label
_atom_site_fract_x
_atom_site_fract_y
_atom_site_fract_z
Si Si1 0.000000 0.413208 0.750000
Si Si2 0.142820 0.297700 0.922491
Si Si3 0.950530 0.681492 0.943849
Si Si4 0.180627 0.222351 0.658397
Si Si5 0.154624 0.013499 0.065435
Si Si6 0.746028 0.492285 0.932037
Si Si7 0.381114 0.958612 0.161110
O O1 0.908426 0.300769 0.787962
O O2 0.947299 0.534123 0.711720
O O3 0.242885 0.388637 0.932714
O O4 0.119054 0.363110 0.861113
O O5 0.168857 0.117734 0.912505
O O6 0.048107 0.327233 0.984764
O O7 0.939096 0.861681 0.927965
O O8 0.860399 0.570027 0.929169
O O9 0.063875 0.634680 0.900223
O O10 0.244857 0.353700 0.614667
O O11 0.263809 0.120774 0.685927
O O12 0.122330 0.112274 0.619193
O O13 0.184940 0.930123 0.999399
#
# Coordination Sequence:
#
# PCOD8153106 Si02
#       7
#     4   8   8   8   8   8   8
#     4  12  28  48  62  86 130 176 222 276 306 362
#     4   8  17  33  65  96 128 159 197 253 323 395
#     4   9  16  36  63  97 128 159 193 256 330 381
#     4  11  23  43  64  90 122 168 218 257 318 377
#     4   8  17  34  62  99 127 159 196 253 329 388
#     4   9  16  35  66  94 131 158 193 259 324 386
#     4  11  23  43  64  88 123 170 218 256 320 377
#
# _framework density 21.204165
#
# number of rings (size 3 to 8) (size 9 to 14) (size 15 to 20)
#    0.000    2.462    1.538    2.769    0.000    1.231 
#   11.077    1.538    0.000    0.000    0.000    0.000 
#    0.000    0.000    0.000    0.000    0.000    0.000 
#
# Total GULP energy -322224.855952 kJ/mol
# GULP energy per Si atom -12393.263690 kJ/mol
# Density = 2.115590 g / cm^3
# Si number density = 21.204165 Si / 1000 Ang^3
#
#
#
# Elastic Constant Matrix: (Units=GPa)
#
#
# Indices 1 2 3 4 5 6 
#
# 1 55.1477 17.1796 25.3243 0.0000 6.3821 0.0000
# 2 17.1796 78.3289 24.5465 0.0000 8.9568 0.0000
# 3 25.3243 24.5465 59.3305 0.0000 8.7552 0.0000
# 4 0.0000 0.0000 0.0000 21.8388 0.0000 7.2696
# 5 6.3821 8.9568 8.7552 0.0000 31.2700 0.0000
# 6 0.0000 0.0000 0.0000 7.2696 0.0000 10.6189
#
#
#
# Elastic Compliance Matrix: (Units=1/GPa)
#
#
# Indices 1 2 3 4 5 6 
#
# 1 0.022974 -0.002130 -0.008682 0.000000 -0.001648 0.000000
# 2 -0.002130 0.015073 -0.004959 0.000000 -0.002494 0.000000
# 3 -0.008682 -0.004959 0.023095 0.000000 -0.003274 0.000000
# 4 0.000000 0.000000 0.000000 0.059305 0.000000 -0.040599
# 5 -0.001648 -0.002494 -0.003274 0.000000 0.033947 0.000000
# 6 0.000000 0.000000 0.000000 -0.040599 0.000000 0.121965
#
#
# Mechanical properties :
#
#
# Convention : Reuss Voigt Hill
#
# Bulk Modulus (GPa) = 33.78223 36.32310 35.05266
# Shear Modulus (GPa) = 15.73479 21.12932 18.43206
#
# Velocity S-wave (km/s) = 2.72704 3.16012 2.95153
# Velocity P-wave (km/s) = 5.08745 5.52109 5.30870
#
# Compressibility (1/GPa) = 0.02960136
#
# Stress axis : x y z
#
# Youngs Moduli (GPa) = 43.52732 66.34364 43.29905
#
# Poissons Ratio (x) = 0.14129 0.37591
# Poissons Ratio (y) = 0.09270 0.21472
# Poissons Ratio (z) = 0.37790 0.32900
#
# Static dielectric constant tensor:
#      x y z
#    x 3.947860 0.000000 0.320060 
#    y 0.000000 4.286580 0.000000 
#    z 0.320060 0.000000 4.007670 
# 
# 
# High freq. dielectric constant tensor:
#      x y z
#    x 1.817620 0.000000 -0.001520 
#    y 0.000000 1.835560 0.000000 
#    z -0.001520 0.000000 1.812900 
# 
# From -- ./inp_files/242533.got.cif
#   From: 2010.06.25/outbox.cif.g09.slc.cpg/sg15_122_cif.got.tgz:242533.got - 2010.06.28 07:06:18.
