data_PCOD8153073
_publ_section_title
;
Structure prediction by ZEFSAII (Michael W. Deem and Ramdas Pophale) SiO2 
 PCOD8153073
Probable space group: C 2/C
;
_chemical_formula_sum "Si O2"
_cell_formula_units_Z 44
_cell_length_a 19.899210
_cell_length_b 8.210424
_cell_length_c 12.442282
_cell_angle_alpha 90.000000
_cell_angle_beta 75.282946
_cell_angle_gamma 90.000000
_cell_volume 1966.139087
_symmetry_space_group_name_H-M "C 2/C"
_symmetry_group_IT_number 15
_symmetry_cell_setting 'monoclinic'
loop_
_space_group_symop_operation_xyz
x,y,z
-x,y,1/2-z
-x,-y,-z
x,-y,1/2+z
1/2+x,1/2+y,z
1/2-x,1/2+y,1/2-z
1/2-x,1/2-y,-z
1/2+x,1/2-y,1/2+z
loop_
_atom_site_type_symbol
_atom_site_label
_atom_site_fract_x
_atom_site_fract_y
_atom_site_fract_z
Si Si1 0.295619 0.035365 0.254492
Si Si2 0.000000 0.245367 0.750000
Si Si3 0.677570 0.219923 0.466414
Si Si4 0.567719 0.544449 0.905112
Si Si5 0.830054 0.212623 0.128135
Si Si6 0.616497 0.090751 0.090436
O O1 0.291398 0.138465 0.150321
O O2 0.226400 0.065854 0.353628
O O3 0.357839 0.107022 0.298409
O O4 0.304881 0.845378 0.224829
O O5 0.947408 0.135670 0.700875
O O6 0.963227 0.354171 0.858738
O O7 0.750000 0.250000 0.500000
O O8 0.625822 0.368652 0.458226
O O9 0.626110 0.094379 0.548478
O O10 0.599180 0.369062 0.858515
O O11 0.500000 0.500000 0.000000
O O12 0.842082 0.288039 0.005343
#
# Coordination Sequence:
#
# PCOD8153073 Si02
#       6
#     8   4   8   8   8   8
#     4  11  23  42  70 105 144 185 238 299 359 424
#     4  12  26  46  74 100 142 196 234 298 360 432
#     4  11  25  46  74 107 143 185 247 303 359 438
#     4  12  26  47  71 104 148 190 245 297 366 436
#     4  11  24  43  71 105 144 189 239 298 356 432
#     4  11  24  44  72 103 143 193 238 294 359 429
#
# _framework density 22.378886000000001
#
# number of rings (size 3 to 8) (size 9 to 14) (size 15 to 20)
#    0.000    0.727    3.636    3.818    0.000    6.545 
#    0.000    0.000    0.000    0.000    0.000    0.000 
#    0.000    0.000    0.000    0.000    0.000    0.000 
#
# Total GULP energy -272575.882299 kJ/mol
# GULP energy per Si atom -12389.812832 kJ/mol
# Density = 2.232795 g / cm^3
# Si number density = 22.378886 Si / 1000 Ang^3
#
#
#
# Elastic Constant Matrix: (Units=GPa)
#
#
# Indices 1 2 3 4 5 6 
#
# 1 102.2240 63.1885 42.7173 0.0000 3.7082 0.0000
# 2 63.1885 125.2394 61.0363 0.0000 -11.4533 0.0000
# 3 42.7173 61.0363 112.4439 0.0000 0.2033 0.0000
# 4 0.0000 0.0000 0.0000 25.7229 0.0000 -1.4448
# 5 3.7082 -11.4533 0.2033 0.0000 50.7254 0.0000
# 6 0.0000 0.0000 0.0000 -1.4448 0.0000 43.2209
#
#
#
# Elastic Compliance Matrix: (Units=1/GPa)
#
#
# Indices 1 2 3 4 5 6 
#
# 1 0.014902 -0.006800 -0.001965 0.000000 -0.002617 0.000000
# 2 -0.006800 0.014280 -0.005175 0.000000 0.003742 0.000000
# 3 -0.001965 -0.005175 0.012451 0.000000 -0.001075 0.000000
# 4 0.000000 0.000000 0.000000 0.038949 0.000000 0.001302
# 5 -0.002617 0.003742 -0.001075 0.000000 0.020755 0.000000
# 6 0.000000 0.000000 0.000000 0.001302 0.000000 0.023180
#
#
# Mechanical properties :
#
#
# Convention : Reuss Voigt Hill
#
# Bulk Modulus (GPa) = 72.71513 74.86573 73.79043
# Shear Modulus (GPa) = 31.85093 35.46486 33.65790
#
# Velocity S-wave (km/s) = 3.77670 3.98521 3.88235
# Velocity P-wave (km/s) = 7.18201 7.39609 7.28984
#
# Compressibility (1/GPa) = 0.01375230
#
# Stress axis : x y z
#
# Youngs Moduli (GPa) = 67.10455 70.02859 80.31632
#
# Poissons Ratio (x) = 0.47621 0.15784
# Poissons Ratio (y) = 0.45633 0.41561
# Poissons Ratio (z) = 0.13188 0.36238
#
# Static dielectric constant tensor:
#      x y z
#    x 3.961020 0.000000 -0.214060 
#    y 0.000000 4.347780 0.000000 
#    z -0.214060 0.000000 3.900210 
# 
# 
# High freq. dielectric constant tensor:
#      x y z
#    x 1.882910 0.000000 -0.011980 
#    y 0.000000 1.892220 0.000000 
#    z -0.011980 0.000000 1.891400 
# 
# From -- ./inp_files/110047.got.cif
#   From: 2010.06.25/outbox.cif.g09.slc.cpg/sg15_56_cif.got.tgz:110047.got - 2010.06.28 07:06:18.
