data_PCOD8153219
_publ_section_title
;
Structure prediction by ZEFSAII (Michael W. Deem and Ramdas Pophale) SiO2 
 PCOD8153219
Probable space group: C 2/C
;
_chemical_formula_sum "Si O2"
_cell_formula_units_Z 48
_cell_length_a 26.345061
_cell_length_b 11.078142
_cell_length_c 19.412644
_cell_angle_alpha 90.000000
_cell_angle_beta 23.123575
_cell_angle_gamma 90.000000
_cell_volume 2224.994436
_symmetry_space_group_name_H-M "C 2/C"
_symmetry_group_IT_number 15
_symmetry_cell_setting 'monoclinic'
loop_
_space_group_symop_operation_xyz
x,y,z
-x,y,1/2-z
-x,-y,-z
x,-y,1/2+z
1/2+x,1/2+y,z
1/2-x,1/2+y,1/2-z
1/2-x,1/2-y,-z
1/2+x,1/2-y,1/2+z
loop_
_atom_site_type_symbol
_atom_site_label
_atom_site_fract_x
_atom_site_fract_y
_atom_site_fract_z
Si Si1 0.386547 0.946120 0.763120
Si Si2 0.786034 0.022167 0.407222
Si Si3 0.801481 0.071036 0.121937
Si Si4 0.031003 0.156646 0.130670
Si Si5 0.638488 0.085929 0.457337
Si Si6 0.463961 0.695177 0.717532
O O1 0.319170 0.902451 0.777248
O O2 0.413568 0.830624 0.777375
O O3 0.518632 0.010604 0.578043
O O4 0.297427 0.037599 0.918611
O O5 0.687194 0.029837 0.467759
O O6 0.892923 0.127967 0.267158
O O7 0.853730 0.891779 0.325008
O O8 0.754357 0.070212 0.258986
O O9 0.904787 0.179880 0.990158
O O10 0.868239 0.947808 0.013847
O O11 0.000000 0.165582 0.250000
O O12 0.093251 0.277043 0.023116
O O13 0.500000 0.655774 0.750000
#
# Coordination Sequence:
#
# PCOD8153219 Si02
#       6
#     8   8   8   8   8   8
#     4  12  24  43  72 100 138 180 236 281 347 421
#     4  11  23  45  70 101 136 179 242 282 342 425
#     4  11  26  46  66 100 144 182 232 289 355 409
#     4  11  24  48  74  93 140 194 228 283 350 417
#     4  12  29  39  69 109 136 182 233 293 348 413
#     4  11  23  43  75  99 132 184 226 295 346 407
#
# _framework density 21.573087000000001
#
# number of rings (size 3 to 8) (size 9 to 14) (size 15 to 20)
#    0.000    0.667    3.333    4.500    7.000    5.333 
#    0.000    0.000    0.000    0.000    0.000    0.000 
#    0.000    0.000    0.000    0.000    0.000    0.000 
#
# Total GULP energy -297696.672430 kJ/mol
# GULP energy per Si atom -12404.028018 kJ/mol
# Density = 2.152399 g / cm^3
# Si number density = 21.573087 Si / 1000 Ang^3
#
#
#
# Elastic Constant Matrix: (Units=GPa)
#
#
# Indices 1 2 3 4 5 6 
#
# 1 61.3280 18.1589 15.9319 0.0000 0.1815 0.0000
# 2 18.1589 89.9417 30.1093 0.0000 -6.3871 0.0000
# 3 15.9319 30.1093 112.9649 0.0000 5.9810 0.0000
# 4 0.0000 0.0000 0.0000 27.3163 0.0000 0.8707
# 5 0.1815 -6.3871 5.9810 0.0000 45.6209 0.0000
# 6 0.0000 0.0000 0.0000 0.8707 0.0000 20.7947
#
#
#
# Elastic Compliance Matrix: (Units=1/GPa)
#
#
# Indices 1 2 3 4 5 6 
#
# 1 0.017634 -0.003022 -0.001667 0.000000 -0.000275 0.000000
# 2 -0.003022 0.012939 -0.003141 0.000000 0.002235 0.000000
# 3 -0.001667 -0.003141 0.010017 0.000000 -0.001746 0.000000
# 4 0.000000 0.000000 0.000000 0.036657 0.000000 -0.001535
# 5 -0.000275 0.002235 -0.001746 0.000000 0.022463 0.000000
# 6 0.000000 0.000000 0.000000 -0.001535 0.000000 0.048153
#
#
# Mechanical properties :
#
#
# Convention : Reuss Voigt Hill
#
# Bulk Modulus (GPa) = 40.11115 43.62609 41.86862
# Shear Modulus (GPa) = 29.09808 32.08201 30.59005
#
# Velocity S-wave (km/s) = 3.67660 3.86052 3.76968
# Velocity P-wave (km/s) = 6.05448 6.33544 6.19655
#
# Compressibility (1/GPa) = 0.02493072
#
# Stress axis : x y z
#
# Youngs Moduli (GPa) = 56.70738 77.28844 99.83008
#
# Poissons Ratio (x) = 0.23354 0.16643
# Poissons Ratio (y) = 0.17135 0.31354
# Poissons Ratio (z) = 0.09454 0.24275
#
# Static dielectric constant tensor:
#      x y z
#    x 3.733500 0.000000 -0.169150 
#    y 0.000000 3.768760 0.000000 
#    z -0.169150 0.000000 4.185950 
# 
# 
# High freq. dielectric constant tensor:
#      x y z
#    x 1.840450 0.000000 -0.010860 
#    y 0.000000 1.842920 0.000000 
#    z -0.010860 0.000000 1.869640 
# 
# From -- ./inp_files/103693.got.cif
#   From: 2010.06.25/outbox.cif.g09.slc.cpg/sg15_52_cif.got.tgz:103693.got - 2010.06.28 07:06:18.
