data_PCOD8153307
_publ_section_title
;
Structure prediction by ZEFSAII (Michael W. Deem and Ramdas Pophale) SiO2 
 PCOD8153307
Probable space group: C 2/C
;
_chemical_formula_sum "Si O2"
_cell_formula_units_Z 60
_cell_length_a 11.917896
_cell_length_b 18.518360
_cell_length_c 18.104417
_cell_angle_alpha 90.000000
_cell_angle_beta 40.108130
_cell_angle_gamma 90.000000
_cell_volume 2574.121609
_symmetry_space_group_name_H-M "C 2/C"
_symmetry_group_IT_number 15
_symmetry_cell_setting 'monoclinic'
loop_
_space_group_symop_operation_xyz
x,y,z
-x,y,1/2-z
-x,-y,-z
x,-y,1/2+z
1/2+x,1/2+y,z
1/2-x,1/2+y,1/2-z
1/2-x,1/2-y,-z
1/2+x,1/2-y,1/2+z
loop_
_atom_site_type_symbol
_atom_site_label
_atom_site_fract_x
_atom_site_fract_y
_atom_site_fract_z
Si Si1 0.000000 0.162531 0.250000
Si Si2 0.833282 0.068415 0.874843
Si Si3 0.239668 0.729747 0.276153
Si Si4 0.885534 0.807621 0.460232
Si Si5 0.735004 0.578265 0.021069
Si Si6 0.799748 0.548984 0.829501
Si Si7 0.118571 0.368221 0.352694
Si Si8 0.306112 0.112830 0.316541
O O1 0.851179 0.214687 0.293251
O O2 0.923663 0.114361 0.355113
O O3 0.911977 0.133412 0.883078
O O4 0.684766 0.097381 0.895077
O O5 0.000000 0.034122 0.750000
O O6 0.744179 0.006398 0.969016
O O7 0.345386 0.782349 0.166940
O O8 0.195799 0.653330 0.260633
O O9 0.063050 0.767445 0.390331
O O10 0.750000 0.750000 0.500000
O O11 0.823707 0.846482 0.564520
O O12 0.695937 0.581458 0.952529
O O13 0.913281 0.618639 0.951140
O O14 0.773698 0.598766 0.771068
O O15 0.736117 0.468511 0.840707
O O16 0.000000 0.545432 0.750000
O O17 0.500000 0.114631 0.250000
#
# Coordination Sequence:
#
# PCOD8153307 Si02
#       8
#     4   8   8   8   8   8   8   8
#     4  12  32  48  70 102 154 202 252 292 360 450
#     4  12  24  46  73 113 142 181 241 311 376 427
#     4  12  29  48  70 110 148 197 242 301 369 444
#     4  12  25  44  76 108 149 183 239 313 377 430
#     4  11  25  49  74 105 146 194 249 297 356 445
#     4   9  22  45  73 106 139 190 240 303 362 428
#     4  11  26  45  77 101 150 194 242 300 371 439
#     4  11  23  44  74 111 144 183 243 306 367 432
#
# _framework density 23.308921000000002
#
# number of rings (size 3 to 8) (size 9 to 14) (size 15 to 20)
#    0.000    0.800    4.667    1.200    8.400    1.600 
#    0.000    2.000    0.000    0.000    0.000    0.000 
#    0.000    0.000    0.000    0.000    0.000    0.000 
#
# Total GULP energy -372173.509494 kJ/mol
# GULP energy per Si atom -12405.783650 kJ/mol
# Density = 2.325587 g / cm^3
# Si number density = 23.308921 Si / 1000 Ang^3
#
#
#
# Elastic Constant Matrix: (Units=GPa)
#
#
# Indices 1 2 3 4 5 6 
#
# 1 106.4376 32.0232 24.0370 0.0009 -3.1080 -0.0007
# 2 32.0232 96.0574 28.8805 0.0070 -8.1402 -0.0078
# 3 24.0370 28.8805 117.9917 0.0089 2.5239 -0.0084
# 4 0.0009 0.0070 0.0089 24.9165 -0.0054 6.2258
# 5 -3.1080 -8.1402 2.5239 -0.0054 35.0933 0.0065
# 6 -0.0007 -0.0078 -0.0084 6.2258 0.0065 24.0267
#
#
#
# Elastic Compliance Matrix: (Units=1/GPa)
#
#
# Indices 1 2 3 4 5 6 
#
# 1 0.010658 -0.003098 -0.001420 0.000001 0.000327 -0.000002
# 2 -0.003098 0.012422 -0.002469 -0.000003 0.002784 0.000003
# 3 -0.001420 -0.002469 0.009398 -0.000004 -0.001374 0.000004
# 4 0.000001 -0.000003 -0.000004 0.042912 0.000008 -0.011119
# 5 0.000327 0.002784 -0.001374 0.000008 0.029269 -0.000010
# 6 -0.000002 0.000003 0.000004 -0.011119 -0.000010 0.044502
#
#
# Mechanical properties :
#
#
# Convention : Reuss Voigt Hill
#
# Bulk Modulus (GPa) = 54.04405 54.48535 54.26470
# Shear Modulus (GPa) = 29.53303 32.51037 31.02170
#
# Velocity S-wave (km/s) = 3.56339 3.73870 3.65210
# Velocity P-wave (km/s) = 6.33772 6.48562 6.41210
#
# Compressibility (1/GPa) = 0.01850343
#
# Stress axis : x y z
#
# Youngs Moduli (GPa) = 93.83019 80.50502 106.40482
#
# Poissons Ratio (x) = 0.24943 0.15107
# Poissons Ratio (y) = 0.29072 0.26269
# Poissons Ratio (z) = 0.13322 0.19875
#
# Static dielectric constant tensor:
#      x y z
#    x 4.084950 -0.000010 0.125490 
#    y -0.000010 4.387780 0.000010 
#    z 0.125490 0.000010 4.245720 
# 
# 
# High freq. dielectric constant tensor:
#      x y z
#    x 1.922170 0.000000 0.000080 
#    y 0.000000 1.932650 0.000000 
#    z 0.000080 0.000000 1.926910 
# 
# From -- ./inp_files/200505.got.cif
#   From: 2010.06.25/outbox.cif.g09.slc.cpg/sg15_101_cif.got.tgz:200505.got - 2010.06.28 07:06:18.
