data_PCOD8153046
_publ_section_title
;
Structure prediction by ZEFSAII (Michael W. Deem and Ramdas Pophale) SiO2 
 PCOD8153046
Probable space group: C 2/C
;
_chemical_formula_sum "Si O2"
_cell_formula_units_Z 56
_cell_length_a 9.500328
_cell_length_b 28.727745
_cell_length_c 12.762387
_cell_angle_alpha 90.000000
_cell_angle_beta 49.157244
_cell_angle_gamma 90.000000
_cell_volume 2635.027402
_symmetry_space_group_name_H-M "C 2/C"
_symmetry_group_IT_number 15
_symmetry_cell_setting 'monoclinic'
loop_
_space_group_symop_operation_xyz
x,y,z
-x,y,1/2-z
-x,-y,-z
x,-y,1/2+z
1/2+x,1/2+y,z
1/2-x,1/2+y,1/2-z
1/2-x,1/2-y,-z
1/2+x,1/2-y,1/2+z
loop_
_atom_site_type_symbol
_atom_site_label
_atom_site_fract_x
_atom_site_fract_y
_atom_site_fract_z
Si Si1 0.640744 0.831503 0.771558
Si Si2 0.662333 0.160041 0.745822
Si Si3 0.180127 0.049313 0.590393
Si Si4 0.637993 0.446529 0.587032
Si Si5 0.992656 0.397004 0.499527
Si Si6 0.957058 0.116229 0.009577
Si Si7 0.201155 0.761339 0.645824
O O1 0.500000 0.812644 0.750000
O O2 0.656483 0.794779 0.860992
O O3 0.842116 0.842828 0.623190
O O4 0.563195 0.879590 0.857435
O O5 0.500000 0.139963 0.750000
O O6 0.595533 0.146562 0.894172
O O7 0.861842 0.138348 0.628967
O O8 0.682490 0.215057 0.723935
O O9 0.367706 0.059064 0.564889
O O10 0.000000 0.050340 0.750000
O O11 0.172332 0.091999 0.513314
O O12 0.203449 0.998767 0.525243
O O13 0.500000 0.449463 0.750000
O O14 0.519732 0.426000 0.551135
O O15 0.811042 0.412932 0.525051
O O16 0.250000 0.750000 0.500000
O O17 0.000000 0.786611 0.750000
#
# Coordination Sequence:
#
# PCOD8153046 Si02
#       7
#     8   8   8   8   8   8   8
#     4  12  26  44  67  99 140 173 220 280 348 402
#     4  11  23  42  68  97 128 167 219 274 334 390
#     4  11  24  43  62  98 139 173 222 279 335 392
#     4  11  24  40  68  97 132 177 226 279 328 392
#     4  12  23  43  66  97 133 176 223 274 334 400
#     4  12  23  43  67  98 131 177 220 271 336 398
#     4  11  25  46  71 101 130 172 227 280 327 404
#
# _framework density 21.252151000000001
#
# number of rings (size 3 to 8) (size 9 to 14) (size 15 to 20)
#    0.000    0.571    5.714    3.429    2.000    0.000 
#    2.571    3.571    0.000    0.000    0.000    0.000 
#    0.000    0.000    0.000    0.000    0.000    0.000 
#
# Total GULP energy -347150.299007 kJ/mol
# GULP energy per Si atom -12398.224965 kJ/mol
# Density = 2.120378 g / cm^3
# Si number density = 21.252151 Si / 1000 Ang^3
#
#
#
# Elastic Constant Matrix: (Units=GPa)
#
#
# Indices 1 2 3 4 5 6 
#
# 1 107.1870 38.5241 37.6972 0.0000 -2.7494 0.0000
# 2 38.5241 95.2827 28.7560 0.0000 0.2221 0.0000
# 3 37.6972 28.7560 96.9438 0.0000 -10.5899 0.0000
# 4 0.0000 0.0000 0.0000 27.5948 0.0000 7.5425
# 5 -2.7494 0.2221 -10.5899 0.0000 32.5788 0.0000
# 6 0.0000 0.0000 0.0000 7.5425 0.0000 35.3327
#
#
#
# Elastic Compliance Matrix: (Units=1/GPa)
#
#
# Indices 1 2 3 4 5 6 
#
# 1 0.011918 -0.003752 -0.003534 0.000000 -0.000118 0.000000
# 2 -0.003752 0.012756 -0.002456 0.000000 -0.001202 0.000000
# 3 -0.003534 -0.002456 0.012843 0.000000 0.003893 0.000000
# 4 0.000000 0.000000 0.000000 0.038484 0.000000 -0.008215
# 5 -0.000118 -0.001202 0.003893 0.000000 0.031959 0.000000
# 6 0.000000 0.000000 0.000000 -0.008215 0.000000 0.030056
#
#
# Mechanical properties :
#
#
# Convention : Reuss Voigt Hill
#
# Bulk Modulus (GPa) = 55.45399 56.59647 56.02523
# Shear Modulus (GPa) = 30.57887 32.06367 31.32127
#
# Velocity S-wave (km/s) = 3.79735 3.88845 3.84317
# Velocity P-wave (km/s) = 6.73620 6.84462 6.79063
#
# Compressibility (1/GPa) = 0.01803297
#
# Stress axis : x y z
#
# Youngs Moduli (GPa) = 83.90771 78.39450 77.86049
#
# Poissons Ratio (x) = 0.29411 0.27519
# Poissons Ratio (y) = 0.31479 0.19124
# Poissons Ratio (z) = 0.29656 0.19255
#
# Static dielectric constant tensor:
#      x y z
#    x 3.902490 0.000000 -0.147190 
#    y 0.000000 3.899610 0.000000 
#    z -0.147190 0.000000 3.847720 
# 
# 
# High freq. dielectric constant tensor:
#      x y z
#    x 1.840300 0.000000 -0.010680 
#    y 0.000000 1.829120 0.000000 
#    z -0.010680 0.000000 1.840260 
# 
# From -- ./inp_files/82469.got.cif
#   From: 2010.06.25/outbox.cif.g09.slc.cpg/sg15_42_cif.got.tgz:82469.got - 2010.06.28 07:06:18.
