data_PCOD8153272
_publ_section_title
;
Structure prediction by ZEFSAII (Michael W. Deem and Ramdas Pophale) SiO2 
 PCOD8153272
Probable space group: C 2/C
;
_chemical_formula_sum "Si O2"
_cell_formula_units_Z 44
_cell_length_a 24.851192
_cell_length_b 9.359771
_cell_length_c 10.897275
_cell_angle_alpha 90.000000
_cell_angle_beta 128.186496
_cell_angle_gamma 90.000000
_cell_volume 1992.298254
_symmetry_space_group_name_H-M "C 2/C"
_symmetry_group_IT_number 15
_symmetry_cell_setting 'monoclinic'
loop_
_space_group_symop_operation_xyz
x,y,z
-x,y,1/2-z
-x,-y,-z
x,-y,1/2+z
1/2+x,1/2+y,z
1/2-x,1/2+y,1/2-z
1/2-x,1/2-y,-z
1/2+x,1/2-y,1/2+z
loop_
_atom_site_type_symbol
_atom_site_label
_atom_site_fract_x
_atom_site_fract_y
_atom_site_fract_z
Si Si1 0.677923 0.362577 0.123208
Si Si2 0.395594 0.970927 0.660183
Si Si3 0.568290 0.722015 0.285438
Si Si4 0.184644 0.535460 0.198653
Si Si5 0.000000 0.241817 0.750000
Si Si6 0.932483 0.929163 0.951990
O O1 0.743941 0.455172 0.186646
O O2 0.695954 0.206332 0.202219
O O3 0.629057 0.456577 0.142489
O O4 0.636236 0.342791 0.939965
O O5 0.352191 0.987157 0.723118
O O6 0.448377 0.840493 0.756049
O O7 0.440762 0.110992 0.705427
O O8 0.351612 0.961624 0.471091
O O9 0.500000 0.649358 0.250000
O O10 0.581046 0.699448 0.160302
O O11 0.946909 0.142261 0.602641
O O12 0.000000 0.000000 0.000000
#
# Coordination Sequence:
#
# PCOD8153272 Si02
#       6
#     8   8   8   8   4   8
#     4  11  27  47  69 105 143 190 234 295 353 426
#     4  11  26  46  72 106 142 188 235 297 355 422
#     4  11  23  44  71 103 143 185 232 291 361 411
#     4  11  28  48  71 104 147 191 238 288 357 430
#     4  12  26  42  78 106 136 182 244 296 350 422
#     4  12  24  43  70 103 142 182 237 295 354 415
#
# _framework density 22.085048
#
# number of rings (size 3 to 8) (size 9 to 14) (size 15 to 20)
#    0.000    0.727    2.727    3.273   10.182    3.636 
#    0.000    0.000    0.000    0.000    0.000    0.000 
#    0.000    0.000    0.000    0.000    0.000    0.000 
#
# Total GULP energy -272623.116661 kJ/mol
# GULP energy per Si atom -12391.959848 kJ/mol
# Density = 2.203478 g / cm^3
# Si number density = 22.085048 Si / 1000 Ang^3
#
#
#
# Elastic Constant Matrix: (Units=GPa)
#
#
# Indices 1 2 3 4 5 6 
#
# 1 133.9942 36.7210 48.3869 0.0000 5.6166 0.0000
# 2 36.7210 107.6295 51.4684 0.0000 20.9584 0.0000
# 3 48.3869 51.4684 112.9668 0.0000 -10.1048 0.0000
# 4 0.0000 0.0000 0.0000 28.6427 0.0000 8.2634
# 5 5.6166 20.9584 -10.1048 0.0000 40.6935 0.0000
# 6 0.0000 0.0000 0.0000 8.2634 0.0000 42.0941
#
#
#
# Elastic Compliance Matrix: (Units=1/GPa)
#
#
# Indices 1 2 3 4 5 6 
#
# 1 0.009110 -0.001114 -0.003534 0.000000 -0.001561 0.000000
# 2 -0.001114 0.014895 -0.007140 0.000000 -0.009290 0.000000
# 3 -0.003534 -0.007140 0.014309 0.000000 0.007718 0.000000
# 4 0.000000 0.000000 0.000000 0.037009 0.000000 -0.007265
# 5 -0.001561 -0.009290 0.007718 0.000000 0.031491 0.000000
# 6 0.000000 0.000000 0.000000 -0.007265 0.000000 0.025183
#
#
# Mechanical properties :
#
#
# Convention : Reuss Voigt Hill
#
# Bulk Modulus (GPa) = 67.85345 69.74925 68.80135
# Shear Modulus (GPa) = 31.15557 36.82034 33.98795
#
# Velocity S-wave (km/s) = 3.76001 4.08757 3.92721
# Velocity P-wave (km/s) = 7.04561 7.34359 7.19615
#
# Compressibility (1/GPa) = 0.01473765
#
# Stress axis : x y z
#
# Youngs Moduli (GPa) = 109.76964 67.13823 69.88467
#
# Poissons Ratio (x) = 0.07480 0.24698
# Poissons Ratio (y) = 0.12230 0.49897
# Poissons Ratio (z) = 0.38794 0.47936
#
# Static dielectric constant tensor:
#      x y z
#    x 3.685710 0.000000 0.003870 
#    y 0.000000 3.974060 0.000000 
#    z 0.003870 0.000000 3.886540 
# 
# 
# High freq. dielectric constant tensor:
#      x y z
#    x 1.868270 0.000000 0.001830 
#    y 0.000000 1.890450 0.000000 
#    z 0.001830 0.000000 1.871920 
# 
# From -- ./inp_files/109933.got.cif
#   From: 2010.06.25/outbox.cif.g09.slc.cpg/sg15_55_cif.got.tgz:109933.got - 2010.06.28 07:06:18.
