data_PCOD8153834
_publ_section_title
;
Structure prediction by ZEFSAII (Michael W. Deem and Ramdas Pophale) SiO2 
 PCOD8153834
Probable space group: C 2/C
;
_chemical_formula_sum "Si O2"
_cell_formula_units_Z 28
_cell_length_a 11.287930
_cell_length_b 8.410754
_cell_length_c 15.210780
_cell_angle_alpha 90.000000
_cell_angle_beta 60.642497
_cell_angle_gamma 90.000000
_cell_volume 1258.655343
_symmetry_space_group_name_H-M "C 2/C"
_symmetry_group_IT_number 15
_symmetry_cell_setting 'monoclinic'
loop_
_space_group_symop_operation_xyz
x,y,z
-x,y,1/2-z
-x,-y,-z
x,-y,1/2+z
1/2+x,1/2+y,z
1/2-x,1/2+y,1/2-z
1/2-x,1/2-y,-z
1/2+x,1/2-y,1/2+z
loop_
_atom_site_type_symbol
_atom_site_label
_atom_site_fract_x
_atom_site_fract_y
_atom_site_fract_z
Si Si1 0.535401 0.176060 0.587156
Si Si2 0.740339 0.703935 0.699086
Si Si3 0.261778 0.361187 0.869149
Si Si4 0.500000 0.927169 0.750000
O O1 0.391089 0.246939 0.606922
O O2 0.616754 0.311097 0.610386
O O3 0.622001 0.114508 0.473311
O O4 0.492695 0.029210 0.664348
O O5 0.696575 0.524336 0.692988
O O6 0.740182 0.722862 0.805126
O O7 0.634603 0.821525 0.692078
#
# Coordination Sequence:
#
# PCOD8153834 Si02
#       4
#     8   8   8   4
#     4  11  24  48  66  98 135 175 216 287 313 400
#     4  12  24  43  68  99 133 178 212 280 318 404
#     4  11  24  45  73  94 135 173 225 266 344 373
#     4  12  26  40  70  98 138 174 224 260 340 382
#
# _framework density 22.245964000000001
#
# number of rings (size 3 to 8) (size 9 to 14) (size 15 to 20)
#    0.000    0.571    5.714    0.857    4.000    1.143 
#    0.000    4.286    0.000    0.000    0.000    0.000 
#    0.000    0.000    0.000    0.000    0.000    0.000 
#
# Total GULP energy -173681.236735 kJ/mol
# GULP energy per Si atom -12405.802624 kJ/mol
# Density = 2.219533 g / cm^3
# Si number density = 22.245964 Si / 1000 Ang^3
#
#
#
# Elastic Constant Matrix: (Units=GPa)
#
#
# Indices 1 2 3 4 5 6 
#
# 1 125.7705 41.0574 22.3047 0.0000 -43.9856 0.0000
# 2 41.0574 115.4736 63.5898 0.0000 -23.2716 0.0000
# 3 22.3047 63.5898 112.3044 0.0000 -19.6246 0.0000
# 4 0.0000 0.0000 0.0000 27.0683 0.0000 -6.8091
# 5 -43.9856 -23.2716 -19.6246 0.0000 33.1054 0.0000
# 6 0.0000 0.0000 0.0000 -6.8091 0.0000 25.6464
#
#
#
# Elastic Compliance Matrix: (Units=1/GPa)
#
#
# Indices 1 2 3 4 5 6 
#
# 1 0.015325 -0.002469 0.001795 0.000000 0.019690 0.000000
# 2 -0.002469 0.013823 -0.006930 0.000000 0.002328 0.000000
# 3 0.001795 -0.006930 0.013428 0.000000 0.005474 0.000000
# 4 0.000000 0.000000 0.000000 0.039588 0.000000 0.010511
# 5 0.019690 0.002328 0.005474 0.000000 0.061249 0.000000
# 6 0.000000 0.000000 0.000000 0.010511 0.000000 0.041782
#
#
# Mechanical properties :
#
#
# Convention : Reuss Voigt Hill
#
# Bulk Modulus (GPa) = 36.53834 67.49470 52.01652
# Shear Modulus (GPa) = 23.86335 32.27046 28.06690
#
# Velocity S-wave (km/s) = 3.27877 3.81283 3.55584
# Velocity P-wave (km/s) = 5.54925 7.05618 6.34759
#
# Compressibility (1/GPa) = 0.02736852
#
# Stress axis : x y z
#
# Youngs Moduli (GPa) = 65.25372 72.34106 74.46978
#
# Poissons Ratio (x) = 0.17863 -0.13369
# Poissons Ratio (y) = 0.16113 0.51607
# Poissons Ratio (z) = -0.11715 0.50132
#
# Static dielectric constant tensor:
#      x y z
#    x 4.268740 0.000000 -0.147060 
#    y 0.000000 3.882510 0.000000 
#    z -0.147060 0.000000 4.066220 
# 
# 
# High freq. dielectric constant tensor:
#      x y z
#    x 1.897770 0.000000 -0.011090 
#    y 0.000000 1.870160 0.000000 
#    z -0.011090 0.000000 1.871620 
# 
# From -- ./inp_files/121269.got.cif
#   From: 2010.06.25/outbox.cif.g09.slc.cpg/sg15_61_cif.got.tgz:121269.got - 2010.06.28 07:06:18.
