data_PCOD8153525
_publ_section_title
;
Structure prediction by ZEFSAII (Michael W. Deem and Ramdas Pophale) SiO2 
 PCOD8153525
Probable space group: C 2/C
;
_chemical_formula_sum "Si O2"
_cell_formula_units_Z 60
_cell_length_a 26.045582
_cell_length_b 7.792014
_cell_length_c 23.488220
_cell_angle_alpha 90.000000
_cell_angle_beta 146.348871
_cell_angle_gamma 90.000000
_cell_volume 2641.491190
_symmetry_space_group_name_H-M "C 2/C"
_symmetry_group_IT_number 15
_symmetry_cell_setting 'monoclinic'
loop_
_space_group_symop_operation_xyz
x,y,z
-x,y,1/2-z
-x,-y,-z
x,-y,1/2+z
1/2+x,1/2+y,z
1/2-x,1/2+y,1/2-z
1/2-x,1/2-y,-z
1/2+x,1/2-y,1/2+z
loop_
_atom_site_type_symbol
_atom_site_label
_atom_site_fract_x
_atom_site_fract_y
_atom_site_fract_z
Si Si1 0.500000 0.563417 0.750000
Si Si2 0.348497 0.847707 0.814824
Si Si3 0.496421 0.356321 0.853665
Si Si4 0.793016 0.301869 0.386881
Si Si5 0.661951 0.833403 0.562288
Si Si6 0.676224 0.797746 0.883801
Si Si7 0.015425 0.123866 0.961332
Si Si8 0.668497 0.897019 0.304734
O O1 0.537555 0.435357 0.833386
O O2 0.584517 0.683059 0.806365
O O3 0.274967 0.695379 0.731101
O O4 0.330019 0.885442 0.863804
O O5 0.455449 0.793701 0.911391
O O6 0.341385 0.009920 0.766009
O O7 0.475739 0.524586 0.870880
O O8 0.401283 0.260683 0.755075
O O9 0.562503 0.227260 0.949097
O O10 0.819043 0.476679 0.444217
O O11 0.727898 0.210125 0.371630
O O12 0.878800 0.180059 0.449681
O O13 0.730328 0.688664 0.602346
O O14 0.649080 0.997864 0.846814
O O15 0.750000 0.750000 0.000000
O O16 0.000000 0.000000 0.000000
#
# Coordination Sequence:
#
# PCOD8153525 Si02
#       8
#     4   8   8   8   8   8   8   8
#     4  12  26  48  74 102 142 188 246 304 374 424
#     4  11  24  40  67  98 142 193 231 289 358 429
#     4  12  26  44  68 103 141 183 244 303 360 431
#     4  11  26  43  67 103 140 185 238 290 363 429
#     4  12  24  40  67 100 143 184 235 290 352 432
#     4  11  25  48  75  98 136 188 239 298 364 429
#     4  12  25  43  68 102 143 192 238 293 361 437
#     4  11  25  43  69 106 143 184 245 297 361 428
#
# _framework density 22.714441999999998
#
# number of rings (size 3 to 8) (size 9 to 14) (size 15 to 20)
#    0.000    0.533    1.333    8.000    5.600    3.733 
#    0.000    2.667    0.000    0.000    0.000    0.000 
#    0.000    0.000    0.000    0.000    0.000    0.000 
#
# Total GULP energy -371648.051445 kJ/mol
# GULP energy per Si atom -12388.268381 kJ/mol
# Density = 2.266274 g / cm^3
# Si number density = 22.714442 Si / 1000 Ang^3
#
#
#
# Elastic Constant Matrix: (Units=GPa)
#
#
# Indices 1 2 3 4 5 6 
#
# 1 101.8427 32.4083 38.1470 0.0000 4.5371 0.0000
# 2 32.4083 61.6560 8.7130 -0.0003 2.0738 -0.0003
# 3 38.1470 8.7130 91.5657 -0.0001 5.7307 -0.0001
# 4 0.0000 -0.0003 -0.0001 46.5490 0.0000 8.1634
# 5 4.5371 2.0738 5.7307 0.0000 45.9334 0.0000
# 6 0.0000 -0.0003 -0.0001 8.1634 0.0000 43.6523
#
#
#
# Elastic Compliance Matrix: (Units=1/GPa)
#
#
# Indices 1 2 3 4 5 6 
#
# 1 0.013833 -0.006534 -0.005114 0.000000 -0.000433 0.000000
# 2 -0.006534 0.019540 0.000884 0.000000 -0.000347 0.000000
# 3 -0.005114 0.000884 0.013040 0.000000 -0.001162 0.000000
# 4 0.000000 0.000000 0.000000 0.022211 0.000000 -0.004154
# 5 -0.000433 -0.000347 -0.001162 0.000000 0.021974 0.000000
# 6 0.000000 0.000000 0.000000 -0.004154 0.000000 0.023685
#
#
# Mechanical properties :
#
#
# Convention : Reuss Voigt Hill
#
# Bulk Modulus (GPa) = 40.18260 45.95567 43.06913
# Shear Modulus (GPa) = 34.69656 38.94667 36.82162
#
# Velocity S-wave (km/s) = 3.91258 4.14529 4.03061
# Velocity P-wave (km/s) = 6.17574 6.57169 6.37679
#
# Compressibility (1/GPa) = 0.02488639
#
# Stress axis : x y z
#
# Youngs Moduli (GPa) = 72.29006 51.17676 76.68553
#
# Poissons Ratio (x) = 0.33438 0.39218
# Poissons Ratio (y) = 0.47233 -0.06782
# Poissons Ratio (z) = 0.36970 -0.04526
#
# Static dielectric constant tensor:
#      x y z
#    x 4.834030 0.000000 -1.844450 
#    y 0.000000 4.652650 0.000010 
#    z -1.844450 0.000010 9.271880 
# 
# 
# High freq. dielectric constant tensor:
#      x y z
#    x 1.898580 0.000000 0.004360 
#    y 0.000000 1.908230 0.000000 
#    z 0.004360 0.000000 1.905190 
# 
# From -- ./inp_files/283401.got.cif
#   From: 2010.06.25/outbox.cif.g09.slc.cpg/sg15_142_cif.got.tgz:283401.got - 2010.06.28 07:06:18.
