data_PCOD8153749
_publ_section_title
;
Structure prediction by ZEFSAII (Michael W. Deem and Ramdas Pophale) SiO2 
 PCOD8153749
Probable space group: C 2/C
;
_chemical_formula_sum "Si O2"
_cell_formula_units_Z 40
_cell_length_a 17.508756
_cell_length_b 13.885643
_cell_length_c 14.075725
_cell_angle_alpha 90.000000
_cell_angle_beta 29.116376
_cell_angle_gamma 90.000000
_cell_volume 1665.140421
_symmetry_space_group_name_H-M "C 2/C"
_symmetry_group_IT_number 15
_symmetry_cell_setting 'monoclinic'
loop_
_space_group_symop_operation_xyz
x,y,z
-x,y,1/2-z
-x,-y,-z
x,-y,1/2+z
1/2+x,1/2+y,z
1/2-x,1/2+y,1/2-z
1/2-x,1/2-y,-z
1/2+x,1/2-y,1/2+z
loop_
_atom_site_type_symbol
_atom_site_label
_atom_site_fract_x
_atom_site_fract_y
_atom_site_fract_z
Si Si1 0.324629 0.042821 0.197282
Si Si2 0.860387 0.676915 0.831311
Si Si3 0.323427 0.964920 0.904031
Si Si4 0.674298 0.620253 0.747848
Si Si5 0.852480 0.783301 0.647420
O O1 0.285008 0.137848 0.175865
O O2 0.301022 0.089392 0.328166
O O3 0.204737 0.959152 0.296326
O O4 0.500000 0.000000 0.000000
O O5 0.780228 0.572409 0.913083
O O6 0.907084 0.719998 0.678199
O O7 0.000000 0.660663 0.750000
O O8 0.750000 0.750000 0.000000
O O9 0.500000 0.954561 0.750000
O O10 0.202086 0.926610 0.113968
O O11 0.792209 0.709550 0.633057
O O12 0.496556 0.655907 0.948768
#
# Coordination Sequence:
#
# PCOD8153749 Si02
#       5
#     8   8   8   8   8
#     4  12  25  48  76 106 158 203 252 319 385 454
#     4  11  24  44  73 110 145 197 256 311 373 451
#     4  11  25  46  76 105 152 203 253 315 393 457
#     4  12  26  49  75 115 154 199 262 319 387 462
#     4  12  27  47  79 112 154 203 257 319 385 460
#
# _framework density 24.021996999999999
#
# number of rings (size 3 to 8) (size 9 to 14) (size 15 to 20)
#    0.000    0.400    4.000    4.200    2.800    1.600 
#    0.000    0.000    0.000    0.000    0.000    0.000 
#    0.000    0.000    0.000    0.000    0.000    0.000 
#
# Total GULP energy -247845.035202 kJ/mol
# GULP energy per Si atom -12392.251760 kJ/mol
# Density = 2.396732 g / cm^3
# Si number density = 24.021997 Si / 1000 Ang^3
#
#
#
# Elastic Constant Matrix: (Units=GPa)
#
#
# Indices 1 2 3 4 5 6 
#
# 1 124.0017 51.6299 48.9808 -0.0008 16.9474 0.0007
# 2 51.6299 146.6041 44.3373 -0.0002 -1.9779 0.0003
# 3 48.9808 44.3373 112.0323 -0.0010 20.7891 0.0011
# 4 -0.0008 -0.0002 -0.0010 44.9186 0.0003 -0.4681
# 5 16.9474 -1.9779 20.7891 0.0003 33.0327 -0.0002
# 6 0.0007 0.0003 0.0011 -0.4681 -0.0002 50.4318
#
#
#
# Elastic Compliance Matrix: (Units=1/GPa)
#
#
# Indices 1 2 3 4 5 6 
#
# 1 0.011024 -0.003074 -0.002853 0.000000 -0.004045 0.000000
# 2 -0.003074 0.008826 -0.002876 0.000000 0.003915 0.000000
# 3 -0.002853 -0.002876 0.012535 0.000000 -0.006598 0.000000
# 4 0.000000 0.000000 0.000000 0.022265 0.000000 0.000207
# 5 -0.004045 0.003915 -0.006598 0.000000 0.036735 0.000000
# 6 0.000000 0.000000 0.000000 0.000207 0.000000 0.019831
#
#
# Mechanical properties :
#
#
# Convention : Reuss Voigt Hill
#
# Bulk Modulus (GPa) = 67.65395 74.72600 71.18998
# Shear Modulus (GPa) = 37.38389 41.52263 39.45326
#
# Velocity S-wave (km/s) = 3.94920 4.16206 4.05703
# Velocity P-wave (km/s) = 7.00138 7.36695 7.18649
#
# Compressibility (1/GPa) = 0.01478110
#
# Stress axis : x y z
#
# Youngs Moduli (GPa) = 90.71180 113.29889 79.77370
#
# Poissons Ratio (x) = 0.34830 0.22756
# Poissons Ratio (y) = 0.27887 0.22939
# Poissons Ratio (z) = 0.25876 0.32579
#
# Static dielectric constant tensor:
#      x y z
#    x 4.420200 0.000000 0.083980 
#    y 0.000000 4.228330 0.000000 
#    z 0.083980 0.000000 4.028970 
# 
# 
# High freq. dielectric constant tensor:
#      x y z
#    x 1.967150 0.000000 -0.002310 
#    y 0.000000 1.976870 0.000000 
#    z -0.002310 0.000000 1.932330 
# 
# From -- ./inp_files/162437.got.cif
#   From: 2010.06.25/outbox.cif.g09.slc.cpg/sg15_82_cif.got.tgz:162437.got - 2010.06.28 07:06:18.
