data_PCOD8153033
_publ_section_title
;
Structure prediction by ZEFSAII (Michael W. Deem and Ramdas Pophale) SiO2 
 PCOD8153033
Probable space group: C 2/C
;
_chemical_formula_sum "Si O2"
_cell_formula_units_Z 64
_cell_length_a 25.139902
_cell_length_b 6.268005
_cell_length_c 28.558922
_cell_angle_alpha 90.000000
_cell_angle_beta 139.995781
_cell_angle_gamma 90.000000
_cell_volume 2892.946022
_symmetry_space_group_name_H-M "C 2/C"
_symmetry_group_IT_number 15
_symmetry_cell_setting 'monoclinic'
loop_
_space_group_symop_operation_xyz
x,y,z
-x,y,1/2-z
-x,-y,-z
x,-y,1/2+z
1/2+x,1/2+y,z
1/2-x,1/2+y,1/2-z
1/2-x,1/2-y,-z
1/2+x,1/2-y,1/2+z
loop_
_atom_site_type_symbol
_atom_site_label
_atom_site_fract_x
_atom_site_fract_y
_atom_site_fract_z
Si Si1 0.656533 0.004895 0.054242
Si Si2 0.778294 0.741184 0.571061
Si Si3 0.459626 0.687084 0.177337
Si Si4 0.795970 0.817751 0.337175
Si Si5 0.502368 0.044222 0.615217
Si Si6 0.774131 0.379964 0.635757
Si Si7 0.643106 0.639297 0.189871
Si Si8 0.924644 0.841573 0.280330
O O1 0.717496 0.122645 0.060880
O O2 0.653553 0.130657 0.101925
O O3 0.692961 0.768209 0.085682
O O4 0.566187 0.996177 0.970299
O O5 0.750000 0.750000 0.500000
O O6 0.866862 0.853881 0.631572
O O7 0.778592 0.494858 0.588320
O O8 0.500000 0.803044 0.250000
O O9 0.500949 0.455806 0.197067
O O10 0.464355 0.831422 0.134098
O O11 0.736962 0.728216 0.256012
O O12 0.734207 0.937639 0.330807
O O13 0.861865 0.979122 0.357844
O O14 0.538588 0.821573 0.657155
O O15 0.574308 0.177142 0.637577
O O16 0.861752 0.264608 0.701473
O O17 0.627782 0.519805 0.228212
#
# Coordination Sequence:
#
# PCOD8153033 Si02
#       8
#     8   8   8   8   8   8   8   8
#     4  11  25  44  67 102 135 178 222 278 346 404
#     4  11  24  43  65  94 135 178 225 276 330 404
#     4  11  24  41  65  95 135 176 232 281 332 388
#     4  11  24  43  74 100 131 174 228 277 337 414
#     4  11  25  43  66 100 140 174 221 284 344 402
#     4  11  23  42  71  95 134 179 228 279 335 405
#     4  11  24  43  72 101 131 173 225 277 336 412
#     4  11  23  42  67  98 134 178 226 282 333 401
#
# _framework density 22.122778
#
# number of rings (size 3 to 8) (size 9 to 14) (size 15 to 20)
#    0.000    1.000    3.750    2.250    5.250    4.500 
#    0.000    1.250    0.000    0.000    0.000    0.000 
#    0.000    0.000    0.000    0.000    0.000    0.000 
#
# Total GULP energy -396872.968659 kJ/mol
# GULP energy per Si atom -12402.280271 kJ/mol
# Density = 2.207243 g / cm^3
# Si number density = 22.122778 Si / 1000 Ang^3
#
#
#
# Elastic Constant Matrix: (Units=GPa)
#
#
# Indices 1 2 3 4 5 6 
#
# 1 67.9076 24.4649 26.4227 -0.0015 -0.3112 0.0061
# 2 24.4649 104.3563 40.5682 -0.0009 1.2575 0.0161
# 3 26.4227 40.5682 150.3539 0.0017 6.5486 -0.0095
# 4 -0.0015 -0.0009 0.0017 32.0019 -0.0028 -1.8604
# 5 -0.3112 1.2575 6.5486 -0.0028 31.4345 -0.0015
# 6 0.0061 0.0161 -0.0095 -1.8604 -0.0015 37.0751
#
#
#
# Elastic Compliance Matrix: (Units=1/GPa)
#
#
# Indices 1 2 3 4 5 6 
#
# 1 0.016670 -0.003090 -0.002128 0.000001 0.000732 -0.000002
# 2 -0.003090 0.011279 -0.002502 0.000000 0.000039 -0.000005
# 3 -0.002128 -0.002502 0.007767 -0.000001 -0.001539 0.000003
# 4 0.000001 0.000000 -0.000001 0.031340 0.000003 0.001573
# 5 0.000732 0.000039 -0.001539 0.000003 0.032138 0.000001
# 6 -0.000002 -0.000005 0.000003 0.001573 0.000001 0.027051
#
#
# Mechanical properties :
#
#
# Convention : Reuss Voigt Hill
#
# Bulk Modulus (GPa) = 49.31637 56.16994 52.74316
# Shear Modulus (GPa) = 33.68276 35.51311 34.59794
#
# Velocity S-wave (km/s) = 3.90620 4.01093 3.95891
# Velocity P-wave (km/s) = 6.53338 6.84802 6.69255
#
# Compressibility (1/GPa) = 0.02027724
#
# Stress axis : x y z
#
# Youngs Moduli (GPa) = 59.98684 88.65962 128.74934
#
# Poissons Ratio (x) = 0.27394 0.27395
# Poissons Ratio (y) = 0.18535 0.32213
# Poissons Ratio (z) = 0.12764 0.22183
#
# Static dielectric constant tensor:
#      x y z
#    x 3.950470 -0.000090 -0.001570 
#    y -0.000090 4.252740 -0.000210 
#    z -0.001570 -0.000210 2.771600 
# 
# 
# High freq. dielectric constant tensor:
#      x y z
#    x 1.873870 -0.000010 -0.003080 
#    y -0.000010 1.875210 0.000000 
#    z -0.003080 0.000000 1.869850 
# 
# From -- ./inp_files/319314.got.cif
#   From: 2010.06.25/outbox.cif.g09.slc.cpg/sg15_160_cif.got.tgz:319314.got - 2010.06.28 07:06:18.
