data_PCOD8153401
_publ_section_title
;
Structure prediction by ZEFSAII (Michael W. Deem and Ramdas Pophale) SiO2 
 PCOD8153401
Probable space group: C 2/C
;
_chemical_formula_sum "Si O2"
_cell_formula_units_Z 56
_cell_length_a 14.085848
_cell_length_b 12.516787
_cell_length_c 15.669794
_cell_angle_alpha 90.000000
_cell_angle_beta 116.708727
_cell_angle_gamma 90.000000
_cell_volume 2467.958826
_symmetry_space_group_name_H-M "C 2/C"
_symmetry_group_IT_number 15
_symmetry_cell_setting 'monoclinic'
loop_
_space_group_symop_operation_xyz
x,y,z
-x,y,1/2-z
-x,-y,-z
x,-y,1/2+z
1/2+x,1/2+y,z
1/2-x,1/2+y,1/2-z
1/2-x,1/2-y,-z
1/2+x,1/2-y,1/2+z
loop_
_atom_site_type_symbol
_atom_site_label
_atom_site_fract_x
_atom_site_fract_y
_atom_site_fract_z
Si Si1 0.000000 0.084065 0.250000
Si Si2 0.688346 0.713850 0.264775
Si Si3 0.500000 0.165935 0.250000
Si Si4 0.163414 0.034966 0.934959
Si Si5 0.699659 0.387606 0.100771
Si Si6 0.826429 0.463850 0.764775
Si Si7 0.151112 0.637606 0.600771
Si Si8 0.021545 0.215034 0.934959
O O1 0.928123 0.162720 0.277810
O O2 0.927195 0.007408 0.164377
O O3 0.709161 0.796860 0.351002
O O4 0.779849 0.625000 0.309698
O O5 0.703583 0.768982 0.178789
O O6 0.599687 0.087280 0.277811
O O7 0.487182 0.242591 0.164377
O O8 0.260187 0.087561 0.924128
O O9 0.112973 0.125000 0.975945
O O10 0.203980 0.934806 0.007365
O O11 0.725206 0.481018 0.178789
O O12 0.586059 0.337560 0.075872
O O13 0.891841 0.546860 0.851002
O O14 0.053386 0.684806 0.507365
#
# Coordination Sequence:
#
# PCOD8153401 Si02
#       8
#     4   8   4   8   8   8   8   8
#     4  12  25  43  74 100 146 184 239 285 364 402
#     4  11  23  46  68 103 142 188 230 298 341 425
#     4  12  25  43  74 100 146 184 239 285 364 402
#     4  12  24  43  71 109 135 191 232 297 344 425
#     4  11  25  43  71 100 147 181 239 285 353 410
#     4  11  23  46  68 103 142 188 230 298 341 425
#     4  11  25  43  71 100 147 181 239 285 353 410
#     4  12  24  43  71 109 135 191 232 297 344 425
#
# _framework density 22.690816999999999
#
# number of rings (size 3 to 8) (size 9 to 14) (size 15 to 20)
#    0.000    0.571    2.857    5.571    4.000    3.429 
#    0.000    0.000    0.000    0.000    0.000    0.000 
#    0.000    0.000    0.000    0.000    0.000    0.000 
#
# Total GULP energy -347268.593618 kJ/mol
# GULP energy per Si atom -12402.449772 kJ/mol
# Density = 2.263917 g / cm^3
# Si number density = 22.690817 Si / 1000 Ang^3
#
#
#
# Elastic Constant Matrix: (Units=GPa)
#
#
# Indices 1 2 3 4 5 6 
#
# 1 129.6344 55.5965 24.5711 0.0000 2.6626 0.0000
# 2 55.5965 128.2293 58.1999 0.0000 -0.1284 0.0000
# 3 24.5711 58.1999 125.5691 0.0000 -2.4616 0.0000
# 4 0.0000 0.0000 0.0000 28.3439 0.0000 1.4177
# 5 2.6626 -0.1284 -2.4616 0.0000 25.7866 0.0000
# 6 0.0000 0.0000 0.0000 1.4177 0.0000 57.1007
#
#
#
# Elastic Compliance Matrix: (Units=1/GPa)
#
#
# Indices 1 2 3 4 5 6 
#
# 1 0.009502 -0.004139 0.000039 0.000000 -0.000998 0.000000
# 2 -0.004139 0.011683 -0.004604 0.000000 0.000046 0.000000
# 3 0.000039 -0.004604 0.010108 0.000000 0.000938 0.000000
# 4 0.000000 0.000000 0.000000 0.035325 0.000000 -0.000877
# 5 -0.000998 0.000046 0.000938 0.000000 0.038973 0.000000
# 6 0.000000 0.000000 0.000000 -0.000877 0.000000 0.017535
#
#
# Mechanical properties :
#
#
# Convention : Reuss Voigt Hill
#
# Bulk Modulus (GPa) = 72.01352 73.35196 72.68274
# Shear Modulus (GPa) = 34.44464 38.58394 36.51429
#
# Velocity S-wave (km/s) = 3.90038 4.12809 4.01585
# Velocity P-wave (km/s) = 7.21732 7.42418 7.32148
#
# Compressibility (1/GPa) = 0.01388628
#
# Stress axis : x y z
#
# Youngs Moduli (GPa) = 105.24119 85.59735 98.92819
#
# Poissons Ratio (x) = 0.35426 -0.00389
# Poissons Ratio (y) = 0.43555 0.45547
# Poissons Ratio (z) = -0.00414 0.39409
#
# Static dielectric constant tensor:
#      x y z
#    x 3.988110 0.000000 -0.004530 
#    y 0.000000 4.589280 0.000000 
#    z -0.004530 0.000000 4.080240 
# 
# 
# High freq. dielectric constant tensor:
#      x y z
#    x 1.881590 0.000000 -0.000650 
#    y 0.000000 1.923390 0.000000 
#    z -0.000650 0.000000 1.894880 
# 
# From -- ./inp_files/204568.got.cif
#   From: 2010.06.25/outbox.cif.g09.slc.cpg/sg15_103_cif.got.tgz:204568.got - 2010.06.28 07:06:18.
