data_PCOD8153227
_publ_section_title
;
Structure prediction by ZEFSAII (Michael W. Deem and Ramdas Pophale) SiO2 
 PCOD8153227
Probable space group: C 2/C
;
_chemical_formula_sum "Si O2"
_cell_formula_units_Z 40
_cell_length_a 24.082394
_cell_length_b 9.029641
_cell_length_c 9.039959
_cell_angle_alpha 90.000000
_cell_angle_beta 99.979258
_cell_angle_gamma 90.000000
_cell_volume 1936.046367
_symmetry_space_group_name_H-M "C 2/C"
_symmetry_group_IT_number 15
_symmetry_cell_setting 'monoclinic'
loop_
_space_group_symop_operation_xyz
x,y,z
-x,y,1/2-z
-x,-y,-z
x,-y,1/2+z
1/2+x,1/2+y,z
1/2-x,1/2+y,1/2-z
1/2-x,1/2-y,-z
1/2+x,1/2-y,1/2+z
loop_
_atom_site_type_symbol
_atom_site_label
_atom_site_fract_x
_atom_site_fract_y
_atom_site_fract_z
Si Si1 0.771610 0.664705 0.369827
Si Si2 0.506275 0.341606 0.930875
Si Si3 0.600373 0.831984 0.616432
Si Si4 0.790465 0.683429 0.902991
Si Si5 0.086536 0.357120 0.954411
O O1 0.750000 0.750000 0.500000
O O2 0.834049 0.715644 0.348315
O O3 0.774421 0.488243 0.379354
O O4 0.721162 0.717409 0.243410
O O5 0.500000 0.345536 0.750000
O O6 0.500000 0.500000 0.000000
O O7 0.568541 0.294826 0.010891
O O8 0.462123 0.228926 0.982755
O O9 0.577055 0.854270 0.772687
O O10 0.588311 0.976715 0.514062
O O11 0.750000 0.750000 0.000000
O O12 0.854093 0.716273 0.978913
#
# Coordination Sequence:
#
# PCOD8153227 Si02
#       5
#     8   8   8   8   8
#     4  11  25  40  69  98 138 180 226 279 337 405
#     4  12  27  46  69  99 134 171 222 281 340 395
#     4  11  24  45  69  98 131 179 226 271 336 403
#     4  11  23  44  65 100 136 178 227 274 339 403
#     4  11  24  44  71  95 135 177 225 274 330 409
#
# _framework density 20.660661999999999
#
# number of rings (size 3 to 8) (size 9 to 14) (size 15 to 20)
#    0.000    0.800    2.000    4.800   11.200    3.200 
#    0.000    0.000    0.000    0.000    0.000    0.000 
#    0.000    0.000    0.000    0.000    0.000    0.000 
#
# Total GULP energy -247852.458335 kJ/mol
# GULP energy per Si atom -12392.622917 kJ/mol
# Density = 2.061364 g / cm^3
# Si number density = 20.660662 Si / 1000 Ang^3
#
#
#
# Elastic Constant Matrix: (Units=GPa)
#
#
# Indices 1 2 3 4 5 6 
#
# 1 94.4927 34.3356 28.7031 0.0000 0.7475 0.0000
# 2 34.3356 62.4833 21.7717 0.0000 10.8431 0.0000
# 3 28.7031 21.7717 171.8772 0.0000 -4.5970 0.0000
# 4 0.0000 0.0000 0.0000 39.7047 0.0000 -1.7625
# 5 0.7475 10.8431 -4.5970 0.0000 43.4764 0.0000
# 6 0.0000 0.0000 0.0000 -1.7625 0.0000 37.4075
#
#
#
# Elastic Compliance Matrix: (Units=1/GPa)
#
#
# Indices 1 2 3 4 5 6 
#
# 1 0.013613 -0.007273 -0.001314 0.000000 0.001441 0.000000
# 2 -0.007273 0.021518 -0.001656 0.000000 -0.005417 0.000000
# 3 -0.001314 -0.001656 0.006277 0.000000 0.001099 0.000000
# 4 0.000000 0.000000 0.000000 0.025239 0.000000 0.001189
# 5 0.001441 -0.005417 0.001099 0.000000 0.024443 0.000000
# 6 0.000000 0.000000 0.000000 0.001189 0.000000 0.026789
#
#
# Mechanical properties :
#
#
# Convention : Reuss Voigt Hill
#
# Bulk Modulus (GPa) = 47.79516 55.38600 51.59058
# Shear Modulus (GPa) = 34.40259 40.38725 37.39492
#
# Velocity S-wave (km/s) = 4.08502 4.42610 4.25897
# Velocity P-wave (km/s) = 6.74044 7.27916 7.01497
#
# Compressibility (1/GPa) = 0.02092262
#
# Stress axis : x y z
#
# Youngs Moduli (GPa) = 73.45789 46.47283 159.32115
#
# Poissons Ratio (x) = 0.33800 0.20928
# Poissons Ratio (y) = 0.53426 0.26383
# Poissons Ratio (z) = 0.09649 0.07696
#
# Static dielectric constant tensor:
#      x y z
#    x 4.009260 0.000000 -0.070900 
#    y 0.000000 3.797540 0.000000 
#    z -0.070900 0.000000 3.859960 
# 
# 
# High freq. dielectric constant tensor:
#      x y z
#    x 1.824050 0.000000 0.002100 
#    y 0.000000 1.811560 0.000000 
#    z 0.002100 0.000000 1.833780 
# 
# From -- ./inp_files/59907.got.cif
#   From: 2010.06.25/outbox.cif.g09.slc.cpg/sg15_30_cif.got.tgz:59907.got - 2010.06.28 07:06:18.
