data_PCOD8153710
_publ_section_title
;
Structure prediction by ZEFSAII (Michael W. Deem and Ramdas Pophale) SiO2 
 PCOD8153710
Probable space group: C 2/C
;
_chemical_formula_sum "Si O2"
_cell_formula_units_Z 36
_cell_length_a 24.494140
_cell_length_b 8.782767
_cell_length_c 6.979339
_cell_angle_alpha 90.000000
_cell_angle_beta 103.311532
_cell_angle_gamma 90.000000
_cell_volume 1461.099695
_symmetry_space_group_name_H-M "C 2/C"
_symmetry_group_IT_number 15
_symmetry_cell_setting 'monoclinic'
loop_
_space_group_symop_operation_xyz
x,y,z
-x,y,1/2-z
-x,-y,-z
x,-y,1/2+z
1/2+x,1/2+y,z
1/2-x,1/2+y,1/2-z
1/2-x,1/2-y,-z
1/2+x,1/2-y,1/2+z
loop_
_atom_site_type_symbol
_atom_site_label
_atom_site_fract_x
_atom_site_fract_y
_atom_site_fract_z
Si Si1 0.694605 0.620827 0.131332
Si Si2 0.500000 0.227708 0.250000
Si Si3 0.916744 0.271130 0.387505
Si Si4 0.803253 0.221639 0.795790
Si Si5 0.915911 0.393502 0.984942
O O1 0.637121 0.665347 0.192344
O O2 0.746673 0.683872 0.299109
O O3 0.698962 0.440785 0.100570
O O4 0.692759 0.701229 0.926855
O O5 0.539055 0.320675 0.435052
O O6 0.538746 0.123733 0.145930
O O7 0.903214 0.426477 0.495285
O O8 0.940862 0.318604 0.199679
O O9 0.856535 0.316047 0.901743
#
# Coordination Sequence:
#
# PCOD8153710 Si02
#       5
#     8   4   8   8   8
#     4  11  24  44  70 101 138 174 220 278 341 406
#     4  12  24  44  66 100 136 182 230 284 314 408
#     4  12  24  41  70 100 137 178 227 278 334 392
#     4  11  24  44  70 101 138 174 220 278 341 406
#     4  12  24  41  70 100 137 178 227 278 334 392
#
# _framework density 24.638976
#
# number of rings (size 3 to 8) (size 9 to 14) (size 15 to 20)
#    0.000    0.444    4.444    4.000    0.000    7.111 
#    0.000    1.111    0.000    0.000    0.000    0.000 
#    0.000    0.000    0.000    0.000    0.000    0.000 
#
# Total GULP energy -223092.523378 kJ/mol
# GULP energy per Si atom -12394.029077 kJ/mol
# Density = 2.458290 g / cm^3
# Si number density = 24.638976 Si / 1000 Ang^3
#
#
#
# Elastic Constant Matrix: (Units=GPa)
#
#
# Indices 1 2 3 4 5 6 
#
# 1 137.3227 41.8560 52.6742 0.0000 30.7052 0.0000
# 2 41.8560 71.0238 16.3666 0.0000 10.5566 0.0000
# 3 52.6742 16.3666 143.2810 0.0000 13.1563 0.0000
# 4 0.0000 0.0000 0.0000 26.4699 0.0000 1.8387
# 5 30.7052 10.5566 13.1563 0.0000 31.0989 0.0000
# 6 0.0000 0.0000 0.0000 1.8387 0.0000 11.5921
#
#
#
# Elastic Compliance Matrix: (Units=1/GPa)
#
#
# Indices 1 2 3 4 5 6 
#
# 1 0.011939 -0.005034 -0.003005 0.000000 -0.008807 0.000000
# 2 -0.005034 0.017180 -0.000034 0.000000 -0.000847 0.000000
# 3 -0.003005 -0.000034 0.008130 0.000000 -0.000461 0.000000
# 4 0.000000 0.000000 0.000000 0.038200 0.000000 -0.006059
# 5 -0.008807 -0.000847 -0.000461 0.000000 0.041334 0.000000
# 6 0.000000 0.000000 0.000000 -0.006059 0.000000 0.087226
#
#
# Mechanical properties :
#
#
# Convention : Reuss Voigt Hill
#
# Bulk Modulus (GPa) = 47.38781 63.71346 55.55063
# Shear Modulus (GPa) = 22.00805 29.88090 25.94448
#
# Velocity S-wave (km/s) = 2.99192 3.48623 3.24849
# Velocity P-wave (km/s) = 5.58660 6.49000 6.05517
#
# Compressibility (1/GPa) = 0.02110248
#
# Stress axis : x y z
#
# Youngs Moduli (GPa) = 83.76249 58.20638 122.99679
#
# Poissons Ratio (x) = 0.29302 0.36963
# Poissons Ratio (y) = 0.42167 0.00418
# Poissons Ratio (z) = 0.25172 0.00198
#
# Static dielectric constant tensor:
#      x y z
#    x 4.555810 0.000000 0.314330 
#    y 0.000000 4.000280 0.000000 
#    z 0.314330 0.000000 4.919750 
# 
# 
# High freq. dielectric constant tensor:
#      x y z
#    x 1.983500 0.000000 0.007900 
#    y 0.000000 1.939890 0.000000 
#    z 0.007900 0.000000 2.019330 
# 
# From -- ./inp_files/60130.got.cif
#   From: 2010.06.25/outbox.cif.g09.slc.cpg/sg15_31_cif.got.tgz:60130.got - 2010.06.28 07:06:18.
