data_PCOD8153404
_publ_section_title
;
Structure prediction by ZEFSAII (Michael W. Deem and Ramdas Pophale) SiO2 
 PCOD8153404
Probable space group: C 2/C
;
_chemical_formula_sum "Si O2"
_cell_formula_units_Z 48
_cell_length_a 9.711008
_cell_length_b 14.813344
_cell_length_c 28.214938
_cell_angle_alpha 90.000000
_cell_angle_beta 32.394338
_cell_angle_gamma 90.000000
_cell_volume 2174.469467
_symmetry_space_group_name_H-M "C 2/C"
_symmetry_group_IT_number 15
_symmetry_cell_setting 'monoclinic'
loop_
_space_group_symop_operation_xyz
x,y,z
-x,y,1/2-z
-x,-y,-z
x,-y,1/2+z
1/2+x,1/2+y,z
1/2-x,1/2+y,1/2-z
1/2-x,1/2-y,-z
1/2+x,1/2-y,1/2+z
loop_
_atom_site_type_symbol
_atom_site_label
_atom_site_fract_x
_atom_site_fract_y
_atom_site_fract_z
Si Si1 0.562252 0.948797 0.920719
Si Si2 0.696593 0.134523 0.836290
Si Si3 0.737497 0.325691 0.857704
Si Si4 0.424472 0.524140 0.398525
Si Si5 0.586214 0.212241 0.091987
Si Si6 0.212822 0.369162 0.226990
O O1 0.776092 0.928061 0.898239
O O2 0.596859 0.869039 0.872838
O O3 0.578360 0.050137 0.897183
O O4 0.267542 0.948022 0.024494
O O5 0.614123 0.227403 0.884920
O O6 0.585379 0.138208 0.815495
O O7 0.000000 0.121381 0.750000
O O8 0.525617 0.400186 0.905329
O O9 0.764733 0.332418 0.906813
O O10 0.000000 0.337391 0.750000
O O11 0.672110 0.469313 0.309377
O O12 0.425190 0.292411 0.161181
O O13 0.750000 0.250000 0.000000
O O14 0.000000 0.352736 0.250000
#
# Coordination Sequence:
#
# PCOD8153404 Si02
#       6
#     8   8   8   8   8   8
#     4  11  26  43  72  98 139 183 233 285 348 413
#     4  11  23  46  68  98 139 182 230 285 345 412
#     4  11  25  45  71  99 143 178 232 290 344 412
#     4  11  25  46  67 102 138 186 230 285 350 413
#     4  12  26  47  70 102 142 181 228 291 347 415
#     4  12  26  45  71 102 143 182 233 286 347 415
#
# _framework density 22.074349000000002
#
# number of rings (size 3 to 8) (size 9 to 14) (size 15 to 20)
#    0.000    0.667    6.667    0.500    9.333    3.333 
#    0.000    0.000    0.000    0.000    0.000    0.000 
#    0.000    0.000    0.000    0.000    0.000    0.000 
#
# Total GULP energy -297540.805130 kJ/mol
# GULP energy per Si atom -12397.533547 kJ/mol
# Density = 2.202411 g / cm^3
# Si number density = 22.074349 Si / 1000 Ang^3
#
#
#
# Elastic Constant Matrix: (Units=GPa)
#
#
# Indices 1 2 3 4 5 6 
#
# 1 186.3166 50.1929 23.7360 -0.0084 21.2866 -0.0432
# 2 50.1929 118.7948 3.5547 0.0253 0.2735 -0.0425
# 3 23.7360 3.5547 35.3174 -0.0899 13.5088 -0.2207
# 4 -0.0084 0.0253 -0.0899 19.9954 0.0534 1.8631
# 5 21.2866 0.2735 13.5088 0.0534 34.4960 0.0995
# 6 -0.0432 -0.0425 -0.2207 1.8631 0.0995 17.8302
#
#
#
# Elastic Compliance Matrix: (Units=1/GPa)
#
#
# Indices 1 2 3 4 5 6 
#
# 1 0.006867 -0.002799 -0.003201 0.000001 -0.002962 -0.000013
# 2 -0.002799 0.009587 0.000335 -0.000017 0.001520 0.000014
# 3 -0.003201 0.000335 0.034911 0.000142 -0.011700 0.000476
# 4 0.000001 -0.000017 0.000142 0.050504 -0.000119 -0.005275
# 5 -0.002962 0.001520 -0.011700 -0.000119 0.035388 -0.000333
# 6 -0.000013 0.000014 0.000476 -0.005275 -0.000333 0.056643
#
#
# Mechanical properties :
#
#
# Convention : Reuss Voigt Hill
#
# Bulk Modulus (GPa) = 24.97800 55.04400 40.01100
# Shear Modulus (GPa) = 22.87541 31.99401 27.43471
#
# Velocity S-wave (km/s) = 3.22264 3.81120 3.52921
# Velocity P-wave (km/s) = 5.01868 6.66009 5.89678
#
# Compressibility (1/GPa) = 0.04003523
#
# Stress axis : x y z
#
# Youngs Moduli (GPa) = 145.61476 104.30787 28.64443
#
# Poissons Ratio (x) = 0.29196 0.09169
# Poissons Ratio (y) = 0.40758 -0.00959
# Poissons Ratio (z) = 0.46609 -0.03493
#
# Static dielectric constant tensor:
#      x y z
#    x 4.183180 -0.000070 0.178590 
#    y -0.000070 4.183010 0.000130 
#    z 0.178590 0.000130 3.949160 
# 
# 
# High freq. dielectric constant tensor:
#      x y z
#    x 1.881740 0.000000 0.012750 
#    y 0.000000 1.885450 0.000000 
#    z 0.012750 0.000000 1.847680 
# 
# From -- ./inp_files/289022.got.cif
#   From: 2010.06.25/outbox.cif.g09.slc.cpg/sg15_145_cif.got.tgz:289022.got - 2010.06.28 07:06:18.
