data_PCOD8153928
_publ_section_title
;
Structure prediction by ZEFSAII (Michael W. Deem and Ramdas Pophale) SiO2 
 PCOD8153928
Probable space group: C 2/C
;
_chemical_formula_sum "Si O2"
_cell_formula_units_Z 44
_cell_length_a 11.220927
_cell_length_b 14.039233
_cell_length_c 12.122577
_cell_angle_alpha 90.000000
_cell_angle_beta 83.122493
_cell_angle_gamma 90.000000
_cell_volume 1895.967008
_symmetry_space_group_name_H-M "C 2/C"
_symmetry_group_IT_number 15
_symmetry_cell_setting 'monoclinic'
loop_
_space_group_symop_operation_xyz
x,y,z
-x,y,1/2-z
-x,-y,-z
x,-y,1/2+z
1/2+x,1/2+y,z
1/2-x,1/2+y,1/2-z
1/2-x,1/2-y,-z
1/2+x,1/2-y,1/2+z
loop_
_atom_site_type_symbol
_atom_site_label
_atom_site_fract_x
_atom_site_fract_y
_atom_site_fract_z
Si Si1 0.113491 0.219639 0.316362
Si Si2 0.064510 0.867077 0.049185
Si Si3 0.140074 0.577651 0.749484
Si Si4 0.303427 0.116154 0.170458
Si Si5 0.308544 0.555007 0.527229
Si Si6 0.000000 0.746268 0.250000
O O1 0.077113 0.206687 0.447060
O O2 0.182524 0.320223 0.291844
O O3 0.206066 0.135968 0.276119
O O4 0.000000 0.207997 0.250000
O O5 0.084309 0.810833 0.161721
O O6 0.929178 0.906320 0.069203
O O7 0.161176 0.952278 0.030729
O O8 0.160353 0.494349 0.834675
O O9 0.205546 0.548042 0.629825
O O10 0.000000 0.588989 0.750000
O O11 0.419409 0.182031 0.177008
O O12 0.241432 0.130449 0.057941
#
# Coordination Sequence:
#
# PCOD8153928 Si02
#       6
#     8   8   8   8   8   4
#     4  11  24  46  77 107 144 194 253 299 375 439
#     4  11  26  48  76 114 143 198 256 311 366 437
#     4  11  26  46  69 109 148 199 238 306 375 440
#     4  12  26  47  71 111 153 191 248 307 373 447
#     4  11  26  46  79 105 151 194 254 316 367 433
#     4  12  30  44  72 112 158 194 248 302 374 450
#
# _framework density 23.207155
#
# number of rings (size 3 to 8) (size 9 to 14) (size 15 to 20)
#    0.000    0.727    4.545    1.091   10.182    4.364 
#    0.000    0.000    0.000    0.000    0.000    0.000 
#    0.000    0.000    0.000    0.000    0.000    0.000 
#
# Total GULP energy -272833.287135 kJ/mol
# GULP energy per Si atom -12401.513052 kJ/mol
# Density = 2.315433 g / cm^3
# Si number density = 23.207155 Si / 1000 Ang^3
#
#
#
# Elastic Constant Matrix: (Units=GPa)
#
#
# Indices 1 2 3 4 5 6 
#
# 1 96.1881 36.5267 32.1851 0.0000 -10.6544 0.0000
# 2 36.5267 127.2044 40.5323 0.0000 3.4973 0.0000
# 3 32.1851 40.5323 119.2947 0.0000 -13.9846 0.0000
# 4 0.0000 0.0000 0.0000 30.8755 0.0000 -3.7414
# 5 -10.6544 3.4973 -13.9846 0.0000 37.3590 0.0000
# 6 0.0000 0.0000 0.0000 -3.7414 0.0000 25.9392
#
#
#
# Elastic Compliance Matrix: (Units=1/GPa)
#
#
# Indices 1 2 3 4 5 6 
#
# 1 0.012570 -0.003063 -0.001984 0.000000 0.003129 0.000000
# 2 -0.003063 0.009713 -0.002806 0.000000 -0.002833 0.000000
# 3 -0.001984 -0.002806 0.010287 0.000000 0.003548 0.000000
# 4 0.000000 0.000000 0.000000 0.032964 0.000000 0.004755
# 5 0.003129 -0.002833 0.003548 0.000000 0.029253 0.000000
# 6 0.000000 0.000000 0.000000 0.004755 0.000000 0.039237
#
#
# Mechanical properties :
#
#
# Convention : Reuss Voigt Hill
#
# Bulk Modulus (GPa) = 59.29725 62.35284 60.82505
# Shear Modulus (GPa) = 32.18507 34.39762 33.29134
#
# Velocity S-wave (km/s) = 3.72810 3.85411 3.79163
# Velocity P-wave (km/s) = 6.64367 6.83607 6.74056
#
# Compressibility (1/GPa) = 0.01686419
#
# Stress axis : x y z
#
# Youngs Moduli (GPa) = 79.55490 102.95541 97.21031
#
# Poissons Ratio (x) = 0.31539 0.19283
# Poissons Ratio (y) = 0.24371 0.27275
# Poissons Ratio (z) = 0.15781 0.28887
#
# Static dielectric constant tensor:
#      x y z
#    x 4.129570 0.000000 -0.007080 
#    y 0.000000 4.424380 0.000000 
#    z -0.007080 0.000000 3.904210 
# 
# 
# High freq. dielectric constant tensor:
#      x y z
#    x 1.927260 0.000000 -0.001470 
#    y 0.000000 1.925610 0.000000 
#    z -0.001470 0.000000 1.911210 
# 
# From -- ./inp_files/86048.got.cif
#   From: 2010.06.25/outbox.cif.g09.slc.cpg/sg15_44_cif.got.tgz:86048.got - 2010.06.28 07:06:18.
