data_PCOD8153848
_publ_section_title
;
Structure prediction by ZEFSAII (Michael W. Deem and Ramdas Pophale) SiO2 
 PCOD8153848
Probable space group: C 2/C
;
_chemical_formula_sum "Si O2"
_cell_formula_units_Z 48
_cell_length_a 15.298750
_cell_length_b 13.845991
_cell_length_c 30.153459
_cell_angle_alpha 90.000000
_cell_angle_beta 160.950451
_cell_angle_gamma 90.000000
_cell_volume 2084.722570
_symmetry_space_group_name_H-M "C 2/C"
_symmetry_group_IT_number 15
_symmetry_cell_setting 'monoclinic'
loop_
_space_group_symop_operation_xyz
x,y,z
-x,y,1/2-z
-x,-y,-z
x,-y,1/2+z
1/2+x,1/2+y,z
1/2-x,1/2+y,1/2-z
1/2-x,1/2-y,-z
1/2+x,1/2-y,1/2+z
loop_
_atom_site_type_symbol
_atom_site_label
_atom_site_fract_x
_atom_site_fract_y
_atom_site_fract_z
Si Si1 0.524574 0.166122 0.930292
Si Si2 0.207805 0.587511 0.597813
Si Si3 0.620853 0.548164 0.014189
Si Si4 0.887515 0.175379 0.299765
Si Si5 0.393501 0.243500 0.021267
Si Si6 0.852113 0.490730 0.277538
O O1 0.368996 0.165026 0.901661
O O2 0.478692 0.272772 0.888988
O O3 0.406782 0.090578 0.839431
O O4 0.836313 0.142552 0.090802
O O5 0.500000 0.545650 0.750000
O O6 0.205827 0.645241 0.550416
O O7 0.000000 0.500000 0.500000
O O8 0.904561 0.497290 0.140606
O O9 0.500000 0.500000 0.000000
O O10 0.666564 0.664005 0.039013
O O11 0.425354 0.530428 0.879508
O O12 0.715869 0.242354 0.184011
O O13 0.683720 0.089545 0.212881
O O14 0.250000 0.250000 0.000000
#
# Coordination Sequence:
#
# PCOD8153848 Si02
#       6
#     8   8   8   8   8   8
#     4  11  26  46  75 110 148 195 249 313 383 450
#     4  12  31  48  77 113 153 193 261 316 378 454
#     4  12  28  45  74 111 149 198 251 311 371 453
#     4  11  24  45  77 106 145 201 249 305 380 461
#     4  12  26  50  79 105 153 205 249 310 389 451
#     4  12  24  46  76 103 153 195 250 305 384 441
#
# _framework density 23.024647000000002
#
# number of rings (size 3 to 8) (size 9 to 14) (size 15 to 20)
#    0.000    0.333    5.000    2.500    7.000    0.000 
#    3.000    0.000    0.000    0.000    0.000    0.000 
#    0.000    0.000    0.000    0.000    0.000    0.000 
#
# Total GULP energy -297687.942794 kJ/mol
# GULP energy per Si atom -12403.664283 kJ/mol
# Density = 2.297224 g / cm^3
# Si number density = 23.024647 Si / 1000 Ang^3
#
#
#
# Elastic Constant Matrix: (Units=GPa)
#
#
# Indices 1 2 3 4 5 6 
#
# 1 88.9739 29.4779 19.9494 0.0102 9.5778 0.0088
# 2 29.4779 93.7272 17.8406 0.0264 -0.1115 0.0064
# 3 19.9494 17.8406 141.4352 -0.0514 9.8295 0.0208
# 4 0.0102 0.0264 -0.0514 38.3416 0.0381 -4.4010
# 5 9.5778 -0.1115 9.8295 0.0381 35.0833 -0.0137
# 6 0.0088 0.0064 0.0208 -4.4010 -0.0137 34.0104
#
#
#
# Elastic Compliance Matrix: (Units=1/GPa)
#
#
# Indices 1 2 3 4 5 6 
#
# 1 0.013146 -0.003923 -0.001131 0.000001 -0.003284 -0.000003
# 2 -0.003923 0.012109 -0.001072 -0.000010 0.001410 -0.000001
# 3 -0.001131 -0.001072 0.007490 0.000012 -0.001793 -0.000003
# 4 0.000001 -0.000010 0.000012 0.026475 -0.000031 0.003426
# 5 -0.003284 0.001410 -0.001793 -0.000031 0.029907 0.000010
# 6 -0.000003 -0.000001 -0.000003 0.003426 0.000010 0.029846
#
#
# Mechanical properties :
#
#
# Convention : Reuss Voigt Hill
#
# Bulk Modulus (GPa) = 48.79915 50.96355 49.88135
# Shear Modulus (GPa) = 36.21713 38.61161 37.41437
#
# Velocity S-wave (km/s) = 3.97037 4.09952 4.03547
# Velocity P-wave (km/s) = 6.50068 6.67761 6.58974
#
# Compressibility (1/GPa) = 0.02049216
#
# Stress axis : x y z
#
# Youngs Moduli (GPa) = 76.06745 82.58410 133.51548
#
# Poissons Ratio (x) = 0.32399 0.15102
# Poissons Ratio (y) = 0.29843 0.14313
# Poissons Ratio (z) = 0.08604 0.08853
#
# Static dielectric constant tensor:
#      x y z
#    x 4.109000 -0.001080 -0.011850 
#    y -0.001080 4.789550 0.002570 
#    z -0.011850 0.002570 4.532270 
# 
# 
# High freq. dielectric constant tensor:
#      x y z
#    x 1.897820 0.000000 0.006490 
#    y 0.000000 1.916250 -0.000010 
#    z 0.006490 -0.000010 1.931160 
# 
# From -- ./inp_files/314147.got.cif
#   From: 2010.06.25/outbox.cif.g09.slc.cpg/sg15_158_cif.got.tgz:314147.got - 2010.06.28 07:06:18.
