data_PCOD8153662
_publ_section_title
;
Structure prediction by ZEFSAII (Michael W. Deem and Ramdas Pophale) SiO2 
 PCOD8153662
Probable space group: C 2/C
;
_chemical_formula_sum "Si O2"
_cell_formula_units_Z 48
_cell_length_a 13.541039
_cell_length_b 8.915842
_cell_length_c 17.499520
_cell_angle_alpha 90.000000
_cell_angle_beta 92.283635
_cell_angle_gamma 90.000000
_cell_volume 2111.035043
_symmetry_space_group_name_H-M "C 2/C"
_symmetry_group_IT_number 15
_symmetry_cell_setting 'monoclinic'
loop_
_space_group_symop_operation_xyz
x,y,z
-x,y,1/2-z
-x,-y,-z
x,-y,1/2+z
1/2+x,1/2+y,z
1/2-x,1/2+y,1/2-z
1/2-x,1/2-y,-z
1/2+x,1/2-y,1/2+z
loop_
_atom_site_type_symbol
_atom_site_label
_atom_site_fract_x
_atom_site_fract_y
_atom_site_fract_z
Si Si1 0.089347 0.864095 0.426323
Si Si2 0.099997 0.669062 0.710634
Si Si3 0.901432 0.468171 0.542644
Si Si4 0.219998 0.483365 0.602826
Si Si5 0.719820 0.160323 0.859511
Si Si6 0.399286 0.548781 0.397205
O O1 0.089129 0.686723 0.410945
O O2 0.175289 0.937228 0.377176
O O3 0.987066 0.929477 0.391832
O O4 0.107009 0.896136 0.516144
O O5 0.136775 0.528029 0.661684
O O6 0.187747 0.704744 0.773166
O O7 0.000000 0.620704 0.750000
O O8 0.079293 0.811294 0.656696
O O9 0.810635 0.459002 0.481434
O O10 0.879741 0.604838 0.600131
O O11 0.000000 0.500000 0.500000
O O12 0.232304 0.304746 0.599248
O O13 0.797958 0.025380 0.865598
#
# Coordination Sequence:
#
# PCOD8153662 Si02
#       6
#     8   8   8   8   8   8
#     4  11  24  43  74 104 139 180 241 300 348 418
#     4  12  26  47  68  98 144 194 232 293 369 426
#     4  12  24  41  68 105 139 182 237 298 346 419
#     4  12  24  44  70 104 140 187 237 294 354 421
#     4  12  26  43  69 106 143 186 235 290 361 431
#     4  11  24  45  71 104 139 187 236 292 361 420
#
# _framework density 22.737660999999999
#
# number of rings (size 3 to 8) (size 9 to 14) (size 15 to 20)
#    0.000    0.333    3.333    6.000    4.667    0.000 
#    0.000    0.833    0.000    0.000    0.000    0.000 
#    0.000    0.000    0.000    0.000    0.000    0.000 
#
# Total GULP energy -297754.226465 kJ/mol
# GULP energy per Si atom -12406.426103 kJ/mol
# Density = 2.268591 g / cm^3
# Si number density = 22.737661 Si / 1000 Ang^3
#
#
#
# Elastic Constant Matrix: (Units=GPa)
#
#
# Indices 1 2 3 4 5 6 
#
# 1 89.5048 53.5314 43.5041 0.0000 -12.4329 0.0000
# 2 53.5314 152.9462 33.3566 0.0000 -22.1141 0.0000
# 3 43.5041 33.3566 84.1595 0.0000 -4.1910 0.0000
# 4 0.0000 0.0000 0.0000 27.4692 0.0000 -1.3436
# 5 -12.4329 -22.1141 -4.1910 0.0000 46.5068 0.0000
# 6 0.0000 0.0000 0.0000 -1.3436 0.0000 45.3638
#
#
#
# Elastic Compliance Matrix: (Units=1/GPa)
#
#
# Indices 1 2 3 4 5 6 
#
# 1 0.017536 -0.004261 -0.007276 0.000000 0.002006 0.000000
# 2 -0.004261 0.008687 -0.001097 0.000000 0.002893 0.000000
# 3 -0.007276 -0.001097 0.016027 0.000000 -0.001022 0.000000
# 4 0.000000 0.000000 0.000000 0.036457 0.000000 0.001080
# 5 0.002006 0.002893 -0.001022 0.000000 0.023322 0.000000
# 6 0.000000 0.000000 0.000000 0.001080 0.000000 0.022076
#
#
# Mechanical properties :
#
#
# Convention : Reuss Voigt Hill
#
# Bulk Modulus (GPa) = 58.88134 65.26607 62.07370
# Shear Modulus (GPa) = 32.25110 36.94919 34.60014
#
# Velocity S-wave (km/s) = 3.77025 4.03553 3.90514
# Velocity P-wave (km/s) = 6.70114 7.10495 6.90599
#
# Compressibility (1/GPa) = 0.01698331
#
# Stress axis : x y z
#
# Youngs Moduli (GPa) = 57.02494 115.11575 62.39404
#
# Poissons Ratio (x) = 0.49047 0.45399
# Poissons Ratio (y) = 0.24297 0.06842
# Poissons Ratio (z) = 0.41493 0.12623
#
# Static dielectric constant tensor:
#      x y z
#    x 4.285120 0.000000 0.049870 
#    y 0.000000 4.092680 0.000000 
#    z 0.049870 0.000000 4.111260 
# 
# 
# High freq. dielectric constant tensor:
#      x y z
#    x 1.916990 0.000000 0.000290 
#    y 0.000000 1.900270 0.000000 
#    z 0.000290 0.000000 1.887030 
# 
# From -- ./inp_files/203012.got.cif
#   From: 2010.06.25/outbox.cif.g09.slc.cpg/sg15_102_cif.got.tgz:203012.got - 2010.06.28 07:06:18.
