data_PCOD8153014
_publ_section_title
;
Structure prediction by ZEFSAII (Michael W. Deem and Ramdas Pophale) SiO2 
 PCOD8153014
Probable space group: C 2/C
;
_chemical_formula_sum "Si O2"
_cell_formula_units_Z 40
_cell_length_a 11.526619
_cell_length_b 27.009734
_cell_length_c 9.258657
_cell_angle_alpha 90.000000
_cell_angle_beta 39.913763
_cell_angle_gamma 90.000000
_cell_volume 1849.513636
_symmetry_space_group_name_H-M "C 2/C"
_symmetry_group_IT_number 15
_symmetry_cell_setting 'monoclinic'
loop_
_space_group_symop_operation_xyz
x,y,z
-x,y,1/2-z
-x,-y,-z
x,-y,1/2+z
1/2+x,1/2+y,z
1/2-x,1/2+y,1/2-z
1/2-x,1/2-y,-z
1/2+x,1/2-y,1/2+z
loop_
_atom_site_type_symbol
_atom_site_label
_atom_site_fract_x
_atom_site_fract_y
_atom_site_fract_z
Si Si1 0.179500 0.954239 0.660286
Si Si2 0.500000 0.886820 0.250000
Si Si3 0.500000 0.871989 0.750000
Si Si4 0.322690 0.444768 0.498801
Si Si5 0.854556 0.782815 0.787395
Si Si6 0.496765 0.186791 0.524542
O O1 0.349603 0.919102 0.472690
O O2 0.140215 0.959126 0.869353
O O3 0.000000 0.934392 0.750000
O O4 0.233255 0.007145 0.540665
O O5 0.598060 0.849624 0.268979
O O6 0.663875 0.905211 0.647497
O O7 0.568933 0.834365 0.563288
O O8 0.500000 0.422176 0.250000
O O9 0.717089 0.818962 0.834577
O O10 0.000000 0.812279 0.750000
O O11 0.946316 0.744583 0.586100
O O12 0.750000 0.750000 0.000000
#
# Coordination Sequence:
#
# PCOD8153014 Si02
#       6
#     8   4   4   8   8   8
#     4  11  25  42  69  99 135 177 216 268 331 393
#     4  12  23  40  68 104 126 176 226 266 321 386
#     4  12  27  44  64 100 140 166 224 276 323 392
#     4  11  25  45  66  98 137 178 214 269 332 389
#     4   9  18  40  65  90 122 167 211 269 321 388
#     4  11  23  42  65  98 129 172 220 272 331 389
#
# _framework density 21.627306000000001
#
# number of rings (size 3 to 8) (size 9 to 14) (size 15 to 20)
#    0.000    1.200    5.000    3.000    5.600    3.200 
#    7.200    0.000    0.000    0.000    0.000    0.000 
#    0.000    0.000    0.000    0.000    0.000    0.000 
#
# Total GULP energy -247815.213434 kJ/mol
# GULP energy per Si atom -12390.760672 kJ/mol
# Density = 2.157808 g / cm^3
# Si number density = 21.627306 Si / 1000 Ang^3
#
#
#
# Elastic Constant Matrix: (Units=GPa)
#
#
# Indices 1 2 3 4 5 6 
#
# 1 101.6470 26.5853 34.2699 0.0000 25.6037 0.0000
# 2 26.5853 61.5200 23.9975 0.0000 5.3671 0.0000
# 3 34.2699 23.9975 92.3124 0.0000 22.0530 0.0000
# 4 0.0000 0.0000 0.0000 33.2819 0.0000 13.2367
# 5 25.6037 5.3671 22.0530 0.0000 50.8658 0.0000
# 6 0.0000 0.0000 0.0000 13.2367 0.0000 32.0896
#
#
#
# Elastic Compliance Matrix: (Units=1/GPa)
#
#
# Indices 1 2 3 4 5 6 
#
# 1 0.013067 -0.004211 -0.002556 0.000000 -0.005025 0.000000
# 2 -0.004211 0.019447 -0.003914 0.000000 0.001765 0.000000
# 3 -0.002556 -0.003914 0.013825 0.000000 -0.004294 0.000000
# 4 0.000000 0.000000 0.000000 0.035943 0.000000 -0.014826
# 5 -0.005025 0.001765 -0.004294 0.000000 0.023865 0.000000
# 6 0.000000 0.000000 0.000000 -0.014826 0.000000 0.037278
#
#
# Mechanical properties :
#
#
# Convention : Reuss Voigt Hill
#
# Bulk Modulus (GPa) = 40.03588 47.24278 43.63933
# Shear Modulus (GPa) = 28.88297 34.62258 31.75277
#
# Velocity S-wave (km/s) = 3.65839 4.00543 3.83584
# Velocity P-wave (km/s) = 6.03300 6.57896 6.31189
#
# Compressibility (1/GPa) = 0.02497759
#
# Stress axis : x y z
#
# Youngs Moduli (GPa) = 76.52986 51.42054 72.33343
#
# Poissons Ratio (x) = 0.21655 0.18486
# Poissons Ratio (y) = 0.32230 0.28309
# Poissons Ratio (z) = 0.19559 0.20124
#
# Static dielectric constant tensor:
#      x y z
#    x 4.296560 0.000000 -0.109080 
#    y 0.000000 4.453120 0.000000 
#    z -0.109080 0.000000 3.704050 
# 
# 
# High freq. dielectric constant tensor:
#      x y z
#    x 1.847920 0.000000 0.000710 
#    y 0.000000 1.842260 0.000000 
#    z 0.000710 0.000000 1.852320 
# 
# From -- ./inp_files/35012.got.cif
#   From: 2010.06.25/outbox.cif.g09.slc.cpg/sg15_18_cif.got.tgz:35012.got - 2010.06.28 07:06:18.
