data_PCOD8153505
_publ_section_title
;
Structure prediction by ZEFSAII (Michael W. Deem and Ramdas Pophale) SiO2 
 PCOD8153505
Probable space group: C 2/C
;
_chemical_formula_sum "Si O2"
_cell_formula_units_Z 56
_cell_length_a 22.174783
_cell_length_b 20.465381
_cell_length_c 17.619242
_cell_angle_alpha 90.000000
_cell_angle_beta 161.574122
_cell_angle_gamma 90.000000
_cell_volume 2527.319289
_symmetry_space_group_name_H-M "C 2/C"
_symmetry_group_IT_number 15
_symmetry_cell_setting 'monoclinic'
loop_
_space_group_symop_operation_xyz
x,y,z
-x,y,1/2-z
-x,-y,-z
x,-y,1/2+z
1/2+x,1/2+y,z
1/2-x,1/2+y,1/2-z
1/2-x,1/2-y,-z
1/2+x,1/2-y,1/2+z
loop_
_atom_site_type_symbol
_atom_site_label
_atom_site_fract_x
_atom_site_fract_y
_atom_site_fract_z
Si Si1 0.715786 0.099077 0.712736
Si Si2 0.953990 0.557079 0.278886
Si Si3 0.194961 0.058276 0.522081
Si Si4 0.069442 0.181408 0.121407
Si Si5 0.289997 0.824957 0.030422
Si Si6 0.884863 0.313041 0.873739
Si Si7 0.718323 0.688276 0.016086
O O1 0.650580 0.057471 0.562120
O O2 0.518934 0.126750 0.512493
O O3 0.821337 0.059934 0.905886
O O4 0.865755 0.150511 0.857414
O O5 0.851665 0.627622 0.152468
O O6 0.000000 0.533473 0.250000
O O7 0.832481 0.500952 0.170869
O O8 0.263885 0.129009 0.572592
O O9 0.000000 0.038376 0.250000
O O10 0.139013 0.153985 0.285614
O O11 0.231260 0.165071 0.252960
O O12 0.029935 0.258700 0.079083
O O13 0.500000 0.834305 0.250000
O O14 0.250000 0.750000 0.000000
O O15 0.768777 0.288254 0.661472
O O16 0.500000 0.665099 0.750000
O O17 0.750000 0.750000 0.000000
#
# Coordination Sequence:
#
# PCOD8153505 Si02
#       7
#     8   8   8   8   8   8   8
#     4  11  25  46  70 102 141 187 238 291 354 423
#     4  11  27  46  73 101 137 187 238 295 355 424
#     4  12  24  49  71  99 143 189 231 292 358 428
#     4  12  22  40  63 104 139 190 228 288 356 422
#     4  12  25  40  69 105 140 180 236 290 353 424
#     4  11  24  38  67 100 149 182 233 292 357 422
#     4  11  24  42  67 101 136 182 236 300 359 414
#
# _framework density 22.157865999999999
#
# number of rings (size 3 to 8) (size 9 to 14) (size 15 to 20)
#    0.000    0.571    2.857    5.571    6.000    0.000 
#    0.000    0.714    0.000    0.000    0.000    0.000 
#    0.000    0.000    0.000    0.000    0.000    0.000 
#
# Total GULP energy -347244.144572 kJ/mol
# GULP energy per Si atom -12401.576592 kJ/mol
# Density = 2.210743 g / cm^3
# Si number density = 22.157866 Si / 1000 Ang^3
#
#
#
# Elastic Constant Matrix: (Units=GPa)
#
#
# Indices 1 2 3 4 5 6 
#
# 1 101.6396 -0.1930 28.2951 -0.0016 -19.5338 -0.0001
# 2 -0.1930 71.0715 2.1598 -0.0013 -9.3967 0.0000
# 3 28.2951 2.1598 118.0464 -0.0044 -16.9553 -0.0007
# 4 -0.0016 -0.0013 -0.0044 22.1033 -0.0013 8.7322
# 5 -19.5338 -9.3967 -16.9553 -0.0013 52.1291 -0.0003
# 6 -0.0001 0.0000 -0.0007 8.7322 -0.0003 21.4977
#
#
#
# Elastic Compliance Matrix: (Units=1/GPa)
#
#
# Indices 1 2 3 4 5 6 
#
# 1 0.011128 0.000568 -0.002165 0.000001 0.003568 0.000000
# 2 0.000568 0.014444 0.000004 0.000001 0.002818 0.000000
# 3 -0.002165 0.000004 0.009309 0.000002 0.002217 0.000000
# 4 0.000001 0.000001 0.000002 0.053890 0.000002 -0.021889
# 5 0.003568 0.002818 0.002217 0.000002 0.021749 -0.000001
# 6 0.000000 0.000000 0.000000 -0.021889 -0.000001 0.055408
#
#
# Mechanical properties :
#
#
# Convention : Reuss Voigt Hill
#
# Bulk Modulus (GPa) = 31.55080 39.03125 35.29103
# Shear Modulus (GPa) = 27.82734 36.51239 32.16987
#
# Velocity S-wave (km/s) = 3.54767 4.06375 3.81445
# Velocity P-wave (km/s) = 5.57237 6.29858 5.94657
#
# Compressibility (1/GPa) = 0.03169492
#
# Stress axis : x y z
#
# Youngs Moduli (GPa) = 89.86108 69.23138 107.42728
#
# Poissons Ratio (x) = -0.03931 0.23261
# Poissons Ratio (y) = -0.05102 -0.00047
# Poissons Ratio (z) = 0.19458 -0.00030
#
# Static dielectric constant tensor:
#      x y z
#    x 3.983470 0.000000 -0.351780 
#    y 0.000000 3.706010 -0.000030 
#    z -0.351780 -0.000030 4.036230 
# 
# 
# High freq. dielectric constant tensor:
#      x y z
#    x 1.882540 0.000000 -0.011800 
#    y 0.000000 1.853850 0.000000 
#    z -0.011800 0.000000 1.894560 
# 
# From -- ./inp_files/216654.got.cif
#   From: 2010.06.25/outbox.cif.g09.slc.cpg/sg15_109_cif.got.tgz:216654.got - 2010.06.28 07:06:18.
