data_PCOD8153612
_publ_section_title
;
Structure prediction by ZEFSAII (Michael W. Deem and Ramdas Pophale) SiO2 
 PCOD8153612
Probable space group: C 2/C
;
_chemical_formula_sum "Si O2"
_cell_formula_units_Z 52
_cell_length_a 5.259690
_cell_length_b 26.568321
_cell_length_c 16.804502
_cell_angle_alpha 90.000000
_cell_angle_beta 108.897481
_cell_angle_gamma 90.000000
_cell_volume 2221.706896
_symmetry_space_group_name_H-M "C 2/C"
_symmetry_group_IT_number 15
_symmetry_cell_setting 'monoclinic'
loop_
_space_group_symop_operation_xyz
x,y,z
-x,y,1/2-z
-x,-y,-z
x,-y,1/2+z
1/2+x,1/2+y,z
1/2-x,1/2+y,1/2-z
1/2-x,1/2-y,-z
1/2+x,1/2-y,1/2+z
loop_
_atom_site_type_symbol
_atom_site_label
_atom_site_fract_x
_atom_site_fract_y
_atom_site_fract_z
Si Si1 0.500000 0.004440 0.750000
Si Si2 0.500000 0.378325 0.750000
Si Si3 0.167875 0.038456 0.961873
Si Si4 0.000000 0.311216 0.750000
Si Si5 0.861398 0.234442 0.596467
Si Si6 0.651306 0.405430 0.188686
Si Si7 0.922654 0.312196 0.159584
Si Si8 0.362402 0.951183 0.882175
O O1 0.757714 0.040224 0.770278
O O2 0.539770 0.964917 0.824333
O O3 0.262454 0.344844 0.761825
O O4 0.627003 0.411634 0.835369
O O5 0.016531 0.086141 0.909344
O O6 0.249347 0.004977 0.895685
O O7 0.423779 0.066164 0.029415
O O8 0.000000 0.000000 0.000000
O O9 0.070828 0.279639 0.836341
O O10 0.750000 0.250000 0.500000
O O11 0.647313 0.196747 0.615640
O O12 0.132175 0.205532 0.601606
O O13 0.500000 0.379113 0.250000
O O14 0.896630 0.371283 0.180006
O O15 0.000000 0.282979 0.250000
#
# Coordination Sequence:
#
# PCOD8153612 Si02
#       8
#     4   4   8   4   8   8   8   8
#     4  12  21  40  71  96 144 202 259 290 365 442
#     4  12  28  48  79 107 148 197 261 312 378 450
#     4  11  24  43  66 101 154 204 249 308 367 437
#     4  12  27  52  80 109 148 195 250 326 393 476
#     4  12  27  53  81 112 147 195 245 310 403 478
#     4  12  24  41  70 111 146 197 255 306 374 444
#     4  12  24  47  79 109 151 187 240 318 378 457
#     4  11  25  44  68 100 146 207 252 308 365 431
#
# _framework density 23.405428000000001
#
# number of rings (size 3 to 8) (size 9 to 14) (size 15 to 20)
#    0.000    0.308    5.385    3.692    2.154    1.231 
#    2.769    0.000    0.000    0.000    0.000    0.000 
#    0.000    0.000    0.000    0.000    0.000    0.000 
#
# Total GULP energy -322119.976381 kJ/mol
# GULP energy per Si atom -12389.229861 kJ/mol
# Density = 2.335216 g / cm^3
# Si number density = 23.405428 Si / 1000 Ang^3
#
#
#
# Elastic Constant Matrix: (Units=GPa)
#
#
# Indices 1 2 3 4 5 6 
#
# 1 117.2177 41.4307 45.2236 0.0000 18.3779 0.0000
# 2 41.4307 93.4599 61.7855 0.0000 12.5010 0.0000
# 3 45.2236 61.7855 168.3690 0.0000 20.2735 0.0000
# 4 0.0000 0.0000 0.0000 29.2120 0.0000 5.5664
# 5 18.3779 12.5010 20.2735 0.0000 46.5064 0.0000
# 6 0.0000 0.0000 0.0000 5.5664 0.0000 47.8825
#
#
#
# Elastic Compliance Matrix: (Units=1/GPa)
#
#
# Indices 1 2 3 4 5 6 
#
# 1 0.010694 -0.003557 -0.001238 0.000000 -0.002730 0.000000
# 2 -0.003557 0.015427 -0.004618 0.000000 -0.000728 0.000000
# 3 -0.001238 -0.004618 0.008188 0.000000 -0.001839 0.000000
# 4 0.000000 0.000000 0.000000 0.035008 0.000000 -0.004070
# 5 -0.002730 -0.000728 -0.001839 0.000000 0.023578 0.000000
# 6 0.000000 0.000000 0.000000 -0.004070 0.000000 0.021358
#
#
# Mechanical properties :
#
#
# Convention : Reuss Voigt Hill
#
# Bulk Modulus (GPa) = 64.58984 75.10292 69.84638
# Shear Modulus (GPa) = 36.16882 40.09397 38.13140
#
# Velocity S-wave (km/s) = 3.93532 4.14335 4.04068
# Velocity P-wave (km/s) = 6.95018 7.41939 7.18861
#
# Compressibility (1/GPa) = 0.01548231
#
# Stress axis : x y z
#
# Youngs Moduli (GPa) = 93.50927 64.82194 122.12892
#
# Poissons Ratio (x) = 0.23056 0.15125
# Poissons Ratio (y) = 0.33259 0.56400
# Poissons Ratio (z) = 0.11581 0.29935
#
# Static dielectric constant tensor:
#      x y z
#    x 4.261200 0.000000 0.383520 
#    y 0.000000 4.125050 0.000000 
#    z 0.383520 0.000000 4.325810 
# 
# 
# High freq. dielectric constant tensor:
#      x y z
#    x 1.942730 0.000000 0.015020 
#    y 0.000000 1.907560 0.000000 
#    z 0.015020 0.000000 1.942710 
# 
# From -- ./inp_files/130904.got.cif
#   From: 2010.06.25/outbox.cif.g09.slc.cpg/sg15_66_cif.got.tgz:130904.got - 2010.06.28 07:06:18.
