data_PCOD8153911
_publ_section_title
;
Structure prediction by ZEFSAII (Michael W. Deem and Ramdas Pophale) SiO2 
 PCOD8153911
Probable space group: C 2/C
;
_chemical_formula_sum "Si O2"
_cell_formula_units_Z 24
_cell_length_a 9.485632
_cell_length_b 11.089404
_cell_length_c 10.685219
_cell_angle_alpha 90.000000
_cell_angle_beta 69.946441
_cell_angle_gamma 90.000000
_cell_volume 1055.834250
_symmetry_space_group_name_H-M "C 2/C"
_symmetry_group_IT_number 15
_symmetry_cell_setting 'monoclinic'
loop_
_space_group_symop_operation_xyz
x,y,z
-x,y,1/2-z
-x,-y,-z
x,-y,1/2+z
1/2+x,1/2+y,z
1/2-x,1/2+y,1/2-z
1/2-x,1/2-y,-z
1/2+x,1/2-y,1/2+z
loop_
_atom_site_type_symbol
_atom_site_label
_atom_site_fract_x
_atom_site_fract_y
_atom_site_fract_z
Si Si1 0.386017 0.471780 0.191208
Si Si2 0.436740 0.080261 0.632257
Si Si3 0.104940 0.812654 0.984155
O O1 0.500000 0.540426 0.250000
O O2 0.241958 0.433285 0.313184
O O3 0.528706 0.349813 0.380655
O O4 0.339293 0.563234 0.096254
O O5 0.500000 0.045082 0.750000
O O6 0.471449 0.219734 0.590278
O O7 0.500000 0.000000 0.500000
O O8 0.250000 0.750000 0.000000
#
# Coordination Sequence:
#
# PCOD8153911 Si02
#       3
#     8   8   8
#     4  11  25  46  75 108 149 205 254 312 393 452
#     4  12  28  46  75 112 155 201 259 318 384 464
#     4  11  24  46  73 106 151 200 257 317 379 459
#
# _framework density 22.730839
#
# number of rings (size 3 to 8) (size 9 to 14) (size 15 to 20)
#    0.000    0.667    3.333    3.000    9.333    2.667 
#    0.000    0.000    0.000    0.000    0.000    0.000 
#    0.000    0.000    0.000    0.000    0.000    0.000 
#
# Total GULP energy -148756.601750 kJ/mol
# GULP energy per Si atom -12396.383479 kJ/mol
# Density = 2.267910 g / cm^3
# Si number density = 22.730839 Si / 1000 Ang^3
#
#
#
# Elastic Constant Matrix: (Units=GPa)
#
#
# Indices 1 2 3 4 5 6 
#
# 1 147.1059 56.5506 75.3876 0.0000 -15.0373 0.0000
# 2 56.5506 126.6609 69.9498 0.0000 -11.3108 0.0000
# 3 75.3876 69.9498 169.0258 0.0000 -15.2788 0.0000
# 4 0.0000 0.0000 0.0000 43.0220 0.0000 6.3494
# 5 -15.0373 -11.3108 -15.2788 0.0000 55.0011 0.0000
# 6 0.0000 0.0000 0.0000 6.3494 0.0000 37.9969
#
#
#
# Elastic Compliance Matrix: (Units=1/GPa)
#
#
# Indices 1 2 3 4 5 6 
#
# 1 0.009434 -0.002385 -0.003110 0.000000 0.001225 0.000000
# 2 -0.002385 0.010886 -0.003383 0.000000 0.000647 0.000000
# 3 -0.003110 -0.003383 0.008784 0.000000 0.000894 0.000000
# 4 0.000000 0.000000 0.000000 0.023832 0.000000 -0.003982
# 5 0.001225 0.000647 0.000894 0.000000 0.018898 0.000000
# 6 0.000000 0.000000 0.000000 -0.003982 0.000000 0.026983
#
#
# Mechanical properties :
#
#
# Convention : Reuss Voigt Hill
#
# Bulk Modulus (GPa) = 88.11902 94.06318 91.09110
# Shear Modulus (GPa) = 41.54404 43.26430 42.40417
#
# Velocity S-wave (km/s) = 4.27974 4.36745 4.32382
# Velocity P-wave (km/s) = 7.95437 8.17948 8.06771
#
# Compressibility (1/GPa) = 0.01134829
#
# Stress axis : x y z
#
# Youngs Moduli (GPa) = 106.00477 91.86185 113.84334
#
# Poissons Ratio (x) = 0.21910 0.35402
# Poissons Ratio (y) = 0.25283 0.38511
# Poissons Ratio (z) = 0.32965 0.31075
#
# Static dielectric constant tensor:
#      x y z
#    x 4.054140 0.000000 0.035790 
#    y 0.000000 4.133240 0.000000 
#    z 0.035790 0.000000 4.283430 
# 
# 
# High freq. dielectric constant tensor:
#      x y z
#    x 1.899480 0.000000 0.001330 
#    y 0.000000 1.894790 0.000000 
#    z 0.001330 0.000000 1.917160 
# 
# From -- ./inp_files/26939.got.cif
#   From: 2010.06.25/outbox.cif.g09.slc.cpg/sg15_14_cif.got.tgz:26939.got - 2010.06.28 07:06:18.
