data_PCOD8153347
_publ_section_title
;
Structure prediction by ZEFSAII (Michael W. Deem and Ramdas Pophale) SiO2 
 PCOD8153347
Probable space group: C 2/C
;
_chemical_formula_sum "Si O2"
_cell_formula_units_Z 44
_cell_length_a 8.119952
_cell_length_b 25.394132
_cell_length_c 10.948158
_cell_angle_alpha 90.000000
_cell_angle_beta 118.411566
_cell_angle_gamma 90.000000
_cell_volume 1985.590470
_symmetry_space_group_name_H-M "C 2/C"
_symmetry_group_IT_number 15
_symmetry_cell_setting 'monoclinic'
loop_
_space_group_symop_operation_xyz
x,y,z
-x,y,1/2-z
-x,-y,-z
x,-y,1/2+z
1/2+x,1/2+y,z
1/2-x,1/2+y,1/2-z
1/2-x,1/2-y,-z
1/2+x,1/2-y,1/2+z
loop_
_atom_site_type_symbol
_atom_site_label
_atom_site_fract_x
_atom_site_fract_y
_atom_site_fract_z
Si Si1 0.841159 0.145763 0.919178
Si Si2 0.321796 0.279098 0.898316
Si Si3 0.000000 0.289271 0.250000
Si Si4 0.500000 0.601234 0.750000
Si Si5 0.628185 0.949482 0.406110
Si Si6 0.000000 0.649066 0.250000
Si Si7 0.341797 0.937715 0.517981
O O1 0.652309 0.177393 0.877468
O O2 0.865572 0.137514 0.783159
O O3 0.812385 0.088434 0.974869
O O4 0.020721 0.177049 0.026167
O O5 0.397705 0.240112 0.823581
O O6 0.161139 0.310190 0.767340
O O7 0.250000 0.250000 0.000000
O O8 0.360498 0.566863 0.617452
O O9 0.500000 0.929300 0.250000
O O10 0.514879 0.945766 0.490110
O O11 0.683610 0.010762 0.405077
O O12 0.900802 0.614109 0.112093
#
# Coordination Sequence:
#
# PCOD8153347 Si02
#       7
#     8   8   4   4   8   4   8
#     4  12  24  44  74  98 142 186 237 293 363 427
#     4  12  28  47  71 106 144 190 247 303 361 429
#     4  12  26  45  71 104 140 184 244 304 358 424
#     4  12  22  45  71 106 138 193 233 290 356 438
#     4  11  23  45  71 104 141 189 234 291 360 436
#     4  12  26  48  74 102 150 189 235 300 366 420
#     4  11  25  45  73 103 149 184 236 291 364 428
#
# _framework density 22.159655999999998
#
# number of rings (size 3 to 8) (size 9 to 14) (size 15 to 20)
#    0.000    0.364    5.455    2.727    5.091    0.727 
#    6.545    0.000    0.000    0.000    0.000    0.000 
#    0.000    0.000    0.000    0.000    0.000    0.000 
#
# Total GULP energy -272585.383907 kJ/mol
# GULP energy per Si atom -12390.244723 kJ/mol
# Density = 2.210922 g / cm^3
# Si number density = 22.159656 Si / 1000 Ang^3
#
#
#
# Elastic Constant Matrix: (Units=GPa)
#
#
# Indices 1 2 3 4 5 6 
#
# 1 121.6031 67.4008 34.0591 0.0000 11.9953 0.0000
# 2 67.4008 134.1089 35.7130 0.0000 11.9324 0.0000
# 3 34.0591 35.7130 76.4806 0.0000 21.0021 0.0000
# 4 0.0000 0.0000 0.0000 14.3418 0.0000 -36.0349
# 5 11.9953 11.9324 21.0021 0.0000 48.8459 0.0000
# 6 0.0000 0.0000 0.0000 -36.0349 0.0000 1234.9184
#
#
#
# Elastic Compliance Matrix: (Units=1/GPa)
#
#
# Indices 1 2 3 4 5 6 
#
# 1 0.011935 -0.005225 -0.002745 0.000000 -0.000474 0.000000
# 2 -0.005225 0.010811 -0.002663 0.000000 -0.000213 0.000000
# 3 -0.002745 -0.002663 0.017209 0.000000 -0.006075 0.000000
# 4 0.000000 0.000000 0.000000 0.075243 0.000000 0.002196
# 5 -0.000474 -0.000213 -0.006075 0.000000 0.023253 0.000000
# 6 0.000000 0.000000 0.000000 0.002196 0.000000 0.000874
#
#
# Mechanical properties :
#
#
# Convention : Reuss Voigt Hill
#
# Bulk Modulus (GPa) = 53.50634 67.39317 60.44976
# Shear Modulus (GPa) = 29.97235 272.62254 151.29744
#
# Velocity S-wave (km/s) = 3.68171 11.10377 8.27190
# Velocity P-wave (km/s) = 6.50166 13.95959 10.88902
#
# Compressibility (1/GPa) = 0.01868937
#
# Stress axis : x y z
#
# Youngs Moduli (GPa) = 83.78517 92.50020 58.10860
#
# Poissons Ratio (x) = 0.48334 0.15950
# Poissons Ratio (y) = 0.43780 0.15473
# Poissons Ratio (z) = 0.22998 0.24630
#
# Static dielectric constant tensor:
#      x y z
#    x 4.203670 0.000000 0.122960 
#    y 0.000000 4.557310 0.000000 
#    z 0.122960 0.000000 3.772420 
# 
# 
# High freq. dielectric constant tensor:
#      x y z
#    x 1.886910 0.000000 0.009750 
#    y 0.000000 1.894710 0.000000 
#    z 0.009750 0.000000 1.856390 
# 
# From -- ./inp_files/80021.got.cif
#   From: 2010.06.25/outbox.cif.g09.slc.cpg/sg15_41_cif.got.tgz:80021.got - 2010.06.28 07:06:18.
