data_PCOD8153960
_publ_section_title
;
Structure prediction by ZEFSAII (Michael W. Deem and Ramdas Pophale) SiO2 
 PCOD8153960
Probable space group: C 2/C
;
_chemical_formula_sum "Si O2"
_cell_formula_units_Z 40
_cell_length_a 17.488334
_cell_length_b 5.222563
_cell_length_c 19.259872
_cell_angle_alpha 90.000000
_cell_angle_beta 106.903103
_cell_angle_gamma 90.000000
_cell_volume 1683.083680
_symmetry_space_group_name_H-M "C 2/C"
_symmetry_group_IT_number 15
_symmetry_cell_setting 'monoclinic'
loop_
_space_group_symop_operation_xyz
x,y,z
-x,y,1/2-z
-x,-y,-z
x,-y,1/2+z
1/2+x,1/2+y,z
1/2-x,1/2+y,1/2-z
1/2-x,1/2-y,-z
1/2+x,1/2-y,1/2+z
loop_
_atom_site_type_symbol
_atom_site_label
_atom_site_fract_x
_atom_site_fract_y
_atom_site_fract_z
Si Si1 0.115391 0.380606 0.575394
Si Si2 0.498329 0.436165 0.380051
Si Si3 0.904209 0.456854 0.084267
Si Si4 0.858936 0.227789 0.305556
Si Si5 0.268286 0.913808 0.151117
O O1 0.051886 0.143333 0.562766
O O2 0.105925 0.523999 0.499782
O O3 0.093358 0.570522 0.633271
O O4 0.206954 0.303429 0.611463
O O5 0.560381 0.670223 0.401878
O O6 0.424948 0.506301 0.308066
O O7 0.543774 0.181228 0.366296
O O8 0.817181 0.484103 0.095457
O O9 0.833428 0.322507 0.223916
O O10 0.779911 0.147710 0.327573
#
# Coordination Sequence:
#
# PCOD8153960 Si02
#       5
#     8   8   8   8   8
#     4  11  24  47  75 101 143 191 231 283 358 416
#     4  11  26  47  71 103 145 184 228 290 357 414
#     4  12  27  45  74 109 140 178 242 296 338 414
#     4  11  24  47  71  99 143 195 227 285 356 427
#     4  11  26  45  71 105 142 186 241 286 350 413
#
# _framework density 23.765903000000002
#
# number of rings (size 3 to 8) (size 9 to 14) (size 15 to 20)
#    0.000    0.800    4.000    1.800    8.400    1.600 
#    3.600    0.000    0.000    0.000    0.000    0.000 
#    0.000    0.000    0.000    0.000    0.000    0.000 
#
# Total GULP energy -247839.438959 kJ/mol
# GULP energy per Si atom -12391.971948 kJ/mol
# Density = 2.371181 g / cm^3
# Si number density = 23.765903 Si / 1000 Ang^3
#
#
#
# Elastic Constant Matrix: (Units=GPa)
#
#
# Indices 1 2 3 4 5 6 
#
# 1 72.9420 28.4746 2.3019 0.0001 -2.0039 -0.0001
# 2 28.4746 116.6380 20.3100 0.0001 10.0616 -0.0002
# 3 2.3019 20.3100 53.3508 0.0000 7.3818 0.0000
# 4 0.0001 0.0001 0.0000 24.8549 0.0000 8.3420
# 5 -2.0039 10.0616 7.3818 0.0000 20.8747 0.0001
# 6 -0.0001 -0.0002 0.0000 8.3420 0.0001 34.5326
#
#
#
# Elastic Compliance Matrix: (Units=1/GPa)
#
#
# Indices 1 2 3 4 5 6 
#
# 1 0.015395 -0.004121 0.000447 0.000000 0.003306 0.000000
# 2 -0.004121 0.010514 -0.003227 0.000000 -0.004323 0.000000
# 3 0.000447 -0.003227 0.020747 0.000000 -0.005738 0.000000
# 4 0.000000 0.000000 0.000000 0.043783 0.000000 -0.010577
# 5 0.003306 -0.004323 -0.005738 0.000000 0.052335 0.000000
# 6 0.000000 0.000000 0.000000 -0.010577 0.000000 0.031513
#
#
# Mechanical properties :
#
#
# Convention : Reuss Voigt Hill
#
# Bulk Modulus (GPa) = 30.43717 38.34485 34.39101
# Shear Modulus (GPa) = 25.12039 28.84207 26.98123
#
# Velocity S-wave (km/s) = 3.25467 3.48744 3.37306
# Velocity P-wave (km/s) = 5.19218 5.69085 5.44722
#
# Compressibility (1/GPa) = 0.03285457
#
# Stress axis : x y z
#
# Youngs Moduli (GPa) = 64.95554 95.10715 48.19979
#
# Poissons Ratio (x) = 0.39198 -0.02156
# Poissons Ratio (y) = 0.26771 0.15553
# Poissons Ratio (z) = -0.02905 0.30689
#
# Static dielectric constant tensor:
#      x y z
#    x 4.347440 0.000000 0.194560 
#    y 0.000000 4.267990 0.000000 
#    z 0.194560 0.000000 4.007750 
# 
# 
# High freq. dielectric constant tensor:
#      x y z
#    x 1.960150 0.000000 0.019720 
#    y 0.000000 1.941970 0.000000 
#    z 0.019720 0.000000 1.920310 
# 
# From -- ./inp_files/246300.got.cif
#   From: 2010.06.25/outbox.cif.g09.slc.cpg/sg15_124_cif.got.tgz:246300.got - 2010.06.28 07:06:18.
