data_PCOD8153049
_publ_section_title
;
Structure prediction by ZEFSAII (Michael W. Deem and Ramdas Pophale) SiO2 
 PCOD8153049
Probable space group: C 2/C
;
_chemical_formula_sum "Si O2"
_cell_formula_units_Z 48
_cell_length_a 11.268660
_cell_length_b 8.884552
_cell_length_c 21.461974
_cell_angle_alpha 90.000000
_cell_angle_beta 90.909012
_cell_angle_gamma 90.000000
_cell_volume 2148.437944
_symmetry_space_group_name_H-M "C 2/C"
_symmetry_group_IT_number 15
_symmetry_cell_setting 'monoclinic'
loop_
_space_group_symop_operation_xyz
x,y,z
-x,y,1/2-z
-x,-y,-z
x,-y,1/2+z
1/2+x,1/2+y,z
1/2-x,1/2+y,1/2-z
1/2-x,1/2-y,-z
1/2+x,1/2-y,1/2+z
loop_
_atom_site_type_symbol
_atom_site_label
_atom_site_fract_x
_atom_site_fract_y
_atom_site_fract_z
Si Si1 0.517071 0.637949 0.877629
Si Si2 0.284344 0.673510 0.936462
Si Si3 0.063297 0.624196 0.685275
Si Si4 0.139255 0.541427 0.367913
Si Si5 0.138778 0.945387 0.707627
Si Si6 0.208161 0.069316 0.344620
O O1 0.426574 0.647871 0.935216
O O2 0.439730 0.588768 0.815574
O O3 0.622415 0.519009 0.892136
O O4 0.583783 0.794377 0.869274
O O5 0.218698 0.511351 0.928368
O O6 0.248411 0.776211 0.876486
O O7 0.250000 0.750000 0.000000
O O8 0.092958 0.797150 0.671775
O O9 0.180667 0.527295 0.676276
O O10 0.000000 0.588066 0.750000
O O11 0.967784 0.577421 0.632842
O O12 0.223398 0.528316 0.307906
O O13 0.128196 0.908561 0.781228
#
# Coordination Sequence:
#
# PCOD8153049 Si02
#       6
#     8   8   8   8   8   8
#     4  11  24  43  67  98 130 169 221 281 334 401
#     4  11  27  48  69  93 130 185 235 278 328 388
#     4  12  22  38  64  96 137 177 208 268 345 414
#     4  11  23  42  68  99 133 170 222 272 333 403
#     4  11  24  39  66 101 140 171 210 269 350 411
#     4  12  24  41  66  98 136 177 217 276 338 399
#
# _framework density 22.341813999999999
#
# number of rings (size 3 to 8) (size 9 to 14) (size 15 to 20)
#    0.000    0.667    5.000    3.500    2.333    4.000 
#    0.000    0.833    0.000    0.000    0.000    0.000 
#    0.000    0.000    0.000    0.000    0.000    0.000 
#
# Total GULP energy -297463.089052 kJ/mol
# GULP energy per Si atom -12394.295377 kJ/mol
# Density = 2.229096 g / cm^3
# Si number density = 22.341814 Si / 1000 Ang^3
#
#
#
# Elastic Constant Matrix: (Units=GPa)
#
#
# Indices 1 2 3 4 5 6 
#
# 1 126.0923 51.1903 6.7534 0.0000 -25.8065 0.0000
# 2 51.1903 119.3366 6.9044 0.0000 2.1368 0.0000
# 3 6.7534 6.9044 44.0108 0.0000 -11.9916 0.0000
# 4 0.0000 0.0000 0.0000 19.2688 0.0000 1.4539
# 5 -25.8065 2.1368 -11.9916 0.0000 25.0880 0.0000
# 6 0.0000 0.0000 0.0000 1.4539 0.0000 56.6436
#
#
#
# Elastic Compliance Matrix: (Units=1/GPa)
#
#
# Indices 1 2 3 4 5 6 
#
# 1 0.013621 -0.006322 0.003295 0.000000 0.016125 0.000000
# 2 -0.006322 0.011444 -0.003291 0.000000 -0.009051 0.000000
# 3 0.003295 -0.003291 0.027286 0.000000 0.016712 0.000000
# 4 0.000000 0.000000 0.000000 0.051998 0.000000 -0.001335
# 5 0.016125 -0.009051 0.016712 0.000000 0.065205 0.000000
# 6 0.000000 0.000000 0.000000 -0.001335 0.000000 0.017688
#
#
# Mechanical properties :
#
#
# Convention : Reuss Voigt Hill
#
# Bulk Modulus (GPa) = 25.17995 46.57066 35.87530
# Shear Modulus (GPa) = 23.46125 35.17287 29.31706
#
# Velocity S-wave (km/s) = 3.24405 3.97206 3.62637
# Velocity P-wave (km/s) = 5.03255 6.47504 5.79883
#
# Compressibility (1/GPa) = 0.03971414
#
# Stress axis : x y z
#
# Youngs Moduli (GPa) = 73.41624 87.38124 36.64896
#
# Poissons Ratio (x) = 0.55244 -0.12076
# Poissons Ratio (y) = 0.46415 0.12063
# Poissons Ratio (z) = -0.24192 0.28761
#
# Static dielectric constant tensor:
#      x y z
#    x 4.566670 0.000000 -0.219660 
#    y 0.000000 4.115470 0.000000 
#    z -0.219660 0.000000 3.485830 
# 
# 
# High freq. dielectric constant tensor:
#      x y z
#    x 1.920130 0.000000 -0.022470 
#    y 0.000000 1.889790 0.000000 
#    z -0.022470 0.000000 1.821000 
# 
# From -- ./inp_files/267666.got.cif
#   From: 2010.06.25/outbox.cif.g09.slc.cpg/sg15_134_cif.got.tgz:267666.got - 2010.06.28 07:06:18.
