data_PCOD8153590
_publ_section_title
;
Structure prediction by ZEFSAII (Michael W. Deem and Ramdas Pophale) SiO2 
 PCOD8153590
Probable space group: C 2/C
;
_chemical_formula_sum "Si O2"
_cell_formula_units_Z 52
_cell_length_a 9.095685
_cell_length_b 20.970389
_cell_length_c 16.666998
_cell_angle_alpha 90.000000
_cell_angle_beta 132.671527
_cell_angle_gamma 90.000000
_cell_volume 2337.411676
_symmetry_space_group_name_H-M "C 2/C"
_symmetry_group_IT_number 15
_symmetry_cell_setting 'monoclinic'
loop_
_space_group_symop_operation_xyz
x,y,z
-x,y,1/2-z
-x,-y,-z
x,-y,1/2+z
1/2+x,1/2+y,z
1/2-x,1/2+y,1/2-z
1/2-x,1/2-y,-z
1/2+x,1/2-y,1/2+z
loop_
_atom_site_type_symbol
_atom_site_label
_atom_site_fract_x
_atom_site_fract_y
_atom_site_fract_z
Si Si1 0.500000 0.327153 0.250000
Si Si2 0.253249 0.782885 0.916510
Si Si3 0.000000 0.316757 0.250000
Si Si4 0.805051 0.968043 0.777203
Si Si5 0.452923 0.223877 0.104463
Si Si6 0.272677 0.577245 0.087533
Si Si7 0.127205 0.594696 0.656748
Si Si8 0.000000 0.382881 0.750000
O O1 0.548065 0.282233 0.191070
O O2 0.698539 0.371945 0.332154
O O3 0.461410 0.798436 0.950717
O O4 0.141314 0.850304 0.885570
O O5 0.180436 0.732664 0.823644
O O6 0.250000 0.750000 0.000000
O O7 0.021439 0.356297 0.177265
O O8 0.743807 0.940572 0.668648
O O9 0.690976 0.927415 0.802445
O O10 0.045652 0.965254 0.882510
O O11 0.730772 0.040997 0.750418
O O12 0.437901 0.160432 0.151994
O O13 0.250000 0.250000 0.000000
O O14 0.057993 0.567367 0.964667
#
# Coordination Sequence:
#
# PCOD8153590 Si02
#       8
#     4   8   4   8   8   8   8   4
#     4  11  24  42  70 104 144 175 226 292 348 417
#     4  12  24  42  71 100 135 179 233 288 347 418
#     4  12  25  42  68 102 141 174 238 284 346 426
#     4  11  25  46  69 102 140 186 239 286 335 419
#     4  11  25  42  68 103 139 180 223 289 363 405
#     4  11  24  46  74 100 136 189 241 280 348 422
#     4  12  25  47  70 102 142 191 231 287 348 417
#     4  11  25  44  68 102 147 175 232 296 342 411
#
# _framework density 22.246831
#
# number of rings (size 3 to 8) (size 9 to 14) (size 15 to 20)
#    0.000    0.615    4.615    3.692    2.154    0.000 
#    0.000    1.538    0.000    0.000    0.000    0.000 
#    0.000    0.000    0.000    0.000    0.000    0.000 
#
# Total GULP energy -322104.173299 kJ/mol
# GULP energy per Si atom -12388.622050 kJ/mol
# Density = 2.219620 g / cm^3
# Si number density = 22.246831 Si / 1000 Ang^3
#
#
#
# Elastic Constant Matrix: (Units=GPa)
#
#
# Indices 1 2 3 4 5 6 
#
# 1 121.1425 23.0485 26.9515 0.0000 6.0266 0.0000
# 2 23.0485 111.0705 12.2912 0.0000 14.6314 0.0000
# 3 26.9515 12.2912 83.2290 0.0000 21.6206 0.0000
# 4 0.0000 0.0000 0.0000 32.5467 0.0000 6.5498
# 5 6.0266 14.6314 21.6206 0.0000 36.7366 0.0000
# 6 0.0000 0.0000 0.0000 6.5498 0.0000 24.9190
#
#
#
# Elastic Compliance Matrix: (Units=1/GPa)
#
#
# Indices 1 2 3 4 5 6 
#
# 1 0.009192 -0.001700 -0.002963 0.000000 0.000913 0.000000
# 2 -0.001700 0.009834 0.000051 0.000000 -0.003668 0.000000
# 3 -0.002963 0.000051 0.015164 0.000000 -0.008459 0.000000
# 4 0.000000 0.000000 0.000000 0.032441 0.000000 -0.008527
# 5 0.000913 -0.003668 -0.008459 0.000000 0.033510 0.000000
# 6 0.000000 0.000000 0.000000 -0.008527 0.000000 0.042371
#
#
# Mechanical properties :
#
#
# Convention : Reuss Voigt Hill
#
# Bulk Modulus (GPa) = 40.05319 48.89160 44.47239
# Shear Modulus (GPa) = 31.23884 35.71719 33.47801
#
# Velocity S-wave (km/s) = 3.75132 4.01121 3.88344
# Velocity P-wave (km/s) = 6.06682 6.59376 6.33577
#
# Compressibility (1/GPa) = 0.02496680
#
# Stress axis : x y z
#
# Youngs Moduli (GPa) = 108.79204 101.69297 65.94459
#
# Poissons Ratio (x) = 0.17286 0.19537
# Poissons Ratio (y) = 0.18492 -0.00336
# Poissons Ratio (z) = 0.32231 -0.00518
#
# Static dielectric constant tensor:
#      x y z
#    x 3.749470 0.000000 0.300000 
#    y 0.000000 6.359820 0.000000 
#    z 0.300000 0.000000 3.418970 
# 
# 
# High freq. dielectric constant tensor:
#      x y z
#    x 1.883150 0.000000 0.002720 
#    y 0.000000 1.892170 0.000000 
#    z 0.002720 0.000000 1.863640 
# 
# From -- ./inp_files/192644.got.cif
#   From: 2010.06.25/outbox.cif.g09.slc.cpg/sg15_97_cif.got.tgz:192644.got - 2010.06.28 07:06:18.
