data_PCOD8153487
_publ_section_title
;
Structure prediction by ZEFSAII (Michael W. Deem and Ramdas Pophale) SiO2 
 PCOD8153487
Probable space group: C 2/C
;
_chemical_formula_sum "Si O2"
_cell_formula_units_Z 36
_cell_length_a 27.847081
_cell_length_b 6.539149
_cell_length_c 28.138674
_cell_angle_alpha 90.000000
_cell_angle_beta 160.295161
_cell_angle_gamma 90.000000
_cell_volume 1727.665297
_symmetry_space_group_name_H-M "C 2/C"
_symmetry_group_IT_number 15
_symmetry_cell_setting 'monoclinic'
loop_
_space_group_symop_operation_xyz
x,y,z
-x,y,1/2-z
-x,-y,-z
x,-y,1/2+z
1/2+x,1/2+y,z
1/2-x,1/2+y,1/2-z
1/2-x,1/2-y,-z
1/2+x,1/2-y,1/2+z
loop_
_atom_site_type_symbol
_atom_site_label
_atom_site_fract_x
_atom_site_fract_y
_atom_site_fract_z
Si Si1 0.854942 0.138147 0.062388
Si Si2 0.893486 0.521519 0.832534
Si Si3 0.593986 0.303317 0.078128
Si Si4 0.500000 0.717706 0.750000
Si Si5 0.399259 0.044919 0.729750
O O1 0.998035 0.265766 0.187147
O O2 0.889719 0.919995 0.117913
O O3 0.750000 0.250000 0.000000
O O4 0.766236 0.111903 0.930687
O O5 0.747080 0.643701 0.700057
O O6 0.884011 0.306929 0.850866
O O7 0.926384 0.471520 0.808525
O O8 0.021528 0.655501 0.972550
O O9 0.500000 0.500000 0.000000
O O10 0.419800 0.856577 0.713489
#
# Coordination Sequence:
#
# PCOD8153487 Si02
#       5
#     8   8   8   4   8
#     4  12  23  47  65  94 142 176 217 281 326 383
#     4  11  25  44  71 100 131 175 224 271 337 396
#     4  11  23  48  69  95 138 172 216 285 332 393
#     4  12  24  44  68  94 140 176 220 268 330 392
#     4  12  26  42  71 101 130 179 224 270 330 401
#
# _framework density 20.837368000000001
#
# number of rings (size 3 to 8) (size 9 to 14) (size 15 to 20)
#    0.000    0.444    6.667    2.000    0.000    3.556 
#    0.000    0.000    0.000    0.000    0.000    0.000 
#    0.000    0.000    0.000    0.000    0.000    0.000 
#
# Total GULP energy -223262.526987 kJ/mol
# GULP energy per Si atom -12403.473722 kJ/mol
# Density = 2.078994 g / cm^3
# Si number density = 20.837368 Si / 1000 Ang^3
#
#
#
# Elastic Constant Matrix: (Units=GPa)
#
#
# Indices 1 2 3 4 5 6 
#
# 1 128.4933 48.4082 47.6821 0.0005 -21.0501 0.0003
# 2 48.4082 112.6713 48.1480 0.0142 0.4644 0.0023
# 3 47.6821 48.1480 140.6462 0.0016 -6.0825 0.0009
# 4 0.0005 0.0142 0.0016 41.3385 -0.0005 -4.7664
# 5 -21.0501 0.4644 -6.0825 -0.0005 33.5532 -0.0011
# 6 0.0003 0.0023 0.0009 -4.7664 -0.0011 21.2899
#
#
#
# Elastic Compliance Matrix: (Units=1/GPa)
#
#
# Indices 1 2 3 4 5 6 
#
# 1 0.011138 -0.003891 -0.002156 0.000001 0.006651 0.000001
# 2 -0.003891 0.011777 -0.002847 -0.000004 -0.003120 -0.000002
# 3 -0.002156 -0.002847 0.008828 0.000001 0.000287 0.000000
# 4 0.000001 -0.000004 0.000001 0.024832 0.000002 0.005559
# 5 0.006651 -0.003120 0.000287 0.000002 0.034071 0.000002
# 6 0.000001 -0.000002 0.000000 0.005559 0.000002 0.048215
#
#
# Mechanical properties :
#
#
# Convention : Reuss Voigt Hill
#
# Bulk Modulus (GPa) = 71.66767 74.47637 73.07202
# Shear Modulus (GPa) = 30.99766 35.07448 33.03607
#
# Velocity S-wave (km/s) = 3.86113 4.10719 3.98606
# Velocity P-wave (km/s) = 7.37199 7.63619 7.50525
#
# Compressibility (1/GPa) = 0.01395329
#
# Stress axis : x y z
#
# Youngs Moduli (GPa) = 89.78054 84.91213 113.27305
#
# Poissons Ratio (x) = 0.33043 0.24425
# Poissons Ratio (y) = 0.34937 0.32252
# Poissons Ratio (z) = 0.19360 0.24177
#
# Static dielectric constant tensor:
#      x y z
#    x 3.780580 0.000050 -0.340130 
#    y 0.000050 4.118980 -0.000150 
#    z -0.340130 -0.000150 4.695110 
# 
# 
# High freq. dielectric constant tensor:
#      x y z
#    x 1.807090 0.000000 -0.009160 
#    y 0.000000 1.822860 0.000000 
#    z -0.009160 0.000000 1.843610 
# 
# From -- ./inp_files/120573.got.cif
#   From: 2010.06.25/outbox.cif.g09.slc.cpg/sg15_61_cif.got.tgz:120573.got - 2010.06.28 07:06:18.
