data_PCOD8153174
_publ_section_title
;
Structure prediction by ZEFSAII (Michael W. Deem and Ramdas Pophale) SiO2 
 PCOD8153174
Probable space group: C 2/C
;
_chemical_formula_sum "Si O2"
_cell_formula_units_Z 52
_cell_length_a 10.160888
_cell_length_b 25.405035
_cell_length_c 10.958524
_cell_angle_alpha 90.000000
_cell_angle_beta 63.586946
_cell_angle_gamma 90.000000
_cell_volume 2533.510271
_symmetry_space_group_name_H-M "C 2/C"
_symmetry_group_IT_number 15
_symmetry_cell_setting 'monoclinic'
loop_
_space_group_symop_operation_xyz
x,y,z
-x,y,1/2-z
-x,-y,-z
x,-y,1/2+z
1/2+x,1/2+y,z
1/2-x,1/2+y,1/2-z
1/2-x,1/2-y,-z
1/2+x,1/2-y,1/2+z
loop_
_atom_site_type_symbol
_atom_site_label
_atom_site_fract_x
_atom_site_fract_y
_atom_site_fract_z
Si Si1 0.000000 0.126263 0.750000
Si Si2 0.719668 0.197643 0.856007
Si Si3 0.487654 0.437975 0.016610
Si Si4 0.260841 0.088295 0.256196
Si Si5 0.824544 0.422539 0.451699
Si Si6 0.345504 0.193140 0.350291
Si Si7 0.000000 0.663191 0.750000
Si Si8 0.000000 0.492070 0.750000
O O1 0.133684 0.164455 0.733755
O O2 0.043143 0.087335 0.621076
O O3 0.731943 0.260002 0.874155
O O4 0.611777 0.197047 0.784724
O O5 0.655839 0.173389 0.008496
O O6 0.592091 0.415054 0.868257
O O7 0.500000 0.500000 0.000000
O O8 0.316792 0.423899 0.077012
O O9 0.319942 0.144813 0.270378
O O10 0.362484 0.042781 0.268410
O O11 0.263560 0.080267 0.111828
O O12 0.936144 0.471507 0.385432
O O13 0.913073 0.370328 0.385255
O O14 0.500000 0.218240 0.250000
#
# Coordination Sequence:
#
# PCOD8153174 Si02
#       8
#     4   8   8   8   8   8   4   4
#     4  12  24  47  72  92 140 183 228 272 344 410
#     4  11  24  46  72  99 131 180 229 275 344 408
#     4  12  26  42  65  97 133 183 224 278 335 408
#     4  12  24  42  66  98 134 174 224 283 340 395
#     4  11  25  43  63  97 136 173 226 278 337 400
#     4  11  23  43  71 100 131 174 227 282 335 411
#     4  11  24  46  70  96 136 178 220 285 334 402
#     4  11  24  41  68  94 132 185 224 271 338 410
#
# _framework density 20.524882999999999
#
# number of rings (size 3 to 8) (size 9 to 14) (size 15 to 20)
#    0.000    0.615    6.154    1.846    2.154    0.000 
#    2.769    1.538    0.000    0.000    0.000    0.000 
#    0.000    0.000    0.000    0.000    0.000    0.000 
#
# Total GULP energy -322356.691411 kJ/mol
# GULP energy per Si atom -12398.334285 kJ/mol
# Density = 2.047817 g / cm^3
# Si number density = 20.524883 Si / 1000 Ang^3
#
#
#
# Elastic Constant Matrix: (Units=GPa)
#
#
# Indices 1 2 3 4 5 6 
#
# 1 101.3781 34.3579 26.0085 0.0000 2.0705 0.0000
# 2 34.3579 97.4213 41.5680 0.0000 14.3005 0.0000
# 3 26.0085 41.5680 121.4535 0.0000 -3.2784 0.0000
# 4 0.0000 0.0000 0.0000 24.1233 0.0000 -6.1879
# 5 2.0705 14.3005 -3.2784 0.0000 38.2890 0.0000
# 6 0.0000 0.0000 0.0000 -6.1879 0.0000 19.9471
#
#
#
# Elastic Compliance Matrix: (Units=1/GPa)
#
#
# Indices 1 2 3 4 5 6 
#
# 1 0.011375 -0.003597 -0.001188 0.000000 0.000627 0.000000
# 2 -0.003597 0.014130 -0.004213 0.000000 -0.005443 0.000000
# 3 -0.001188 -0.004213 0.009997 0.000000 0.002494 0.000000
# 4 0.000000 0.000000 0.000000 0.045038 0.000000 0.013971
# 5 0.000627 -0.005443 0.002494 0.000000 0.028330 0.000000
# 6 0.000000 0.000000 0.000000 0.013971 0.000000 0.054467
#
#
# Mechanical properties :
#
#
# Convention : Reuss Voigt Hill
#
# Bulk Modulus (GPa) = 57.11985 58.23575 57.67780
# Shear Modulus (GPa) = 26.71419 31.02646 28.87032
#
# Velocity S-wave (km/s) = 3.61162 3.89221 3.75454
# Velocity P-wave (km/s) = 6.72917 6.97380 6.85258
#
# Compressibility (1/GPa) = 0.01750705
#
# Stress axis : x y z
#
# Youngs Moduli (GPa) = 87.91205 70.77295 100.02889
#
# Poissons Ratio (x) = 0.25455 0.11883
# Poissons Ratio (y) = 0.31620 0.42139
# Poissons Ratio (z) = 0.10444 0.29814
#
# Static dielectric constant tensor:
#      x y z
#    x 6.692490 0.000000 -1.442700 
#    y 0.000000 3.659590 0.000000 
#    z -1.442700 0.000000 4.451530 
# 
# 
# High freq. dielectric constant tensor:
#      x y z
#    x 1.802030 0.000000 -0.012710 
#    y 0.000000 1.806680 0.000000 
#    z -0.012710 0.000000 1.816010 
# 
# From -- ./inp_files/80672.got.cif
#   From: 2010.06.25/outbox.cif.g09.slc.cpg/sg15_41_cif.got.tgz:80672.got - 2010.06.28 07:06:18.
