data_PCOD8153635
_publ_section_title
;
Structure prediction by ZEFSAII (Michael W. Deem and Ramdas Pophale) SiO2 
 PCOD8153635
Probable space group: C 2/C
;
_chemical_formula_sum "Si O2"
_cell_formula_units_Z 48
_cell_length_a 11.345268
_cell_length_b 15.919655
_cell_length_c 14.563690
_cell_angle_alpha 90.000000
_cell_angle_beta 58.099206
_cell_angle_gamma 90.000000
_cell_volume 2233.105793
_symmetry_space_group_name_H-M "C 2/C"
_symmetry_group_IT_number 15
_symmetry_cell_setting 'monoclinic'
loop_
_space_group_symop_operation_xyz
x,y,z
-x,y,1/2-z
-x,-y,-z
x,-y,1/2+z
1/2+x,1/2+y,z
1/2-x,1/2+y,1/2-z
1/2-x,1/2-y,-z
1/2+x,1/2-y,1/2+z
loop_
_atom_site_type_symbol
_atom_site_label
_atom_site_fract_x
_atom_site_fract_y
_atom_site_fract_z
Si Si1 0.629925 0.346633 0.878971
Si Si2 0.595485 0.177909 0.132224
Si Si3 0.885732 0.689160 0.723850
Si Si4 0.618631 0.066877 0.944035
Si Si5 0.930945 0.837783 0.122148
Si Si6 0.123721 0.995186 0.753886
O O1 0.754958 0.302330 0.884298
O O2 0.585012 0.284634 0.816362
O O3 0.676892 0.435188 0.814525
O O4 0.497104 0.361146 0.997503
O O5 0.500000 0.134113 0.250000
O O6 0.517291 0.262631 0.133798
O O7 0.625855 0.115944 0.036532
O O8 0.908568 0.630621 0.626873
O O9 0.730234 0.684486 0.828660
O O10 0.000000 0.660095 0.750000
O O11 0.756896 0.014133 0.868547
O O12 0.500000 0.000000 0.000000
O O13 0.940773 0.918597 0.181969
O O14 0.000000 0.948746 0.750000
#
# Coordination Sequence:
#
# PCOD8153635 Si02
#       6
#     8   8   8   8   8   8
#     4  12  24  42  71 103 139 191 235 291 359 420
#     4  12  23  43  75 102 138 182 246 291 350 427
#     4  11  26  45  68 101 143 185 235 293 360 432
#     4  11  26  45  69 102 140 187 234 295 358 423
#     4  11  24  43  70 103 137 187 240 295 351 422
#     4  11  25  43  66 104 147 183 237 297 357 423
#
# _framework density 21.494727000000001
#
# number of rings (size 3 to 8) (size 9 to 14) (size 15 to 20)
#    0.000    0.667    3.333    4.000    2.333    5.333 
#    0.000    0.000    0.000    0.000    0.000    0.000 
#    0.000    0.000    0.000    0.000    0.000    0.000 
#
# Total GULP energy -297657.019019 kJ/mol
# GULP energy per Si atom -12402.375792 kJ/mol
# Density = 2.144580 g / cm^3
# Si number density = 21.494727 Si / 1000 Ang^3
#
#
#
# Elastic Constant Matrix: (Units=GPa)
#
#
# Indices 1 2 3 4 5 6 
#
# 1 132.8096 44.5433 54.7111 0.0000 -4.0986 0.0000
# 2 44.5433 104.4192 54.5611 0.0000 -9.3283 0.0000
# 3 54.7111 54.5611 177.3702 0.0000 -18.4071 0.0000
# 4 0.0000 0.0000 0.0000 22.4017 0.0000 -1.4052
# 5 -4.0986 -9.3283 -18.4071 0.0000 34.8478 0.0000
# 6 0.0000 0.0000 0.0000 -1.4052 0.0000 18.9874
#
#
#
# Elastic Compliance Matrix: (Units=1/GPa)
#
#
# Indices 1 2 3 4 5 6 
#
# 1 0.009351 -0.002990 -0.002046 0.000000 -0.000781 0.000000
# 2 -0.002990 0.012420 -0.002740 0.000000 0.001526 0.000000
# 3 -0.002046 -0.002740 0.007417 0.000000 0.002944 0.000000
# 4 0.000000 0.000000 0.000000 0.044848 0.000000 0.003319
# 5 -0.000781 0.001526 0.002944 0.000000 0.030568 0.000000
# 6 0.000000 0.000000 0.000000 0.003319 0.000000 0.052912
#
#
# Mechanical properties :
#
#
# Convention : Reuss Voigt Hill
#
# Bulk Modulus (GPa) = 73.32798 80.24778 76.78788
# Shear Modulus (GPa) = 28.15107 32.63294 30.39200
#
# Velocity S-wave (km/s) = 3.62287 3.90061 3.76430
# Velocity P-wave (km/s) = 7.18948 7.59613 7.39560
#
# Compressibility (1/GPa) = 0.01363736
#
# Stress axis : x y z
#
# Youngs Moduli (GPa) = 106.94080 80.51401 134.81963
#
# Poissons Ratio (x) = 0.24072 0.27581
# Poissons Ratio (y) = 0.31973 0.36941
# Poissons Ratio (z) = 0.21877 0.22061
#
# Static dielectric constant tensor:
#      x y z
#    x 4.397820 0.000000 0.174360 
#    y 0.000000 6.902760 0.000000 
#    z 0.174360 0.000000 4.382210 
# 
# 
# High freq. dielectric constant tensor:
#      x y z
#    x 1.842650 0.000000 -0.008280 
#    y 0.000000 1.844870 0.000000 
#    z -0.008280 0.000000 1.865610 
# 
# From -- ./inp_files/144069.got.cif
#   From: 2010.06.25/outbox.cif.g09.slc.cpg/sg15_73_cif.got.tgz:144069.got - 2010.06.28 07:06:18.
