data_PCOD8153320
_publ_section_title
;
Structure prediction by ZEFSAII (Michael W. Deem and Ramdas Pophale) SiO2 
 PCOD8153320
Probable space group: C 2/C
;
_chemical_formula_sum "Si O2"
_cell_formula_units_Z 32
_cell_length_a 9.988814
_cell_length_b 9.540131
_cell_length_c 17.909673
_cell_angle_alpha 90.000000
_cell_angle_beta 62.149983
_cell_angle_gamma 90.000000
_cell_volume 1509.014510
_symmetry_space_group_name_H-M "C 2/C"
_symmetry_group_IT_number 15
_symmetry_cell_setting 'monoclinic'
loop_
_space_group_symop_operation_xyz
x,y,z
-x,y,1/2-z
-x,-y,-z
x,-y,1/2+z
1/2+x,1/2+y,z
1/2-x,1/2+y,1/2-z
1/2-x,1/2-y,-z
1/2+x,1/2-y,1/2+z
loop_
_atom_site_type_symbol
_atom_site_label
_atom_site_fract_x
_atom_site_fract_y
_atom_site_fract_z
Si Si1 0.655334 0.079800 0.452082
Si Si2 0.587063 0.301897 0.805166
Si Si3 0.832339 0.075892 0.776319
Si Si4 0.403661 0.371502 0.994074
O O1 0.622248 0.244536 0.439511
O O2 0.741888 0.069692 0.509126
O O3 0.500000 0.000000 0.500000
O O4 0.764693 0.006221 0.364663
O O5 0.500000 0.274590 0.750000
O O6 0.726438 0.197228 0.774790
O O7 0.652731 0.459566 0.792123
O O8 0.479502 0.288645 0.904561
O O9 0.000000 0.137453 0.750000
O O10 0.500000 0.500000 0.000000
#
# Coordination Sequence:
#
# PCOD8153320 Si02
#       4
#     8   8   8   8
#     4  11  23  45  66  95 135 171 219 271 330 390
#     4  11  24  46  67  95 136 175 219 275 334 394
#     4  11  24  44  65  97 134 173 221 275 327 395
#     4  11  25  44  69  99 132 174 222 273 331 394
#
# _framework density 21.205893
#
# number of rings (size 3 to 8) (size 9 to 14) (size 15 to 20)
#    0.000    1.000    7.500    0.000    3.500    2.000 
#    4.500    0.000    0.000    0.000    0.000    0.000 
#    0.000    0.000    0.000    0.000    0.000    0.000 
#
# Total GULP energy -198308.825710 kJ/mol
# GULP energy per Si atom -12394.301607 kJ/mol
# Density = 2.115763 g / cm^3
# Si number density = 21.205893 Si / 1000 Ang^3
#
#
#
# Elastic Constant Matrix: (Units=GPa)
#
#
# Indices 1 2 3 4 5 6 
#
# 1 162.1667 102.1703 39.0096 0.0000 -29.3923 0.0000
# 2 102.1703 116.8732 2.1912 0.0000 -12.1633 0.0000
# 3 39.0096 2.1912 73.3371 0.0000 -16.9265 0.0000
# 4 0.0000 0.0000 0.0000 27.3761 0.0000 -14.6959
# 5 -29.3923 -12.1633 -16.9265 0.0000 31.8014 0.0000
# 6 0.0000 0.0000 0.0000 -14.6959 0.0000 54.1472
#
#
#
# Elastic Compliance Matrix: (Units=1/GPa)
#
#
# Indices 1 2 3 4 5 6 
#
# 1 0.019959 -0.016491 -0.008348 0.000000 0.007697 0.000000
# 2 -0.016491 0.022559 0.007492 0.000000 -0.002626 0.000000
# 3 -0.008348 0.007492 0.019076 0.000000 0.005304 0.000000
# 4 0.000000 0.000000 0.000000 0.042758 0.000000 0.011605
# 5 0.007697 -0.002626 0.005304 0.000000 0.040378 0.000000
# 6 0.000000 0.000000 0.000000 0.011605 0.000000 0.021618
#
#
# Mechanical properties :
#
#
# Convention : Reuss Voigt Hill
#
# Bulk Modulus (GPa) = 37.17343 71.01323 54.09333
# Shear Modulus (GPa) = 23.80862 36.59867 30.20364
#
# Velocity S-wave (km/s) = 3.35436 4.15887 3.77809
# Velocity P-wave (km/s) = 5.70702 7.52475 6.67802
#
# Compressibility (1/GPa) = 0.02690093
#
# Stress axis : x y z
#
# Youngs Moduli (GPa) = 50.10177 44.32852 52.42137
#
# Poissons Ratio (x) = 0.73102 0.43759
# Poissons Ratio (y) = 0.82622 -0.39273
# Poissons Ratio (z) = 0.41823 -0.33210
#
# Static dielectric constant tensor:
#      x y z
#    x 3.960020 0.000000 -0.525290 
#    y 0.000000 4.122930 0.000000 
#    z -0.525290 0.000000 4.632640 
# 
# 
# High freq. dielectric constant tensor:
#      x y z
#    x 1.831890 0.000000 -0.023910 
#    y 0.000000 1.834830 0.000000 
#    z -0.023910 0.000000 1.837920 
# 
# From -- ./inp_files/187485.got.cif
#   From: 2010.06.25/outbox.cif.g09.slc.cpg/sg15_94_cif.got.tgz:187485.got - 2010.06.28 07:06:18.
