data_PCOD8153585
_publ_section_title
;
Structure prediction by ZEFSAII (Michael W. Deem and Ramdas Pophale) SiO2 
 PCOD8153585
Probable space group: C 2/C
;
_chemical_formula_sum "Si O2"
_cell_formula_units_Z 56
_cell_length_a 13.433095
_cell_length_b 18.294937
_cell_length_c 14.429641
_cell_angle_alpha 90.000000
_cell_angle_beta 47.305447
_cell_angle_gamma 90.000000
_cell_volume 2606.378584
_symmetry_space_group_name_H-M "C 2/C"
_symmetry_group_IT_number 15
_symmetry_cell_setting 'monoclinic'
loop_
_space_group_symop_operation_xyz
x,y,z
-x,y,1/2-z
-x,-y,-z
x,-y,1/2+z
1/2+x,1/2+y,z
1/2-x,1/2+y,1/2-z
1/2-x,1/2-y,-z
1/2+x,1/2-y,1/2+z
loop_
_atom_site_type_symbol
_atom_site_label
_atom_site_fract_x
_atom_site_fract_y
_atom_site_fract_z
Si Si1 0.049245 0.820250 0.482791
Si Si2 0.589671 0.408168 0.781474
Si Si3 0.585103 0.066982 0.977647
Si Si4 0.706493 0.453891 0.306390
Si Si5 0.771214 0.797026 0.580560
Si Si6 0.844639 0.451880 0.870995
Si Si7 0.350076 0.182147 0.148344
O O1 0.000706 0.845758 0.613510
O O2 0.928068 0.785466 0.500007
O O3 0.107496 0.890176 0.395797
O O4 0.148794 0.750271 0.424526
O O5 0.500000 0.430299 0.750000
O O6 0.612839 0.481584 0.825528
O O7 0.738440 0.372828 0.675880
O O8 0.692877 0.084683 0.830063
O O9 0.667463 0.033314 0.012472
O O10 0.492243 0.136932 0.062216
O O11 0.500000 0.000000 0.000000
O O12 0.791614 0.481407 0.341921
O O13 0.750000 0.750000 0.500000
O O14 0.750222 0.882837 0.583618
O O15 0.681412 0.780959 0.730236
O O16 0.000000 0.433758 0.750000
#
# Coordination Sequence:
#
# PCOD8153585 Si02
#       7
#     8   8   8   8   8   8   8
#     4  11  27  44  68  99 142 174 228 289 342 420
#     4  11  25  48  70  94 137 184 228 287 342 407
#     4  12  23  42  72 103 136 185 229 281 345 414
#     4  12  26  45  69 105 137 185 234 282 349 414
#     4  11  24  42  69  99 137 181 215 288 362 405
#     4  12  22  43  68 101 141 175 231 288 336 408
#     4  11  24  48  66 103 141 175 233 286 343 416
#
# _framework density 21.485751
#
# number of rings (size 3 to 8) (size 9 to 14) (size 15 to 20)
#    0.000    0.571    7.143    1.286    8.000    0.571 
#    0.000    0.714    0.000    0.000    0.000    0.000 
#    0.000    0.000    0.000    0.000    0.000    0.000 
#
# Total GULP energy -346899.698495 kJ/mol
# GULP energy per Si atom -12389.274946 kJ/mol
# Density = 2.143685 g / cm^3
# Si number density = 21.485751 Si / 1000 Ang^3
#
#
#
# Elastic Constant Matrix: (Units=GPa)
#
#
# Indices 1 2 3 4 5 6 
#
# 1 88.9443 27.1037 32.3869 -0.0004 15.1574 0.0003
# 2 27.1037 114.5224 36.9032 -0.0001 3.5080 0.0000
# 3 32.3869 36.9032 93.4053 -0.0002 -0.7895 0.0002
# 4 -0.0004 -0.0001 -0.0002 -124.5556 0.0002 125.4240
# 5 15.1574 3.5080 -0.7895 0.0002 12.7760 -0.0001
# 6 0.0003 0.0000 0.0002 125.4240 -0.0001 -64.8304
#
#
#
# Elastic Compliance Matrix: (Units=1/GPa)
#
#
# Indices 1 2 3 4 5 6 
#
# 1 0.017207 -0.001688 -0.005471 0.000000 -0.020289 0.000000
# 2 -0.001688 0.010287 -0.003488 0.000000 -0.001038 0.000000
# 3 -0.005471 -0.003488 0.014051 0.000000 0.008317 0.000000
# 4 0.000000 0.000000 0.000000 0.008468 0.000000 0.016382
# 5 -0.020289 -0.001038 0.008317 0.000000 0.103142 0.000000
# 6 0.000000 0.000000 0.000000 0.016382 0.000000 0.016269
#
#
# Mechanical properties :
#
#
# Convention : Reuss Voigt Hill
#
# Bulk Modulus (GPa) = 49.37754 54.40660 51.89207
# Shear Modulus (GPa) = 25.32068 -21.95680 1.68194
#
# Velocity S-wave (km/s) = 3.43663 -3.20022 0.88573
# Velocity P-wave (km/s) = 6.22725 3.42373 5.02497
#
# Compressibility (1/GPa) = 0.02025212
#
# Stress axis : x y z
#
# Youngs Moduli (GPa) = 58.11593 97.20941 71.16809
#
# Poissons Ratio (x) = 0.16408 0.38935
# Poissons Ratio (y) = 0.09810 0.24822
# Poissons Ratio (z) = 0.31794 0.33905
#
# Static dielectric constant tensor:
#      x y z
#    x 3.739550 0.000000 0.104060 
#    y 0.000000 2.712470 0.000000 
#    z 0.104060 0.000000 4.231330 
# 
# 
# High freq. dielectric constant tensor:
#      x y z
#    x 1.839540 0.000000 -0.007020 
#    y 0.000000 1.847860 0.000000 
#    z -0.007020 0.000000 1.853480 
# 
# From -- ./inp_files/155145.got.cif
#   From: 2010.06.25/outbox.cif.g09.slc.cpg/sg15_78_cif.got.tgz:155145.got - 2010.06.28 07:06:18.
