data_PCOD8153588
_publ_section_title
;
Structure prediction by ZEFSAII (Michael W. Deem and Ramdas Pophale) SiO2 
 PCOD8153588
Probable space group: C 2/C
;
_chemical_formula_sum "Si O2"
_cell_formula_units_Z 52
_cell_length_a 24.860303
_cell_length_b 10.745046
_cell_length_c 12.551196
_cell_angle_alpha 90.000000
_cell_angle_beta 136.666778
_cell_angle_gamma 90.000000
_cell_volume 2300.784692
_symmetry_space_group_name_H-M "C 2/C"
_symmetry_group_IT_number 15
_symmetry_cell_setting 'monoclinic'
loop_
_space_group_symop_operation_xyz
x,y,z
-x,y,1/2-z
-x,-y,-z
x,-y,1/2+z
1/2+x,1/2+y,z
1/2-x,1/2+y,1/2-z
1/2-x,1/2-y,-z
1/2+x,1/2-y,1/2+z
loop_
_atom_site_type_symbol
_atom_site_label
_atom_site_fract_x
_atom_site_fract_y
_atom_site_fract_z
Si Si1 0.234954 0.528878 0.435252
Si Si2 0.623871 0.559735 0.723195
Si Si3 0.000000 0.742941 0.750000
Si Si4 0.973453 0.175667 0.441019
Si Si5 0.141821 0.577706 0.989592
Si Si6 0.138789 0.627179 0.640462
Si Si7 0.228634 0.747049 0.269233
O O1 0.328039 0.530175 0.598430
O O2 0.185353 0.515146 0.471719
O O3 0.208681 0.414266 0.322449
O O4 0.215988 0.661689 0.355077
O O5 0.547217 0.649029 0.626137
O O6 0.592948 0.428005 0.634661
O O7 0.681117 0.624590 0.719566
O O8 0.006063 0.826603 0.865721
O O9 0.925946 0.654817 0.664094
O O10 0.935947 0.309409 0.412266
O O11 0.105329 0.493731 0.031669
O O12 0.202400 0.676586 0.124965
O O13 0.180088 0.721096 0.616988
#
# Coordination Sequence:
#
# PCOD8153588 Si02
#       7
#     8   8   4   8   8   8   8
#     4  11  24  44  73 101 135 185 238 289 349 411
#     4  11  24  45  68 100 142 184 228 289 353 420
#     4  12  24  46  66  96 140 184 230 288 364 418
#     4  11  26  45  69 101 145 183 230 290 361 426
#     4  11  24  42  70 100 132 183 235 290 345 423
#     4  11  25  43  71 104 136 185 237 287 352 426
#     4  11  24  44  71 102 140 174 236 296 338 421
#
# _framework density 22.600982999999999
#
# number of rings (size 3 to 8) (size 9 to 14) (size 15 to 20)
#    0.000    0.923    4.615    1.385    4.308    3.077 
#    2.769    0.000    0.000    0.000    0.000    0.000 
#    0.000    0.000    0.000    0.000    0.000    0.000 
#
# Total GULP energy -322315.309763 kJ/mol
# GULP energy per Si atom -12396.742683 kJ/mol
# Density = 2.254954 g / cm^3
# Si number density = 22.600983 Si / 1000 Ang^3
#
#
#
# Elastic Constant Matrix: (Units=GPa)
#
#
# Indices 1 2 3 4 5 6 
#
# 1 77.0360 35.0315 25.6112 0.0000 -1.4197 0.0000
# 2 35.0315 76.7412 32.2058 0.0000 -3.9048 0.0000
# 3 25.6112 32.2058 117.3538 0.0000 12.5050 0.0000
# 4 0.0000 0.0000 0.0000 30.2349 0.0000 4.2634
# 5 -1.4197 -3.9048 12.5050 0.0000 32.7124 0.0000
# 6 0.0000 0.0000 0.0000 4.2634 0.0000 38.3686
#
#
#
# Elastic Compliance Matrix: (Units=1/GPa)
#
#
# Indices 1 2 3 4 5 6 
#
# 1 0.016706 -0.006823 -0.001839 0.000000 0.000614 0.000000
# 2 -0.006823 0.017895 -0.003772 0.000000 0.003282 0.000000
# 3 -0.001839 -0.003772 0.010439 0.000000 -0.004521 0.000000
# 4 0.000000 0.000000 0.000000 0.033601 0.000000 -0.003734
# 5 0.000614 0.003282 -0.004521 0.000000 0.032716 0.000000
# 6 0.000000 0.000000 0.000000 -0.003734 0.000000 0.026478
#
#
# Mechanical properties :
#
#
# Convention : Reuss Voigt Hill
#
# Bulk Modulus (GPa) = 49.57006 50.75866 50.16436
# Shear Modulus (GPa) = 29.51103 32.14867 30.82985
#
# Velocity S-wave (km/s) = 3.61742 3.77562 3.69737
# Velocity P-wave (km/s) = 6.27917 6.44317 6.36170
#
# Compressibility (1/GPa) = 0.02017347
#
# Stress axis : x y z
#
# Youngs Moduli (GPa) = 59.85704 55.88013 95.79167
#
# Poissons Ratio (x) = 0.38129 0.17614
# Poissons Ratio (y) = 0.40843 0.36129
# Poissons Ratio (z) = 0.11007 0.21076
#
# Static dielectric constant tensor:
#      x y z
#    x 3.773940 0.000000 0.062940 
#    y 0.000000 4.060180 0.000000 
#    z 0.062940 0.000000 4.226140 
# 
# 
# High freq. dielectric constant tensor:
#      x y z
#    x 1.873910 0.000000 0.003530 
#    y 0.000000 1.899600 0.000000 
#    z 0.003530 0.000000 1.891980 
# 
# From -- ./inp_files/117941.got.cif
#   From: 2010.06.25/outbox.cif.g09.slc.cpg/sg15_59_cif.got.tgz:117941.got - 2010.06.28 07:06:18.
