data_PCOD8153691
_publ_section_title
;
Structure prediction by ZEFSAII (Michael W. Deem and Ramdas Pophale) SiO2 
 PCOD8153691
Probable space group: C 2/C
;
_chemical_formula_sum "Si O2"
_cell_formula_units_Z 44
_cell_length_a 11.917450
_cell_length_b 7.163599
_cell_length_c 31.275627
_cell_angle_alpha 90.000000
_cell_angle_beta 42.439651
_cell_angle_gamma 90.000000
_cell_volume 1801.790294
_symmetry_space_group_name_H-M "C 2/C"
_symmetry_group_IT_number 15
_symmetry_cell_setting 'monoclinic'
loop_
_space_group_symop_operation_xyz
x,y,z
-x,y,1/2-z
-x,-y,-z
x,-y,1/2+z
1/2+x,1/2+y,z
1/2-x,1/2+y,1/2-z
1/2-x,1/2-y,-z
1/2+x,1/2-y,1/2+z
loop_
_atom_site_type_symbol
_atom_site_label
_atom_site_fract_x
_atom_site_fract_y
_atom_site_fract_z
Si Si1 0.356484 0.709000 0.733567
Si Si2 0.500000 0.020876 0.750000
Si Si3 0.049695 0.300450 0.504896
Si Si4 0.729977 0.205488 0.554930
Si Si5 0.086263 0.316479 0.594073
Si Si6 0.001278 0.816387 0.813756
O O1 0.375413 0.878202 0.761766
O O2 0.436220 0.749287 0.665212
O O3 0.159590 0.692729 0.783956
O O4 0.435886 0.509658 0.726038
O O5 0.407957 0.169075 0.807919
O O6 0.913525 0.161289 0.522161
O O7 0.000000 0.500000 0.500000
O O8 0.039592 0.271148 0.558525
O O9 0.239555 0.269151 0.438191
O O10 0.750000 0.250000 0.500000
O O11 0.629511 0.363146 0.610838
O O12 0.604873 0.035689 0.594316
#
# Coordination Sequence:
#
# PCOD8153691 Si02
#       6
#     8   4   8   8   8   8
#     4  12  26  50  78 109 153 196 250 320 373 462
#     4  12  26  50  74 108 144 200 248 306 392 428
#     4  11  24  44  68 104 146 198 246 306 365 443
#     4  12  25  47  74 109 151 199 250 308 376 446
#     4  11  25  46  70 107 147 194 254 303 375 443
#     4  12  27  50  74 114 151 196 252 311 379 454
#
# _framework density 24.420154
#
# number of rings (size 3 to 8) (size 9 to 14) (size 15 to 20)
#    0.000    0.364    5.455    2.182    5.091    1.455 
#    6.545    0.000    0.000    0.000    0.000    0.000 
#    0.000    0.000    0.000    0.000    0.000    0.000 
#
# Total GULP energy -272546.520841 kJ/mol
# GULP energy per Si atom -12388.478220 kJ/mol
# Density = 2.436457 g / cm^3
# Si number density = 24.420154 Si / 1000 Ang^3
#
#
#
# Elastic Constant Matrix: (Units=GPa)
#
#
# Indices 1 2 3 4 5 6 
#
# 1 130.2801 25.4406 64.1197 0.0006 1.7289 -0.0031
# 2 25.4406 123.4113 26.4742 0.0034 8.1060 0.0002
# 3 64.1197 26.4742 143.7117 -0.0346 -3.0232 -0.0134
# 4 0.0006 0.0034 -0.0346 31.7341 0.0026 -3.5004
# 5 1.7289 8.1060 -3.0232 0.0026 28.7740 -0.0010
# 6 -0.0031 0.0002 -0.0134 -3.5004 -0.0010 43.1945
#
#
#
# Elastic Compliance Matrix: (Units=1/GPa)
#
#
# Indices 1 2 3 4 5 6 
#
# 1 0.010005 -0.001096 -0.004278 -0.000005 -0.000742 -0.000001
# 2 -0.001096 0.008747 -0.001175 -0.000002 -0.002522 -0.000001
# 3 -0.004278 -0.001175 0.009116 0.000010 0.001546 0.000003
# 4 -0.000005 -0.000002 0.000010 0.031796 -0.000001 0.002577
# 5 -0.000742 -0.002522 0.001546 -0.000001 0.035671 0.000001
# 6 -0.000001 -0.000001 0.000003 0.002577 0.000001 0.023360
#
#
# Mechanical properties :
#
#
# Convention : Reuss Voigt Hill
#
# Bulk Modulus (GPa) = 67.70662 69.94135 68.82399
# Shear Modulus (GPa) = 36.57224 39.49842 38.03533
#
# Velocity S-wave (km/s) = 3.87411 4.02612 3.95085
# Velocity P-wave (km/s) = 6.91358 7.09337 7.00405
#
# Compressibility (1/GPa) = 0.01476960
#
# Stress axis : x y z
#
# Youngs Moduli (GPa) = 99.95059 114.32883 109.69808
#
# Poissons Ratio (x) = 0.12532 0.46924
# Poissons Ratio (y) = 0.10956 0.12893
# Poissons Ratio (z) = 0.42755 0.13437
#
# Static dielectric constant tensor:
#      x y z
#    x 4.829510 0.000030 -0.048640 
#    y 0.000030 4.458260 0.000010 
#    z -0.048640 0.000010 4.374740 
# 
# 
# High freq. dielectric constant tensor:
#      x y z
#    x 1.971140 0.000000 0.001010 
#    y 0.000000 1.987980 0.000000 
#    z 0.001010 0.000000 1.966540 
# 
# From -- ./inp_files/309845.got.cif
#   From: 2010.06.25/outbox.cif.g09.slc.cpg/sg15_155_cif.got.tgz:309845.got - 2010.06.28 07:06:18.
