data_PCOD8153713
_publ_section_title
;
Structure prediction by ZEFSAII (Michael W. Deem and Ramdas Pophale) SiO2 
 PCOD8153713
Probable space group: C 2/C
;
_chemical_formula_sum "Si O2"
_cell_formula_units_Z 40
_cell_length_a 6.730337
_cell_length_b 21.662744
_cell_length_c 13.990509
_cell_angle_alpha 90.000000
_cell_angle_beta 116.741664
_cell_angle_gamma 90.000000
_cell_volume 1821.616092
_symmetry_space_group_name_H-M "C 2/C"
_symmetry_group_IT_number 15
_symmetry_cell_setting 'monoclinic'
loop_
_space_group_symop_operation_xyz
x,y,z
-x,y,1/2-z
-x,-y,-z
x,-y,1/2+z
1/2+x,1/2+y,z
1/2-x,1/2+y,1/2-z
1/2-x,1/2-y,-z
1/2+x,1/2-y,1/2+z
loop_
_atom_site_type_symbol
_atom_site_label
_atom_site_fract_x
_atom_site_fract_y
_atom_site_fract_z
Si Si1 0.000000 0.995729 0.750000
Si Si2 0.802785 0.649054 0.514391
Si Si3 0.155575 0.907903 0.626984
Si Si4 0.335109 0.055805 0.962663
Si Si5 0.768901 0.253056 0.152477
Si Si6 0.500000 0.803009 0.750000
O O1 0.167046 0.953229 0.721797
O O2 0.133365 0.041081 0.848426
O O3 0.604656 0.602207 0.448954
O O4 0.781692 0.676136 0.617694
O O5 0.789040 0.707315 0.444238
O O6 0.039736 0.616449 0.549541
O O7 0.256406 0.937682 0.554421
O O8 0.287586 0.845222 0.678686
O O9 0.500000 0.000000 0.000000
O O10 0.565370 0.244604 0.181271
O O11 0.000000 0.233313 0.250000
#
# Coordination Sequence:
#
# PCOD8153713 Si02
#       6
#     4   8   8   8   8   4
#     4  12  26  44  75 106 142 191 240 292 366 424
#     4  11  25  45  71 101 140 183 234 299 347 418
#     4  12  24  46  72 101 142 188 238 290 360 433
#     4  12  26  47  71 104 142 188 237 296 353 422
#     4  11  24  44  70 102 139 183 239 290 354 418
#     4  12  22  40  77 102 136 193 240 284 360 438
#
# _framework density 21.958525000000002
#
# number of rings (size 3 to 8) (size 9 to 14) (size 15 to 20)
#    0.000    0.400    6.000    3.000    0.000    4.000 
#    0.000    0.000    0.000    0.000    0.000    0.000 
#    0.000    0.000    0.000    0.000    0.000    0.000 
#
# Total GULP energy -248015.211697 kJ/mol
# GULP energy per Si atom -12400.760585 kJ/mol
# Density = 2.190855 g / cm^3
# Si number density = 21.958525 Si / 1000 Ang^3
#
#
#
# Elastic Constant Matrix: (Units=GPa)
#
#
# Indices 1 2 3 4 5 6 
#
# 1 134.5087 43.2765 48.9139 0.0000 -30.5798 0.0000
# 2 43.2765 79.2012 38.7700 0.0000 -19.2963 0.0000
# 3 48.9139 38.7700 96.7510 0.0000 -17.6959 0.0000
# 4 0.0000 0.0000 0.0000 32.1435 0.0000 -9.8059
# 5 -30.5798 -19.2963 -17.6959 0.0000 45.0523 0.0000
# 6 0.0000 0.0000 0.0000 -9.8059 0.0000 54.5422
#
#
#
# Elastic Compliance Matrix: (Units=1/GPa)
#
#
# Indices 1 2 3 4 5 6 
#
# 1 0.010687 -0.003087 -0.003319 0.000000 0.004628 0.000000
# 2 -0.003087 0.017530 -0.004820 0.000000 0.003520 0.000000
# 3 -0.003319 -0.004820 0.014174 0.000000 0.001250 0.000000
# 4 0.000000 0.000000 0.000000 0.032916 0.000000 0.005918
# 5 0.004628 0.003520 0.001250 0.000000 0.027336 0.000000
# 6 0.000000 0.000000 0.000000 0.005918 0.000000 0.019398
#
#
# Mechanical properties :
#
#
# Convention : Reuss Voigt Hill
#
# Bulk Modulus (GPa) = 50.15634 63.59798 56.87716
# Shear Modulus (GPa) = 33.08187 38.31430 35.69808
#
# Velocity S-wave (km/s) = 3.88566 4.18167 4.03638
# Velocity P-wave (km/s) = 6.55912 7.23469 6.90517
#
# Compressibility (1/GPa) = 0.01993766
#
# Stress axis : x y z
#
# Youngs Moduli (GPa) = 93.57249 57.04545 70.55114
#
# Poissons Ratio (x) = 0.17610 0.23419
# Poissons Ratio (y) = 0.28886 0.34007
# Poissons Ratio (z) = 0.31061 0.27497
#
# Static dielectric constant tensor:
#      x y z
#    x 4.667070 0.000000 -0.072000 
#    y 0.000000 4.277710 0.000000 
#    z -0.072000 0.000000 4.337800 
# 
# 
# High freq. dielectric constant tensor:
#      x y z
#    x 1.878120 0.000000 -0.008790 
#    y 0.000000 1.860040 0.000000 
#    z -0.008790 0.000000 1.869600 
# 
# From -- ./inp_files/129132.got.cif
#   From: 2010.06.25/outbox.cif.g09.slc.cpg/sg15_65_cif.got.tgz:129132.got - 2010.06.28 07:06:18.
