data_PCOD8153969
_publ_section_title
;
Structure prediction by ZEFSAII (Michael W. Deem and Ramdas Pophale) SiO2 
 PCOD8153969
Probable space group: C 2/C
;
_chemical_formula_sum "Si O2"
_cell_formula_units_Z 36
_cell_length_a 16.123372
_cell_length_b 9.855888
_cell_length_c 9.698712
_cell_angle_alpha 90.000000
_cell_angle_beta 76.410378
_cell_angle_gamma 90.000000
_cell_volume 1498.075011
_symmetry_space_group_name_H-M "C 2/C"
_symmetry_group_IT_number 15
_symmetry_cell_setting 'monoclinic'
loop_
_space_group_symop_operation_xyz
x,y,z
-x,y,1/2-z
-x,-y,-z
x,-y,1/2+z
1/2+x,1/2+y,z
1/2-x,1/2+y,1/2-z
1/2-x,1/2-y,-z
1/2+x,1/2-y,1/2+z
loop_
_atom_site_type_symbol
_atom_site_label
_atom_site_fract_x
_atom_site_fract_y
_atom_site_fract_z
Si Si1 0.099101 0.657095 0.108197
Si Si2 0.163713 0.511441 0.343889
Si Si3 0.500000 0.365307 0.750000
Si Si4 0.063222 0.747489 0.463190
Si Si5 0.144456 0.070357 0.731544
O O1 0.122063 0.536817 0.208501
O O2 0.146957 0.796955 0.132420
O O3 0.997010 0.684731 0.134961
O O4 0.129573 0.618859 0.941022
O O5 0.140289 0.640200 0.451734
O O6 0.264240 0.497219 0.284067
O O7 0.502210 0.267174 0.617584
O O8 0.584436 0.453401 0.696397
O O9 0.104867 0.888374 0.395452
#
# Coordination Sequence:
#
# PCOD8153969 Si02
#       5
#     8   8   4   8   8
#     4  11  25  50  74 109 148 197 241 302 373 437
#     4  11  26  44  78 107 152 182 250 310 360 429
#     4  12  26  44  78 102 156 198 244 298 370 450
#     4  11  26  47  74 109 146 198 249 293 377 435
#     4  11  24  47  73 109 147 193 249 305 362 439
#
# _framework density 24.030839
#
# number of rings (size 3 to 8) (size 9 to 14) (size 15 to 20)
#    0.000    0.889    2.222    4.000    6.222    4.444 
#    0.000    0.000    0.000    0.000    0.000    0.000 
#    0.000    0.000    0.000    0.000    0.000    0.000 
#
# Total GULP energy -223081.569661 kJ/mol
# GULP energy per Si atom -12393.420537 kJ/mol
# Density = 2.397614 g / cm^3
# Si number density = 24.030839 Si / 1000 Ang^3
#
#
#
# Elastic Constant Matrix: (Units=GPa)
#
#
# Indices 1 2 3 4 5 6 
#
# 1 157.0420 67.2238 57.6077 0.0000 -10.4891 0.0000
# 2 67.2238 73.5153 65.3965 0.0000 7.3935 0.0000
# 3 57.6077 65.3965 154.8161 0.0000 -3.7778 0.0000
# 4 0.0000 0.0000 0.0000 31.9527 0.0000 -0.5864
# 5 -10.4891 7.3935 -3.7778 0.0000 22.2975 0.0000
# 6 0.0000 0.0000 0.0000 -0.5864 0.0000 42.6975
#
#
#
# Elastic Compliance Matrix: (Units=1/GPa)
#
#
# Indices 1 2 3 4 5 6 
#
# 1 0.012412 -0.013679 0.001419 0.000000 0.010615 0.000000
# 2 -0.013679 0.038744 -0.011795 0.000000 -0.021280 0.000000
# 3 0.001419 -0.011795 0.011071 0.000000 0.006454 0.000000
# 4 0.000000 0.000000 0.000000 0.031304 0.000000 0.000430
# 5 0.010615 -0.021280 0.006454 0.000000 0.057991 0.000000
# 6 0.000000 0.000000 0.000000 0.000430 0.000000 0.023427
#
#
# Mechanical properties :
#
#
# Convention : Reuss Voigt Hill
#
# Bulk Modulus (GPa) = 70.84247 85.09216 77.96732
# Shear Modulus (GPa) = 21.95235 32.39921 27.17578
#
# Velocity S-wave (km/s) = 3.02571 3.67582 3.36649
# Velocity P-wave (km/s) = 6.46145 7.31450 6.90117
#
# Compressibility (1/GPa) = 0.01411583
#
# Stress axis : x y z
#
# Youngs Moduli (GPa) = 80.56789 25.81034 90.32408
#
# Poissons Ratio (x) = 0.35307 -0.12816
# Poissons Ratio (y) = 1.10213 1.06539
# Poissons Ratio (z) = -0.11432 0.30444
#
# Static dielectric constant tensor:
#      x y z
#    x 4.156860 0.000000 -0.000410 
#    y 0.000000 4.270000 0.000000 
#    z -0.000410 0.000000 4.363290 
# 
# 
# High freq. dielectric constant tensor:
#      x y z
#    x 1.947260 0.000000 -0.011190 
#    y 0.000000 1.948850 0.000000 
#    z -0.011190 0.000000 1.966920 
# 
# From -- ./inp_files/45864.got.cif
#   From: 2010.06.25/outbox.cif.g09.slc.cpg/sg15_23_cif.got.tgz:45864.got - 2010.06.28 07:06:18.
