data_PCOD8153879
_publ_section_title
;
Structure prediction by ZEFSAII (Michael W. Deem and Ramdas Pophale) SiO2 
 PCOD8153879
Probable space group: C 2/C
;
_chemical_formula_sum "Si O2"
_cell_formula_units_Z 40
_cell_length_a 11.046551
_cell_length_b 23.524892
_cell_length_c 12.724750
_cell_angle_alpha 90.000000
_cell_angle_beta 147.787112
_cell_angle_gamma 90.000000
_cell_volume 1762.727070
_symmetry_space_group_name_H-M "C 2/C"
_symmetry_group_IT_number 15
_symmetry_cell_setting 'monoclinic'
loop_
_space_group_symop_operation_xyz
x,y,z
-x,y,1/2-z
-x,-y,-z
x,-y,1/2+z
1/2+x,1/2+y,z
1/2-x,1/2+y,1/2-z
1/2-x,1/2-y,-z
1/2+x,1/2-y,1/2+z
loop_
_atom_site_type_symbol
_atom_site_label
_atom_site_fract_x
_atom_site_fract_y
_atom_site_fract_z
Si Si1 0.500000 0.476838 0.250000
Si Si2 0.500000 0.657282 0.250000
Si Si3 0.736680 0.432106 0.061172
Si Si4 0.207665 0.113017 0.768494
Si Si5 0.117637 0.690960 0.114157
Si Si6 0.644929 0.708648 0.011127
O O1 0.599402 0.513396 0.418919
O O2 0.302820 0.436838 0.152932
O O3 0.682988 0.620503 0.447147
O O4 0.350111 0.694875 0.218809
O O5 0.657524 0.415163 0.119285
O O6 0.000000 0.447037 0.250000
O O7 0.016636 0.160441 0.656225
O O8 0.457896 0.139874 0.957037
O O9 0.164854 0.680430 0.273952
O O10 0.997685 0.751744 0.013306
O O11 0.750000 0.750000 0.000000
#
# Coordination Sequence:
#
# PCOD8153879 Si02
#       6
#     4   4   8   8   8   8
#     4  11  28  44  74 106 136 184 246 299 362 426
#     4  11  24  46  70 106 142 190 244 291 356 426
#     4  11  24  48  72 101 141 183 245 304 353 423
#     4  12  25  47  73 105 144 191 232 297 364 418
#     4  12  25  43  73 104 145 193 235 287 355 433
#     4  12  26  44  70 108 151 187 234 290 356 441
#
# _framework density 22.692112000000002
#
# number of rings (size 3 to 8) (size 9 to 14) (size 15 to 20)
#    0.000    0.400    6.000    2.400    0.000    3.200 
#    1.800    0.000    0.000    0.000    0.000    0.000 
#    0.000    0.000    0.000    0.000    0.000    0.000 
#
# Total GULP energy -248003.709041 kJ/mol
# GULP energy per Si atom -12400.185452 kJ/mol
# Density = 2.264046 g / cm^3
# Si number density = 22.692112 Si / 1000 Ang^3
#
#
#
# Elastic Constant Matrix: (Units=GPa)
#
#
# Indices 1 2 3 4 5 6 
#
# 1 135.5117 63.8995 45.9208 -0.0002 -11.1552 0.0001
# 2 63.8995 121.1335 44.3740 -0.0001 2.2288 0.0000
# 3 45.9208 44.3740 119.8061 -0.0008 -5.1721 0.0003
# 4 -0.0002 -0.0001 -0.0008 9.7357 -0.0003 -7.8834
# 5 -11.1552 2.2288 -5.1721 -0.0003 34.8748 0.0002
# 6 0.0001 0.0000 0.0003 -7.8834 0.0002 42.5472
#
#
#
# Elastic Compliance Matrix: (Units=1/GPa)
#
#
# Indices 1 2 3 4 5 6 
#
# 1 0.010709 -0.004932 -0.002130 0.000000 0.003425 0.000000
# 2 -0.004932 0.011868 -0.002623 0.000000 -0.002725 0.000000
# 3 -0.002130 -0.002623 0.010178 0.000001 0.000996 0.000000
# 4 0.000000 0.000000 0.000001 0.120846 0.000001 0.022391
# 5 0.003425 -0.002725 0.000996 0.000001 0.030091 0.000000
# 6 0.000000 0.000000 0.000000 0.022391 0.000000 0.027652
#
#
# Mechanical properties :
#
#
# Convention : Reuss Voigt Hill
#
# Bulk Modulus (GPa) = 74.71189 76.09330 75.40260
# Shear Modulus (GPa) = 21.26083 32.24870 26.75477
#
# Velocity S-wave (km/s) = 3.06425 3.77389 3.43743
# Velocity P-wave (km/s) = 6.74649 7.25227 7.00395
#
# Compressibility (1/GPa) = 0.01338475
#
# Stress axis : x y z
#
# Youngs Moduli (GPa) = 93.38239 84.26119 98.25330
#
# Poissons Ratio (x) = 0.41555 0.20929
# Poissons Ratio (y) = 0.46053 0.25772
# Poissons Ratio (z) = 0.19892 0.22102
#
# Static dielectric constant tensor:
#      x y z
#    x 4.136190 0.000000 -0.078500 
#    y 0.000000 4.047230 0.000000 
#    z -0.078500 0.000000 4.246010 
# 
# 
# High freq. dielectric constant tensor:
#      x y z
#    x 1.904250 0.000000 -0.007950 
#    y 0.000000 1.886160 0.000000 
#    z -0.007950 0.000000 1.905550 
# 
# From -- ./inp_files/148192.got.cif
#   From: 2010.06.25/outbox.cif.g09.slc.cpg/sg15_75_cif.got.tgz:148192.got - 2010.06.28 07:06:18.
