data_PCOD8153393
_publ_section_title
;
Structure prediction by ZEFSAII (Michael W. Deem and Ramdas Pophale) SiO2 
 PCOD8153393
Probable space group: C 2/C
;
_chemical_formula_sum "Si O2"
_cell_formula_units_Z 52
_cell_length_a 28.217555
_cell_length_b 6.363709
_cell_length_c 14.061287
_cell_angle_alpha 90.000000
_cell_angle_beta 105.025445
_cell_angle_gamma 90.000000
_cell_volume 2438.635084
_symmetry_space_group_name_H-M "C 2/C"
_symmetry_group_IT_number 15
_symmetry_cell_setting 'monoclinic'
loop_
_space_group_symop_operation_xyz
x,y,z
-x,y,1/2-z
-x,-y,-z
x,-y,1/2+z
1/2+x,1/2+y,z
1/2-x,1/2+y,1/2-z
1/2-x,1/2-y,-z
1/2+x,1/2-y,1/2+z
loop_
_atom_site_type_symbol
_atom_site_label
_atom_site_fract_x
_atom_site_fract_y
_atom_site_fract_z
Si Si1 0.686972 0.969903 0.294552
Si Si2 0.792688 0.204200 0.849475
Si Si3 0.000000 0.317679 0.750000
Si Si4 0.646353 0.028187 0.979184
Si Si5 0.448913 0.198515 0.636869
Si Si6 0.136488 0.818499 0.621425
Si Si7 0.458145 0.560416 0.331854
O O1 0.735304 0.831139 0.335185
O O2 0.647554 0.838846 0.213770
O O3 0.699153 0.188406 0.248605
O O4 0.663346 0.029106 0.382475
O O5 0.820313 0.984401 0.867316
O O6 0.809973 0.358270 0.942115
O O7 0.960887 0.460794 0.674510
O O8 0.972484 0.178989 0.815736
O O9 0.599413 0.185873 0.953720
O O10 0.632042 0.810006 0.021473
O O11 0.494657 0.306886 0.604877
O O12 0.438420 0.337651 0.724170
O O13 0.084673 0.934738 0.612322
#
# Coordination Sequence:
#
# PCOD8153393 Si02
#       7
#     8   8   4   8   8   8   8
#     4  11  23  46  66  89 131 165 206 268 314 378
#     4  11  25  43  67  94 123 167 213 256 325 376
#     4   8  18  32  62  88 118 174 206 244 320 360
#     4  11  25  40  65  98 127 163 209 264 319 371
#     4   9  19  38  61  92 126 163 208 262 310 364
#     4  11  24  40  64  97 125 170 213 254 321 374
#     4   9  19  37  62  89 125 167 213 252 305 378
#
# _framework density 21.323402999999999
#
# number of rings (size 3 to 8) (size 9 to 14) (size 15 to 20)
#    0.000    2.154    3.077    0.462    2.154    6.154 
#    0.000    1.538    0.000    0.000    0.000    0.000 
#    0.000    0.000    0.000    0.000    0.000    0.000 
#
# Total GULP energy -322472.094508 kJ/mol
# GULP energy per Si atom -12402.772866 kJ/mol
# Density = 2.127487 g / cm^3
# Si number density = 21.323403 Si / 1000 Ang^3
#
#
#
# Elastic Constant Matrix: (Units=GPa)
#
#
# Indices 1 2 3 4 5 6 
#
# 1 85.9976 -9.3066 16.8917 0.0000 -3.2602 0.0000
# 2 -9.3066 64.2678 4.3893 0.0000 -6.0011 0.0000
# 3 16.8917 4.3893 76.0798 0.0000 -6.7684 0.0000
# 4 0.0000 0.0000 0.0000 19.0246 0.0000 4.9653
# 5 -3.2602 -6.0011 -6.7684 0.0000 37.9796 0.0000
# 6 0.0000 0.0000 0.0000 4.9653 0.0000 23.7239
#
#
#
# Elastic Compliance Matrix: (Units=1/GPa)
#
#
# Indices 1 2 3 4 5 6 
#
# 1 0.012437 0.002076 -0.002801 0.000000 0.000896 0.000000
# 2 0.002076 0.016176 -0.001170 0.000000 0.002526 0.000000
# 3 -0.002801 -0.001170 0.014018 0.000000 0.002073 0.000000
# 4 0.000000 0.000000 0.000000 0.055601 0.000000 -0.011637
# 5 0.000896 0.002526 0.002073 0.000000 0.027175 0.000000
# 6 0.000000 0.000000 0.000000 -0.011637 0.000000 0.044587
#
#
# Mechanical properties :
#
#
# Convention : Reuss Voigt Hill
#
# Bulk Modulus (GPa) = 25.74555 27.81044 26.77800
# Shear Modulus (GPa) = 26.77640 30.43701 28.60671
#
# Velocity S-wave (km/s) = 3.54747 3.78219 3.66671
# Velocity P-wave (km/s) = 5.37396 5.66955 5.52373
#
# Compressibility (1/GPa) = 0.03884166
#
# Stress axis : x y z
#
# Youngs Moduli (GPa) = 80.40436 61.81906 71.33703
#
# Poissons Ratio (x) = -0.12834 0.19984
# Poissons Ratio (y) = -0.16692 0.08343
# Poissons Ratio (z) = 0.22524 0.07230
#
# Static dielectric constant tensor:
#      x y z
#    x 3.894960 0.000000 0.174000 
#    y 0.000000 3.846060 0.000000 
#    z 0.174000 0.000000 3.688760 
# 
# 
# High freq. dielectric constant tensor:
#      x y z
#    x 1.842090 0.000000 0.009760 
#    y 0.000000 1.839760 0.000000 
#    z 0.009760 0.000000 1.823900 
# 
# From -- ./inp_files/180176.got.cif
#   From: 2010.06.25/outbox.cif.g09.slc.cpg/sg15_91_cif.got.tgz:180176.got - 2010.06.28 07:06:18.
