data_PCOD8153883
_publ_section_title
;
Structure prediction by ZEFSAII (Michael W. Deem and Ramdas Pophale) SiO2 
 PCOD8153883
Probable space group: C 2/C
;
_chemical_formula_sum "Si O2"
_cell_formula_units_Z 64
_cell_length_a 18.147477
_cell_length_b 28.771680
_cell_length_c 9.131196
_cell_angle_alpha 90.000000
_cell_angle_beta 140.437850
_cell_angle_gamma 90.000000
_cell_volume 3036.620446
_symmetry_space_group_name_H-M "C 2/C"
_symmetry_group_IT_number 15
_symmetry_cell_setting 'monoclinic'
loop_
_space_group_symop_operation_xyz
x,y,z
-x,y,1/2-z
-x,-y,-z
x,-y,1/2+z
1/2+x,1/2+y,z
1/2-x,1/2+y,1/2-z
1/2-x,1/2-y,-z
1/2+x,1/2-y,1/2+z
loop_
_atom_site_type_symbol
_atom_site_label
_atom_site_fract_x
_atom_site_fract_y
_atom_site_fract_z
Si Si1 0.782617 0.455093 0.256459
Si Si2 0.702703 0.787534 0.820390
Si Si3 0.239556 0.778801 0.127968
Si Si4 0.116362 0.131299 0.501542
Si Si5 0.763932 0.544468 0.069672
Si Si6 0.971950 0.331708 0.547058
Si Si7 0.000437 0.576562 0.925618
Si Si8 0.381860 0.366661 0.155588
O O1 0.716360 0.406763 0.129967
O O2 0.716868 0.497825 0.076905
O O3 0.796752 0.464726 0.450631
O O4 0.906856 0.455410 0.365371
O O5 0.692682 0.763401 0.650718
O O6 0.573180 0.796688 0.668999
O O7 0.750000 0.750000 0.000000
O O8 0.782239 0.833394 0.939364
O O9 0.148895 0.820817 0.970246
O O10 0.355319 0.801722 0.371859
O O11 0.250000 0.750000 0.000000
O O12 0.097215 0.143434 0.641811
O O13 0.000000 0.111565 0.250000
O O14 0.873598 0.564499 0.323000
O O15 0.658686 0.580357 0.924248
O O16 0.966966 0.370685 0.414486
O O17 0.000000 0.354595 0.750000
O O18 0.000000 0.569661 0.750000
O O19 0.500000 0.357941 0.250000
#
# Coordination Sequence:
#
# PCOD8153883 Si02
#       8
#     8   8   8   8   8   8   8   8
#     4  11  24  46  73  99 138 178 224 275 342 403
#     4  12  25  43  70  99 133 179 231 269 336 401
#     4  12  29  43  68 102 137 181 225 282 334 395
#     4  11  26  47  67  97 138 178 222 282 340 398
#     4  11  24  46  71 102 136 179 223 276 338 410
#     4  12  24  45  69  97 140 182 224 280 336 399
#     4  12  25  41  70 106 140 175 223 277 340 399
#     4  11  26  45  70  99 132 177 228 281 335 400
#
# _framework density 21.076062
#
# number of rings (size 3 to 8) (size 9 to 14) (size 15 to 20)
#    0.000    0.500    5.000    2.250    7.000    2.500 
#    0.000    2.500    0.000    0.000    0.000    0.000 
#    0.000    0.000    0.000    0.000    0.000    0.000 
#
# Total GULP energy -396813.930926 kJ/mol
# GULP energy per Si atom -12400.435341 kJ/mol
# Density = 2.102809 g / cm^3
# Si number density = 21.076062 Si / 1000 Ang^3
#
#
#
# Elastic Constant Matrix: (Units=GPa)
#
#
# Indices 1 2 3 4 5 6 
#
# 1 102.1220 28.7583 24.4230 0.0000 -11.4506 0.0000
# 2 28.7583 101.4085 12.6771 0.0000 -18.0083 0.0000
# 3 24.4230 12.6771 78.3651 0.0000 -11.5512 0.0000
# 4 0.0000 0.0000 0.0000 32.1677 0.0000 -7.3785
# 5 -11.4506 -18.0083 -11.5512 0.0000 41.8509 0.0000
# 6 0.0000 0.0000 0.0000 -7.3785 0.0000 34.4429
#
#
#
# Elastic Compliance Matrix: (Units=1/GPa)
#
#
# Indices 1 2 3 4 5 6 
#
# 1 0.011373 -0.002651 -0.002945 0.000000 0.001158 0.000000
# 2 -0.002651 0.011386 -0.000417 0.000000 0.004059 0.000000
# 3 -0.002945 -0.000417 0.014178 0.000000 0.002928 0.000000
# 4 0.000000 0.000000 0.000000 0.032694 0.000000 0.007004
# 5 0.001158 0.004059 0.002928 0.000000 0.026766 0.000000
# 6 0.000000 0.000000 0.000000 0.007004 0.000000 0.030534
#
#
# Mechanical properties :
#
#
# Convention : Reuss Voigt Hill
#
# Bulk Modulus (GPa) = 40.14556 45.95693 43.05125
# Shear Modulus (GPa) = 33.95352 36.09479 35.02416
#
# Velocity S-wave (km/s) = 4.01808 4.14284 4.08094
# Velocity P-wave (km/s) = 6.37306 6.68856 6.53271
#
# Compressibility (1/GPa) = 0.02490935
#
# Stress axis : x y z
#
# Youngs Moduli (GPa) = 87.92751 87.82753 70.53354
#
# Poissons Ratio (x) = 0.23287 0.20771
# Poissons Ratio (y) = 0.23314 0.02943
# Poissons Ratio (z) = 0.25893 0.03665
#
# Static dielectric constant tensor:
#      x y z
#    x 3.748970 0.000000 -0.143720 
#    y 0.000000 3.953370 0.000000 
#    z -0.143720 0.000000 3.729470 
# 
# 
# High freq. dielectric constant tensor:
#      x y z
#    x 1.835350 0.000000 -0.005460 
#    y 0.000000 1.842170 0.000000 
#    z -0.005460 0.000000 1.825090 
# 
# From -- ./inp_files/52865.got.cif
#   From: 2010.06.25/outbox.cif.g09.slc.cpg/sg15_27_cif.got.tgz:52865.got - 2010.06.28 07:06:18.
