data_PCOD8153789
_publ_section_title
;
Structure prediction by ZEFSAII (Michael W. Deem and Ramdas Pophale) SiO2 
 PCOD8153789
Probable space group: C 2/C
;
_chemical_formula_sum "Si O2"
_cell_formula_units_Z 48
_cell_length_a 8.776235
_cell_length_b 29.254024
_cell_length_c 17.187200
_cell_angle_alpha 90.000000
_cell_angle_beta 30.166138
_cell_angle_gamma 90.000000
_cell_volume 2217.394124
_symmetry_space_group_name_H-M "C 2/C"
_symmetry_group_IT_number 15
_symmetry_cell_setting 'monoclinic'
loop_
_space_group_symop_operation_xyz
x,y,z
-x,y,1/2-z
-x,-y,-z
x,-y,1/2+z
1/2+x,1/2+y,z
1/2-x,1/2+y,1/2-z
1/2-x,1/2-y,-z
1/2+x,1/2-y,1/2+z
loop_
_atom_site_type_symbol
_atom_site_label
_atom_site_fract_x
_atom_site_fract_y
_atom_site_fract_z
Si Si1 0.570014 0.459480 0.305528
Si Si2 0.431408 0.798199 0.362900
Si Si3 0.276448 0.129444 0.183042
Si Si4 0.306352 0.133753 0.639358
Si Si5 0.964838 0.457794 0.675558
Si Si6 0.759516 0.217972 0.198611
O O1 0.500000 0.478676 0.250000
O O2 0.722764 0.409841 0.228926
O O3 0.281846 0.457345 0.489554
O O4 0.815248 0.492802 0.234663
O O5 0.500000 0.821426 0.250000
O O6 0.456634 0.835186 0.419846
O O7 0.685225 0.758362 0.262802
O O8 0.083983 0.782582 0.512354
O O9 0.235244 0.081980 0.247312
O O10 0.333492 0.171267 0.217079
O O11 0.000000 0.142038 0.250000
O O12 0.560298 0.119360 0.002283
O O13 0.000000 0.160808 0.750000
O O14 0.000000 0.446442 0.750000
O O15 0.500000 0.229761 0.250000
#
# Coordination Sequence:
#
# PCOD8153789 Si02
#       6
#     8   8   8   8   8   8
#     4  11  24  45  69 101 136 186 231 280 348 415
#     4  11  26  44  68 101 136 178 230 285 346 409
#     4  12  24  45  71  98 137 183 231 283 348 417
#     4  11  24  45  70 101 139 181 231 286 342 419
#     4  12  26  43  69 104 141 179 232 289 348 409
#     4  11  26  45  69 101 135 179 228 284 346 413
#
# _framework density 21.647030999999998
#
# number of rings (size 3 to 8) (size 9 to 14) (size 15 to 20)
#    0.000    0.667    5.000    3.000    7.000    2.667 
#    0.000    0.000    0.000    0.000    0.000    0.000 
#    0.000    0.000    0.000    0.000    0.000    0.000 
#
# Total GULP energy -297501.050500 kJ/mol
# GULP energy per Si atom -12395.877104 kJ/mol
# Density = 2.159776 g / cm^3
# Si number density = 21.647031 Si / 1000 Ang^3
#
#
#
# Elastic Constant Matrix: (Units=GPa)
#
#
# Indices 1 2 3 4 5 6 
#
# 1 123.7992 30.5370 51.3449 0.0000 -0.7460 0.0000
# 2 30.5370 99.8698 30.5785 0.0000 -1.9789 0.0000
# 3 51.3449 30.5785 105.8859 0.0001 6.5674 0.0000
# 4 0.0000 0.0000 0.0001 29.9495 0.0000 -4.8989
# 5 -0.7460 -1.9789 6.5674 0.0000 44.2576 0.0000
# 6 0.0000 0.0000 0.0000 -4.8989 0.0000 34.8154
#
#
#
# Elastic Compliance Matrix: (Units=1/GPa)
#
#
# Indices 1 2 3 4 5 6 
#
# 1 0.010422 -0.001765 -0.004592 0.000000 0.000778 0.000000
# 2 -0.001765 0.011325 -0.002467 0.000000 0.000843 0.000000
# 3 -0.004592 -0.002467 0.012510 0.000000 -0.002044 0.000000
# 4 0.000000 0.000000 0.000000 0.034176 0.000000 0.004809
# 5 0.000778 0.000843 -0.002044 0.000000 0.022949 0.000000
# 6 0.000000 0.000000 0.000000 0.004809 0.000000 0.029400
#
#
# Mechanical properties :
#
#
# Convention : Reuss Voigt Hill
#
# Bulk Modulus (GPa) = 60.20997 61.60841 60.90919
# Shear Modulus (GPa) = 34.73018 36.27748 35.50383
#
# Velocity S-wave (km/s) = 4.00982 4.09817 4.05424
# Velocity P-wave (km/s) = 7.02233 7.13552 7.07915
#
# Compressibility (1/GPa) = 0.01660854
#
# Stress axis : x y z
#
# Youngs Moduli (GPa) = 95.94738 88.30196 79.93525
#
# Poissons Ratio (x) = 0.15588 0.36709
# Poissons Ratio (y) = 0.16938 0.19718
# Poissons Ratio (z) = 0.44062 0.21781
#
# Static dielectric constant tensor:
#      x y z
#    x 3.915160 0.000000 0.062440 
#    y 0.000000 3.850120 0.000000 
#    z 0.062440 0.000000 4.058020 
# 
# 
# High freq. dielectric constant tensor:
#      x y z
#    x 1.855720 0.000000 0.002950 
#    y 0.000000 1.852030 0.000000 
#    z 0.002950 0.000000 1.859160 
# 
# From -- ./inp_files/194178.got.cif
#   From: 2010.06.25/outbox.cif.g09.slc.cpg/sg15_98_cif.got.tgz:194178.got - 2010.06.28 07:06:18.
