data_PCOD8153337
_publ_section_title
;
Structure prediction by ZEFSAII (Michael W. Deem and Ramdas Pophale) SiO2 
 PCOD8153337
Probable space group: C 2/C
;
_chemical_formula_sum "Si O2"
_cell_formula_units_Z 52
_cell_length_a 19.106120
_cell_length_b 8.409927
_cell_length_c 14.805174
_cell_angle_alpha 90.000000
_cell_angle_beta 79.573711
_cell_angle_gamma 90.000000
_cell_volume 2339.631967
_symmetry_space_group_name_H-M "C 2/C"
_symmetry_group_IT_number 15
_symmetry_cell_setting 'monoclinic'
loop_
_space_group_symop_operation_xyz
x,y,z
-x,y,1/2-z
-x,-y,-z
x,-y,1/2+z
1/2+x,1/2+y,z
1/2-x,1/2+y,1/2-z
1/2-x,1/2-y,-z
1/2+x,1/2-y,1/2+z
loop_
_atom_site_type_symbol
_atom_site_label
_atom_site_fract_x
_atom_site_fract_y
_atom_site_fract_z
Si Si1 0.862363 0.078394 0.720119
Si Si2 0.816164 0.863973 0.898107
Si Si3 0.458007 0.301104 0.928469
Si Si4 0.989043 0.152405 0.896933
Si Si5 0.000000 0.617138 0.750000
Si Si6 0.619645 0.874077 0.684575
Si Si7 0.244169 0.950108 0.408778
O O1 0.946395 0.088727 0.680029
O O2 0.843284 0.261312 0.748962
O O3 0.817867 0.004821 0.647719
O O4 0.848192 0.964039 0.808394
O O5 0.876965 0.749599 0.928479
O O6 0.757600 0.735637 0.881746
O O7 0.783430 0.978426 0.982853
O O8 0.449239 0.492342 0.933855
O O9 0.506438 0.226219 0.838117
O O10 0.484678 0.248099 0.021058
O O11 0.934072 0.268829 0.862154
O O12 0.071882 0.513215 0.738945
O O13 0.685496 0.943780 0.614234
#
# Coordination Sequence:
#
# PCOD8153337 Si02
#       7
#     8   8   8   8   4   8   8
#     4  12  23  45  71  99 138 185 234 289 358 426
#     4  11  23  45  71  93 138 191 226 295 351 441
#     4  11  23  45  70 100 135 189 234 291 360 431
#     4  11  24  44  74 100 138 182 241 294 357 428
#     4  12  24  42  70 106 140 182 242 300 364 418
#     4  12  25  44  68 107 143 184 237 309 349 425
#     4  11  26  46  65 102 142 183 241 287 367 425
#
# _framework density 22.225717
#
# number of rings (size 3 to 8) (size 9 to 14) (size 15 to 20)
#    0.000    0.615    6.154    1.846    0.000    1.231 
#    8.308    0.000    0.000    0.000    0.000    0.000 
#    0.000    0.000    0.000    0.000    0.000    0.000 
#
# Total GULP energy -322229.720790 kJ/mol
# GULP energy per Si atom -12393.450800 kJ/mol
# Density = 2.217513 g / cm^3
# Si number density = 22.225717 Si / 1000 Ang^3
#
#
#
# Elastic Constant Matrix: (Units=GPa)
#
#
# Indices 1 2 3 4 5 6 
#
# 1 121.9333 24.9379 47.7083 0.0000 -3.7785 0.0000
# 2 24.9379 62.7657 29.7617 0.0000 3.8784 0.0000
# 3 47.7083 29.7617 119.5941 0.0000 -8.1356 0.0000
# 4 0.0000 0.0000 0.0000 25.3900 0.0000 -2.8323
# 5 -3.7785 3.8784 -8.1356 0.0000 37.4807 0.0000
# 6 0.0000 0.0000 0.0000 -2.8323 0.0000 36.1094
#
#
#
# Elastic Compliance Matrix: (Units=1/GPa)
#
#
# Indices 1 2 3 4 5 6 
#
# 1 0.010029 -0.002424 -0.003361 0.000000 0.000532 0.000000
# 2 -0.002424 0.018963 -0.003961 0.000000 -0.003066 0.000000
# 3 -0.003361 -0.003961 0.010853 0.000000 0.002427 0.000000
# 4 0.000000 0.000000 0.000000 0.039733 0.000000 0.003117
# 5 0.000532 -0.003066 0.002427 0.000000 0.027578 0.000000
# 6 0.000000 0.000000 0.000000 0.003117 0.000000 0.027938
#
#
# Mechanical properties :
#
#
# Convention : Reuss Voigt Hill
#
# Bulk Modulus (GPa) = 49.13205 56.56765 52.84985
# Shear Modulus (GPa) = 30.98479 33.25503 32.11991
#
# Velocity S-wave (km/s) = 3.73781 3.87232 3.80566
# Velocity P-wave (km/s) = 6.38610 6.74536 6.56819
#
# Compressibility (1/GPa) = 0.02035331
#
# Stress axis : x y z
#
# Youngs Moduli (GPa) = 99.71577 52.73501 92.13850
#
# Poissons Ratio (x) = 0.12781 0.30970
# Poissons Ratio (y) = 0.24167 0.36494
# Poissons Ratio (z) = 0.33517 0.20887
#
# Static dielectric constant tensor:
#      x y z
#    x 4.090010 0.000000 0.018020 
#    y 0.000000 4.048280 0.000000 
#    z 0.018020 0.000000 4.127690 
# 
# 
# High freq. dielectric constant tensor:
#      x y z
#    x 1.885600 0.000000 -0.004780 
#    y 0.000000 1.863400 0.000000 
#    z -0.004780 0.000000 1.880980 
# 
# From -- ./inp_files/166230.got.cif
#   From: 2010.06.25/outbox.cif.g09.slc.cpg/sg15_84_cif.got.tgz:166230.got - 2010.06.28 07:06:18.
