data_PCOD8153739
_publ_section_title
;
Structure prediction by ZEFSAII (Michael W. Deem and Ramdas Pophale) SiO2 
 PCOD8153739
Probable space group: C 2/C
;
_chemical_formula_sum "Si O2"
_cell_formula_units_Z 40
_cell_length_a 15.530168
_cell_length_b 11.941772
_cell_length_c 8.865968
_cell_angle_alpha 90.000000
_cell_angle_beta 75.240175
_cell_angle_gamma 90.000000
_cell_volume 1590.005330
_symmetry_space_group_name_H-M "C 2/C"
_symmetry_group_IT_number 15
_symmetry_cell_setting 'monoclinic'
loop_
_space_group_symop_operation_xyz
x,y,z
-x,y,1/2-z
-x,-y,-z
x,-y,1/2+z
1/2+x,1/2+y,z
1/2-x,1/2+y,1/2-z
1/2-x,1/2-y,-z
1/2+x,1/2-y,1/2+z
loop_
_atom_site_type_symbol
_atom_site_label
_atom_site_fract_x
_atom_site_fract_y
_atom_site_fract_z
Si Si1 0.359826 0.470776 0.996200
Si Si2 0.504989 0.327313 0.080776
Si Si3 0.271189 0.689083 0.335250
Si Si4 0.167696 0.544035 0.181398
Si Si5 0.888914 0.351471 0.106286
O O1 0.413119 0.385122 0.078604
O O2 0.264739 0.490647 0.114445
O O3 0.413631 0.584599 0.950775
O O4 0.343002 0.410103 0.841219
O O5 0.500000 0.274802 0.250000
O O6 0.523931 0.226458 0.953513
O O7 0.250000 0.750000 0.500000
O O8 0.180074 0.638056 0.306069
O O9 0.308233 0.772135 0.192579
O O10 0.099133 0.449546 0.274993
O O11 0.131536 0.594468 0.045112
#
# Coordination Sequence:
#
# PCOD8153739 Si02
#       5
#     8   8   8   8   8
#     4  11  24  44  72 109 148 182 258 308 375 438
#     4  11  27  44  72 108 154 199 241 310 392 449
#     4  12  24  40  74 111 141 191 247 319 371 433
#     4  12  24  46  76 109 147 194 262 319 363 450
#     4  12  26  46  75 112 150 200 253 318 379 447
#
# _framework density 25.157147999999999
#
# number of rings (size 3 to 8) (size 9 to 14) (size 15 to 20)
#    0.000    0.400    6.000    1.800    5.600    0.000 
#    0.000    1.000    0.000    0.000    0.000    0.000 
#    0.000    0.000    0.000    0.000    0.000    0.000 
#
# Total GULP energy -247987.610377 kJ/mol
# GULP energy per Si atom -12399.380519 kJ/mol
# Density = 2.509989 g / cm^3
# Si number density = 25.157148 Si / 1000 Ang^3
#
#
#
# Elastic Constant Matrix: (Units=GPa)
#
#
# Indices 1 2 3 4 5 6 
#
# 1 41.6243 8.3307 11.6813 0.0000 -0.7645 0.0000
# 2 8.3307 118.3341 54.9633 0.0000 -4.8783 0.0000
# 3 11.6813 54.9633 118.1981 0.0000 3.3143 0.0000
# 4 0.0000 0.0000 0.0000 69.9575 0.0000 -1.2501
# 5 -0.7645 -4.8783 3.3143 0.0000 31.8871 0.0000
# 6 0.0000 0.0000 0.0000 -1.2501 0.0000 18.0032
#
#
#
# Elastic Compliance Matrix: (Units=1/GPa)
#
#
# Indices 1 2 3 4 5 6 
#
# 1 0.024781 -0.000726 -0.002131 0.000000 0.000705 0.000000
# 2 -0.000726 0.010953 -0.005083 0.000000 0.002187 0.000000
# 3 -0.002131 -0.005083 0.011090 0.000000 -0.001981 0.000000
# 4 0.000000 0.000000 0.000000 0.014312 0.000000 0.000994
# 5 0.000705 0.002187 -0.001981 0.000000 0.031918 0.000000
# 6 0.000000 0.000000 0.000000 0.000994 0.000000 0.055615
#
#
# Mechanical properties :
#
#
# Convention : Reuss Voigt Hill
#
# Bulk Modulus (GPa) = 32.31625 47.56745 39.94185
# Shear Modulus (GPa) = 28.59391 37.51497 33.05444
#
# Velocity S-wave (km/s) = 3.37502 3.86583 3.62873
# Velocity P-wave (km/s) = 5.29730 6.23501 5.78518
#
# Compressibility (1/GPa) = 0.03094419
#
# Stress axis : x y z
#
# Youngs Moduli (GPa) = 40.35397 91.30198 90.17058
#
# Poissons Ratio (x) = 0.06624 0.19219
# Poissons Ratio (y) = 0.02928 0.45831
# Poissons Ratio (z) = 0.08601 0.46406
#
# Static dielectric constant tensor:
#      x y z
#    x 4.390890 0.000000 -0.007090 
#    y 0.000000 5.267630 0.000000 
#    z -0.007090 0.000000 4.720910 
# 
# 
# High freq. dielectric constant tensor:
#      x y z
#    x 1.973020 0.000000 0.002240 
#    y 0.000000 2.025470 0.000000 
#    z 0.002240 0.000000 2.017090 
# 
# From -- ./inp_files/46075.got.cif
#   From: 2010.06.25/outbox.cif.g09.slc.cpg/sg15_24_cif.got.tgz:46075.got - 2010.06.28 07:06:18.
