data_PCOD8153689
_publ_section_title
;
Structure prediction by ZEFSAII (Michael W. Deem and Ramdas Pophale) SiO2 
 PCOD8153689
Probable space group: C 2/C
;
_chemical_formula_sum "Si O2"
_cell_formula_units_Z 60
_cell_length_a 14.635244
_cell_length_b 27.834561
_cell_length_c 14.329586
_cell_angle_alpha 90.000000
_cell_angle_beta 29.711705
_cell_angle_gamma 90.000000
_cell_volume 2893.216464
_symmetry_space_group_name_H-M "C 2/C"
_symmetry_group_IT_number 15
_symmetry_cell_setting 'monoclinic'
loop_
_space_group_symop_operation_xyz
x,y,z
-x,y,1/2-z
-x,-y,-z
x,-y,1/2+z
1/2+x,1/2+y,z
1/2-x,1/2+y,1/2-z
1/2-x,1/2-y,-z
1/2+x,1/2-y,1/2+z
loop_
_atom_site_type_symbol
_atom_site_label
_atom_site_fract_x
_atom_site_fract_y
_atom_site_fract_z
Si Si1 0.540265 0.293103 0.010348
Si Si2 0.488377 0.879978 0.366802
Si Si3 0.500000 0.682541 0.750000
Si Si4 0.865275 0.627083 0.454629
Si Si5 0.862961 0.047645 0.784924
Si Si6 0.890335 0.109816 0.583257
Si Si7 0.570428 0.188713 0.420081
Si Si8 0.636446 0.560925 0.215334
O O1 0.511522 0.284456 0.147225
O O2 0.399333 0.333272 0.097532
O O3 0.503898 0.242132 0.994852
O O4 0.742935 0.310752 0.804458
O O5 0.500000 0.862324 0.250000
O O6 0.686338 0.900539 0.224637
O O7 0.411719 0.835032 0.494150
O O8 0.340441 0.922569 0.506132
O O9 0.671870 0.647656 0.593959
O O10 0.833769 0.571021 0.509511
O O11 0.000000 0.632075 0.250000
O O12 0.927806 0.656311 0.489463
O O13 0.938192 0.080175 0.633758
O O14 0.000000 0.048721 0.750000
O O15 0.838729 0.993477 0.769948
O O16 0.050699 0.095167 0.369778
O O17 0.500000 0.562912 0.250000
#
# Coordination Sequence:
#
# PCOD8153689 Si02
#       8
#     8   8   4   8   8   8   8   8
#     4  12  25  43  72 100 143 182 225 280 343 421
#     4  12  25  46  73  98 135 182 237 297 342 402
#     4  12  22  42  66 100 142 184 222 272 334 418
#     4  12  23  40  64 100 142 184 222 271 341 414
#     4  11  24  44  68 103 144 179 228 283 342 415
#     4  12  23  46  71 101 139 179 230 284 348 411
#     4  12  26  44  66 103 139 181 232 282 344 413
#     4  11  25  46  71 100 134 184 233 287 351 404
#
# _framework density 20.738164000000001
#
# number of rings (size 3 to 8) (size 9 to 14) (size 15 to 20)
#    0.000    0.267    7.333    2.000    0.933    2.133 
#    0.000    3.333    0.000    0.000    0.000    0.000 
#    0.000    0.000    0.000    0.000    0.000    0.000 
#
# Total GULP energy -372075.151643 kJ/mol
# GULP energy per Si atom -12402.505055 kJ/mol
# Density = 2.069096 g / cm^3
# Si number density = 20.738164 Si / 1000 Ang^3
#
#
#
# Elastic Constant Matrix: (Units=GPa)
#
#
# Indices 1 2 3 4 5 6 
#
# 1 95.2856 49.4786 42.5290 0.0138 9.9528 -0.0109
# 2 49.4786 143.9342 34.5354 0.0104 5.6093 -0.0073
# 3 42.5290 34.5354 123.4213 0.0443 3.5045 -0.0389
# 4 0.0138 0.0104 0.0443 29.6213 -0.0209 -3.0023
# 5 9.9528 5.6093 3.5045 -0.0209 45.4171 0.0144
# 6 -0.0109 -0.0073 -0.0389 -3.0023 0.0144 26.2856
#
#
#
# Elastic Compliance Matrix: (Units=1/GPa)
#
#
# Indices 1 2 3 4 5 6 
#
# 1 0.014517 -0.003980 -0.003821 -0.000001 -0.002395 0.000000
# 2 -0.003980 0.008565 -0.001022 0.000000 -0.000107 -0.000001
# 3 -0.003821 -0.001022 0.009699 -0.000011 0.000215 0.000011
# 4 -0.000001 0.000000 -0.000011 0.034155 0.000016 0.003901
# 5 -0.002395 -0.000107 0.000215 0.000016 0.022540 -0.000011
# 6 0.000000 -0.000001 0.000011 0.003901 -0.000011 0.038489
#
#
# Mechanical properties :
#
#
# Convention : Reuss Voigt Hill
#
# Bulk Modulus (GPa) = 66.07194 68.41414 67.24304
# Shear Modulus (GPa) = 33.18825 36.00467 34.59646
#
# Velocity S-wave (km/s) = 4.00477 4.17124 4.08885
# Velocity P-wave (km/s) = 7.30161 7.50067 7.40181
#
# Compressibility (1/GPa) = 0.01513502
#
# Stress axis : x y z
#
# Youngs Moduli (GPa) = 68.88475 116.75016 103.10613
#
# Poissons Ratio (x) = 0.46470 0.39392
# Poissons Ratio (y) = 0.27418 0.10539
# Poissons Ratio (z) = 0.26318 0.11933
#
# Static dielectric constant tensor:
#      x y z
#    x 3.777460 -0.000030 -0.153270 
#    y -0.000030 3.911760 -0.000080 
#    z -0.153270 -0.000080 2.391920 
# 
# 
# High freq. dielectric constant tensor:
#      x y z
#    x 1.809390 0.000000 0.003510 
#    y 0.000000 1.810870 0.000000 
#    z 0.003510 0.000000 1.829990 
# 
# From -- ./inp_files/157336.got.cif
#   From: 2010.06.25/outbox.cif.g09.slc.cpg/sg15_79_cif.got.tgz:157336.got - 2010.06.28 07:06:18.
