data_PCOD8153372
_publ_section_title
;
Structure prediction by ZEFSAII (Michael W. Deem and Ramdas Pophale) SiO2 
 PCOD8153372
Probable space group: C 2/C
;
_chemical_formula_sum "Si O2"
_cell_formula_units_Z 32
_cell_length_a 14.237994
_cell_length_b 16.304536
_cell_length_c 10.607611
_cell_angle_alpha 90.000000
_cell_angle_beta 150.544395
_cell_angle_gamma 90.000000
_cell_volume 1210.928062
_symmetry_space_group_name_H-M "C 2/C"
_symmetry_group_IT_number 15
_symmetry_cell_setting 'monoclinic'
loop_
_space_group_symop_operation_xyz
x,y,z
-x,y,1/2-z
-x,-y,-z
x,-y,1/2+z
1/2+x,1/2+y,z
1/2-x,1/2+y,1/2-z
1/2-x,1/2-y,-z
1/2+x,1/2-y,1/2+z
loop_
_atom_site_type_symbol
_atom_site_label
_atom_site_fract_x
_atom_site_fract_y
_atom_site_fract_z
Si Si1 0.638403 0.398376 0.810895
Si Si2 0.199820 0.154308 0.719462
Si Si3 0.414874 0.836914 0.942984
Si Si4 0.787325 0.920880 0.015813
O O1 0.500000 0.348514 0.750000
O O2 0.482000 0.406577 0.514385
O O3 0.823629 0.350314 0.975151
O O4 0.708841 0.481962 0.955316
O O5 0.125095 0.246168 0.653451
O O6 0.304652 0.124181 0.969849
O O7 0.354790 0.149998 0.785457
O O8 0.331349 0.904074 0.748711
O O9 0.000000 0.884953 0.250000
#
# Coordination Sequence:
#
# PCOD8153372 Si02
#       4
#     8   8   8   8
#     4  11  27  47  70 103 153 191 233 295 362 430
#     4  12  24  47  76 106 142 192 240 298 360 420
#     4  12  25  47  75 107 141 190 246 297 353 428
#     4  11  23  45  74 104 147 184 237 306 355 415
#
# _framework density 26.426012
#
# number of rings (size 3 to 8) (size 9 to 14) (size 15 to 20)
#    0.000    0.500    5.000    2.250    3.500    3.000 
#    9.000    0.000    0.000    0.000    0.000    0.000 
#    0.000    0.000    0.000    0.000    0.000    0.000 
#
# Total GULP energy -198345.866160 kJ/mol
# GULP energy per Si atom -12396.616635 kJ/mol
# Density = 2.636587 g / cm^3
# Si number density = 26.426012 Si / 1000 Ang^3
#
#
#
# Elastic Constant Matrix: (Units=GPa)
#
#
# Indices 1 2 3 4 5 6 
#
# 1 123.3476 16.3767 -15.6710 0.0000 34.1939 0.0000
# 2 16.3767 114.4941 19.8322 0.0000 -0.1247 0.0000
# 3 -15.6710 19.8322 55.4890 0.0000 32.7745 0.0000
# 4 0.0000 0.0000 0.0000 16.8429 0.0000 -0.8810
# 5 34.1939 -0.1247 32.7745 0.0000 51.0500 0.0000
# 6 0.0000 0.0000 0.0000 -0.8810 0.0000 43.1896
#
#
#
# Elastic Compliance Matrix: (Units=1/GPa)
#
#
# Indices 1 2 3 4 5 6 
#
# 1 0.022136 -0.008213 0.028924 0.000000 -0.033417 0.000000
# 2 -0.008213 0.012757 -0.016344 0.000000 0.016025 0.000000
# 3 0.028924 -0.016344 0.070069 0.000000 -0.064399 0.000000
# 4 0.000000 0.000000 0.000000 0.059436 0.000000 0.001212
# 5 -0.033417 0.016025 -0.064399 0.000000 0.083355 0.000000
# 6 0.000000 0.000000 0.000000 0.001212 0.000000 0.023178
#
#
# Mechanical properties :
#
#
# Convention : Reuss Voigt Hill
#
# Bulk Modulus (GPa) = 8.79531 37.15625 22.97578
# Shear Modulus (GPa) = 16.66133 40.40269 28.53201
#
# Velocity S-wave (km/s) = 2.51368 3.91436 3.28943
# Velocity P-wave (km/s) = 3.42933 5.87542 4.81045
#
# Compressibility (1/GPa) = 0.11369693
#
# Stress axis : x y z
#
# Youngs Moduli (GPa) = 45.17517 78.38615 14.27166
#
# Poissons Ratio (x) = 0.64377 -0.41280
# Poissons Ratio (y) = 0.37102 0.23326
# Poissons Ratio (z) = -1.30667 1.28118
#
# Static dielectric constant tensor:
#      x y z
#    x 5.295690 0.000000 0.171830 
#    y 0.000000 4.208700 0.000000 
#    z 0.171830 0.000000 4.835710 
# 
# 
# High freq. dielectric constant tensor:
#      x y z
#    x 2.086270 0.000000 0.008950 
#    y 0.000000 2.032280 0.000000 
#    z 0.008950 0.000000 2.063270 
# 
# From -- ./inp_files/86998.got.cif
#   From: 2010.06.25/outbox.cif.g09.slc.cpg/sg15_44_cif.got.tgz:86998.got - 2010.06.28 07:06:18.
