data_PCOD8153972
_publ_section_title
;
Structure prediction by ZEFSAII (Michael W. Deem and Ramdas Pophale) SiO2 
 PCOD8153972
Probable space group: C 2/C
;
_chemical_formula_sum "Si O2"
_cell_formula_units_Z 52
_cell_length_a 8.229489
_cell_length_b 30.597590
_cell_length_c 10.752108
_cell_angle_alpha 90.000000
_cell_angle_beta 59.668246
_cell_angle_gamma 90.000000
_cell_volume 2336.806630
_symmetry_space_group_name_H-M "C 2/C"
_symmetry_group_IT_number 15
_symmetry_cell_setting 'monoclinic'
loop_
_space_group_symop_operation_xyz
x,y,z
-x,y,1/2-z
-x,-y,-z
x,-y,1/2+z
1/2+x,1/2+y,z
1/2-x,1/2+y,1/2-z
1/2-x,1/2-y,-z
1/2+x,1/2-y,1/2+z
loop_
_atom_site_type_symbol
_atom_site_label
_atom_site_fract_x
_atom_site_fract_y
_atom_site_fract_z
Si Si1 0.713608 0.827222 0.799177
Si Si2 0.592733 0.043673 0.415699
Si Si3 0.500000 0.900283 0.750000
Si Si4 0.393913 0.325775 0.980053
Si Si5 0.528234 0.256195 0.109573
Si Si6 0.698970 0.908842 0.123456
Si Si7 0.115972 0.989564 0.329614
O O1 0.664883 0.871884 0.747006
O O2 0.725368 0.828586 0.944704
O O3 0.556005 0.791602 0.834811
O O4 0.913531 0.817355 0.664844
O O5 0.437288 0.069916 0.393188
O O6 0.681417 0.072824 0.490265
O O7 0.500000 0.000000 0.500000
O O8 0.757883 0.031685 0.253448
O O9 0.395163 0.282964 0.066340
O O10 0.360415 0.370998 0.068528
O O11 0.500000 0.282109 0.250000
O O12 0.750000 0.250000 0.000000
O O13 0.500000 0.889909 0.250000
O O14 0.754655 0.947503 0.195508
O O15 0.000000 0.978403 0.250000
O O16 0.000000 0.000000 0.500000
#
# Coordination Sequence:
#
# PCOD8153972 Si02
#       7
#     8   8   4   8   8   8   8
#     4  11  24  47  74 108 143 200 254 304 381 463
#     4  12  25  45  72 104 148 200 252 315 380 453
#     4  12  24  42  78 102 144 196 254 304 374 462
#     4  11  26  46  73 105 153 189 244 322 377 454
#     4  12  24  48  77 110 148 191 251 305 379 462
#     4  12  26  47  69 107 152 197 258 312 390 457
#     4  12  27  44  73 106 145 198 258 317 384 453
#
# _framework density 22.252589
#
# number of rings (size 3 to 8) (size 9 to 14) (size 15 to 20)
#    0.000    0.308    6.923    1.385    2.154    1.846 
#    5.538    0.000    0.000    0.000    0.000    0.000 
#    0.000    0.000    0.000    0.000    0.000    0.000 
#
# Total GULP energy -322094.949962 kJ/mol
# GULP energy per Si atom -12388.267306 kJ/mol
# Density = 2.220194 g / cm^3
# Si number density = 22.252589 Si / 1000 Ang^3
#
#
#
# Elastic Constant Matrix: (Units=GPa)
#
#
# Indices 1 2 3 4 5 6 
#
# 1 126.3890 54.4544 52.6699 0.0000 26.8995 0.0000
# 2 54.4544 130.6817 50.5138 0.0000 9.6949 0.0000
# 3 52.6699 50.5138 139.6931 0.0000 7.6399 0.0000
# 4 0.0000 0.0000 0.0000 34.9996 0.0000 6.7792
# 5 26.8995 9.6949 7.6399 0.0000 51.7852 0.0000
# 6 0.0000 0.0000 0.0000 6.7792 0.0000 51.6624
#
#
#
# Elastic Compliance Matrix: (Units=1/GPa)
#
#
# Indices 1 2 3 4 5 6 
#
# 1 0.011626 -0.003355 -0.002898 0.000000 -0.004983 0.000000
# 2 -0.003355 0.009938 -0.002341 0.000000 0.000227 0.000000
# 3 -0.002898 -0.002341 0.009065 0.000000 0.000606 0.000000
# 4 0.000000 0.000000 0.000000 0.029317 0.000000 -0.003847
# 5 -0.004983 0.000227 0.000606 0.000000 0.021767 0.000000
# 6 0.000000 0.000000 0.000000 -0.003847 0.000000 0.019861
#
#
# Mechanical properties :
#
#
# Convention : Reuss Voigt Hill
#
# Bulk Modulus (GPa) = 74.39868 79.11555 76.75712
# Shear Modulus (GPa) = 40.57094 43.63118 42.10106
#
# Velocity S-wave (km/s) = 4.27453 4.43281 4.35439
# Velocity P-wave (km/s) = 7.60713 7.86323 7.73624
#
# Compressibility (1/GPa) = 0.01344110
#
# Stress axis : x y z
#
# Youngs Moduli (GPa) = 86.01761 100.62244 110.31934
#
# Poissons Ratio (x) = 0.33754 0.31968
# Poissons Ratio (y) = 0.28855 0.25829
# Poissons Ratio (z) = 0.24926 0.23559
#
# Static dielectric constant tensor:
#      x y z
#    x 4.373780 0.000000 0.412910 
#    y 0.000000 4.103660 0.000000 
#    z 0.412910 0.000000 4.310020 
# 
# 
# High freq. dielectric constant tensor:
#      x y z
#    x 1.882830 0.000000 0.022820 
#    y 0.000000 1.878250 0.000000 
#    z 0.022820 0.000000 1.883770 
# 
# From -- ./inp_files/81197.got.cif
#   From: 2010.06.25/outbox.cif.g09.slc.cpg/sg15_41_cif.got.tgz:81197.got - 2010.06.28 07:06:18.
