data_PCOD8153172
_publ_section_title
;
Structure prediction by ZEFSAII (Michael W. Deem and Ramdas Pophale) SiO2 
 PCOD8153172
Probable space group: C 2/C
;
_chemical_formula_sum "Si O2"
_cell_formula_units_Z 60
_cell_length_a 8.969167
_cell_length_b 26.667123
_cell_length_c 18.678421
_cell_angle_alpha 90.000000
_cell_angle_beta 139.509363
_cell_angle_gamma 90.000000
_cell_volume 2900.879848
_symmetry_space_group_name_H-M "C 2/C"
_symmetry_group_IT_number 15
_symmetry_cell_setting 'monoclinic'
loop_
_space_group_symop_operation_xyz
x,y,z
-x,y,1/2-z
-x,-y,-z
x,-y,1/2+z
1/2+x,1/2+y,z
1/2-x,1/2+y,1/2-z
1/2-x,1/2-y,-z
1/2+x,1/2-y,1/2+z
loop_
_atom_site_type_symbol
_atom_site_label
_atom_site_fract_x
_atom_site_fract_y
_atom_site_fract_z
Si Si1 0.534602 0.649779 0.413131
Si Si2 0.221726 0.739620 0.280499
Si Si3 0.169883 0.383540 0.872935
Si Si4 0.917086 0.703318 0.054139
Si Si5 0.500000 0.598399 0.250000
Si Si6 0.236122 0.557235 0.640082
Si Si7 0.448166 0.164623 0.905892
Si Si8 0.028939 0.541075 0.098484
O O1 0.414529 0.703358 0.384374
O O2 0.418375 0.609946 0.426038
O O3 0.491640 0.633001 0.316474
O O4 0.798701 0.653623 0.530445
O O5 0.324038 0.795448 0.309317
O O6 0.000000 0.742097 0.250000
O O7 0.156385 0.719524 0.177895
O O8 0.187329 0.345387 0.945318
O O9 0.067756 0.436515 0.862628
O O10 0.000000 0.360727 0.750000
O O11 0.750000 0.750000 0.000000
O O12 0.964370 0.688376 0.990472
O O13 0.731833 0.566026 0.339338
O O14 0.500000 0.543450 0.750000
O O15 0.194992 0.613631 0.650788
O O16 0.168533 0.550683 0.532367
O O17 0.077402 0.518083 0.626839
#
# Coordination Sequence:
#
# PCOD8153172 Si02
#       8
#     8   8   8   8   4   8   8   8
#     4  12  22  38  65  98 131 170 221 277 331 401
#     4  12  22  39  60  93 129 173 219 275 332 397
#     4  12  21  40  67  96 133 168 220 285 339 390
#     4  12  22  39  62  97 131 174 226 271 335 401
#     4  12  20  40  70 102 126 168 232 278 328 394
#     4  11  24  43  72  98 134 176 227 276 339 410
#     4  12  25  41  64  96 134 178 225 275 338 411
#     4  11  23  43  70 105 127 171 228 286 332 399
#
# _framework density 20.683378000000001
#
# number of rings (size 3 to 8) (size 9 to 14) (size 15 to 20)
#    0.000    0.267    8.667    1.600    0.000    0.000 
#    0.000    0.667    0.000    3.200    0.000    0.000 
#    0.000    0.000    0.000    0.000    0.000    0.000 
#
# Total GULP energy -372052.537758 kJ/mol
# GULP energy per Si atom -12401.751259 kJ/mol
# Density = 2.063630 g / cm^3
# Si number density = 20.683378 Si / 1000 Ang^3
#
#
#
# Elastic Constant Matrix: (Units=GPa)
#
#
# Indices 1 2 3 4 5 6 
#
# 1 109.3928 38.0381 27.1363 -0.0001 13.9900 0.0000
# 2 38.0381 120.9791 23.6391 -0.0002 1.7847 0.0001
# 3 27.1363 23.6391 87.2473 -0.0009 17.6499 0.0003
# 4 -0.0001 -0.0002 -0.0009 30.2173 -0.0003 -3.2029
# 5 13.9900 1.7847 17.6499 -0.0003 24.8336 0.0001
# 6 0.0000 0.0001 0.0003 -3.2029 0.0001 29.3731
#
#
#
# Elastic Compliance Matrix: (Units=1/GPa)
#
#
# Indices 1 2 3 4 5 6 
#
# 1 0.011280 -0.003151 -0.001653 0.000000 -0.004954 0.000000
# 2 -0.003151 0.009640 -0.002162 0.000000 0.002619 0.000000
# 3 -0.001653 -0.002162 0.014414 0.000000 -0.009158 0.000000
# 4 0.000000 0.000000 0.000000 0.033481 0.000000 0.003651
# 5 -0.004954 0.002619 -0.009158 0.000000 0.049379 0.000000
# 6 0.000000 0.000000 0.000000 0.003651 0.000000 0.034443
#
#
# Mechanical properties :
#
#
# Convention : Reuss Voigt Hill
#
# Bulk Modulus (GPa) = 46.71939 55.02737 50.87338
# Shear Modulus (GPa) = 28.78479 32.13853 30.46166
#
# Velocity S-wave (km/s) = 3.73458 3.94615 3.84182
# Velocity P-wave (km/s) = 6.42130 6.88659 6.65801
#
# Compressibility (1/GPa) = 0.02140439
#
# Stress axis : x y z
#
# Youngs Moduli (GPa) = 88.64884 103.73092 69.37672
#
# Poissons Ratio (x) = 0.32683 0.11466
# Poissons Ratio (y) = 0.27931 0.14997
# Poissons Ratio (z) = 0.14651 0.22424
#
# Static dielectric constant tensor:
#      x y z
#    x 3.831240 0.000000 -0.019460 
#    y 0.000000 3.986880 0.000000 
#    z -0.019460 0.000000 4.063570 
# 
# 
# High freq. dielectric constant tensor:
#      x y z
#    x 1.793450 0.000000 0.010740 
#    y 0.000000 1.816020 0.000000 
#    z 0.010740 0.000000 1.807780 
# 
# From -- ./inp_files/234798.got.cif
#   From: 2010.06.25/outbox.cif.g09.slc.cpg/sg15_118_cif.got.tgz:234798.got - 2010.06.28 07:06:18.
