data_PCOD8153994
_publ_section_title
;
Structure prediction by ZEFSAII (Michael W. Deem and Ramdas Pophale) SiO2 
 PCOD8153994
Probable space group: C 2/C
;
_chemical_formula_sum "Si O2"
_cell_formula_units_Z 36
_cell_length_a 11.027498
_cell_length_b 8.423861
_cell_length_c 15.880170
_cell_angle_alpha 90.000000
_cell_angle_beta 116.629286
_cell_angle_gamma 90.000000
_cell_volume 1318.695528
_symmetry_space_group_name_H-M "C 2/C"
_symmetry_group_IT_number 15
_symmetry_cell_setting 'monoclinic'
loop_
_space_group_symop_operation_xyz
x,y,z
-x,y,1/2-z
-x,-y,-z
x,-y,1/2+z
1/2+x,1/2+y,z
1/2-x,1/2+y,1/2-z
1/2-x,1/2-y,-z
1/2+x,1/2-y,1/2+z
loop_
_atom_site_type_symbol
_atom_site_label
_atom_site_fract_x
_atom_site_fract_y
_atom_site_fract_z
Si Si1 0.500000 0.571374 0.250000
Si Si2 0.149944 0.142871 0.682874
Si Si3 0.595731 0.132932 0.487767
Si Si4 0.768939 0.350263 0.636484
Si Si5 0.743454 0.147776 0.080431
O O1 0.474309 0.465188 0.325277
O O2 0.369829 0.678075 0.183825
O O3 0.213265 0.225896 0.782959
O O4 0.112421 0.278588 0.598101
O O5 0.257665 0.027993 0.669879
O O6 0.626994 0.298106 0.546202
O O7 0.600282 0.152365 0.386767
O O8 0.500000 0.000000 0.500000
O O9 0.737206 0.034592 0.552598
O O10 0.750000 0.250000 0.000000
#
# Coordination Sequence:
#
# PCOD8153994 Si02
#       5
#     4   8   8   8   8
#     4  12  28  48  76 110 160 202 256 324 388 466
#     4  12  25  46  74 106 156 198 262 318 392 460
#     4  11  26  46  75 111 154 201 262 325 396 471
#     4  11  24  48  70 112 154 199 262 321 390 470
#     4  12  27  49  75 113 147 209 260 320 393 467
#
# _framework density 27.299706
#
# number of rings (size 3 to 8) (size 9 to 14) (size 15 to 20)
#    0.000    0.444    6.667    0.000    6.222    0.889 
#    0.000    0.000    0.000    0.000    0.000    0.000 
#    0.000    0.000    0.000    0.000    0.000    0.000 
#
# Total GULP energy -222996.814300 kJ/mol
# GULP energy per Si atom -12388.711906 kJ/mol
# Density = 2.723757 g / cm^3
# Si number density = 27.299706 Si / 1000 Ang^3
#
#
#
# Elastic Constant Matrix: (Units=GPa)
#
#
# Indices 1 2 3 4 5 6 
#
# 1 93.1619 14.9093 42.6552 0.0000 -46.2861 0.0000
# 2 14.9093 122.6866 61.2080 0.0000 -27.1831 0.0000
# 3 42.6552 61.2080 147.9335 0.0000 -40.9207 0.0000
# 4 0.0000 0.0000 0.0000 75.2489 0.0000 -11.7870
# 5 -46.2861 -27.1831 -40.9207 0.0000 55.7787 0.0000
# 6 0.0000 0.0000 0.0000 -11.7870 0.0000 44.0602
#
#
#
# Elastic Compliance Matrix: (Units=1/GPa)
#
#
# Indices 1 2 3 4 5 6 
#
# 1 0.018901 0.002127 -0.002139 0.000000 0.015152 0.000000
# 2 0.002127 0.010766 -0.003925 0.000000 0.004133 0.000000
# 3 -0.002139 -0.003925 0.010012 0.000000 0.003658 0.000000
# 4 0.000000 0.000000 0.000000 0.013870 0.000000 0.003711
# 5 0.015152 0.004133 0.003658 0.000000 0.035199 0.000000
# 6 0.000000 0.000000 0.000000 0.003711 0.000000 0.023689
#
#
# Mechanical properties :
#
#
# Convention : Reuss Voigt Hill
#
# Bulk Modulus (GPa) = 31.44015 66.81413 49.12714
# Shear Modulus (GPa) = 38.19373 51.35151 44.77262
#
# Velocity S-wave (km/s) = 3.74445 4.34179 4.05413
# Velocity P-wave (km/s) = 5.49875 7.04715 6.32054
#
# Compressibility (1/GPa) = 0.03180646
#
# Stress axis : x y z
#
# Youngs Moduli (GPa) = 52.90785 92.88489 99.87881
#
# Poissons Ratio (x) = -0.19759 0.21362
# Poissons Ratio (y) = -0.11255 0.39199
# Poissons Ratio (z) = 0.11316 0.36454
#
# Static dielectric constant tensor:
#      x y z
#    x 6.199480 0.000000 0.547490 
#    y 0.000000 6.168760 0.000000 
#    z 0.547490 0.000000 5.861310 
# 
# 
# High freq. dielectric constant tensor:
#      x y z
#    x 2.113150 0.000000 -0.020120 
#    y 0.000000 2.125200 0.000000 
#    z -0.020120 0.000000 2.110340 
# 
# From -- ./inp_files/195287.got.cif
#   From: 2010.06.25/outbox.cif.g09.slc.cpg/sg15_98_cif.got.tgz:195287.got - 2010.06.28 07:06:18.
