data_PCOD8153362
_publ_section_title
;
Structure prediction by ZEFSAII (Michael W. Deem and Ramdas Pophale) SiO2 
 PCOD8153362
Probable space group: C 2/C
;
_chemical_formula_sum "Si O2"
_cell_formula_units_Z 44
_cell_length_a 10.365420
_cell_length_b 11.023493
_cell_length_c 23.504693
_cell_angle_alpha 90.000000
_cell_angle_beta 140.349009
_cell_angle_gamma 90.000000
_cell_volume 1713.783289
_symmetry_space_group_name_H-M "C 2/C"
_symmetry_group_IT_number 15
_symmetry_cell_setting 'monoclinic'
loop_
_space_group_symop_operation_xyz
x,y,z
-x,y,1/2-z
-x,-y,-z
x,-y,1/2+z
1/2+x,1/2+y,z
1/2-x,1/2+y,1/2-z
1/2-x,1/2-y,-z
1/2+x,1/2-y,1/2+z
loop_
_atom_site_type_symbol
_atom_site_label
_atom_site_fract_x
_atom_site_fract_y
_atom_site_fract_z
Si Si1 0.297446 0.901059 0.092246
Si Si2 0.165204 0.422185 0.712507
Si Si3 0.744457 0.119689 0.579374
Si Si4 0.000000 0.752078 0.250000
Si Si5 0.691318 0.849156 0.595016
Si Si6 0.480743 0.488361 0.403588
O O1 0.329396 0.757555 0.114804
O O2 0.202563 0.958746 0.116786
O O3 0.514023 0.962778 0.152616
O O4 0.142278 0.921376 0.987694
O O5 0.229658 0.363720 0.674839
O O6 0.378348 0.454064 0.813025
O O7 0.052033 0.324856 0.712590
O O8 0.816349 0.163994 0.665994
O O9 0.541783 0.190680 0.494736
O O10 0.905496 0.133462 0.581599
O O11 0.722344 0.973700 0.572110
#
# Coordination Sequence:
#
# PCOD8153362 Si02
#       6
#     8   8   8   4   8   8
#     4  11  24  46  75 110 142 194 248 312 373 445
#     4  12  24  47  72 109 142 195 247 311 373 447
#     4  11  25  47  68 105 143 200 236 304 385 446
#     4  12  24  44  70  98 144 190 246 290 378 444
#     4  11  26  46  72 103 152 186 251 308 377 454
#     4  11  23  45  73 106 143 186 249 298 373 445
#
# _framework density 25.674192000000001
#
# number of rings (size 3 to 8) (size 9 to 14) (size 15 to 20)
#    0.000    0.727    3.636    3.273    2.545    2.182 
#   16.364    0.000    0.000    0.000    0.000    0.000 
#    0.000    0.000    0.000    0.000    0.000    0.000 
#
# Total GULP energy -272797.798066 kJ/mol
# GULP energy per Si atom -12399.899912 kJ/mol
# Density = 2.561576 g / cm^3
# Si number density = 25.674192 Si / 1000 Ang^3
#
#
#
# Elastic Constant Matrix: (Units=GPa)
#
#
# Indices 1 2 3 4 5 6 
#
# 1 58.1744 4.8403 5.5762 0.0000 -9.5512 0.0000
# 2 4.8403 103.4502 19.4524 0.0000 -0.1985 0.0000
# 3 5.5762 19.4524 161.6256 0.0000 -5.4456 0.0000
# 4 0.0000 0.0000 0.0000 32.0778 0.0000 -3.6664
# 5 -9.5512 -0.1985 -5.4456 0.0000 39.7244 0.0000
# 6 0.0000 0.0000 0.0000 -3.6664 0.0000 20.9986
#
#
#
# Elastic Compliance Matrix: (Units=1/GPa)
#
#
# Indices 1 2 3 4 5 6 
#
# 1 0.017991 -0.000761 -0.000385 0.000000 0.004269 0.000000
# 2 -0.000761 0.009923 -0.001178 0.000000 -0.000295 0.000000
# 3 -0.000385 -0.001178 0.006368 0.000000 0.000774 0.000000
# 4 0.000000 0.000000 0.000000 0.031809 0.000000 0.005554
# 5 0.004269 -0.000295 0.000774 0.000000 0.026305 0.000000
# 6 0.000000 0.000000 0.000000 0.005554 0.000000 0.048592
#
#
# Mechanical properties :
#
#
# Convention : Reuss Voigt Hill
#
# Bulk Modulus (GPa) = 33.74563 42.55424 38.14993
# Shear Modulus (GPa) = 32.15139 38.11890 35.13515
#
# Velocity S-wave (km/s) = 3.54260 3.85738 3.70334
# Velocity P-wave (km/s) = 5.46861 6.03737 5.76002
#
# Compressibility (1/GPa) = 0.02963347
#
# Stress axis : x y z
#
# Youngs Moduli (GPa) = 55.58378 100.77563 157.02780
#
# Poissons Ratio (x) = 0.07670 0.06050
# Poissons Ratio (y) = 0.04231 0.18497
# Poissons Ratio (z) = 0.02141 0.11871
#
# Static dielectric constant tensor:
#      x y z
#    x 4.801410 0.000000 0.066280 
#    y 0.000000 4.505770 0.000000 
#    z 0.066280 0.000000 4.716260 
# 
# 
# High freq. dielectric constant tensor:
#      x y z
#    x 2.037230 0.000000 -0.007400 
#    y 0.000000 2.012450 0.000000 
#    z -0.007400 0.000000 2.042210 
# 
# From -- ./inp_files/269368.got.cif
#   From: 2010.06.25/outbox.cif.g09.slc.cpg/sg15_135_cif.got.tgz:269368.got - 2010.06.28 07:06:18.
