data_PCOD8153045
_publ_section_title
;
Structure prediction by ZEFSAII (Michael W. Deem and Ramdas Pophale) SiO2 
 PCOD8153045
Probable space group: C 2/C
;
_chemical_formula_sum "Si O2"
_cell_formula_units_Z 40
_cell_length_a 9.683911
_cell_length_b 27.074536
_cell_length_c 11.852850
_cell_angle_alpha 90.000000
_cell_angle_beta 142.023760
_cell_angle_gamma 90.000000
_cell_volume 1912.255708
_symmetry_space_group_name_H-M "C 2/C"
_symmetry_group_IT_number 15
_symmetry_cell_setting 'monoclinic'
loop_
_space_group_symop_operation_xyz
x,y,z
-x,y,1/2-z
-x,-y,-z
x,-y,1/2+z
1/2+x,1/2+y,z
1/2-x,1/2+y,1/2-z
1/2-x,1/2-y,-z
1/2+x,1/2-y,1/2+z
loop_
_atom_site_type_symbol
_atom_site_label
_atom_site_fract_x
_atom_site_fract_y
_atom_site_fract_z
Si Si1 0.229722 0.686704 0.252082
Si Si2 0.500000 0.116261 0.250000
Si Si3 0.000000 0.869359 0.750000
Si Si4 0.463114 0.718119 0.607548
Si Si5 0.233557 0.944544 0.068673
Si Si6 0.421486 0.448624 0.077525
O O1 0.323764 0.667167 0.195491
O O2 0.416478 0.681235 0.473556
O O3 0.163289 0.744334 0.200154
O O4 0.021500 0.651662 0.153870
O O5 0.718224 0.083104 0.399234
O O6 0.867822 0.901349 0.573379
O O7 0.500000 0.688607 0.750000
O O8 0.250000 0.750000 0.500000
O O9 0.500000 0.937988 0.250000
O O10 0.131048 0.943662 0.128073
O O11 0.167990 0.995676 0.967191
O O12 0.500000 0.429850 0.250000
#
# Coordination Sequence:
#
# PCOD8153045 Si02
#       6
#     8   4   4   8   8   8
#     4  11  23  42  68  95 132 173 214 287 335 395
#     4  12  22  42  66 106 124 172 240 268 316 402
#     4  12  26  46  62 100 144 172 224 272 336 408
#     4   9  18  40  67  92 123 162 215 276 335 383
#     4  11  25  45  65  97 140 182 214 277 341 381
#     4  11  25  42  70  98 131 183 228 270 329 391
#
# _framework density 20.917705000000002
#
# number of rings (size 3 to 8) (size 9 to 14) (size 15 to 20)
#    0.000    1.200    7.000    0.000    2.800    2.400 
#    7.200    0.000    0.000    0.000    0.000    0.000 
#    0.000    0.000    0.000    0.000    0.000    0.000 
#
# Total GULP energy -247915.599701 kJ/mol
# GULP energy per Si atom -12395.779985 kJ/mol
# Density = 2.087009 g / cm^3
# Si number density = 20.917705 Si / 1000 Ang^3
#
#
#
# Elastic Constant Matrix: (Units=GPa)
#
#
# Indices 1 2 3 4 5 6 
#
# 1 109.0083 31.5077 20.7905 0.0000 5.5567 0.0000
# 2 31.5077 72.3179 9.7412 0.0000 -0.3391 0.0000
# 3 20.7905 9.7412 83.3854 0.0000 2.8713 0.0000
# 4 0.0000 0.0000 0.0000 15.8295 0.0000 3.8191
# 5 5.5567 -0.3391 2.8713 0.0000 37.3707 0.0000
# 6 0.0000 0.0000 0.0000 3.8191 0.0000 32.0869
#
#
#
# Elastic Compliance Matrix: (Units=1/GPa)
#
#
# Indices 1 2 3 4 5 6 
#
# 1 0.010960 -0.004492 -0.002156 0.000000 -0.001505 0.000000
# 2 -0.004492 0.015892 -0.000767 0.000000 0.000871 0.000000
# 3 -0.002156 -0.000767 0.012642 0.000000 -0.000658 0.000000
# 4 0.000000 0.000000 0.000000 0.065041 0.000000 -0.007741
# 5 -0.001505 0.000871 -0.000658 0.000000 0.027041 0.000000
# 6 0.000000 0.000000 0.000000 -0.007741 0.000000 0.032087
#
#
# Mechanical properties :
#
#
# Convention : Reuss Voigt Hill
#
# Bulk Modulus (GPa) = 40.54242 43.19892 41.87067
# Shear Modulus (GPa) = 26.77902 30.56891 28.67397
#
# Velocity S-wave (km/s) = 3.58188 3.82696 3.70645
# Velocity P-wave (km/s) = 6.04404 6.34225 6.19494
#
# Compressibility (1/GPa) = 0.02466553
#
# Stress axis : x y z
#
# Youngs Moduli (GPa) = 91.24264 62.92433 79.09963
#
# Poissons Ratio (x) = 0.28263 0.17054
# Poissons Ratio (y) = 0.40983 0.06064
# Poissons Ratio (z) = 0.19673 0.04824
#
# Static dielectric constant tensor:
#      x y z
#    x 3.803320 0.000000 -0.291960 
#    y 0.000000 4.023520 0.000000 
#    z -0.291960 0.000000 3.953550 
# 
# 
# High freq. dielectric constant tensor:
#      x y z
#    x 1.815550 0.000000 -0.001100 
#    y 0.000000 1.820970 0.000000 
#    z -0.001100 0.000000 1.818950 
# 
# From -- ./inp_files/24468.got.cif
#   From: 2010.06.25/outbox.cif.g09.slc.cpg/sg15_13_cif.got.tgz:24468.got - 2010.06.28 07:06:18.
