data_PCOD8153560
_publ_section_title
;
Structure prediction by ZEFSAII (Michael W. Deem and Ramdas Pophale) SiO2 
 PCOD8153560
Probable space group: C 2/C
;
_chemical_formula_sum "Si O2"
_cell_formula_units_Z 48
_cell_length_a 10.152929
_cell_length_b 14.884767
_cell_length_c 30.775059
_cell_angle_alpha 90.000000
_cell_angle_beta 145.565097
_cell_angle_gamma 90.000000
_cell_volume 2629.913691
_symmetry_space_group_name_H-M "C 2/C"
_symmetry_group_IT_number 15
_symmetry_cell_setting 'monoclinic'
loop_
_space_group_symop_operation_xyz
x,y,z
-x,y,1/2-z
-x,-y,-z
x,-y,1/2+z
1/2+x,1/2+y,z
1/2-x,1/2+y,1/2-z
1/2-x,1/2-y,-z
1/2+x,1/2-y,1/2+z
loop_
_atom_site_type_symbol
_atom_site_label
_atom_site_fract_x
_atom_site_fract_y
_atom_site_fract_z
Si Si1 0.745096 0.023067 0.545694
Si Si2 0.234225 0.271226 0.445462
Si Si3 0.243086 0.478774 0.445462
Si Si4 0.733376 0.226933 0.545694
Si Si5 0.072379 0.374808 0.840391
Si Si6 0.879575 0.875192 0.840391
O O1 0.814973 0.125000 0.575989
O O2 0.500000 0.000000 0.500000
O O3 0.710092 0.010485 0.485259
O O4 0.951687 0.960521 0.620191
O O5 0.250000 0.250000 0.500000
O O6 0.182042 0.375000 0.422817
O O7 0.466202 0.239515 0.485259
O O8 0.019180 0.215459 0.367794
O O9 0.500000 0.500000 0.500000
O O10 0.069790 0.534541 0.367794
O O11 0.750000 0.250000 0.500000
O O12 0.899269 0.289479 0.620191
O O13 0.285689 0.375000 0.864276
O O14 0.826895 0.375000 0.750000
#
# Coordination Sequence:
#
# PCOD8153560 Si02
#       6
#     8   8   8   8   8   8
#     4  12  22  37  64  94 120 159 205 256 301 366
#     4  12  20  39  66  90 117 166 213 243 300 378
#     4  12  20  39  66  90 117 166 213 243 300 378
#     4  12  22  37  64  94 120 159 205 256 301 366
#     4  11  24  42  63  93 127 161 208 264 314 364
#     4  11  24  42  63  93 127 161 208 264 314 364
#
# _framework density 18.251549000000001
#
# number of rings (size 3 to 8) (size 9 to 14) (size 15 to 20)
#    0.000    0.333   10.000    0.000    0.000    1.333 
#    0.000    3.333    0.000    0.000    0.000    0.000 
#    0.000    0.000    0.000    0.000    0.000    0.000 
#
# Total GULP energy -297670.206157 kJ/mol
# GULP energy per Si atom -12402.925257 kJ/mol
# Density = 1.821001 g / cm^3
# Si number density = 18.251549 Si / 1000 Ang^3
#
#
#
# Elastic Constant Matrix: (Units=GPa)
#
#
# Indices 1 2 3 4 5 6 
#
# 1 137.1685 50.5408 60.1309 0.0000 -1.6465 0.0000
# 2 50.5408 210.7699 72.8643 0.0000 1.2410 0.0000
# 3 60.1309 72.8643 109.6535 0.0000 0.1168 0.0000
# 4 0.0000 0.0000 0.0000 36.8859 0.0000 0.2995
# 5 -1.6465 1.2410 0.1168 0.0000 23.8083 0.0000
# 6 0.0000 0.0000 0.0000 0.2995 0.0000 31.4991
#
#
#
# Elastic Compliance Matrix: (Units=1/GPa)
#
#
# Indices 1 2 3 4 5 6 
#
# 1 0.009674 -0.000636 -0.004883 0.000000 0.000726 0.000000
# 2 -0.000636 0.006203 -0.003773 0.000000 -0.000349 0.000000
# 3 -0.004883 -0.003773 0.014305 0.000000 -0.000211 0.000000
# 4 0.000000 0.000000 0.000000 0.027113 0.000000 -0.000258
# 5 0.000726 -0.000349 -0.000211 0.000000 0.042072 0.000000
# 6 0.000000 0.000000 0.000000 -0.000258 0.000000 0.031749
#
#
# Mechanical properties :
#
#
# Convention : Reuss Voigt Hill
#
# Bulk Modulus (GPa) = 86.22186 91.62933 88.92560
# Shear Modulus (GPa) = 32.55926 36.70906 34.63416
#
# Velocity S-wave (km/s) = 4.22823 4.48960 4.36087
# Velocity P-wave (km/s) = 8.43686 8.78567 8.61303
#
# Compressibility (1/GPa) = 0.01159799
#
# Stress axis : x y z
#
# Youngs Moduli (GPa) = 103.37028 161.20159 69.90638
#
# Poissons Ratio (x) = 0.10250 0.34136
# Poissons Ratio (y) = 0.06573 0.26376
# Poissons Ratio (z) = 0.50477 0.60823
#
# Static dielectric constant tensor:
#      x y z
#    x 4.210500 0.000000 -0.055690 
#    y 0.000000 5.802800 0.000000 
#    z -0.055690 0.000000 3.208720 
# 
# 
# High freq. dielectric constant tensor:
#      x y z
#    x 1.722490 0.000000 -0.001720 
#    y 0.000000 1.728940 0.000000 
#    z -0.001720 0.000000 1.691540 
# 
# From -- ./inp_files/289075.got.cif
#   From: 2010.06.25/outbox.cif.g09.slc.cpg/sg15_145_cif.got.tgz:289075.got - 2010.06.28 07:06:18.
