data_PCOD8153963
_publ_section_title
;
Structure prediction by ZEFSAII (Michael W. Deem and Ramdas Pophale) SiO2 
 PCOD8153963
Probable space group: C 2/C
;
_chemical_formula_sum "Si O2"
_cell_formula_units_Z 28
_cell_length_a 14.812873
_cell_length_b 9.297733
_cell_length_c 10.897876
_cell_angle_alpha 90.000000
_cell_angle_beta 126.911151
_cell_angle_gamma 90.000000
_cell_volume 1200.089184
_symmetry_space_group_name_H-M "C 2/C"
_symmetry_group_IT_number 15
_symmetry_cell_setting 'monoclinic'
loop_
_space_group_symop_operation_xyz
x,y,z
-x,y,1/2-z
-x,-y,-z
x,-y,1/2+z
1/2+x,1/2+y,z
1/2-x,1/2+y,1/2-z
1/2-x,1/2-y,-z
1/2+x,1/2-y,1/2+z
loop_
_atom_site_type_symbol
_atom_site_label
_atom_site_fract_x
_atom_site_fract_y
_atom_site_fract_z
Si Si1 0.594419 0.472898 0.722059
Si Si2 0.983835 0.755950 0.472940
Si Si3 0.500000 0.926980 0.750000
Si Si4 0.185109 0.609089 0.989220
O O1 0.500000 0.481580 0.750000
O O2 0.583837 0.318660 0.642154
O O3 0.586983 0.603122 0.620874
O O4 0.717998 0.494235 0.880046
O O5 0.905879 0.645008 0.481186
O O6 0.028212 0.672968 0.389749
O O7 0.387080 0.025727 0.675283
O O8 0.250000 0.750000 0.000000
#
# Coordination Sequence:
#
# PCOD8153963 Si02
#       4
#     8   8   4   8
#     4  11  24  47  72 104 143 186 232 299 355 422
#     4  11  26  46  70 106 143 184 241 288 361 424
#     4  12  28  46  74 106 142 190 242 290 352 434
#     4  12  26  44  71 102 144 186 236 297 353 412
#
# _framework density 23.331599000000001
#
# number of rings (size 3 to 8) (size 9 to 14) (size 15 to 20)
#    0.000    0.571    4.286    2.571    8.000    1.143 
#    0.000    0.000    0.000    0.000    0.000    0.000 
#    0.000    0.000    0.000    0.000    0.000    0.000 
#
# Total GULP energy -173561.411322 kJ/mol
# GULP energy per Si atom -12397.243666 kJ/mol
# Density = 2.327850 g / cm^3
# Si number density = 23.331599 Si / 1000 Ang^3
#
#
#
# Elastic Constant Matrix: (Units=GPa)
#
#
# Indices 1 2 3 4 5 6 
#
# 1 58.6190 13.9643 28.4659 0.0000 9.0580 0.0000
# 2 13.9643 82.3537 25.4696 0.0000 10.3493 0.0000
# 3 28.4659 25.4696 112.7841 0.0000 32.5631 0.0000
# 4 0.0000 0.0000 0.0000 50.9637 0.0000 -12.8838
# 5 9.0580 10.3493 32.5631 0.0000 52.1260 0.0000
# 6 0.0000 0.0000 0.0000 -12.8838 0.0000 30.5933
#
#
#
# Elastic Compliance Matrix: (Units=1/GPa)
#
#
# Indices 1 2 3 4 5 6 
#
# 1 0.019729 -0.001931 -0.004471 0.000000 -0.000252 0.000000
# 2 -0.001931 0.013279 -0.002254 0.000000 -0.000893 0.000000
# 3 -0.004471 -0.002254 0.012384 0.000000 -0.006512 0.000000
# 4 0.000000 0.000000 0.000000 0.021960 0.000000 0.009248
# 5 -0.000252 -0.000893 -0.006512 0.000000 0.023473 0.000000
# 6 0.000000 0.000000 0.000000 0.009248 0.000000 0.036581
#
#
# Mechanical properties :
#
#
# Convention : Reuss Voigt Hill
#
# Bulk Modulus (GPa) = 35.60995 43.28405 39.44700
# Shear Modulus (GPa) = 32.45101 39.12707 35.78904
#
# Velocity S-wave (km/s) = 3.73347 4.09956 3.92079
# Velocity P-wave (km/s) = 5.82072 6.40316 6.11887
#
# Compressibility (1/GPa) = 0.02808204
#
# Stress axis : x y z
#
# Youngs Moduli (GPa) = 50.68604 75.30458 80.75009
#
# Poissons Ratio (x) = 0.14542 0.36100
# Poissons Ratio (y) = 0.09788 0.18198
# Poissons Ratio (z) = 0.22660 0.16970
#
# Static dielectric constant tensor:
#      x y z
#    x 3.039340 0.000000 -1.714430 
#    y 0.000000 4.438260 0.000000 
#    z -1.714430 0.000000 0.772940 
# 
# 
# High freq. dielectric constant tensor:
#      x y z
#    x 1.897360 0.000000 0.000100 
#    y 0.000000 1.936430 0.000000 
#    z 0.000100 0.000000 1.939640 
# 
# From -- ./inp_files/93146.got.cif
#   From: 2010.06.25/outbox.cif.g09.slc.cpg/sg15_47_cif.got.tgz:93146.got - 2010.06.28 07:06:18.
