data_PCOD8153396
_publ_section_title
;
Structure prediction by ZEFSAII (Michael W. Deem and Ramdas Pophale) SiO2 
 PCOD8153396
Probable space group: C 2/C
;
_chemical_formula_sum "Si O2"
_cell_formula_units_Z 44
_cell_length_a 7.048107
_cell_length_b 26.186326
_cell_length_c 14.948624
_cell_angle_alpha 90.000000
_cell_angle_beta 133.463251
_cell_angle_gamma 90.000000
_cell_volume 2002.509804
_symmetry_space_group_name_H-M "C 2/C"
_symmetry_group_IT_number 15
_symmetry_cell_setting 'monoclinic'
loop_
_space_group_symop_operation_xyz
x,y,z
-x,y,1/2-z
-x,-y,-z
x,-y,1/2+z
1/2+x,1/2+y,z
1/2-x,1/2+y,1/2-z
1/2-x,1/2-y,-z
1/2+x,1/2-y,1/2+z
loop_
_atom_site_type_symbol
_atom_site_label
_atom_site_fract_x
_atom_site_fract_y
_atom_site_fract_z
Si Si1 0.950835 0.901152 0.555226
Si Si2 0.500000 0.352548 0.750000
Si Si3 0.018174 0.527911 0.599325
Si Si4 0.500000 0.396399 0.250000
Si Si5 0.026573 0.175099 0.929323
Si Si6 0.941781 0.280697 0.833834
Si Si7 0.000000 0.547900 0.250000
O O1 0.902714 0.852468 0.475559
O O2 0.254330 0.916907 0.643655
O O3 0.870555 0.887576 0.631304
O O4 0.759525 0.946857 0.463955
O O5 0.699807 0.318273 0.760054
O O6 0.242015 0.569822 0.670017
O O7 0.090615 0.486163 0.696558
O O8 0.000000 0.500000 0.500000
O O9 0.490135 0.362375 0.159209
O O10 0.868794 0.227405 0.858947
O O11 0.325480 0.190669 0.040688
O O12 0.000000 0.268459 0.750000
#
# Coordination Sequence:
#
# PCOD8153396 Si02
#       7
#     8   4   8   4   8   8   4
#     4  12  24  42  68 100 129 179 231 272 341 407
#     4  12  24  41  71  98 134 178 223 277 330 406
#     4  12  25  43  65  97 133 177 226 281 341 397
#     4  12  24  43  67  98 138 178 229 277 336 408
#     4  11  24  43  69  97 139 178 220 284 333 400
#     4  11  23  46  67 100 139 176 225 277 341 399
#     4  12  24  44  68  92 136 172 224 288 336 400
#
# _framework density 21.972425999999999
#
# number of rings (size 3 to 8) (size 9 to 14) (size 15 to 20)
#    0.000    0.364    2.727    7.091    0.000    2.182 
#    0.000    0.000    0.000    0.000    0.000    0.000 
#    0.000    0.000    0.000    0.000    0.000    0.000 
#
# Total GULP energy -272948.134233 kJ/mol
# GULP energy per Si atom -12406.733374 kJ/mol
# Density = 2.192242 g / cm^3
# Si number density = 21.972426 Si / 1000 Ang^3
#
#
#
# Elastic Constant Matrix: (Units=GPa)
#
#
# Indices 1 2 3 4 5 6 
#
# 1 66.0068 27.5464 25.0033 0.0000 -6.1152 0.0000
# 2 27.5464 109.1657 43.4110 0.0000 -9.9821 0.0000
# 3 25.0033 43.4110 106.9457 0.0000 -17.2640 0.0000
# 4 0.0000 0.0000 0.0000 37.9246 0.0000 -12.0937
# 5 -6.1152 -9.9821 -17.2640 0.0000 55.9327 0.0000
# 6 0.0000 0.0000 0.0000 -12.0937 0.0000 46.7450
#
#
#
# Elastic Compliance Matrix: (Units=1/GPa)
#
#
# Indices 1 2 3 4 5 6 
#
# 1 0.017602 -0.003329 -0.002683 0.000000 0.000502 0.000000
# 2 -0.003329 0.011573 -0.003836 0.000000 0.000517 0.000000
# 3 -0.002683 -0.003836 0.011974 0.000000 0.002718 0.000000
# 4 0.000000 0.000000 0.000000 0.028739 0.000000 0.007435
# 5 0.000502 0.000517 0.002718 0.000000 0.018865 0.000000
# 6 0.000000 0.000000 0.000000 0.007435 0.000000 0.023316
#
#
# Mechanical properties :
#
#
# Convention : Reuss Voigt Hill
#
# Bulk Modulus (GPa) = 46.61278 52.67107 49.64192
# Shear Modulus (GPa) = 35.99318 40.53095 38.26206
#
# Velocity S-wave (km/s) = 4.05174 4.29957 4.17750
# Velocity P-wave (km/s) = 6.56880 6.97653 6.77573
#
# Compressibility (1/GPa) = 0.02145334
#
# Stress axis : x y z
#
# Youngs Moduli (GPa) = 56.81182 86.40752 83.51705
#
# Poissons Ratio (x) = 0.28763 0.22407
# Poissons Ratio (y) = 0.18911 0.32036
# Poissons Ratio (z) = 0.15242 0.33145
#
# Static dielectric constant tensor:
#      x y z
#    x 3.673670 0.000000 -0.102720 
#    y 0.000000 4.289140 0.000000 
#    z -0.102720 0.000000 4.194750 
# 
# 
# High freq. dielectric constant tensor:
#      x y z
#    x 1.854980 0.000000 -0.011350 
#    y 0.000000 1.887000 0.000000 
#    z -0.011350 0.000000 1.882080 
# 
# From -- ./inp_files/130021.got.cif
#   From: 2010.06.25/outbox.cif.g09.slc.cpg/sg15_66_cif.got.tgz:130021.got - 2010.06.28 07:06:18.
