data_PCOD8153707
_publ_section_title
;
Structure prediction by ZEFSAII (Michael W. Deem and Ramdas Pophale) SiO2 
 PCOD8153707
Probable space group: C 2/C
;
_chemical_formula_sum "Si O2"
_cell_formula_units_Z 64
_cell_length_a 19.846937
_cell_length_b 8.612128
_cell_length_c 30.133727
_cell_angle_alpha 90.000000
_cell_angle_beta 146.490976
_cell_angle_gamma 90.000000
_cell_volume 2843.476466
_symmetry_space_group_name_H-M "C 2/C"
_symmetry_group_IT_number 15
_symmetry_cell_setting 'monoclinic'
loop_
_space_group_symop_operation_xyz
x,y,z
-x,y,1/2-z
-x,-y,-z
x,-y,1/2+z
1/2+x,1/2+y,z
1/2-x,1/2+y,1/2-z
1/2-x,1/2-y,-z
1/2+x,1/2-y,1/2+z
loop_
_atom_site_type_symbol
_atom_site_label
_atom_site_fract_x
_atom_site_fract_y
_atom_site_fract_z
Si Si1 0.488710 0.516479 0.411849
Si Si2 0.718440 0.668365 0.661351
Si Si3 0.899758 0.671773 0.836245
Si Si4 0.502966 0.647620 0.832666
Si Si5 0.258711 0.647091 0.924453
Si Si6 0.765120 0.530499 0.839175
Si Si7 0.395386 0.967997 0.589646
Si Si8 0.231660 0.006761 0.920464
O O1 0.413368 0.413349 0.405867
O O2 0.403612 0.642024 0.339887
O O3 0.541681 0.406176 0.402973
O O4 0.597830 0.608232 0.495523
O O5 0.799180 0.608760 0.746662
O O6 0.780396 0.624409 0.648410
O O7 0.713298 0.852922 0.661611
O O8 0.869613 0.619884 0.869770
O O9 0.028366 0.606128 0.890635
O O10 0.365794 0.600243 0.745817
O O11 0.518902 0.833548 0.843270
O O12 0.592463 0.567707 0.846071
O O13 0.181198 0.530086 0.911034
O O14 0.233003 0.821062 0.927164
O O15 0.787688 0.556389 0.903924
O O16 0.305629 0.909992 0.500925
#
# Coordination Sequence:
#
# PCOD8153707 Si02
#       8
#     8   8   8   8   8   8   8   8
#     4  12  23  44  73  98 137 179 227 281 341 403
#     4  11  24  44  70 100 135 184 225 280 344 402
#     4  12  24  44  67 100 139 181 227 281 344 404
#     4  12  24  44  71  97 136 184 229 282 334 406
#     4  11  25  46  69 102 140 177 229 284 338 408
#     4  11  26  46  68 100 138 178 231 284 337 405
#     4  12  26  44  71 102 137 184 227 279 345 399
#     4  11  24  47  70 100 138 183 228 279 344 407
#
# _framework density 22.507659
#
# number of rings (size 3 to 8) (size 9 to 14) (size 15 to 20)
#    0.000    0.500    5.000    3.000    1.750    2.000 
#    4.500    0.000    0.000    0.000    0.000    0.000 
#    0.000    0.000    0.000    0.000    0.000    0.000 
#
# Total GULP energy -396883.750847 kJ/mol
# GULP energy per Si atom -12402.617214 kJ/mol
# Density = 2.245643 g / cm^3
# Si number density = 22.507659 Si / 1000 Ang^3
#
#
#
# Elastic Constant Matrix: (Units=GPa)
#
#
# Indices 1 2 3 4 5 6 
#
# 1 149.2775 57.4610 33.5988 0.0001 -1.7293 -0.0001
# 2 57.4610 118.9428 44.1570 0.0001 1.9952 -0.0001
# 3 33.5988 44.1570 53.8849 0.0001 1.9634 -0.0002
# 4 0.0001 0.0001 0.0001 24.6960 -0.0001 5.4709
# 5 -1.7293 1.9952 1.9634 -0.0001 35.3008 0.0001
# 6 -0.0001 -0.0001 -0.0002 5.4709 0.0001 33.6870
#
#
#
# Elastic Compliance Matrix: (Units=1/GPa)
#
#
# Indices 1 2 3 4 5 6 
#
# 1 0.008530 -0.003088 -0.002815 0.000000 0.000749 0.000000
# 2 -0.003088 0.013202 -0.008878 0.000000 -0.000404 0.000000
# 3 -0.002815 -0.008878 0.027632 0.000000 -0.001173 0.000000
# 4 0.000000 0.000000 0.000000 0.042004 0.000000 -0.006822
# 5 0.000749 -0.000404 -0.001173 0.000000 0.028453 0.000000
# 6 0.000000 0.000000 0.000000 -0.006822 0.000000 0.030793
#
#
# Mechanical properties :
#
#
# Convention : Reuss Voigt Hill
#
# Bulk Modulus (GPa) = 50.50488 65.83766 58.17127
# Shear Modulus (GPa) = 26.76985 31.19599 28.98292
#
# Velocity S-wave (km/s) = 3.45246 3.72696 3.59233
# Velocity P-wave (km/s) = 6.19519 6.91629 6.56565
#
# Compressibility (1/GPa) = 0.01980007
#
# Stress axis : x y z
#
# Youngs Moduli (GPa) = 117.23316 75.74502 36.19011
#
# Poissons Ratio (x) = 0.23392 0.10189
# Poissons Ratio (y) = 0.36204 0.32131
# Poissons Ratio (z) = 0.33004 0.67250
#
# Static dielectric constant tensor:
#      x y z
#    x 4.167130 0.000000 -0.074260 
#    y 0.000000 3.932430 0.000000 
#    z -0.074260 0.000000 3.915160 
# 
# 
# High freq. dielectric constant tensor:
#      x y z
#    x 1.904330 0.000000 -0.003150 
#    y 0.000000 1.888380 0.000000 
#    z -0.003150 0.000000 1.877890 
# 
# From -- ./inp_files/315764.got.cif
#   From: 2010.06.25/outbox.cif.g09.slc.cpg/sg15_158_cif.got.tgz:315764.got - 2010.06.28 07:06:18.
