data_PCOD8153862
_publ_section_title
;
Structure prediction by ZEFSAII (Michael W. Deem and Ramdas Pophale) SiO2 
 PCOD8153862
Probable space group: C 2/C
;
_chemical_formula_sum "Si O2"
_cell_formula_units_Z 48
_cell_length_a 15.186637
_cell_length_b 27.384098
_cell_length_c 9.419758
_cell_angle_alpha 90.000000
_cell_angle_beta 33.694748
_cell_angle_gamma 90.000000
_cell_volume 2173.258211
_symmetry_space_group_name_H-M "C 2/C"
_symmetry_group_IT_number 15
_symmetry_cell_setting 'monoclinic'
loop_
_space_group_symop_operation_xyz
x,y,z
-x,y,1/2-z
-x,-y,-z
x,-y,1/2+z
1/2+x,1/2+y,z
1/2-x,1/2+y,1/2-z
1/2-x,1/2-y,-z
1/2+x,1/2-y,1/2+z
loop_
_atom_site_type_symbol
_atom_site_label
_atom_site_fract_x
_atom_site_fract_y
_atom_site_fract_z
Si Si1 0.651488 0.932956 0.445938
Si Si2 0.312791 0.206690 0.006855
Si Si3 0.174398 0.895151 0.037450
Si Si4 0.670356 0.527242 0.293258
Si Si5 0.186672 0.209373 0.480395
Si Si6 0.836416 0.399326 0.384897
O O1 0.802025 0.913940 0.334091
O O2 0.629314 0.903541 0.329449
O O3 0.687536 0.989345 0.368056
O O4 0.500000 0.925818 0.750000
O O5 0.500000 0.206369 0.750000
O O6 0.256863 0.153060 0.027323
O O7 0.250000 0.250000 0.000000
O O8 0.239176 0.222594 0.253513
O O9 0.270931 0.844348 0.890348
O O10 0.000000 0.875365 0.250000
O O11 0.195542 0.938502 0.896279
O O12 0.500000 0.500000 0.500000
O O13 0.708890 0.559094 0.101251
O O14 0.250000 0.250000 0.500000
O O15 0.000000 0.209672 0.750000
O O16 0.000000 0.407033 0.250000
#
# Coordination Sequence:
#
# PCOD8153862 Si02
#       6
#     8   8   8   8   8   8
#     4  12  27  42  73 105 138 195 250 292 360 443
#     4  11  25  48  73 106 146 189 243 309 377 445
#     4  11  24  46  68 105 147 182 243 303 362 442
#     4  12  24  47  70 103 149 192 239 302 370 434
#     4  11  25  46  76 105 143 189 238 308 371 439
#     4  11  26  48  72 103 149 194 244 309 372 441
#
# _framework density 22.086652999999998
#
# number of rings (size 3 to 8) (size 9 to 14) (size 15 to 20)
#    0.000    0.667    3.333    3.500    4.667    2.667 
#    3.000    0.000    0.000    0.000    0.000    0.000 
#    0.000    0.000    0.000    0.000    0.000    0.000 
#
# Total GULP energy -297396.907459 kJ/mol
# GULP energy per Si atom -12391.537811 kJ/mol
# Density = 2.203638 g / cm^3
# Si number density = 22.086653 Si / 1000 Ang^3
#
#
#
# Elastic Constant Matrix: (Units=GPa)
#
#
# Indices 1 2 3 4 5 6 
#
# 1 137.9210 78.2334 61.2681 0.0000 33.9524 0.0001
# 2 78.2334 183.4119 57.9564 0.0000 16.7409 0.0000
# 3 61.2681 57.9564 145.7812 0.0001 28.8102 0.0001
# 4 0.0000 0.0000 0.0001 28.1908 0.0000 -4.5546
# 5 33.9524 16.7409 28.8102 0.0000 46.8694 -0.0001
# 6 0.0001 0.0000 0.0001 -4.5546 -0.0001 32.4520
#
#
#
# Elastic Compliance Matrix: (Units=1/GPa)
#
#
# Indices 1 2 3 4 5 6 
#
# 1 0.011869 -0.003796 -0.002331 0.000000 -0.005809 0.000000
# 2 -0.003796 0.007476 -0.001585 0.000000 0.001054 0.000000
# 3 -0.002331 -0.001585 0.009133 0.000000 -0.003359 0.000000
# 4 0.000000 0.000000 0.000000 0.036296 0.000000 0.005094
# 5 -0.005809 0.001054 -0.003359 0.000000 0.027233 0.000000
# 6 0.000000 0.000000 0.000000 0.005094 0.000000 0.031530
#
#
# Mechanical properties :
#
#
# Convention : Reuss Voigt Hill
#
# Bulk Modulus (GPa) = 76.60266 95.78111 86.19188
# Shear Modulus (GPa) = 34.88870 39.47952 37.18411
#
# Velocity S-wave (km/s) = 3.97877 4.23245 4.10757
# Velocity P-wave (km/s) = 7.47432 8.20640 7.84890
#
# Compressibility (1/GPa) = 0.01305438
#
# Stress axis : x y z
#
# Youngs Moduli (GPa) = 84.25008 133.76072 109.48838
#
# Poissons Ratio (x) = 0.50775 0.25524
# Poissons Ratio (y) = 0.31981 0.17355
# Poissons Ratio (z) = 0.19640 0.21202
#
# Static dielectric constant tensor:
#      x y z
#    x 4.049050 0.000000 0.050250 
#    y 0.000000 6.095070 0.000000 
#    z 0.050250 0.000000 4.488570 
# 
# 
# High freq. dielectric constant tensor:
#      x y z
#    x 1.861620 0.000000 0.008670 
#    y 0.000000 1.896430 0.000000 
#    z 0.008670 0.000000 1.877620 
# 
# From -- ./inp_files/43807.got.cif
#   From: 2010.06.25/outbox.cif.g09.slc.cpg/sg15_22_cif.got.tgz:43807.got - 2010.06.28 07:06:18.
