data_PCOD8153162
_publ_section_title
;
Structure prediction by ZEFSAII (Michael W. Deem and Ramdas Pophale) SiO2 
 PCOD8153162
Probable space group: C 2/C
;
_chemical_formula_sum "Si O2"
_cell_formula_units_Z 64
_cell_length_a 24.880696
_cell_length_b 11.449478
_cell_length_c 14.497042
_cell_angle_alpha 90.000000
_cell_angle_beta 134.851949
_cell_angle_gamma 90.000000
_cell_volume 2927.736071
_symmetry_space_group_name_H-M "C 2/C"
_symmetry_group_IT_number 15
_symmetry_cell_setting 'monoclinic'
loop_
_space_group_symop_operation_xyz
x,y,z
-x,y,1/2-z
-x,-y,-z
x,-y,1/2+z
1/2+x,1/2+y,z
1/2-x,1/2+y,1/2-z
1/2-x,1/2-y,-z
1/2+x,1/2-y,1/2+z
loop_
_atom_site_type_symbol
_atom_site_label
_atom_site_fract_x
_atom_site_fract_y
_atom_site_fract_z
Si Si1 0.318776 0.763094 0.976594
Si Si2 0.175788 0.216266 0.967498
Si Si3 0.199702 0.999752 0.604521
Si Si4 0.934110 0.261414 0.820631
Si Si5 0.896200 0.316703 0.448345
Si Si6 0.348997 0.305374 0.706110
Si Si7 0.863046 0.428323 0.874281
Si Si8 0.086110 0.984326 0.127838
O O1 0.296239 0.634335 0.915877
O O2 0.240758 0.832395 0.899270
O O3 0.367936 0.832034 0.961161
O O4 0.367471 0.755976 0.130173
O O5 0.100086 0.257604 0.823343
O O6 0.250000 0.250000 0.000000
O O7 0.180076 0.076949 0.990217
O O8 0.170884 0.278818 0.062115
O O9 0.277855 0.957636 0.743220
O O10 0.134544 0.974180 0.599395
O O11 0.907495 0.377915 0.840300
O O12 0.897682 0.149268 0.827398
O O13 0.024922 0.256614 0.925917
O O14 0.875511 0.279587 0.319806
O O15 0.905316 0.456277 0.461302
O O16 0.392518 0.429153 0.762357
O O17 0.000000 0.000000 0.000000
#
# Coordination Sequence:
#
# PCOD8153162 Si02
#       8
#     8   8   8   8   8   8   8   8
#     4  11  24  42  70 106 140 184 239 297 355 417
#     4  12  26  44  75 108 135 184 245 293 352 421
#     4  12  23  44  71 105 141 182 242 301 349 426
#     4  12  26  47  72 104 143 189 234 291 362 432
#     4  12  26  47  70 102 151 187 232 296 361 430
#     4  11  23  43  69 104 142 182 232 299 356 420
#     4  12  25  43  74 104 142 191 236 291 360 435
#     4  12  23  42  74  99 140 186 230 291 365 418
#
# _framework density 21.859893
#
# number of rings (size 3 to 8) (size 9 to 14) (size 15 to 20)
#    0.000    0.250    7.500    1.500    1.750    3.000 
#    0.000    5.000    0.000    0.000    0.000    0.000 
#    0.000    0.000    0.000    0.000    0.000    0.000 
#
# Total GULP energy -396946.166891 kJ/mol
# GULP energy per Si atom -12404.567715 kJ/mol
# Density = 2.181014 g / cm^3
# Si number density = 21.859893 Si / 1000 Ang^3
#
#
#
# Elastic Constant Matrix: (Units=GPa)
#
#
# Indices 1 2 3 4 5 6 
#
# 1 97.7433 33.3890 44.5377 0.0000 -4.8210 0.0000
# 2 33.3890 135.7176 33.6140 0.0000 -9.5395 0.0000
# 3 44.5377 33.6140 129.6850 0.0000 -7.5363 0.0000
# 4 0.0000 0.0000 0.0000 37.2889 0.0000 0.8299
# 5 -4.8210 -9.5395 -7.5363 0.0000 36.1723 0.0000
# 6 0.0000 0.0000 0.0000 0.8299 0.0000 33.8371
#
#
#
# Elastic Compliance Matrix: (Units=1/GPa)
#
#
# Indices 1 2 3 4 5 6 
#
# 1 0.012712 -0.002166 -0.003785 0.000000 0.000334 0.000000
# 2 -0.002166 0.008344 -0.001324 0.000000 0.001636 0.000000
# 3 -0.003785 -0.001324 0.009418 0.000000 0.001109 0.000000
# 4 0.000000 0.000000 0.000000 0.026832 0.000000 -0.000658
# 5 0.000334 0.001636 0.001109 0.000000 0.028352 0.000000
# 6 0.000000 0.000000 0.000000 -0.000658 0.000000 0.029569
#
#
# Mechanical properties :
#
#
# Convention : Reuss Voigt Hill
#
# Bulk Modulus (GPa) = 62.79570 65.13636 63.96603
# Shear Modulus (GPa) = 37.01334 38.23335 37.62335
#
# Velocity S-wave (km/s) = 4.11932 4.18666 4.15313
# Velocity P-wave (km/s) = 7.17035 7.29608 7.23349
#
# Compressibility (1/GPa) = 0.01592466
#
# Stress axis : x y z
#
# Youngs Moduli (GPa) = 78.66601 119.84559 106.17643
#
# Poissons Ratio (x) = 0.25964 0.40184
# Poissons Ratio (y) = 0.17043 0.14054
# Poissons Ratio (z) = 0.29773 0.15863
#
# Static dielectric constant tensor:
#      x y z
#    x 3.946280 0.000000 -0.178990 
#    y 0.000000 3.987070 0.000000 
#    z -0.178990 0.000000 4.422000 
# 
# 
# High freq. dielectric constant tensor:
#      x y z
#    x 1.855040 0.000000 -0.007890 
#    y 0.000000 1.870480 0.000000 
#    z -0.007890 0.000000 1.860680 
# 
# From -- ./inp_files/177841.got.cif
#   From: 2010.06.25/outbox.cif.g09.slc.cpg/sg15_89_cif.got.tgz:177841.got - 2010.06.28 07:06:18.
