data_PCOD8153247
_publ_section_title
;
Structure prediction by ZEFSAII (Michael W. Deem and Ramdas Pophale) SiO2 
 PCOD8153247
Probable space group: C 2/C
;
_chemical_formula_sum "Si O2"
_cell_formula_units_Z 60
_cell_length_a 19.924377
_cell_length_b 8.002725
_cell_length_c 20.854088
_cell_angle_alpha 90.000000
_cell_angle_beta 56.169985
_cell_angle_gamma 90.000000
_cell_volume 2762.195174
_symmetry_space_group_name_H-M "C 2/C"
_symmetry_group_IT_number 15
_symmetry_cell_setting 'monoclinic'
loop_
_space_group_symop_operation_xyz
x,y,z
-x,y,1/2-z
-x,-y,-z
x,-y,1/2+z
1/2+x,1/2+y,z
1/2-x,1/2+y,1/2-z
1/2-x,1/2-y,-z
1/2+x,1/2-y,1/2+z
loop_
_atom_site_type_symbol
_atom_site_label
_atom_site_fract_x
_atom_site_fract_y
_atom_site_fract_z
Si Si1 0.500000 0.697969 0.250000
Si Si2 0.431634 0.580538 0.170051
Si Si3 0.709559 0.375829 0.438420
Si Si4 0.373170 0.849036 0.413002
Si Si5 0.928786 0.578054 0.495912
Si Si6 0.178358 0.225508 0.813864
Si Si7 0.557249 0.443070 0.025943
Si Si8 0.660768 0.105451 0.833678
O O1 0.433885 0.586114 0.246333
O O2 0.448937 0.805660 0.327742
O O3 0.386670 0.418841 0.165577
O O4 0.526744 0.558128 0.101160
O O5 0.403226 0.761663 0.160171
O O6 0.668256 0.293330 0.522439
O O7 0.802143 0.423053 0.404378
O O8 0.704947 0.269708 0.374696
O O9 0.652290 0.537380 0.458377
O O10 0.406312 0.982804 0.444398
O O11 0.960941 0.751287 0.451150
O O12 0.850907 0.598774 0.583411
O O13 0.000000 0.500000 0.500000
O O14 0.251999 0.178393 0.728628
O O15 0.149567 0.415088 0.811747
O O16 0.500000 0.500000 0.000000
#
# Coordination Sequence:
#
# PCOD8153247 Si02
#       8
#     4   8   8   8   8   8   8   8
#     4  12  26  48  70 100 148 194 238 304 378 430
#     4  12  25  46  71 103 141 190 240 301 366 436
#     4  11  23  44  69 101 141 187 239 295 364 444
#     4  11  25  44  73 101 144 194 239 294 375 441
#     4  12  24  43  72 108 140 188 246 296 365 450
#     4  12  24  42  70 109 138 186 243 302 363 435
#     4  12  22  43  74 103 138 182 246 305 358 435
#     4  12  24  42  71 106 146 180 241 304 365 434
#
# _framework density 21.721855000000001
#
# number of rings (size 3 to 8) (size 9 to 14) (size 15 to 20)
#    0.000    0.267    6.667    3.200    0.000    0.533 
#    0.000    4.000    0.000    0.000    0.000    0.000 
#    0.000    0.000    0.000    0.000    0.000    0.000 
#
# Total GULP energy -371661.422258 kJ/mol
# GULP energy per Si atom -12388.714075 kJ/mol
# Density = 2.167241 g / cm^3
# Si number density = 21.721855 Si / 1000 Ang^3
#
#
#
# Elastic Constant Matrix: (Units=GPa)
#
#
# Indices 1 2 3 4 5 6 
#
# 1 129.6481 63.2445 42.1713 0.0014 4.6292 0.0039
# 2 63.2445 158.4302 40.6476 0.0029 3.3031 0.0074
# 3 42.1713 40.6476 144.8716 0.0002 -2.2174 0.0015
# 4 0.0014 0.0029 0.0002 31.6842 0.0001 -2.6659
# 5 4.6292 3.3031 -2.2174 0.0001 37.4114 0.0014
# 6 0.0039 0.0074 0.0015 -2.6659 0.0014 26.1918
#
#
#
# Elastic Compliance Matrix: (Units=1/GPa)
#
#
# Indices 1 2 3 4 5 6 
#
# 1 0.010102 -0.003504 -0.001974 0.000000 -0.001058 0.000000
# 2 -0.003504 0.008036 -0.001240 -0.000001 -0.000349 -0.000002
# 3 -0.001974 -0.001240 0.007838 0.000000 0.000818 0.000000
# 4 0.000000 -0.000001 0.000000 0.031834 0.000000 0.003240
# 5 -0.001058 -0.000349 0.000818 0.000000 0.026940 -0.000001
# 6 0.000000 -0.000002 0.000000 0.003240 -0.000001 0.038510
#
#
# Mechanical properties :
#
#
# Convention : Reuss Voigt Hill
#
# Bulk Modulus (GPa) = 79.74410 80.56409 80.15410
# Shear Modulus (GPa) = 35.49206 38.18325 36.83766
#
# Velocity S-wave (km/s) = 4.04658 4.19719 4.12257
# Velocity P-wave (km/s) = 7.65665 7.78833 7.72277
#
# Compressibility (1/GPa) = 0.01254011
#
# Stress axis : x y z
#
# Youngs Moduli (GPa) = 98.98580 124.43524 127.58937
#
# Poissons Ratio (x) = 0.43607 0.25182
# Poissons Ratio (y) = 0.34689 0.15821
# Poissons Ratio (z) = 0.19537 0.15430
#
# Static dielectric constant tensor:
#      x y z
#    x 4.352050 -0.000010 -1.076590 
#    y -0.000010 3.985560 -0.000040 
#    z -1.076590 -0.000040 10.227890 
# 
# 
# High freq. dielectric constant tensor:
#      x y z
#    x 1.849820 0.000000 -0.009820 
#    y 0.000000 1.848450 0.000000 
#    z -0.009820 0.000000 1.872260 
# 
# From -- ./inp_files/247819.got.cif
#   From: 2010.06.25/outbox.cif.g09.slc.cpg/sg15_124_cif.got.tgz:247819.got - 2010.06.28 07:06:18.
