data_PCOD8153888
_publ_section_title
;
Structure prediction by ZEFSAII (Michael W. Deem and Ramdas Pophale) SiO2 
 PCOD8153888
Probable space group: C 2/C
;
_chemical_formula_sum "Si O2"
_cell_formula_units_Z 60
_cell_length_a 23.683085
_cell_length_b 6.660409
_cell_length_c 16.467375
_cell_angle_alpha 90.000000
_cell_angle_beta 92.884194
_cell_angle_gamma 90.000000
_cell_volume 2594.257424
_symmetry_space_group_name_H-M "C 2/C"
_symmetry_group_IT_number 15
_symmetry_cell_setting 'monoclinic'
loop_
_space_group_symop_operation_xyz
x,y,z
-x,y,1/2-z
-x,-y,-z
x,-y,1/2+z
1/2+x,1/2+y,z
1/2-x,1/2+y,1/2-z
1/2-x,1/2-y,-z
1/2+x,1/2-y,1/2+z
loop_
_atom_site_type_symbol
_atom_site_label
_atom_site_fract_x
_atom_site_fract_y
_atom_site_fract_z
Si Si1 0.806378 0.340303 0.468302
Si Si2 0.370575 0.829212 0.057649
Si Si3 0.029486 0.612349 0.426530
Si Si4 0.589084 0.446202 0.520020
Si Si5 0.000000 0.253664 0.750000
Si Si6 0.606221 0.576033 0.691644
Si Si7 0.814705 0.779879 0.708954
Si Si8 0.810034 0.425161 0.811454
O O1 0.750000 0.250000 0.500000
O O2 0.820182 0.556122 0.508372
O O3 0.853336 0.174701 0.488125
O O4 0.800253 0.391116 0.373310
O O5 0.341732 0.690377 0.122983
O O6 0.413709 0.996235 0.093696
O O7 0.405321 0.677502 0.004021
O O8 0.040685 0.836039 0.463665
O O9 0.996494 0.625055 0.336806
O O10 0.000000 0.500000 0.500000
O O11 0.575519 0.459115 0.615295
O O12 0.942474 0.122197 0.745077
O O13 0.655117 0.439535 0.731651
O O14 0.638213 0.777678 0.662806
O O15 0.827003 0.546987 0.731751
O O16 0.747512 0.804382 0.704459
#
# Coordination Sequence:
#
# PCOD8153888 Si02
#       8
#     8   8   8   8   4   8   8   8
#     4  11  25  40  69 103 142 188 240 296 366 445
#     4  11  25  44  69 103 141 183 240 302 365 440
#     4  11  27  49  75 107 147 196 245 316 379 450
#     4  11  24  46  71 105 142 191 249 300 377 450
#     4  12  28  48  78 108 148 194 254 312 372 458
#     4  12  26  47  72 107 146 196 250 305 375 444
#     4  12  26  42  71 103 147 188 241 301 368 443
#     4  12  25  44  68 105 146 193 240 303 369 440
#
# _framework density 23.128005999999999
#
# number of rings (size 3 to 8) (size 9 to 14) (size 15 to 20)
#    0.000    0.533    4.000    3.200    5.600    7.467 
#    0.000    1.333    0.000    0.000    0.000    0.000 
#    0.000    0.000    0.000    0.000    0.000    0.000 
#
# Total GULP energy -371924.247474 kJ/mol
# GULP energy per Si atom -12397.474916 kJ/mol
# Density = 2.307537 g / cm^3
# Si number density = 23.128006 Si / 1000 Ang^3
#
#
#
# Elastic Constant Matrix: (Units=GPa)
#
#
# Indices 1 2 3 4 5 6 
#
# 1 97.9105 31.1132 33.5803 0.0000 -4.4084 0.0000
# 2 31.1132 104.7746 24.2572 0.0000 3.0166 0.0000
# 3 33.5803 24.2572 113.9264 0.0000 1.4156 0.0000
# 4 0.0000 0.0000 0.0000 41.5787 0.0000 -3.2339
# 5 -4.4084 3.0166 1.4156 0.0000 38.1607 0.0000
# 6 0.0000 0.0000 0.0000 -3.2339 0.0000 30.9821
#
#
#
# Elastic Compliance Matrix: (Units=1/GPa)
#
#
# Indices 1 2 3 4 5 6 
#
# 1 0.012276 -0.003001 -0.003001 0.000000 0.001767 0.000000
# 2 -0.003001 0.010793 -0.001399 0.000000 -0.001148 0.000000
# 3 -0.003001 -0.001399 0.009968 0.000000 -0.000606 0.000000
# 4 0.000000 0.000000 0.000000 0.024248 0.000000 0.002531
# 5 0.001767 -0.001148 -0.000606 0.000000 0.026522 0.000000
# 6 0.000000 0.000000 0.000000 0.002531 0.000000 0.032541
#
#
# Mechanical properties :
#
#
# Convention : Reuss Voigt Hill
#
# Bulk Modulus (GPa) = 54.84630 54.94588 54.89609
# Shear Modulus (GPa) = 36.43568 37.32169 36.87869
#
# Velocity S-wave (km/s) = 3.97343 4.02145 3.99751
# Velocity P-wave (km/s) = 6.69452 6.73584 6.71521
#
# Compressibility (1/GPa) = 0.01823277
#
# Stress axis : x y z
#
# Youngs Moduli (GPa) = 81.45921 92.65676 100.32457
#
# Poissons Ratio (x) = 0.27810 0.30111
# Poissons Ratio (y) = 0.24449 0.14035
# Poissons Ratio (z) = 0.24449 0.12963
#
# Static dielectric constant tensor:
#      x y z
#    x 4.029860 0.000000 0.115460 
#    y 0.000000 4.162480 0.000000 
#    z 0.115460 0.000000 4.264300 
# 
# 
# High freq. dielectric constant tensor:
#      x y z
#    x 1.915510 0.000000 -0.001070 
#    y 0.000000 1.919550 0.000000 
#    z -0.001070 0.000000 1.921080 
# 
# From -- ./inp_files/221271.got.cif
#   From: 2010.06.25/outbox.cif.g09.slc.cpg/sg15_111_cif.got.tgz:221271.got - 2010.06.28 07:06:18.
