data_PCOD8153098
_publ_section_title
;
Structure prediction by ZEFSAII (Michael W. Deem and Ramdas Pophale) SiO2 
 PCOD8153098
Probable space group: C 2/C
;
_chemical_formula_sum "Si O2"
_cell_formula_units_Z 60
_cell_length_a 14.405778
_cell_length_b 12.779287
_cell_length_c 17.943292
_cell_angle_alpha 90.000000
_cell_angle_beta 113.957972
_cell_angle_gamma 90.000000
_cell_volume 3018.681713
_symmetry_space_group_name_H-M "C 2/C"
_symmetry_group_IT_number 15
_symmetry_cell_setting 'monoclinic'
loop_
_space_group_symop_operation_xyz
x,y,z
-x,y,1/2-z
-x,-y,-z
x,-y,1/2+z
1/2+x,1/2+y,z
1/2-x,1/2+y,1/2-z
1/2-x,1/2-y,-z
1/2+x,1/2-y,1/2+z
loop_
_atom_site_type_symbol
_atom_site_label
_atom_site_fract_x
_atom_site_fract_y
_atom_site_fract_z
Si Si1 0.203165 0.077577 0.973167
Si Si2 0.497452 0.702375 0.903367
Si Si3 0.211488 0.915687 0.167155
Si Si4 0.215869 0.360770 0.459925
Si Si5 0.000000 0.319805 0.750000
Si Si6 0.007925 0.617787 0.974691
Si Si7 0.708323 0.850201 0.151819
Si Si8 0.214862 0.628512 0.351667
O O1 0.240084 0.095613 0.901945
O O2 0.093389 0.128484 0.952710
O O3 0.281916 0.134267 0.056543
O O4 0.205740 0.952070 0.987598
O O5 0.400682 0.628452 0.877505
O O6 0.505616 0.744631 0.822744
O O7 0.484898 0.799675 0.955462
O O8 0.284429 0.859056 0.130333
O O9 0.257328 0.909678 0.263782
O O10 0.207994 0.038845 0.148455
O O11 0.250000 0.250000 0.500000
O O12 0.103743 0.381150 0.452154
O O13 0.099972 0.392932 0.785293
O O14 0.912354 0.646900 0.892909
O O15 0.000000 0.500000 0.000000
O O16 0.746426 0.732959 0.173754
#
# Coordination Sequence:
#
# PCOD8153098 Si02
#       8
#     8   8   8   8   4   8   8   8
#     4  11  23  42  73  97 133 173 236 274 331 398
#     4  12  23  44  69  98 134 180 224 273 340 402
#     4  11  27  41  66 100 141 175 219 275 350 388
#     4  11  25  46  65  99 139 180 219 272 335 413
#     4  12  24  38  70  98 134 168 224 288 332 380
#     4  12  26  41  73  97 129 186 229 267 342 404
#     4  12  23  43  67 103 136 169 227 288 331 391
#     4  11  24  41  66 102 133 172 226 286 324 400
#
# _framework density 19.876225999999999
#
# number of rings (size 3 to 8) (size 9 to 14) (size 15 to 20)
#    0.000    0.533    6.667    1.200    3.733    4.800 
#    0.000    0.000    0.000    3.200    0.000    0.000 
#    0.000    0.000    0.000    0.000    0.000    0.000 
#
# Total GULP energy -372018.952434 kJ/mol
# GULP energy per Si atom -12400.631748 kJ/mol
# Density = 1.983099 g / cm^3
# Si number density = 19.876226 Si / 1000 Ang^3
#
#
#
# Elastic Constant Matrix: (Units=GPa)
#
#
# Indices 1 2 3 4 5 6 
#
# 1 104.0557 21.9872 40.0753 0.0000 14.8387 0.0000
# 2 21.9872 82.1276 26.1284 0.0000 9.4266 0.0000
# 3 40.0753 26.1284 127.7964 0.0000 5.2360 0.0000
# 4 0.0000 0.0000 0.0000 24.0812 0.0000 2.0562
# 5 14.8387 9.4266 5.2360 0.0000 40.1735 0.0000
# 6 0.0000 0.0000 0.0000 2.0562 0.0000 32.8402
#
#
#
# Elastic Compliance Matrix: (Units=1/GPa)
#
#
# Indices 1 2 3 4 5 6 
#
# 1 0.011695 -0.001720 -0.003172 0.000000 -0.003503 0.000000
# 2 -0.001720 0.013579 -0.002144 0.000000 -0.002272 0.000000
# 3 -0.003172 -0.002144 0.009239 0.000000 0.000471 0.000000
# 4 0.000000 0.000000 0.000000 0.041749 0.000000 -0.002614
# 5 -0.003503 -0.002272 0.000471 0.000000 0.026658 0.000000
# 6 0.000000 0.000000 0.000000 -0.002614 0.000000 0.030614
#
#
# Mechanical properties :
#
#
# Convention : Reuss Voigt Hill
#
# Bulk Modulus (GPa) = 48.92086 54.48462 51.70274
# Shear Modulus (GPa) = 32.37927 34.47155 33.42541
#
# Velocity S-wave (km/s) = 4.04052 4.16902 4.10528
# Velocity P-wave (km/s) = 6.81425 7.11659 6.96706
#
# Compressibility (1/GPa) = 0.02044118
#
# Stress axis : x y z
#
# Youngs Moduli (GPa) = 85.50771 73.64084 108.23922
#
# Poissons Ratio (x) = 0.12664 0.34336
# Poissons Ratio (y) = 0.14705 0.23207
# Poissons Ratio (z) = 0.27125 0.15789
#
# Static dielectric constant tensor:
#      x y z
#    x 3.666500 0.000000 0.050890 
#    y 0.000000 3.728920 0.000000 
#    z 0.050890 0.000000 3.852770 
# 
# 
# High freq. dielectric constant tensor:
#      x y z
#    x 1.782790 0.000000 -0.002450 
#    y 0.000000 1.783110 0.000000 
#    z -0.002450 0.000000 1.784480 
# 
# From -- ./inp_files/204517.got.cif
#   From: 2010.06.25/outbox.cif.g09.slc.cpg/sg15_103_cif.got.tgz:204517.got - 2010.06.28 07:06:18.
