data_PCOD8153679
_publ_section_title
;
Structure prediction by ZEFSAII (Michael W. Deem and Ramdas Pophale) SiO2 
 PCOD8153679
Probable space group: C 2/C
;
_chemical_formula_sum "Si O2"
_cell_formula_units_Z 52
_cell_length_a 6.595871
_cell_length_b 19.153008
_cell_length_c 26.307784
_cell_angle_alpha 90.000000
_cell_angle_beta 49.900032
_cell_angle_gamma 90.000000
_cell_volume 2542.204170
_symmetry_space_group_name_H-M "C 2/C"
_symmetry_group_IT_number 15
_symmetry_cell_setting 'monoclinic'
loop_
_space_group_symop_operation_xyz
x,y,z
-x,y,1/2-z
-x,-y,-z
x,-y,1/2+z
1/2+x,1/2+y,z
1/2-x,1/2+y,1/2-z
1/2-x,1/2-y,-z
1/2+x,1/2-y,1/2+z
loop_
_atom_site_type_symbol
_atom_site_label
_atom_site_fract_x
_atom_site_fract_y
_atom_site_fract_z
Si Si1 0.793638 0.364247 0.692397
Si Si2 0.358425 0.592964 0.559345
Si Si3 0.782033 0.158493 0.409459
Si Si4 0.164067 0.935202 0.907927
Si Si5 0.500000 0.766341 0.750000
Si Si6 0.261160 0.186631 0.536616
Si Si7 0.061913 0.703996 0.884223
O O1 0.500000 0.397106 0.750000
O O2 0.762335 0.327600 0.642916
O O3 0.022906 0.421747 0.648750
O O4 0.885725 0.312491 0.722205
O O5 0.351478 0.518222 0.587103
O O6 0.534372 0.595922 0.479802
O O7 0.495890 0.641791 0.578300
O O8 0.068685 0.626703 0.596559
O O9 0.510555 0.136578 0.481485
O O10 0.006186 0.099666 0.385705
O O11 0.847223 0.234510 0.421351
O O12 0.261335 0.716260 0.805414
O O13 0.250000 0.250000 0.500000
O O14 0.270896 0.214186 0.591905
#
# Coordination Sequence:
#
# PCOD8153679 Si02
#       7
#     8   8   8   8   4   8   8
#     4  12  23  43  71  95 130 175 224 272 330 402
#     4  11  25  42  66 100 139 172 220 280 339 400
#     4  12  22  39  72  98 128 170 223 274 330 396
#     4  11  24  44  65  99 136 176 224 274 333 410
#     4  12  26  42  68 100 130 170 228 280 338 410
#     4  12  22  37  68 102 131 170 218 281 342 390
#     4  12  24  41  65  99 136 173 220 282 339 393
#
# _framework density 20.454689999999999
#
# number of rings (size 3 to 8) (size 9 to 14) (size 15 to 20)
#    0.000    0.308    7.692    2.308    0.000    1.846 
#    1.385    0.000    3.385    0.000    0.000    0.000 
#    0.000    0.000    0.000    0.000    0.000    0.000 
#
# Total GULP energy -322289.907518 kJ/mol
# GULP energy per Si atom -12395.765674 kJ/mol
# Density = 2.040813 g / cm^3
# Si number density = 20.454690 Si / 1000 Ang^3
#
#
#
# Elastic Constant Matrix: (Units=GPa)
#
#
# Indices 1 2 3 4 5 6 
#
# 1 124.4034 51.8922 43.8149 0.0006 11.9809 -0.0003
# 2 51.8922 114.5731 34.1743 0.0001 3.4502 0.0000
# 3 43.8149 34.1743 109.7474 0.0004 -5.5204 -0.0004
# 4 0.0006 0.0001 0.0004 26.1124 -0.0005 -5.4487
# 5 11.9809 3.4502 -5.5204 -0.0005 52.3309 0.0002
# 6 -0.0003 0.0000 -0.0004 -5.4487 0.0002 29.8918
#
#
#
# Elastic Compliance Matrix: (Units=1/GPa)
#
#
# Indices 1 2 3 4 5 6 
#
# 1 0.011121 -0.003961 -0.003339 0.000000 -0.002637 0.000000
# 2 -0.003961 0.011081 -0.001870 0.000000 -0.000021 0.000000
# 3 -0.003339 -0.001870 0.011131 0.000000 0.002062 0.000000
# 4 0.000000 0.000000 0.000000 0.039810 0.000000 0.007257
# 5 -0.002637 -0.000021 0.002062 0.000000 0.019932 0.000000
# 6 0.000000 0.000000 0.000000 0.007257 0.000000 0.034777
#
#
# Mechanical properties :
#
#
# Convention : Reuss Voigt Hill
#
# Bulk Modulus (GPa) = 66.70348 67.60963 67.15656
# Shear Modulus (GPa) = 33.07128 36.25651 34.66390
#
# Velocity S-wave (km/s) = 4.02532 4.21471 4.12110
# Velocity P-wave (km/s) = 7.36786 7.53725 7.45304
#
# Compressibility (1/GPa) = 0.01499172
#
# Stress axis : x y z
#
# Youngs Moduli (GPa) = 89.92234 90.24754 89.84076
#
# Poissons Ratio (x) = 0.35751 0.29997
# Poissons Ratio (y) = 0.35622 0.16799
# Poissons Ratio (z) = 0.30024 0.16875
#
# Static dielectric constant tensor:
#      x y z
#    x 4.153730 0.000000 -0.155590 
#    y 0.000000 3.447140 0.000000 
#    z -0.155590 0.000000 3.929090 
# 
# 
# High freq. dielectric constant tensor:
#      x y z
#    x 1.824900 0.000000 -0.003930 
#    y 0.000000 1.769440 0.000000 
#    z -0.003930 0.000000 1.800500 
# 
# From -- ./inp_files/285994.got.cif
#   From: 2010.06.25/outbox.cif.g09.slc.cpg/sg15_143_cif.got.tgz:285994.got - 2010.06.28 07:06:18.
