data_PCOD8153687
_publ_section_title
;
Structure prediction by ZEFSAII (Michael W. Deem and Ramdas Pophale) SiO2 
 PCOD8153687
Probable space group: C 2/C
;
_chemical_formula_sum "Si O2"
_cell_formula_units_Z 48
_cell_length_a 19.311825
_cell_length_b 6.436427
_cell_length_c 21.966074
_cell_angle_alpha 90.000000
_cell_angle_beta 126.821232
_cell_angle_gamma 90.000000
_cell_volume 2185.682169
_symmetry_space_group_name_H-M "C 2/C"
_symmetry_group_IT_number 15
_symmetry_cell_setting 'monoclinic'
loop_
_space_group_symop_operation_xyz
x,y,z
-x,y,1/2-z
-x,-y,-z
x,-y,1/2+z
1/2+x,1/2+y,z
1/2-x,1/2+y,1/2-z
1/2-x,1/2-y,-z
1/2+x,1/2-y,1/2+z
loop_
_atom_site_type_symbol
_atom_site_label
_atom_site_fract_x
_atom_site_fract_y
_atom_site_fract_z
Si Si1 0.048589 0.180178 0.926627
Si Si2 0.419799 0.008869 0.163626
Si Si3 0.365246 0.046044 0.936575
Si Si4 0.358568 0.716853 0.836768
Si Si5 0.652928 0.725636 0.469773
Si Si6 0.766644 0.619505 0.169932
O O1 0.067149 0.293050 0.872625
O O2 0.949889 0.096657 0.874618
O O3 0.121216 0.003574 0.970145
O O4 0.056062 0.325611 0.991174
O O5 0.500000 0.975148 0.250000
O O6 0.332933 0.025593 0.156766
O O7 0.412005 0.808326 0.116367
O O8 0.284432 0.200032 0.891215
O O9 0.381092 0.941325 0.879156
O O10 0.346784 0.851252 0.968496
O O11 0.295437 0.566177 0.840646
O O12 0.316661 0.770199 0.750719
O O13 0.750000 0.750000 0.500000
#
# Coordination Sequence:
#
# PCOD8153687 Si02
#       6
#     8   8   8   8   8   8
#     4  11  25  45  71 101 137 180 231 286 346 414
#     4  11  24  44  70 101 138 177 233 289 342 408
#     4  11  24  44  68 100 138 179 231 285 342 414
#     4  12  25  43  69 101 138 184 227 282 353 412
#     4  11  24  45  70 101 135 183 229 283 348 411
#     4  12  25  44  70 101 141 181 228 286 346 415
#
# _framework density 21.961106999999998
#
# number of rings (size 3 to 8) (size 9 to 14) (size 15 to 20)
#    0.000    0.667    3.333    4.500    0.000   10.000 
#    3.000    0.000    0.000    0.000    0.000    0.000 
#    0.000    0.000    0.000    0.000    0.000    0.000 
#
# Total GULP energy -297546.976542 kJ/mol
# GULP energy per Si atom -12397.790689 kJ/mol
# Density = 2.191112 g / cm^3
# Si number density = 21.961107 Si / 1000 Ang^3
#
#
#
# Elastic Constant Matrix: (Units=GPa)
#
#
# Indices 1 2 3 4 5 6 
#
# 1 83.8249 -0.6634 9.1937 0.0000 20.3548 0.0000
# 2 -0.6634 69.9821 25.8828 -0.0001 6.2558 0.0004
# 3 9.1937 25.8828 125.4755 0.0000 1.5579 0.0000
# 4 0.0000 -0.0001 0.0000 28.7674 0.0000 0.4218
# 5 20.3548 6.2558 1.5579 0.0000 40.1361 0.0000
# 6 0.0000 0.0004 0.0000 0.4218 0.0000 29.5532
#
#
#
# Elastic Compliance Matrix: (Units=1/GPa)
#
#
# Indices 1 2 3 4 5 6 
#
# 1 0.013802 0.001202 -0.001171 0.000000 -0.007141 0.000000
# 2 0.001202 0.015787 -0.003308 0.000000 -0.002942 0.000000
# 3 -0.001171 -0.003308 0.008728 0.000000 0.000770 0.000000
# 4 0.000000 0.000000 0.000000 0.034769 0.000000 -0.000496
# 5 -0.007141 -0.002942 0.000770 0.000000 0.028966 0.000000
# 6 0.000000 0.000000 0.000000 -0.000496 0.000000 0.033844
#
#
# Mechanical properties :
#
#
# Convention : Reuss Voigt Hill
#
# Bulk Modulus (GPa) = 31.48207 38.67872 35.08040
# Shear Modulus (GPa) = 32.67181 36.01595 34.34388
#
# Velocity S-wave (km/s) = 3.86127 4.05407 3.95884
# Velocity P-wave (km/s) = 5.85198 6.29004 6.07496
#
# Compressibility (1/GPa) = 0.03176411
#
# Stress axis : x y z
#
# Youngs Moduli (GPa) = 72.45518 63.34223 114.57021
#
# Poissons Ratio (x) = -0.07615 0.13411
# Poissons Ratio (y) = -0.08710 0.37901
# Poissons Ratio (z) = 0.08481 0.20954
#
# Static dielectric constant tensor:
#      x y z
#    x 3.884380 0.000000 -0.025370 
#    y 0.000000 3.965650 0.000000 
#    z -0.025370 0.000000 4.312740 
# 
# 
# High freq. dielectric constant tensor:
#      x y z
#    x 1.865790 0.000000 -0.001340 
#    y 0.000000 1.861530 0.000000 
#    z -0.001340 0.000000 1.895100 
# 
# From -- ./inp_files/279037.got.cif
#   From: 2010.06.25/outbox.cif.g09.slc.cpg/sg15_140_cif.got.tgz:279037.got - 2010.06.28 07:06:18.
