data_PCOD8153025
_publ_section_title
;
Structure prediction by ZEFSAII (Michael W. Deem and Ramdas Pophale) SiO2 
 PCOD8153025
Probable space group: C 2/C
;
_chemical_formula_sum "Si O2"
_cell_formula_units_Z 56
_cell_length_a 31.279823
_cell_length_b 9.415726
_cell_length_c 19.336349
_cell_angle_alpha 90.000000
_cell_angle_beta 27.619289
_cell_angle_gamma 90.000000
_cell_volume 2640.162840
_symmetry_space_group_name_H-M "C 2/C"
_symmetry_group_IT_number 15
_symmetry_cell_setting 'monoclinic'
loop_
_space_group_symop_operation_xyz
x,y,z
-x,y,1/2-z
-x,-y,-z
x,-y,1/2+z
1/2+x,1/2+y,z
1/2-x,1/2+y,1/2-z
1/2-x,1/2-y,-z
1/2+x,1/2-y,1/2+z
loop_
_atom_site_type_symbol
_atom_site_label
_atom_site_fract_x
_atom_site_fract_y
_atom_site_fract_z
Si Si1 0.248206 0.522536 0.057307
Si Si2 0.089825 0.821602 0.957020
Si Si3 0.268640 0.278032 0.132751
Si Si4 0.394988 0.719564 0.910275
Si Si5 0.791191 0.483799 0.043241
Si Si6 0.941837 0.366060 0.608980
Si Si7 0.863258 0.126626 0.635855
O O1 0.276027 0.380469 0.057041
O O2 0.151723 0.583729 0.221984
O O3 0.328860 0.636734 0.952419
O O4 0.244507 0.484112 0.982279
O O5 0.161540 0.751650 0.801090
O O6 0.072329 0.986322 0.961893
O O7 0.134240 0.814668 0.969349
O O8 0.996574 0.729128 0.086909
O O9 0.317795 0.349546 0.126878
O O10 0.317766 0.129747 0.043292
O O11 0.500000 0.671641 0.750000
O O12 0.382849 0.886864 0.911490
O O13 0.713817 0.396067 0.195474
O O14 0.923194 0.264431 0.569722
O O15 0.000000 0.500000 0.500000
#
# Coordination Sequence:
#
# PCOD8153025 Si02
#       7
#     8   8   8   8   8   8   8
#     4  12  24  48  65 103 138 176 222 282 340 394
#     4  11  23  42  67 102 132 178 227 274 330 405
#     4  11  23  45  71  96 136 180 224 275 336 401
#     4  12  25  43  70  98 133 176 229 277 337 400
#     4  11  25  42  70  99 139 177 220 279 340 393
#     4  12  25  41  72 101 137 173 228 280 330 400
#     4  11  24  44  69 100 136 179 224 274 336 397
#
# _framework density 21.210813000000002
#
# number of rings (size 3 to 8) (size 9 to 14) (size 15 to 20)
#    0.000    0.571    5.714    2.143    6.000    0.000 
#    0.000    0.714    0.000    0.000    0.000    0.000 
#    0.000    0.000    0.000    0.000    0.000    0.000 
#
# Total GULP energy -347340.499702 kJ/mol
# GULP energy per Si atom -12405.017847 kJ/mol
# Density = 2.116254 g / cm^3
# Si number density = 21.210813 Si / 1000 Ang^3
#
#
#
# Elastic Constant Matrix: (Units=GPa)
#
#
# Indices 1 2 3 4 5 6 
#
# 1 116.3849 35.1544 24.3741 0.0008 12.4847 -0.0003
# 2 35.1544 139.1841 45.3343 -0.0011 -3.1594 -0.0005
# 3 24.3741 45.3343 80.6391 -0.0013 -8.8832 -0.0004
# 4 0.0008 -0.0011 -0.0013 20.6269 -0.0003 -4.9874
# 5 12.4847 -3.1594 -8.8832 -0.0003 32.6900 0.0003
# 6 -0.0003 -0.0005 -0.0004 -4.9874 0.0003 43.5122
#
#
#
# Elastic Compliance Matrix: (Units=1/GPa)
#
#
# Indices 1 2 3 4 5 6 
#
# 1 0.010201 -0.001848 -0.002570 -0.000001 -0.004773 0.000000
# 2 -0.001848 0.009138 -0.004540 0.000000 0.000355 0.000000
# 3 -0.002570 -0.004540 0.016277 0.000001 0.004966 0.000000
# 4 -0.000001 0.000000 0.000001 0.049862 0.000001 0.005715
# 5 -0.004773 0.000355 0.004966 0.000001 0.033797 0.000000
# 6 0.000000 0.000000 0.000000 0.005715 0.000000 0.023637
#
#
# Mechanical properties :
#
#
# Convention : Reuss Voigt Hill
#
# Bulk Modulus (GPa) = 56.49573 60.65931 58.57752
# Shear Modulus (GPa) = 29.98906 34.78884 32.38895
#
# Velocity S-wave (km/s) = 3.76421 4.05427 3.91193
# Velocity P-wave (km/s) = 6.75170 7.11171 6.93405
#
# Compressibility (1/GPa) = 0.01770045
#
# Stress axis : x y z
#
# Youngs Moduli (GPa) = 98.03433 109.43201 61.43602
#
# Poissons Ratio (x) = 0.20218 0.15791
# Poissons Ratio (y) = 0.18112 0.27890
# Poissons Ratio (z) = 0.25198 0.49679
#
# Static dielectric constant tensor:
#      x y z
#    x 3.886430 0.000000 0.051330 
#    y 0.000000 4.029020 0.000000 
#    z 0.051330 0.000000 3.637740 
# 
# 
# High freq. dielectric constant tensor:
#      x y z
#    x 1.842000 0.000000 0.002030 
#    y 0.000000 1.849560 0.000000 
#    z 0.002030 0.000000 1.813110 
# 
# From -- ./inp_files/209631.got.cif
#   From: 2010.06.25/outbox.cif.g09.slc.cpg/sg15_105_cif.got.tgz:209631.got - 2010.06.28 07:06:18.
