data_PCOD8153865
_publ_section_title
;
Structure prediction by ZEFSAII (Michael W. Deem and Ramdas Pophale) SiO2 
 PCOD8153865
Probable space group: C 2/C
;
_chemical_formula_sum "Si O2"
_cell_formula_units_Z 52
_cell_length_a 16.946566
_cell_length_b 14.563943
_cell_length_c 14.560796
_cell_angle_alpha 90.000000
_cell_angle_beta 137.347009
_cell_angle_gamma 90.000000
_cell_volume 2434.956984
_symmetry_space_group_name_H-M "C 2/C"
_symmetry_group_IT_number 15
_symmetry_cell_setting 'monoclinic'
loop_
_space_group_symop_operation_xyz
x,y,z
-x,y,1/2-z
-x,-y,-z
x,-y,1/2+z
1/2+x,1/2+y,z
1/2-x,1/2+y,1/2-z
1/2-x,1/2-y,-z
1/2+x,1/2-y,1/2+z
loop_
_atom_site_type_symbol
_atom_site_label
_atom_site_fract_x
_atom_site_fract_y
_atom_site_fract_z
Si Si1 0.279211 0.840115 0.584230
Si Si2 0.864832 0.008808 0.042791
Si Si3 0.295716 0.185818 0.311426
Si Si4 0.502691 0.920826 0.073044
Si Si5 0.500000 0.961276 0.750000
Si Si6 0.870367 0.039633 0.257766
Si Si7 0.243363 0.109357 0.711480
O O1 0.250000 0.750000 0.500000
O O2 0.160783 0.899969 0.478367
O O3 0.315592 0.820277 0.719839
O O4 0.387743 0.896782 0.636271
O O5 0.846812 0.047494 0.129278
O O6 0.991680 0.028371 0.108624
O O7 0.770549 0.054626 0.895476
O O8 0.393026 0.142811 0.460301
O O9 0.313077 0.291970 0.349117
O O10 0.174617 0.134157 0.233886
O O11 0.621768 0.865952 0.157412
O O12 0.505712 0.967247 0.173392
O O13 0.500000 0.000000 0.000000
O O14 0.806465 0.950904 0.246596
#
# Coordination Sequence:
#
# PCOD8153865 Si02
#       7
#     8   8   8   8   4   8   8
#     4  12  26  43  72 109 138 182 242 294 364 426
#     4  11  24  46  68  98 140 188 229 292 366 417
#     4  12  27  43  71 107 140 193 240 295 363 434
#     4  12  24  47  71 100 144 192 239 295 365 421
#     4  12  24  48  74 100 146 192 234 310 350 430
#     4  11  24  46  70  97 145 183 229 300 359 429
#     4  12  26  44  71 102 139 188 239 300 356 426
#
# _framework density 21.355613999999999
#
# number of rings (size 3 to 8) (size 9 to 14) (size 15 to 20)
#    0.000    0.308    6.154    2.308    4.308    3.077 
#    0.000    0.000    0.000    0.000    0.000    0.000 
#    0.000    0.000    0.000    0.000    0.000    0.000 
#
# Total GULP energy -322317.115084 kJ/mol
# GULP energy per Si atom -12396.812119 kJ/mol
# Density = 2.130701 g / cm^3
# Si number density = 21.355614 Si / 1000 Ang^3
#
#
#
# Elastic Constant Matrix: (Units=GPa)
#
#
# Indices 1 2 3 4 5 6 
#
# 1 105.4324 37.0433 37.3803 0.0000 2.4435 0.0000
# 2 37.0433 99.2555 4.7124 0.0000 2.2017 0.0000
# 3 37.3803 4.7124 87.7370 0.0000 9.4068 0.0000
# 4 0.0000 0.0000 0.0000 42.0270 0.0000 -0.7071
# 5 2.4435 2.2017 9.4068 0.0000 36.1068 0.0000
# 6 0.0000 0.0000 0.0000 -0.7071 0.0000 28.1659
#
#
#
# Elastic Compliance Matrix: (Units=1/GPa)
#
#
# Indices 1 2 3 4 5 6 
#
# 1 0.012991 -0.004611 -0.005373 0.000000 0.000802 0.000000
# 2 -0.004611 0.011746 0.001417 0.000000 -0.000773 0.000000
# 3 -0.005373 0.001417 0.013971 0.000000 -0.003363 0.000000
# 4 0.000000 0.000000 0.000000 0.023804 0.000000 0.000598
# 5 0.000802 -0.000773 -0.003363 0.000000 0.028565 0.000000
# 6 0.000000 0.000000 0.000000 0.000598 0.000000 0.035519
#
#
# Mechanical properties :
#
#
# Convention : Reuss Voigt Hill
#
# Bulk Modulus (GPa) = 46.35434 50.07745 48.21589
# Shear Modulus (GPa) = 33.12947 35.47921 34.30434
#
# Velocity S-wave (km/s) = 3.94296 4.08039 4.01226
# Velocity P-wave (km/s) = 6.51784 6.76015 6.64010
#
# Compressibility (1/GPa) = 0.02157295
#
# Stress axis : x y z
#
# Youngs Moduli (GPa) = 76.97427 85.13646 71.57464
#
# Poissons Ratio (x) = 0.39258 0.38459
# Poissons Ratio (y) = 0.35494 -0.10139
# Poissons Ratio (z) = 0.41360 -0.12061
#
# Static dielectric constant tensor:
#      x y z
#    x 4.031770 0.000000 0.103230 
#    y 0.000000 3.916280 0.000000 
#    z 0.103230 0.000000 3.994050 
# 
# 
# High freq. dielectric constant tensor:
#      x y z
#    x 1.848360 0.000000 -0.003880 
#    y 0.000000 1.835180 0.000000 
#    z -0.003880 0.000000 1.856360 
# 
# From -- ./inp_files/162627.got.cif
#   From: 2010.06.25/outbox.cif.g09.slc.cpg/sg15_82_cif.got.tgz:162627.got - 2010.06.28 07:06:18.
