data_PCOD8153881
_publ_section_title
;
Structure prediction by ZEFSAII (Michael W. Deem and Ramdas Pophale) SiO2 
 PCOD8153881
Probable space group: C 2/C
;
_chemical_formula_sum "Si O2"
_cell_formula_units_Z 48
_cell_length_a 8.703004
_cell_length_b 23.208494
_cell_length_c 20.747940
_cell_angle_alpha 90.000000
_cell_angle_beta 150.428448
_cell_angle_gamma 90.000000
_cell_volume 2068.174430
_symmetry_space_group_name_H-M "C 2/C"
_symmetry_group_IT_number 15
_symmetry_cell_setting 'monoclinic'
loop_
_space_group_symop_operation_xyz
x,y,z
-x,y,1/2-z
-x,-y,-z
x,-y,1/2+z
1/2+x,1/2+y,z
1/2-x,1/2+y,1/2-z
1/2-x,1/2-y,-z
1/2+x,1/2-y,1/2+z
loop_
_atom_site_type_symbol
_atom_site_label
_atom_site_fract_x
_atom_site_fract_y
_atom_site_fract_z
Si Si1 0.953875 0.823209 0.048446
Si Si2 0.477029 0.661909 0.071448
Si Si3 0.671110 0.872977 0.129895
Si Si4 0.004264 0.071181 0.856911
Si Si5 0.770502 0.714029 0.300918
Si Si6 0.864517 0.971407 0.886872
O O1 0.035053 0.889342 0.093257
O O2 0.185911 0.783052 0.175338
O O3 0.597938 0.813855 0.940905
O O4 0.002068 0.808331 0.990644
O O5 0.699065 0.696265 0.201206
O O6 0.569621 0.595557 0.098646
O O7 0.127606 0.667505 0.972435
O O8 0.698745 0.917782 0.200248
O O9 0.000000 0.835719 0.250000
O O10 0.679774 0.910805 0.066799
O O11 0.021110 0.004785 0.883704
O O12 0.500000 0.691200 0.250000
O O13 0.500000 0.982636 0.750000
O O14 0.000000 0.000000 0.000000
#
# Coordination Sequence:
#
# PCOD8153881 Si02
#       6
#     8   8   8   8   8   8
#     4  11  24  46  70  98 142 176 239 292 349 414
#     4  12  24  46  71 103 140 183 240 293 350 428
#     4   8  22  42  67  98 144 183 227 282 355 423
#     4   9  21  42  68 100 140 183 226 281 355 422
#     4  11  27  45  66 102 135 188 228 294 352 409
#     4  12  24  40  73 108 143 184 235 292 358 425
#
# _framework density 23.208874999999999
#
# number of rings (size 3 to 8) (size 9 to 14) (size 15 to 20)
#    1.000    0.333    1.667    3.500    2.333    1.333 
#   15.000    0.000    0.000    0.000    0.000    0.000 
#    0.000    0.000    0.000    0.000    0.000    0.000 
#
# Total GULP energy -297394.006814 kJ/mol
# GULP energy per Si atom -12391.416951 kJ/mol
# Density = 2.315605 g / cm^3
# Si number density = 23.208875 Si / 1000 Ang^3
#
#
#
# Elastic Constant Matrix: (Units=GPa)
#
#
# Indices 1 2 3 4 5 6 
#
# 1 124.0264 35.5510 47.5425 -0.0005 -2.2923 -0.0030
# 2 35.5510 107.0208 42.8060 -0.0028 -15.0790 -0.0023
# 3 47.5425 42.8060 114.4999 0.0083 -2.9761 -0.0048
# 4 -0.0005 -0.0028 0.0083 28.1004 0.0012 -7.5879
# 5 -2.2923 -15.0790 -2.9761 0.0012 50.9084 -0.0053
# 6 -0.0030 -0.0023 -0.0048 -7.5879 -0.0053 31.4740
#
#
#
# Elastic Compliance Matrix: (Units=1/GPa)
#
#
# Indices 1 2 3 4 5 6 
#
# 1 0.009925 -0.001991 -0.003386 0.000001 -0.000341 0.000000
# 2 -0.001991 0.011870 -0.003527 0.000002 0.003220 0.000001
# 3 -0.003386 -0.003527 0.011444 -0.000004 -0.000528 0.000000
# 4 0.000001 0.000002 -0.000004 0.038065 0.000001 0.009177
# 5 -0.000341 0.003220 -0.000528 0.000001 0.020551 0.000004
# 6 0.000000 0.000001 0.000000 0.009177 0.000004 0.033985
#
#
# Mechanical properties :
#
#
# Convention : Reuss Voigt Hill
#
# Bulk Modulus (GPa) = 64.80124 66.37178 65.58651
# Shear Modulus (GPa) = 33.60434 36.73972 35.17203
#
# Velocity S-wave (km/s) = 3.80927 3.98301 3.89711
# Velocity P-wave (km/s) = 6.87960 7.05778 6.96926
#
# Compressibility (1/GPa) = 0.01543180
#
# Stress axis : x y z
#
# Youngs Moduli (GPa) = 100.75635 84.24744 87.37948
#
# Poissons Ratio (x) = 0.16772 0.29583
# Poissons Ratio (y) = 0.20058 0.30821
# Poissons Ratio (z) = 0.34112 0.29716
#
# Static dielectric constant tensor:
#      x y z
#    x 4.216470 -0.000010 -0.001930 
#    y -0.000010 3.869910 -0.000010 
#    z -0.001930 -0.000010 4.151840 
# 
# 
# High freq. dielectric constant tensor:
#      x y z
#    x 1.927090 0.000000 -0.005840 
#    y 0.000000 1.893920 0.000000 
#    z -0.005840 0.000000 1.917190 
# 
# From -- ./inp_files/234805.got.cif
#   From: 2010.06.25/outbox.cif.g09.slc.cpg/sg15_118_cif.got.tgz:234805.got - 2010.06.28 07:06:18.
