data_PCOD8153431
_publ_section_title
;
Structure prediction by ZEFSAII (Michael W. Deem and Ramdas Pophale) SiO2 
 PCOD8153431
Probable space group: C 2/C
;
_chemical_formula_sum "Si O2"
_cell_formula_units_Z 40
_cell_length_a 16.619432
_cell_length_b 10.640919
_cell_length_c 14.068092
_cell_angle_alpha 90.000000
_cell_angle_beta 41.563736
_cell_angle_gamma 90.000000
_cell_volume 1650.595023
_symmetry_space_group_name_H-M "C 2/C"
_symmetry_group_IT_number 15
_symmetry_cell_setting 'monoclinic'
loop_
_space_group_symop_operation_xyz
x,y,z
-x,y,1/2-z
-x,-y,-z
x,-y,1/2+z
1/2+x,1/2+y,z
1/2-x,1/2+y,1/2-z
1/2-x,1/2-y,-z
1/2+x,1/2-y,1/2+z
loop_
_atom_site_type_symbol
_atom_site_label
_atom_site_fract_x
_atom_site_fract_y
_atom_site_fract_z
Si Si1 0.918557 0.103556 0.495587
Si Si2 0.313312 0.599633 0.188644
Si Si3 0.817616 0.340816 0.513323
Si Si4 0.500000 0.972711 0.750000
Si Si5 0.000000 0.948806 0.250000
Si Si6 0.168170 0.736987 0.165615
O O1 0.899089 0.251456 0.505268
O O2 0.041186 0.108077 0.448670
O O3 0.800045 0.038015 0.650633
O O4 0.924099 0.037738 0.386956
O O5 0.276392 0.591784 0.331873
O O6 0.251976 0.714922 0.184659
O O7 0.750000 0.250000 0.500000
O O8 0.904703 0.443577 0.391362
O O9 0.420833 0.883286 0.752559
O O10 0.912618 0.863296 0.259984
O O11 0.250000 0.750000 0.000000
#
# Coordination Sequence:
#
# PCOD8153431 Si02
#       6
#     8   8   8   4   4   8
#     4  11  25  45  70 109 138 189 243 290 361 442
#     4  11  26  42  72 104 140 189 240 293 363 424
#     4  12  26  48  73 103 147 188 237 302 363 424
#     4  11  27  46  70 108 141 193 246 288 362 445
#     4  11  23  46  74 100 149 189 242 296 360 443
#     4  11  25  46  71 106 145 190 238 298 364 425
#
# _framework density 24.233685000000001
#
# number of rings (size 3 to 8) (size 9 to 14) (size 15 to 20)
#    0.000    0.800    2.000    4.200    8.400    0.800 
#    0.000    0.000    0.000    0.000    0.000    0.000 
#    0.000    0.000    0.000    0.000    0.000    0.000 
#
# Total GULP energy -247863.804796 kJ/mol
# GULP energy per Si atom -12393.190240 kJ/mol
# Density = 2.417853 g / cm^3
# Si number density = 24.233685 Si / 1000 Ang^3
#
#
#
# Elastic Constant Matrix: (Units=GPa)
#
#
# Indices 1 2 3 4 5 6 
#
# 1 95.8753 18.9213 26.3139 0.0000 3.2203 0.0000
# 2 18.9213 111.3885 40.6083 0.0000 0.3254 0.0000
# 3 26.3139 40.6083 146.3312 0.0000 18.5463 0.0000
# 4 0.0000 0.0000 0.0000 45.8229 0.0000 -5.8381
# 5 3.2203 0.3254 18.5463 0.0000 37.9293 0.0000
# 6 0.0000 0.0000 0.0000 -5.8381 0.0000 22.8660
#
#
#
# Elastic Compliance Matrix: (Units=1/GPa)
#
#
# Indices 1 2 3 4 5 6 
#
# 1 0.011137 -0.001299 -0.001624 0.000000 -0.000140 0.000000
# 2 -0.001299 0.010205 -0.002773 0.000000 0.001379 0.000000
# 3 -0.001624 -0.002773 0.008395 0.000000 -0.003943 0.000000
# 4 0.000000 0.000000 0.000000 0.022557 0.000000 0.005759
# 5 -0.000140 0.001379 -0.003943 0.000000 0.028293 0.000000
# 6 0.000000 0.000000 0.000000 0.005759 0.000000 0.045204
#
#
# Mechanical properties :
#
#
# Convention : Reuss Voigt Hill
#
# Bulk Modulus (GPa) = 54.51350 58.36465 56.43908
# Shear Modulus (GPa) = 34.89195 39.17374 37.03284
#
# Velocity S-wave (km/s) = 3.79860 4.02493 3.91340
# Velocity P-wave (km/s) = 6.46397 6.76288 6.61511
#
# Compressibility (1/GPa) = 0.01834408
#
# Stress axis : x y z
#
# Youngs Moduli (GPa) = 89.78945 97.98874 119.11438
#
# Poissons Ratio (x) = 0.12731 0.19349
# Poissons Ratio (y) = 0.11666 0.33032
# Poissons Ratio (z) = 0.14586 0.27174
#
# Static dielectric constant tensor:
#      x y z
#    x 4.284790 0.000000 -0.252620 
#    y 0.000000 4.945280 0.000000 
#    z -0.252620 0.000000 4.173230 
# 
# 
# High freq. dielectric constant tensor:
#      x y z
#    x 1.966020 0.000000 -0.000100 
#    y 0.000000 1.975860 0.000000 
#    z -0.000100 0.000000 1.962180 
# 
# From -- ./inp_files/160682.got.cif
#   From: 2010.06.25/outbox.cif.g09.slc.cpg/sg15_81_cif.got.tgz:160682.got - 2010.06.28 07:06:18.
