data_PCOD8153094
_publ_section_title
;
Structure prediction by ZEFSAII (Michael W. Deem and Ramdas Pophale) SiO2 
 PCOD8153094
Probable space group: C 2/C
;
_chemical_formula_sum "Si O2"
_cell_formula_units_Z 52
_cell_length_a 32.728333
_cell_length_b 13.828871
_cell_length_c 9.797859
_cell_angle_alpha 90.000000
_cell_angle_beta 146.369197
_cell_angle_gamma 90.000000
_cell_volume 2455.984003
_symmetry_space_group_name_H-M "C 2/C"
_symmetry_group_IT_number 15
_symmetry_cell_setting 'monoclinic'
loop_
_space_group_symop_operation_xyz
x,y,z
-x,y,1/2-z
-x,-y,-z
x,-y,1/2+z
1/2+x,1/2+y,z
1/2-x,1/2+y,1/2-z
1/2-x,1/2-y,-z
1/2+x,1/2-y,1/2+z
loop_
_atom_site_type_symbol
_atom_site_label
_atom_site_fract_x
_atom_site_fract_y
_atom_site_fract_z
Si Si1 0.421750 0.725288 0.238972
Si Si2 0.097243 0.036844 0.181751
Si Si3 0.500000 0.603124 0.250000
Si Si4 0.481382 0.092063 0.539173
Si Si5 0.269033 0.808732 0.750640
Si Si6 0.688316 0.869810 0.914652
Si Si7 0.304572 0.474948 0.802244
O O1 0.434728 0.646464 0.395770
O O2 0.437208 0.673532 0.136137
O O3 0.474285 0.817602 0.401737
O O4 0.336341 0.753353 0.008242
O O5 0.127467 0.005028 0.413108
O O6 0.164738 0.031801 0.264753
O O7 0.032239 0.963354 0.960281
O O8 0.500000 0.074494 0.750000
O O9 0.395552 0.111205 0.281045
O O10 0.500000 0.000000 0.500000
O O11 0.300559 0.876349 0.717439
O O12 0.208058 0.736609 0.521795
O O13 0.228599 0.871711 0.751643
O O14 0.739379 0.947459 0.131631
#
# Coordination Sequence:
#
# PCOD8153094 Si02
#       7
#     8   8   4   8   8   8   8
#     4  12  24  48  71 101 140 190 232 282 355 425
#     4  12  26  44  71 107 138 181 228 294 356 419
#     4  12  24  44  74 100 146 182 230 286 358 430
#     4  12  27  48  71 100 141 190 236 285 345 416
#     4  11  23  42  72  99 135 183 232 281 348 415
#     4  11  23  43  72 100 134 186 231 279 349 417
#     4  12  25  44  70 101 141 174 235 293 344 413
#
# _framework density 21.172775999999999
#
# number of rings (size 3 to 8) (size 9 to 14) (size 15 to 20)
#    0.000    0.308    6.923    1.385    4.308    0.615 
#    4.154    0.000    0.000    0.000    0.000    0.000 
#    0.000    0.000    0.000    0.000    0.000    0.000 
#
# Total GULP energy -322552.808585 kJ/mol
# GULP energy per Si atom -12405.877253 kJ/mol
# Density = 2.112459 g / cm^3
# Si number density = 21.172776 Si / 1000 Ang^3
#
#
#
# Elastic Constant Matrix: (Units=GPa)
#
#
# Indices 1 2 3 4 5 6 
#
# 1 67.5519 42.2298 17.4669 0.0000 13.1983 0.0000
# 2 42.2298 137.8782 42.0136 0.0000 7.9352 0.0000
# 3 17.4669 42.0136 96.5834 0.0000 19.7031 0.0000
# 4 0.0000 0.0000 0.0000 34.5873 0.0000 2.3376
# 5 13.1983 7.9352 19.7031 0.0000 33.1984 0.0000
# 6 0.0000 0.0000 0.0000 2.3376 0.0000 57.2374
#
#
#
# Elastic Compliance Matrix: (Units=1/GPa)
#
#
# Indices 1 2 3 4 5 6 
#
# 1 0.019585 -0.005706 0.000285 0.000000 -0.006591 0.000000
# 2 -0.005706 0.010024 -0.003758 0.000000 0.002102 0.000000
# 3 0.000285 -0.003758 0.013399 0.000000 -0.007167 0.000000
# 4 0.000000 0.000000 0.000000 0.028992 0.000000 -0.001184
# 5 -0.006591 0.002102 -0.007167 0.000000 0.036494 0.000000
# 6 0.000000 0.000000 0.000000 -0.001184 0.000000 0.017519
#
#
# Mechanical properties :
#
#
# Convention : Reuss Voigt Hill
#
# Bulk Modulus (GPa) = 40.56699 56.15935 48.36317
# Shear Modulus (GPa) = 32.76812 38.35819 35.56315
#
# Velocity S-wave (km/s) = 3.93829 4.26100 4.10282
# Velocity P-wave (km/s) = 6.31520 7.12671 6.73319
#
# Compressibility (1/GPa) = 0.02465059
#
# Stress axis : x y z
#
# Youngs Moduli (GPa) = 51.06058 99.75673 74.63292
#
# Poissons Ratio (x) = 0.56920 -0.02126
# Poissons Ratio (y) = 0.29135 0.28044
# Poissons Ratio (z) = -0.01454 0.37485
#
# Static dielectric constant tensor:
#      x y z
#    x 3.891090 0.000000 0.090590 
#    y 0.000000 4.038090 0.000000 
#    z 0.090590 0.000000 3.715800 
# 
# 
# High freq. dielectric constant tensor:
#      x y z
#    x 1.835990 0.000000 0.016780 
#    y 0.000000 1.842040 0.000000 
#    z 0.016780 0.000000 1.826410 
# 
# From -- ./inp_files/70179.got.cif
#   From: 2010.06.25/outbox.cif.g09.slc.cpg/sg15_36_cif.got.tgz:70179.got - 2010.06.28 07:06:18.
