data_PCOD8153904
_publ_section_title
;
Structure prediction by ZEFSAII (Michael W. Deem and Ramdas Pophale) SiO2 
 PCOD8153904
Probable space group: C 2/C
;
_chemical_formula_sum "Si O2"
_cell_formula_units_Z 40
_cell_length_a 13.131434
_cell_length_b 9.734825
_cell_length_c 26.070129
_cell_angle_alpha 90.000000
_cell_angle_beta 31.105993
_cell_angle_gamma 90.000000
_cell_volume 1721.698608
_symmetry_space_group_name_H-M "C 2/C"
_symmetry_group_IT_number 15
_symmetry_cell_setting 'monoclinic'
loop_
_space_group_symop_operation_xyz
x,y,z
-x,y,1/2-z
-x,-y,-z
x,-y,1/2+z
1/2+x,1/2+y,z
1/2-x,1/2+y,1/2-z
1/2-x,1/2-y,-z
1/2+x,1/2-y,1/2+z
loop_
_atom_site_type_symbol
_atom_site_label
_atom_site_fract_x
_atom_site_fract_y
_atom_site_fract_z
Si Si1 0.618305 0.509171 0.861598
Si Si2 0.235289 0.354574 0.051602
Si Si3 0.576820 0.223103 0.432323
Si Si4 0.361776 0.033880 0.664756
Si Si5 0.724653 0.235056 0.153910
O O1 0.629611 0.672375 0.864175
O O2 0.672138 0.481398 0.778774
O O3 0.767033 0.426066 0.835095
O O4 0.401884 0.467461 0.972070
O O5 0.269162 0.264025 0.088634
O O6 0.033830 0.443609 0.133369
O O7 0.250000 0.250000 0.000000
O O8 0.600528 0.071082 0.398496
O O9 0.347702 0.236176 0.548869
O O10 0.332253 0.182449 0.652756
O O11 0.500000 0.286294 0.250000
#
# Coordination Sequence:
#
# PCOD8153904 Si02
#       5
#     8   8   8   8   8
#     4  11  26  46  68 106 138 189 239 292 371 430
#     4  11  24  46  72  99 146 186 239 298 358 436
#     4  11  26  47  71 101 147 190 238 305 362 430
#     4  12  26  46  72 106 141 193 244 294 367 436
#     4  11  25  45  69 103 142 187 239 296 360 430
#
# _framework density 23.232869000000001
#
# number of rings (size 3 to 8) (size 9 to 14) (size 15 to 20)
#    0.000    0.800    4.000    4.200    8.400    0.800 
#    0.000    0.000    0.000    0.000    0.000    0.000 
#    0.000    0.000    0.000    0.000    0.000    0.000 
#
# Total GULP energy -247866.112399 kJ/mol
# GULP energy per Si atom -12393.305620 kJ/mol
# Density = 2.317999 g / cm^3
# Si number density = 23.232869 Si / 1000 Ang^3
#
#
#
# Elastic Constant Matrix: (Units=GPa)
#
#
# Indices 1 2 3 4 5 6 
#
# 1 97.3294 34.8122 53.5852 -0.0001 -9.5612 0.0000
# 2 34.8122 73.6859 26.6295 0.0000 -9.3668 -0.0001
# 3 53.5852 26.6295 111.7340 -0.0002 10.8586 -0.0001
# 4 -0.0001 0.0000 -0.0002 31.9157 0.0002 14.1274
# 5 -9.5612 -9.3668 10.8586 0.0002 39.7537 0.0000
# 6 0.0000 -0.0001 -0.0001 14.1274 0.0000 35.5989
#
#
#
# Elastic Compliance Matrix: (Units=1/GPa)
#
#
# Indices 1 2 3 4 5 6 
#
# 1 0.016341 -0.004488 -0.007239 0.000000 0.004850 0.000000
# 2 -0.004488 0.016944 -0.002228 0.000000 0.003522 0.000000
# 3 -0.007239 -0.002228 0.013532 0.000000 -0.005962 0.000000
# 4 0.000000 0.000000 0.000000 0.038009 0.000000 -0.015084
# 5 0.004850 0.003522 -0.005962 0.000000 0.028780 0.000000
# 6 0.000000 0.000000 0.000000 -0.015084 0.000000 0.034077
#
#
# Mechanical properties :
#
#
# Convention : Reuss Voigt Hill
#
# Bulk Modulus (GPa) = 52.88813 56.97812 54.93313
# Shear Modulus (GPa) = 27.48827 32.63515 30.06171
#
# Velocity S-wave (km/s) = 3.44345 3.75200 3.60103
# Velocity P-wave (km/s) = 6.21478 6.58392 6.40201
#
# Compressibility (1/GPa) = 0.01890783
#
# Stress axis : x y z
#
# Youngs Moduli (GPa) = 61.19461 59.01700 73.89957
#
# Poissons Ratio (x) = 0.26485 0.53494
# Poissons Ratio (y) = 0.27462 0.16467
# Poissons Ratio (z) = 0.44297 0.13151
#
# Static dielectric constant tensor:
#      x y z
#    x 3.168800 0.000010 0.496570 
#    y 0.000010 3.920470 0.000000 
#    z 0.496570 0.000000 4.008270 
# 
# 
# High freq. dielectric constant tensor:
#      x y z
#    x 1.903570 0.000000 0.008350 
#    y 0.000000 1.927770 0.000000 
#    z 0.008350 0.000000 1.928210 
# 
# From -- ./inp_files/150588.got.cif
#   From: 2010.06.25/outbox.cif.g09.slc.cpg/sg15_76_cif.got.tgz:150588.got - 2010.06.28 07:06:18.
