data_PCOD8153216
_publ_section_title
;
Structure prediction by ZEFSAII (Michael W. Deem and Ramdas Pophale) SiO2 
 PCOD8153216
Probable space group: C 2/C
;
_chemical_formula_sum "Si O2"
_cell_formula_units_Z 48
_cell_length_a 10.185558
_cell_length_b 12.026678
_cell_length_c 16.793924
_cell_angle_alpha 90.000000
_cell_angle_beta 75.024324
_cell_angle_gamma 90.000000
_cell_volume 1987.356738
_symmetry_space_group_name_H-M "C 2/C"
_symmetry_group_IT_number 15
_symmetry_cell_setting 'monoclinic'
loop_
_space_group_symop_operation_xyz
x,y,z
-x,y,1/2-z
-x,-y,-z
x,-y,1/2+z
1/2+x,1/2+y,z
1/2-x,1/2+y,1/2-z
1/2-x,1/2-y,-z
1/2+x,1/2-y,1/2+z
loop_
_atom_site_type_symbol
_atom_site_label
_atom_site_fract_x
_atom_site_fract_y
_atom_site_fract_z
Si Si1 0.905345 0.529796 0.192823
Si Si2 0.851843 0.918534 0.293357
Si Si3 0.829356 0.235988 0.665936
Si Si4 0.035636 0.761745 0.010784
Si Si5 0.120670 0.631179 0.586596
Si Si6 0.249180 0.423753 0.490544
O O1 0.761250 0.479767 0.244297
O O2 0.854061 0.633033 0.147681
O O3 0.000000 0.569917 0.250000
O O4 0.985591 0.437494 0.129678
O O5 0.845953 0.793491 0.257046
O O6 0.805632 0.924230 0.391619
O O7 0.000000 0.971037 0.250000
O O8 0.687632 0.190639 0.652470
O O9 0.957194 0.183861 0.598354
O O10 0.143278 0.857763 0.969693
O O11 0.109611 0.645045 0.019641
O O12 0.923537 0.735076 0.961315
O O13 0.226689 0.548474 0.525790
#
# Coordination Sequence:
#
# PCOD8153216 Si02
#       6
#     8   8   8   8   8   8
#     4  12  26  50  80 108 156 204 247 317 387 448
#     4  12  25  49  73 112 158 200 254 311 383 458
#     4  12  26  47  76 112 149 201 253 312 382 456
#     4  11  23  43  75 110 148 194 251 313 372 447
#     4  12  25  50  78 112 147 200 260 312 379 448
#     4  11  24  44  78 109 147 202 251 309 381 451
#
# _framework density 24.152684000000001
#
# number of rings (size 3 to 8) (size 9 to 14) (size 15 to 20)
#    0.000    0.333    6.667    2.500    0.000    0.667 
#    6.000    0.000    0.000    0.000    0.000    0.000 
#    0.000    0.000    0.000    0.000    0.000    0.000 
#
# Total GULP energy -297397.714059 kJ/mol
# GULP energy per Si atom -12391.571419 kJ/mol
# Density = 2.409771 g / cm^3
# Si number density = 24.152684 Si / 1000 Ang^3
#
#
#
# Elastic Constant Matrix: (Units=GPa)
#
#
# Indices 1 2 3 4 5 6 
#
# 1 142.0935 70.4024 39.1033 0.0000 -12.3665 0.0000
# 2 70.4024 90.3924 34.2657 0.0000 6.8038 0.0000
# 3 39.1033 34.2657 101.0874 0.0000 -2.9962 0.0000
# 4 0.0000 0.0000 0.0000 31.2320 0.0000 2.4168
# 5 -12.3665 6.8038 -2.9962 0.0000 34.8315 0.0000
# 6 0.0000 0.0000 0.0000 2.4168 0.0000 41.1657
#
#
#
# Elastic Compliance Matrix: (Units=1/GPa)
#
#
# Indices 1 2 3 4 5 6 
#
# 1 0.012966 -0.010046 -0.001420 0.000000 0.006444 0.000000
# 2 -0.010046 0.020767 -0.003388 0.000000 -0.007915 0.000000
# 3 -0.001420 -0.003388 0.011624 0.000000 0.001158 0.000000
# 4 0.000000 0.000000 0.000000 0.032165 0.000000 -0.001888
# 5 0.006444 -0.007915 0.001158 0.000000 0.032643 0.000000
# 6 0.000000 0.000000 0.000000 -0.001888 0.000000 0.024403
#
#
# Mechanical properties :
#
#
# Convention : Reuss Voigt Hill
#
# Bulk Modulus (GPa) = 63.89341 69.01290 66.45316
# Shear Modulus (GPa) = 29.49986 34.09932 31.79959
#
# Velocity S-wave (km/s) = 3.49863 3.76150 3.63244
# Velocity P-wave (km/s) = 6.54461 6.89208 6.72059
#
# Compressibility (1/GPa) = 0.01565107
#
# Stress axis : x y z
#
# Youngs Moduli (GPa) = 77.12209 48.15283 86.02662
#
# Poissons Ratio (x) = 0.48374 0.12212
# Poissons Ratio (y) = 0.77476 0.29146
# Poissons Ratio (z) = 0.10948 0.16314
#
# Static dielectric constant tensor:
#      x y z
#    x 4.742220 0.000000 -0.107540 
#    y 0.000000 4.164330 0.000000 
#    z -0.107540 0.000000 4.192300 
# 
# 
# High freq. dielectric constant tensor:
#      x y z
#    x 1.983240 0.000000 -0.005250 
#    y 0.000000 1.945710 0.000000 
#    z -0.005250 0.000000 1.944610 
# 
# From -- ./inp_files/196487.got.cif
#   From: 2010.06.25/outbox.cif.g09.slc.cpg/sg15_99_cif.got.tgz:196487.got - 2010.06.28 07:06:18.
