data_PCOD8153309
_publ_section_title
;
Structure prediction by ZEFSAII (Michael W. Deem and Ramdas Pophale) SiO2 
 PCOD8153309
Probable space group: C 2/C
;
_chemical_formula_sum "Si O2"
_cell_formula_units_Z 48
_cell_length_a 14.070407
_cell_length_b 8.177262
_cell_length_c 27.216690
_cell_angle_alpha 90.000000
_cell_angle_beta 38.657936
_cell_angle_gamma 90.000000
_cell_volume 1956.141210
_symmetry_space_group_name_H-M "C 2/C"
_symmetry_group_IT_number 15
_symmetry_cell_setting 'monoclinic'
loop_
_space_group_symop_operation_xyz
x,y,z
-x,y,1/2-z
-x,-y,-z
x,-y,1/2+z
1/2+x,1/2+y,z
1/2-x,1/2+y,1/2-z
1/2-x,1/2-y,-z
1/2+x,1/2-y,1/2+z
loop_
_atom_site_type_symbol
_atom_site_label
_atom_site_fract_x
_atom_site_fract_y
_atom_site_fract_z
Si Si1 0.470221 0.544545 0.957662
Si Si2 0.846255 0.444115 0.424501
Si Si3 0.556005 0.754273 0.283783
Si Si4 0.114424 0.589718 0.990271
Si Si5 0.671847 0.546467 0.790552
Si Si6 0.430380 0.260443 0.332881
O O1 0.610224 0.486359 0.867929
O O2 0.500000 0.500000 0.000000
O O3 0.332667 0.433285 0.994759
O O4 0.441622 0.737317 0.966322
O O5 0.907748 0.475827 0.453625
O O6 0.876655 0.580957 0.369935
O O7 0.905360 0.271568 0.378267
O O8 0.500000 0.761630 0.250000
O O9 0.654058 0.591894 0.255328
O O10 0.655790 0.906238 0.265193
O O11 0.286464 0.612536 0.898135
O O12 0.000000 0.500000 0.000000
O O13 0.568429 0.696225 0.813864
O O14 0.500000 0.265562 0.250000
#
# Coordination Sequence:
#
# PCOD8153309 Si02
#       6
#     8   8   8   8   8   8
#     4  11  24  44  71 102 143 191 244 301 375 439
#     4  11  23  49  69 103 146 186 243 310 366 440
#     4  12  29  48  74 111 150 195 258 309 378 450
#     4  11  25  44  72 107 146 193 248 305 368 445
#     4  12  26  48  73 107 149 193 243 315 372 443
#     4  11  23  44  75 103 142 195 244 304 375 442
#
# _framework density 24.538105000000002
#
# number of rings (size 3 to 8) (size 9 to 14) (size 15 to 20)
#    0.000    0.667    3.333    4.000    4.667    6.000 
#    0.000    0.833    0.000    0.000    0.000    0.000 
#    0.000    0.000    0.000    0.000    0.000    0.000 
#
# Total GULP energy -297356.973970 kJ/mol
# GULP energy per Si atom -12389.873915 kJ/mol
# Density = 2.448226 g / cm^3
# Si number density = 24.538105 Si / 1000 Ang^3
#
#
#
# Elastic Constant Matrix: (Units=GPa)
#
#
# Indices 1 2 3 4 5 6 
#
# 1 159.1275 20.8223 25.6873 -0.0008 18.8239 -0.0015
# 2 20.8223 42.5820 9.4530 -0.0017 -3.2755 -0.0020
# 3 25.6873 9.4530 104.6928 -0.0002 27.6345 -0.0006
# 4 -0.0008 -0.0017 -0.0002 28.7106 -0.0001 -1.8036
# 5 18.8239 -3.2755 27.6345 -0.0001 45.8845 -0.0007
# 6 -0.0015 -0.0020 -0.0006 -1.8036 -0.0007 39.2414
#
#
#
# Elastic Compliance Matrix: (Units=1/GPa)
#
#
# Indices 1 2 3 4 5 6 
#
# 1 0.007195 -0.003575 -0.000709 0.000000 -0.002780 0.000000
# 2 -0.003575 0.026247 -0.002823 0.000002 0.005041 0.000001
# 3 -0.000709 -0.002823 0.011839 0.000000 -0.007041 0.000000
# 4 0.000000 0.000002 0.000000 0.034931 0.000000 0.001605
# 5 -0.002780 0.005041 -0.007041 0.000000 0.027535 0.000001
# 6 0.000000 0.000001 0.000000 0.001605 0.000001 0.025557
#
#
# Mechanical properties :
#
#
# Convention : Reuss Voigt Hill
#
# Bulk Modulus (GPa) = 32.18835 46.48085 39.33460
# Shear Modulus (GPa) = 31.67080 39.46327 35.56703
#
# Velocity S-wave (km/s) = 3.59650 4.01464 3.81131
# Velocity P-wave (km/s) = 5.51295 6.36186 5.95256
#
# Compressibility (1/GPa) = 0.03106714
#
# Stress axis : x y z
#
# Youngs Moduli (GPa) = 138.97832 38.09997 84.46570
#
# Poissons Ratio (x) = 0.13621 0.05987
# Poissons Ratio (y) = 0.49685 0.23847
# Poissons Ratio (z) = 0.09851 0.10757
#
# Static dielectric constant tensor:
#      x y z
#    x 4.363780 0.000000 -0.081250 
#    y 0.000000 4.074940 0.000000 
#    z -0.081250 0.000000 4.763640 
# 
# 
# High freq. dielectric constant tensor:
#      x y z
#    x 1.991420 0.000000 0.003950 
#    y 0.000000 1.964030 0.000000 
#    z 0.003950 0.000000 1.990490 
# 
# From -- ./inp_files/295383.got.cif
#   From: 2010.06.25/outbox.cif.g09.slc.cpg/sg15_148_cif.got.tgz:295383.got - 2010.06.28 07:06:18.
