data_PCOD8153258
_publ_section_title
;
Structure prediction by ZEFSAII (Michael W. Deem and Ramdas Pophale) SiO2 
 PCOD8153258
Probable space group: C 2/C
;
_chemical_formula_sum "Si O2"
_cell_formula_units_Z 64
_cell_length_a 28.931948
_cell_length_b 8.139790
_cell_length_c 15.156921
_cell_angle_alpha 90.000000
_cell_angle_beta 49.342858
_cell_angle_gamma 90.000000
_cell_volume 2707.866445
_symmetry_space_group_name_H-M "C 2/C"
_symmetry_group_IT_number 15
_symmetry_cell_setting 'monoclinic'
loop_
_space_group_symop_operation_xyz
x,y,z
-x,y,1/2-z
-x,-y,-z
x,-y,1/2+z
1/2+x,1/2+y,z
1/2-x,1/2+y,1/2-z
1/2-x,1/2-y,-z
1/2+x,1/2-y,1/2+z
loop_
_atom_site_type_symbol
_atom_site_label
_atom_site_fract_x
_atom_site_fract_y
_atom_site_fract_z
Si Si1 0.266411 0.294810 0.801258
Si Si2 0.328720 0.600566 0.958154
Si Si3 0.831775 0.925680 0.130916
Si Si4 0.961115 0.874098 0.216797
Si Si5 0.980824 0.751814 0.676340
Si Si6 0.363024 0.924531 0.269577
Si Si7 0.568748 0.197169 0.415720
Si Si8 0.212951 0.554877 0.986399
O O1 0.226244 0.193064 0.780643
O O2 0.319384 0.400135 0.691071
O O3 0.300714 0.164588 0.819773
O O4 0.215434 0.407851 0.913055
O O5 0.390644 0.622482 0.828370
O O6 0.302999 0.767537 0.036661
O O7 0.340072 0.457843 0.016077
O O8 0.279483 0.546936 0.947408
O O9 0.890865 0.849624 0.101610
O O10 0.969347 0.753605 0.123009
O O11 0.000000 0.800859 0.250000
O O12 0.988069 0.052324 0.158144
O O13 0.911113 0.707190 0.744760
O O14 0.000000 0.692243 0.750000
O O15 0.022140 0.656308 0.552803
O O16 0.390619 0.037110 0.156811
O O17 0.342658 0.037303 0.376055
#
# Coordination Sequence:
#
# PCOD8153258 Si02
#       8
#     8   8   8   8   8   8   8   8
#     4  12  26  42  69 103 142 185 236 293 364 443
#     4  11  23  44  70 105 143 183 243 294 358 435
#     4  12  25  42  68 104 143 185 233 296 370 431
#     4  11  24  46  75 104 139 193 247 292 360 437
#     4  11  26  46  73 102 141 191 244 298 362 436
#     4  12  25  46  69 103 140 192 239 299 366 419
#     4  12  26  47  71 104 146 186 241 307 360 435
#     4  11  24  43  71 101 143 188 238 295 364 429
#
# _framework density 23.634843
#
# number of rings (size 3 to 8) (size 9 to 14) (size 15 to 20)
#    0.000    0.500    2.500    6.375    5.250    1.500 
#    0.000    0.000    0.000    0.000    0.000    0.000 
#    0.000    0.000    0.000    0.000    0.000    0.000 
#
# Total GULP energy -396930.152301 kJ/mol
# GULP energy per Si atom -12404.067259 kJ/mol
# Density = 2.358105 g / cm^3
# Si number density = 23.634843 Si / 1000 Ang^3
#
#
#
# Elastic Constant Matrix: (Units=GPa)
#
#
# Indices 1 2 3 4 5 6 
#
# 1 101.4917 17.4732 20.8861 0.0000 7.4261 0.0001
# 2 17.4732 73.5178 1.2017 0.0018 8.4797 0.0007
# 3 20.8861 1.2017 101.5874 -0.0002 -3.1409 0.0000
# 4 0.0000 0.0018 -0.0002 33.2811 0.0000 -3.5537
# 5 7.4261 8.4797 -3.1409 0.0000 28.9077 0.0001
# 6 0.0001 0.0007 0.0000 -3.5537 0.0001 29.5326
#
#
#
# Elastic Compliance Matrix: (Units=1/GPa)
#
#
# Indices 1 2 3 4 5 6 
#
# 1 0.010889 -0.002276 -0.002285 0.000000 -0.002378 0.000000
# 2 -0.002276 0.014563 0.000182 -0.000001 -0.003667 0.000000
# 3 -0.002285 0.000182 0.010363 0.000000 0.001660 0.000000
# 4 0.000000 -0.000001 0.000000 0.030438 0.000000 0.003663
# 5 -0.002378 -0.003667 0.001660 0.000000 0.036460 0.000000
# 6 0.000000 0.000000 0.000000 0.003663 0.000000 0.034302
#
#
# Mechanical properties :
#
#
# Convention : Reuss Voigt Hill
#
# Bulk Modulus (GPa) = 36.96001 39.52434 38.24218
# Shear Modulus (GPa) = 32.30128 34.14665 33.22397
#
# Velocity S-wave (km/s) = 3.70087 3.80512 3.75336
# Velocity P-wave (km/s) = 5.82528 6.00537 5.91601
#
# Compressibility (1/GPa) = 0.02705627
#
# Stress axis : x y z
#
# Youngs Moduli (GPa) = 91.83368 68.66615 96.49930
#
# Poissons Ratio (x) = 0.15632 0.22054
# Poissons Ratio (y) = 0.20906 -0.01760
# Poissons Ratio (z) = 0.20988 -0.01252
#
# Static dielectric constant tensor:
#      x y z
#    x 4.152770 0.000000 0.062990 
#    y 0.000000 4.241360 0.000000 
#    z 0.062990 0.000000 4.182560 
# 
# 
# High freq. dielectric constant tensor:
#      x y z
#    x 1.934700 0.000000 -0.001930 
#    y 0.000000 1.940620 0.000000 
#    z -0.001930 0.000000 1.938930 
# 
# From -- ./inp_files/181128.got.cif
#   From: 2010.06.25/outbox.cif.g09.slc.cpg/sg15_91_cif.got.tgz:181128.got - 2010.06.28 07:06:18.
