data_PCOD8153903
_publ_section_title
;
Structure prediction by ZEFSAII (Michael W. Deem and Ramdas Pophale) SiO2 
 PCOD8153903
Probable space group: C 2/C
;
_chemical_formula_sum "Si O2"
_cell_formula_units_Z 60
_cell_length_a 16.441543
_cell_length_b 29.463593
_cell_length_c 10.205196
_cell_angle_alpha 90.000000
_cell_angle_beta 146.516339
_cell_angle_gamma 90.000000
_cell_volume 2727.419590
_symmetry_space_group_name_H-M "C 2/C"
_symmetry_group_IT_number 15
_symmetry_cell_setting 'monoclinic'
loop_
_space_group_symop_operation_xyz
x,y,z
-x,y,1/2-z
-x,-y,-z
x,-y,1/2+z
1/2+x,1/2+y,z
1/2-x,1/2+y,1/2-z
1/2-x,1/2-y,-z
1/2+x,1/2-y,1/2+z
loop_
_atom_site_type_symbol
_atom_site_label
_atom_site_fract_x
_atom_site_fract_y
_atom_site_fract_z
Si Si1 0.750490 0.019815 0.284847
Si Si2 0.835975 0.094644 0.214706
Si Si3 0.159567 0.549113 0.441515
Si Si4 0.120590 0.776779 0.257440
Si Si5 0.190223 0.256471 0.219706
Si Si6 0.582919 0.379684 0.232084
Si Si7 0.837425 0.680855 0.585480
Si Si8 0.000000 0.970990 0.750000
O O1 0.753648 0.069570 0.223707
O O2 0.666291 0.022906 0.310896
O O3 0.918067 0.002843 0.534627
O O4 0.675051 0.985882 0.081907
O O5 0.980207 0.119354 0.465825
O O6 0.878570 0.058903 0.160325
O O7 0.728178 0.130473 0.002222
O O8 0.277463 0.588984 0.607451
O O9 0.000000 0.571649 0.250000
O O10 0.250000 0.750000 0.500000
O O11 0.164015 0.771415 0.163483
O O12 0.133065 0.828228 0.323659
O O13 0.955447 0.757016 0.061698
O O14 0.151029 0.300385 0.252475
O O15 0.228818 0.212446 0.356127
O O16 0.500000 0.398061 0.250000
O O17 0.000000 0.679153 0.750000
#
# Coordination Sequence:
#
# PCOD8153903 Si02
#       8
#     8   8   8   8   8   8   8   4
#     4  12  24  47  74 102 144 188 242 295 364 431
#     4  12  25  42  74 105 137 187 242 297 348 435
#     4  12  27  47  72 106 150 191 237 301 370 431
#     4  12  26  45  73 104 141 189 236 290 357 428
#     4  11  24  46  72  99 142 184 235 289 357 418
#     4  12  25  46  71 101 140 189 241 294 348 426
#     4  11  25  45  71 102 139 181 233 297 356 415
#     4  12  24  44  74 108 138 184 248 294 366 432
#
# _framework density 21.998816000000001
#
# number of rings (size 3 to 8) (size 9 to 14) (size 15 to 20)
#    0.000    0.267    6.667    2.800    1.867    1.600 
#    4.800    0.000    0.000    0.000    0.000    0.000 
#    0.000    0.000    0.000    0.000    0.000    0.000 
#
# Total GULP energy -372115.805241 kJ/mol
# GULP energy per Si atom -12403.860175 kJ/mol
# Density = 2.194875 g / cm^3
# Si number density = 21.998816 Si / 1000 Ang^3
#
#
#
# Elastic Constant Matrix: (Units=GPa)
#
#
# Indices 1 2 3 4 5 6 
#
# 1 83.9075 24.4219 22.4381 0.0000 11.3169 0.0000
# 2 24.4219 121.6371 48.4873 0.0000 4.2313 0.0000
# 3 22.4381 48.4873 105.3788 0.0000 13.8478 0.0000
# 4 0.0000 0.0000 0.0000 35.6849 0.0000 0.7111
# 5 11.3169 4.2313 13.8478 0.0000 37.8799 0.0000
# 6 0.0000 0.0000 0.0000 0.7111 0.0000 27.7623
#
#
#
# Elastic Compliance Matrix: (Units=1/GPa)
#
#
# Indices 1 2 3 4 5 6 
#
# 1 0.013326 -0.001961 -0.001514 0.000000 -0.003209 0.000000
# 2 -0.001961 0.010369 -0.004494 0.000000 0.001070 0.000000
# 3 -0.001514 -0.004494 0.012348 0.000000 -0.003560 0.000000
# 4 0.000000 0.000000 0.000000 0.028037 0.000000 -0.000718
# 5 -0.003209 0.001070 -0.003560 0.000000 0.028540 0.000000
# 6 0.000000 0.000000 0.000000 -0.000718 0.000000 0.036038
#
#
# Mechanical properties :
#
#
# Convention : Reuss Voigt Hill
#
# Bulk Modulus (GPa) = 49.73719 55.73535 52.73627
# Shear Modulus (GPa) = 33.04753 34.63716 33.84235
#
# Velocity S-wave (km/s) = 3.88008 3.97230 3.92646
# Velocity P-wave (km/s) = 6.53693 6.81392 6.67686
#
# Compressibility (1/GPa) = 0.02010568
#
# Stress axis : x y z
#
# Youngs Moduli (GPa) = 75.04067 96.44048 80.98745
#
# Poissons Ratio (x) = 0.18908 0.12259
# Poissons Ratio (y) = 0.14712 0.36398
# Poissons Ratio (z) = 0.11359 0.43343
#
# Static dielectric constant tensor:
#      x y z
#    x -32.558840 0.000000 -4.386060 
#    y 0.000000 3.918030 0.000000 
#    z -4.386060 0.000000 3.420480 
# 
# 
# High freq. dielectric constant tensor:
#      x y z
#    x 1.877380 0.000000 -0.002460 
#    y 0.000000 1.866860 0.000000 
#    z -0.002460 0.000000 1.866720 
# 
# From -- ./inp_files/108441.got.cif
#   From: 2010.06.25/outbox.cif.g09.slc.cpg/sg15_55_cif.got.tgz:108441.got - 2010.06.28 07:06:18.
