data_PCOD8153298
_publ_section_title
;
Structure prediction by ZEFSAII (Michael W. Deem and Ramdas Pophale) SiO2 
 PCOD8153298
Probable space group: C 2/C
;
_chemical_formula_sum "Si O2"
_cell_formula_units_Z 48
_cell_length_a 24.414267
_cell_length_b 7.536672
_cell_length_c 12.970458
_cell_angle_alpha 90.000000
_cell_angle_beta 124.982878
_cell_angle_gamma 90.000000
_cell_volume 1955.392665
_symmetry_space_group_name_H-M "C 2/C"
_symmetry_group_IT_number 15
_symmetry_cell_setting 'monoclinic'
loop_
_space_group_symop_operation_xyz
x,y,z
-x,y,1/2-z
-x,-y,-z
x,-y,1/2+z
1/2+x,1/2+y,z
1/2-x,1/2+y,1/2-z
1/2-x,1/2-y,-z
1/2+x,1/2-y,1/2+z
loop_
_atom_site_type_symbol
_atom_site_label
_atom_site_fract_x
_atom_site_fract_y
_atom_site_fract_z
Si Si1 0.114764 0.319758 0.171011
Si Si2 0.804598 0.019191 0.716216
Si Si3 0.897958 0.818704 0.161598
Si Si4 0.517068 0.355608 0.434078
Si Si5 0.921179 0.430205 0.152568
Si Si6 0.170267 0.359551 0.621574
O O1 0.098348 0.305887 0.273511
O O2 0.154597 0.500407 0.195128
O O3 0.153818 0.139323 0.186095
O O4 0.049341 0.314578 0.026636
O O5 0.832466 0.079593 0.633507
O O6 0.806537 0.178383 0.800541
O O7 0.730182 0.944139 0.618059
O O8 0.933686 0.924044 0.105478
O O9 0.882376 0.619134 0.107588
O O10 0.946955 0.794117 0.312177
O O11 0.500000 0.500000 0.500000
O O12 0.000000 0.464777 0.250000
O O13 0.894939 0.329253 0.021657
#
# Coordination Sequence:
#
# PCOD8153298 Si02
#       6
#     8   8   8   8   8   8
#     4  12  26  46  74 113 148 205 249 316 389 455
#     4  12  27  49  79 111 150 207 259 313 388 454
#     4  11  23  44  73 113 147 205 256 306 386 448
#     4  11  23  44  75 110 158 198 252 316 382 458
#     4  12  27  47  76 116 154 201 256 318 393 462
#     4  12  27  52  76 111 155 200 261 321 379 463
#
# _framework density 24.547498000000001
#
# number of rings (size 3 to 8) (size 9 to 14) (size 15 to 20)
#    0.000    0.333    8.333    0.000    2.333    5.333 
#    3.000    0.000    0.000    0.000    0.000    0.000 
#    0.000    0.000    0.000    0.000    0.000    0.000 
#
# Total GULP energy -297575.688724 kJ/mol
# GULP energy per Si atom -12398.987030 kJ/mol
# Density = 2.449163 g / cm^3
# Si number density = 24.547498 Si / 1000 Ang^3
#
#
#
# Elastic Constant Matrix: (Units=GPa)
#
#
# Indices 1 2 3 4 5 6 
#
# 1 112.9198 33.1678 26.9853 0.0000 -10.0169 0.0000
# 2 33.1678 104.3387 27.8399 0.0000 -0.6396 0.0000
# 3 26.9853 27.8399 95.1619 0.0000 -11.6248 0.0000
# 4 0.0000 0.0000 0.0000 34.0373 0.0000 -7.5909
# 5 -10.0169 -0.6396 -11.6248 0.0000 34.0159 0.0000
# 6 0.0000 0.0000 0.0000 -7.5909 0.0000 30.8145
#
#
#
# Elastic Compliance Matrix: (Units=1/GPa)
#
#
# Indices 1 2 3 4 5 6 
#
# 1 0.010318 -0.002779 -0.001824 0.000000 0.002363 0.000000
# 2 -0.002779 0.011169 -0.002665 0.000000 -0.001519 0.000000
# 3 -0.001824 -0.002665 0.012245 0.000000 0.003597 0.000000
# 4 0.000000 0.000000 0.000000 0.031087 0.000000 0.007658
# 5 0.002363 -0.001519 0.003597 0.000000 0.031295 0.000000
# 6 0.000000 0.000000 0.000000 0.007658 0.000000 0.034339
#
#
# Mechanical properties :
#
#
# Convention : Reuss Voigt Hill
#
# Bulk Modulus (GPa) = 52.09547 54.26737 53.18142
# Shear Modulus (GPa) = 33.02790 34.73535 33.88163
#
# Velocity S-wave (km/s) = 3.67204 3.76576 3.71920
# Velocity P-wave (km/s) = 6.26474 6.40805 6.33680
#
# Compressibility (1/GPa) = 0.01919553
#
# Stress axis : x y z
#
# Youngs Moduli (GPa) = 96.92247 89.53137 81.66672
#
# Poissons Ratio (x) = 0.24877 0.14898
# Poissons Ratio (y) = 0.26930 0.21766
# Poissons Ratio (z) = 0.17681 0.23862
#
# Static dielectric constant tensor:
#      x y z
#    x 4.674780 0.000000 -0.041520 
#    y 0.000000 4.292700 0.000000 
#    z -0.041520 0.000000 4.531720 
# 
# 
# High freq. dielectric constant tensor:
#      x y z
#    x 1.977480 0.000000 -0.010040 
#    y 0.000000 1.973870 0.000000 
#    z -0.010040 0.000000 1.972250 
# 
# From -- ./inp_files/121615.got.cif
#   From: 2010.06.25/outbox.cif.g09.slc.cpg/sg15_61_cif.got.tgz:121615.got - 2010.06.28 07:06:18.
