data_PCOD8153078
_publ_section_title
;
Structure prediction by ZEFSAII (Michael W. Deem and Ramdas Pophale) SiO2 
 PCOD8153078
Probable space group: C 2/C
;
_chemical_formula_sum "Si O2"
_cell_formula_units_Z 48
_cell_length_a 18.980818
_cell_length_b 16.729258
_cell_length_c 15.707595
_cell_angle_alpha 90.000000
_cell_angle_beta 152.461502
_cell_angle_gamma 90.000000
_cell_volume 2306.040873
_symmetry_space_group_name_H-M "C 2/C"
_symmetry_group_IT_number 15
_symmetry_cell_setting 'monoclinic'
loop_
_space_group_symop_operation_xyz
x,y,z
-x,y,1/2-z
-x,-y,-z
x,-y,1/2+z
1/2+x,1/2+y,z
1/2-x,1/2+y,1/2-z
1/2-x,1/2-y,-z
1/2+x,1/2-y,1/2+z
loop_
_atom_site_type_symbol
_atom_site_label
_atom_site_fract_x
_atom_site_fract_y
_atom_site_fract_z
Si Si1 0.273404 0.587478 0.867904
Si Si2 0.181373 0.664031 0.940789
Si Si3 0.074711 0.298605 0.055757
Si Si4 0.787456 0.410255 0.724716
Si Si5 0.646218 0.292371 0.457100
Si Si6 0.902338 0.861854 0.826600
O O1 0.225474 0.606879 0.911599
O O2 0.222226 0.651943 0.742665
O O3 0.186352 0.504248 0.756723
O O4 0.456939 0.587292 0.060195
O O5 0.000000 0.669053 0.750000
O O6 0.250000 0.750000 0.000000
O O7 0.258367 0.631167 0.109059
O O8 0.047638 0.229333 0.097261
O O9 0.106209 0.264699 0.994945
O O10 0.934030 0.359624 0.910512
O O11 0.731460 0.372780 0.576094
O O12 0.649763 0.402908 0.642982
O O13 0.500000 0.321098 0.250000
O O14 0.750000 0.250000 0.500000
#
# Coordination Sequence:
#
# PCOD8153078 Si02
#       6
#     8   8   8   8   8   8
#     4  12  25  43  67 101 137 173 220 281 334 390
#     4  12  25  43  69 100 134 177 226 271 327 402
#     4  11  23  42  70  94 133 179 223 268 331 405
#     4  11  25  44  65 102 134 172 222 279 339 386
#     4  11  23  44  69  95 127 173 226 271 325 401
#     4  11  23  43  70  98 135 179 224 267 334 403
#
# _framework density 20.814895
#
# number of rings (size 3 to 8) (size 9 to 14) (size 15 to 20)
#    0.000    0.667    3.333    5.500    2.333    1.333 
#    6.000    0.000    0.000    0.000    0.000    0.000 
#    0.000    0.000    0.000    0.000    0.000    0.000 
#
# Total GULP energy -297577.684934 kJ/mol
# GULP energy per Si atom -12399.070206 kJ/mol
# Density = 2.076752 g / cm^3
# Si number density = 20.814895 Si / 1000 Ang^3
#
#
#
# Elastic Constant Matrix: (Units=GPa)
#
#
# Indices 1 2 3 4 5 6 
#
# 1 109.8762 29.9040 34.1009 0.0003 6.7235 0.0004
# 2 29.9040 111.5083 21.4412 0.0002 -6.2470 0.0002
# 3 34.1009 21.4412 133.4701 0.0004 -2.5614 0.0007
# 4 0.0003 0.0002 0.0004 27.7947 0.0003 0.5276
# 5 6.7235 -6.2470 -2.5614 0.0003 42.0449 0.0004
# 6 0.0004 0.0002 0.0007 0.5276 0.0004 21.9978
#
#
#
# Elastic Compliance Matrix: (Units=1/GPa)
#
#
# Indices 1 2 3 4 5 6 
#
# 1 0.010658 -0.002529 -0.002359 0.000000 -0.002224 0.000000
# 2 -0.002529 0.009924 -0.000913 0.000000 0.001823 0.000000
# 3 -0.002359 -0.000913 0.008256 0.000000 0.000745 0.000000
# 4 0.000000 0.000000 0.000000 0.035994 0.000000 -0.000863
# 5 -0.002224 0.001823 0.000745 0.000000 0.024456 0.000000
# 6 0.000000 0.000000 0.000000 -0.000863 0.000000 0.045480
#
#
# Mechanical properties :
#
#
# Convention : Reuss Voigt Hill
#
# Bulk Modulus (GPa) = 58.02252 58.41634 58.21943
# Shear Modulus (GPa) = 32.86964 36.32805 34.59885
#
# Velocity S-wave (km/s) = 3.97815 4.18220 4.08145
# Velocity P-wave (km/s) = 7.00264 7.17263 7.08814
#
# Compressibility (1/GPa) = 0.01723469
#
# Stress axis : x y z
#
# Youngs Moduli (GPa) = 93.82790 100.76685 121.12260
#
# Poissons Ratio (x) = 0.25485 0.28578
# Poissons Ratio (y) = 0.23730 0.11059
# Poissons Ratio (z) = 0.22138 0.09201
#
# Static dielectric constant tensor:
#      x y z
#    x 4.114750 0.000000 -0.088060 
#    y 0.000000 3.958050 0.000000 
#    z -0.088060 0.000000 4.155000 
# 
# 
# High freq. dielectric constant tensor:
#      x y z
#    x 1.823500 0.000000 -0.002720 
#    y 0.000000 1.803130 0.000000 
#    z -0.002720 0.000000 1.835400 
# 
# From -- ./inp_files/163313.got.cif
#   From: 2010.06.25/outbox.cif.g09.slc.cpg/sg15_82_cif.got.tgz:163313.got - 2010.06.28 07:06:18.
