data_PCOD8153283
_publ_section_title
;
Structure prediction by ZEFSAII (Michael W. Deem and Ramdas Pophale) SiO2 
 PCOD8153283
Probable space group: C 2/C
;
_chemical_formula_sum "Si O2"
_cell_formula_units_Z 48
_cell_length_a 10.180738
_cell_length_b 14.749575
_cell_length_c 16.394406
_cell_angle_alpha 90.000000
_cell_angle_beta 90.108261
_cell_angle_gamma 90.000000
_cell_volume 2461.805164
_symmetry_space_group_name_H-M "C 2/C"
_symmetry_group_IT_number 15
_symmetry_cell_setting 'monoclinic'
loop_
_space_group_symop_operation_xyz
x,y,z
-x,y,1/2-z
-x,-y,-z
x,-y,1/2+z
1/2+x,1/2+y,z
1/2-x,1/2+y,1/2-z
1/2-x,1/2-y,-z
1/2+x,1/2-y,1/2+z
loop_
_atom_site_type_symbol
_atom_site_label
_atom_site_fract_x
_atom_site_fract_y
_atom_site_fract_z
Si Si1 0.873990 0.359028 0.194864
Si Si2 0.016576 0.681386 0.340767
Si Si3 0.120705 0.122795 0.805077
Si Si4 0.230737 0.204411 0.413573
Si Si5 0.136470 0.989597 0.955132
Si Si6 0.886102 0.515923 0.064566
O O1 0.748792 0.378315 0.250069
O O2 0.855712 0.267510 0.144133
O O3 0.898192 0.441822 0.134573
O O4 0.000000 0.344310 0.250000
O O5 0.090019 0.777471 0.339299
O O6 0.103263 0.614724 0.395368
O O7 0.000000 0.641330 0.250000
O O8 0.872993 0.689300 0.377120
O O9 0.000000 0.087022 0.750000
O O10 0.146190 0.057848 0.880440
O O11 0.250000 0.250000 0.500000
O O12 0.151695 0.111344 0.421077
O O13 0.246884 0.011496 0.021141
O O14 0.000000 0.000000 0.000000
O O15 0.000000 0.500000 0.000000
#
# Coordination Sequence:
#
# PCOD8153283 Si02
#       6
#     8   8   8   8   8   8
#     4  12  25  41  70 103 134 172 232 282 328 401
#     4  11  23  44  72  94 133 184 225 268 340 406
#     4  11  24  44  67  97 138 177 222 280 338 397
#     4  12  23  46  70  96 139 181 218 275 348 399
#     4  12  26  42  69 102 137 174 223 285 342 392
#     4  12  24  43  69 100 132 181 227 274 334 408
#
# _framework density 19.497886999999999
#
# number of rings (size 3 to 8) (size 9 to 14) (size 15 to 20)
#    0.000    0.333    6.667    3.500    2.333    2.667 
#    0.000    0.000    0.000    0.000    0.000    0.000 
#    0.000    0.000    0.000    0.000    0.000    0.000 
#
# Total GULP energy -297736.607848 kJ/mol
# GULP energy per Si atom -12405.691994 kJ/mol
# Density = 1.945351 g / cm^3
# Si number density = 19.497887 Si / 1000 Ang^3
#
#
#
# Elastic Constant Matrix: (Units=GPa)
#
#
# Indices 1 2 3 4 5 6 
#
# 1 160.2693 49.2239 79.8806 0.0000 -5.4940 0.0000
# 2 49.2239 135.6356 78.6320 0.0000 2.1728 0.0000
# 3 79.8806 78.6320 156.5124 0.0000 1.5373 0.0000
# 4 0.0000 0.0000 0.0000 55.6421 0.0000 10.5749
# 5 -5.4940 2.1728 1.5373 0.0000 57.5756 0.0000
# 6 0.0000 0.0000 0.0000 10.5749 0.0000 25.6026
#
#
#
# Elastic Compliance Matrix: (Units=1/GPa)
#
#
# Indices 1 2 3 4 5 6 
#
# 1 0.008480 -0.000816 -0.003927 0.000000 0.000945 0.000000
# 2 -0.000816 0.010485 -0.004848 0.000000 -0.000344 0.000000
# 3 -0.003927 -0.004848 0.010834 0.000000 -0.000481 0.000000
# 4 0.000000 0.000000 0.000000 0.019503 0.000000 -0.008055
# 5 0.000945 -0.000344 -0.000481 0.000000 0.017484 0.000000
# 6 0.000000 0.000000 0.000000 -0.008055 0.000000 0.042386
#
#
# Mechanical properties :
#
#
# Convention : Reuss Voigt Hill
#
# Bulk Modulus (GPa) = 94.19155 96.43224 95.31189
# Shear Modulus (GPa) = 37.90969 44.07613 40.99291
#
# Velocity S-wave (km/s) = 4.41420 4.75969 4.59020
# Velocity P-wave (km/s) = 8.62518 8.93148 8.77967
#
# Compressibility (1/GPa) = 0.01061666
#
# Stress axis : x y z
#
# Youngs Moduli (GPa) = 117.92575 95.37751 92.30222
#
# Poissons Ratio (x) = 0.07781 0.36251
# Poissons Ratio (y) = 0.09620 0.44746
# Poissons Ratio (z) = 0.46314 0.46237
#
# Static dielectric constant tensor:
#      x y z
#    x 3.665330 0.000000 -0.231130 
#    y 0.000000 3.840440 0.000000 
#    z -0.231130 0.000000 3.154600 
# 
# 
# High freq. dielectric constant tensor:
#      x y z
#    x 1.771380 0.000000 -0.007710 
#    y 0.000000 1.771890 0.000000 
#    z -0.007710 0.000000 1.784530 
# 
# From -- ./inp_files/182540.got.cif
#   From: 2010.06.25/outbox.cif.g09.slc.cpg/sg15_92_cif.got.tgz:182540.got - 2010.06.28 07:06:18.
