data_PCOD8153776
_publ_section_title
;
Structure prediction by ZEFSAII (Michael W. Deem and Ramdas Pophale) SiO2 
 PCOD8153776
Probable space group: C 2/C
;
_chemical_formula_sum "Si O2"
_cell_formula_units_Z 60
_cell_length_a 29.326670
_cell_length_b 8.735446
_cell_length_c 10.981119
_cell_angle_alpha 90.000000
_cell_angle_beta 109.664532
_cell_angle_gamma 90.000000
_cell_volume 2649.093801
_symmetry_space_group_name_H-M "C 2/C"
_symmetry_group_IT_number 15
_symmetry_cell_setting 'monoclinic'
loop_
_space_group_symop_operation_xyz
x,y,z
-x,y,1/2-z
-x,-y,-z
x,-y,1/2+z
1/2+x,1/2+y,z
1/2-x,1/2+y,1/2-z
1/2-x,1/2-y,-z
1/2+x,1/2-y,1/2+z
loop_
_atom_site_type_symbol
_atom_site_label
_atom_site_fract_x
_atom_site_fract_y
_atom_site_fract_z
Si Si1 0.107442 0.271671 0.981106
Si Si2 0.790529 0.255763 0.139015
Si Si3 0.560940 0.624165 0.714985
Si Si4 0.500000 0.645692 0.250000
Si Si5 0.768837 0.824081 0.190123
Si Si6 0.850158 0.971825 0.818364
Si Si7 0.009667 0.320150 0.014625
Si Si8 0.692025 0.931430 0.947183
O O1 0.080811 0.240102 0.831589
O O2 0.144011 0.411598 0.987372
O O3 0.140382 0.130860 0.054933
O O4 0.067611 0.305977 0.049068
O O5 0.767303 0.236441 0.252552
O O6 0.833406 0.127950 0.182711
O O7 0.815958 0.419670 0.142841
O O8 0.750000 0.250000 0.000000
O O9 0.544824 0.466563 0.764704
O O10 0.602789 0.575672 0.660289
O O11 0.517523 0.715331 0.609781
O O12 0.491997 0.756471 0.128199
O O13 0.800502 0.711716 0.135516
O O14 0.805644 0.916409 0.309656
O O15 0.738972 0.942802 0.077662
O O16 0.000000 0.500000 0.000000
#
# Coordination Sequence:
#
# PCOD8153776 Si02
#       8
#     8   8   8   4   8   8   8   8
#     4  12  25  47  76 103 149 189 246 299 376 442
#     4  12  26  43  68 102 148 189 245 301 358 432
#     4  12  25  49  77 110 146 191 251 309 375 454
#     4  12  24  48  82 108 146 200 244 302 380 454
#     4  11  24  45  68 101 142 193 243 298 370 425
#     4  12  25  44  71 108 138 195 250 299 356 453
#     4  12  29  50  79 113 155 193 246 320 386 448
#     4  11  25  44  70 100 146 194 236 308 370 430
#
# _framework density 22.649253999999999
#
# number of rings (size 3 to 8) (size 9 to 14) (size 15 to 20)
#    0.000    0.267    6.667    2.000    5.600    2.133 
#    2.400    0.000    0.000    0.000    0.000    0.000 
#    0.000    0.000    0.000    0.000    0.000    0.000 
#
# Total GULP energy -371952.388019 kJ/mol
# GULP energy per Si atom -12398.412934 kJ/mol
# Density = 2.259770 g / cm^3
# Si number density = 22.649254 Si / 1000 Ang^3
#
#
#
# Elastic Constant Matrix: (Units=GPa)
#
#
# Indices 1 2 3 4 5 6 
#
# 1 115.5037 43.1176 31.7502 0.0000 5.2880 0.0000
# 2 43.1176 88.0836 8.4113 0.0000 3.7057 0.0000
# 3 31.7502 8.4113 81.7231 0.0000 1.8074 0.0000
# 4 0.0000 0.0000 0.0000 35.1900 0.0000 5.5386
# 5 5.2880 3.7057 1.8074 0.0000 33.9728 0.0000
# 6 0.0000 0.0000 0.0000 5.5386 0.0000 26.1421
#
#
#
# Elastic Compliance Matrix: (Units=1/GPa)
#
#
# Indices 1 2 3 4 5 6 
#
# 1 0.011807 -0.005352 -0.004013 0.000000 -0.001040 0.000000
# 2 -0.005352 0.013940 0.000661 0.000000 -0.000723 0.000000
# 3 -0.004013 0.000661 0.013731 0.000000 -0.000178 0.000000
# 4 0.000000 0.000000 0.000000 0.029397 0.000000 -0.006228
# 5 -0.001040 -0.000723 -0.000178 0.000000 0.029686 0.000000
# 6 0.000000 0.000000 0.000000 -0.006228 0.000000 0.039572
#
#
# Mechanical properties :
#
#
# Convention : Reuss Voigt Hill
#
# Bulk Modulus (GPa) = 45.31321 50.20765 47.76043
# Shear Modulus (GPa) = 30.69386 32.52975 31.61180
#
# Velocity S-wave (km/s) = 3.68527 3.79389 3.73997
# Velocity P-wave (km/s) = 6.17724 6.43483 6.30735
#
# Compressibility (1/GPa) = 0.02206862
#
# Stress axis : x y z
#
# Youngs Moduli (GPa) = 84.69877 71.73492 72.82534
#
# Poissons Ratio (x) = 0.38395 0.29225
# Poissons Ratio (y) = 0.45334 -0.04811
# Poissons Ratio (z) = 0.33990 -0.04739
#
# Static dielectric constant tensor:
#      x y z
#    x 4.246340 0.000000 0.081310 
#    y 0.000000 4.146370 0.000000 
#    z 0.081310 0.000000 4.031550 
# 
# 
# High freq. dielectric constant tensor:
#      x y z
#    x 1.900410 0.000000 0.006470 
#    y 0.000000 1.894290 0.000000 
#    z 0.006470 0.000000 1.891480 
# 
# From -- ./inp_files/125961.got.cif
#   From: 2010.06.25/outbox.cif.g09.slc.cpg/sg15_63_cif.got.tgz:125961.got - 2010.06.28 07:06:18.
