data_PCOD8153991
_publ_section_title
;
Structure prediction by ZEFSAII (Michael W. Deem and Ramdas Pophale) SiO2 
 PCOD8153991
Probable space group: C 2/C
;
_chemical_formula_sum "Si O2"
_cell_formula_units_Z 36
_cell_length_a 27.786488
_cell_length_b 6.565577
_cell_length_c 28.106306
_cell_angle_alpha 90.000000
_cell_angle_beta 160.260537
_cell_angle_gamma 90.000000
_cell_volume 1731.799015
_symmetry_space_group_name_H-M "C 2/C"
_symmetry_group_IT_number 15
_symmetry_cell_setting 'monoclinic'
loop_
_space_group_symop_operation_xyz
x,y,z
-x,y,1/2-z
-x,-y,-z
x,-y,1/2+z
1/2+x,1/2+y,z
1/2-x,1/2+y,1/2-z
1/2-x,1/2-y,-z
1/2+x,1/2-y,1/2+z
loop_
_atom_site_type_symbol
_atom_site_label
_atom_site_fract_x
_atom_site_fract_y
_atom_site_fract_z
Si Si1 0.000000 0.721323 0.750000
Si Si2 0.693775 0.135623 0.401885
Si Si3 0.993670 0.949294 0.163573
Si Si4 0.601609 0.531430 0.162351
Si Si5 0.405297 0.196865 0.418716
O O1 0.863364 0.582809 0.634363
O O2 0.026072 0.859673 0.820175
O O3 0.750000 0.250000 0.500000
O O4 0.569765 0.260241 0.260463
O O5 0.833316 0.112452 0.497987
O O6 0.085928 0.009960 0.204032
O O7 0.602698 0.309242 0.139476
O O8 0.747421 0.647024 0.288263
O O9 0.470456 0.659722 0.019782
O O10 0.500000 0.000000 0.500000
#
# Coordination Sequence:
#
# PCOD8153991 Si02
#       5
#     4   8   8   8   8
#     4  12  24  44  70  94 140 176 232 268 334 406
#     4  12  24  47  64  98 141 179 222 285 329 394
#     4  12  28  42  71 102 136 181 229 277 342 405
#     4  11  27  44  72 103 134 184 224 286 343 407
#     4  11  24  48  68  98 142 173 230 283 343 402
#
# _framework density 20.787633
#
# number of rings (size 3 to 8) (size 9 to 14) (size 15 to 20)
#    0.000    0.444    6.667    0.667    6.222    1.778 
#    0.000    0.000    0.000    0.000    0.000    0.000 
#    0.000    0.000    0.000    0.000    0.000    0.000 
#
# Total GULP energy -223267.384394 kJ/mol
# GULP energy per Si atom -12403.743577 kJ/mol
# Density = 2.074032 g / cm^3
# Si number density = 20.787633 Si / 1000 Ang^3
#
#
#
# Elastic Constant Matrix: (Units=GPa)
#
#
# Indices 1 2 3 4 5 6 
#
# 1 130.7254 62.3649 46.5316 -0.0006 -4.4970 0.0000
# 2 62.3649 133.1666 58.9544 -0.0017 9.4722 -0.0040
# 3 46.5316 58.9544 131.6159 -0.0025 20.4333 -0.0037
# 4 -0.0006 -0.0017 -0.0025 40.1101 -0.0022 13.4760
# 5 -4.4970 9.4722 20.4333 -0.0022 24.8922 -0.0021
# 6 0.0000 -0.0040 -0.0037 13.4760 -0.0021 25.8833
#
#
#
# Elastic Compliance Matrix: (Units=1/GPa)
#
#
# Indices 1 2 3 4 5 6 
#
# 1 0.010909 -0.004261 -0.002872 0.000000 0.005950 -0.000001
# 2 -0.004261 0.011031 -0.003053 0.000000 -0.002462 0.000001
# 3 -0.002872 -0.003053 0.011324 0.000000 -0.008653 0.000000
# 4 0.000000 0.000000 0.000000 0.030217 0.000002 -0.015732
# 5 0.005950 -0.002462 -0.008653 0.000002 0.049288 0.000002
# 6 -0.000001 0.000001 0.000000 -0.015732 0.000002 0.046826
#
#
# Mechanical properties :
#
#
# Convention : Reuss Voigt Hill
#
# Bulk Modulus (GPa) = 77.55838 81.24551 79.40194
# Shear Modulus (GPa) = 27.13498 33.35427 30.24462
#
# Velocity S-wave (km/s) = 3.61687 4.01000 3.81850
# Velocity P-wave (km/s) = 7.40495 7.78515 7.59743
#
# Compressibility (1/GPa) = 0.01289351
#
# Stress axis : x y z
#
# Youngs Moduli (GPa) = 91.66508 90.65051 88.30805
#
# Poissons Ratio (x) = 0.38624 0.25363
# Poissons Ratio (y) = 0.39056 0.26958
# Poissons Ratio (z) = 0.26327 0.27673
#
# Static dielectric constant tensor:
#      x y z
#    x 3.932790 0.000000 0.390700 
#    y 0.000000 4.294830 0.000010 
#    z 0.390700 0.000010 4.284240 
# 
# 
# High freq. dielectric constant tensor:
#      x y z
#    x 1.808310 0.000000 0.017160 
#    y 0.000000 1.828680 0.000000 
#    z 0.017160 0.000000 1.833210 
# 
# From -- ./inp_files/120551.got.cif
#   From: 2010.06.25/outbox.cif.g09.slc.cpg/sg15_61_cif.got.tgz:120551.got - 2010.06.28 07:06:18.
