data_PCOD8153022
_publ_section_title
;
Structure prediction by ZEFSAII (Michael W. Deem and Ramdas Pophale) SiO2 
 PCOD8153022
Probable space group: C 2/C
;
_chemical_formula_sum "Si O2"
_cell_formula_units_Z 32
_cell_length_a 9.734575
_cell_length_b 12.455104
_cell_length_c 11.521521
_cell_angle_alpha 90.000000
_cell_angle_beta 109.247531
_cell_angle_gamma 90.000000
_cell_volume 1318.844679
_symmetry_space_group_name_H-M "C 2/C"
_symmetry_group_IT_number 15
_symmetry_cell_setting 'monoclinic'
loop_
_space_group_symop_operation_xyz
x,y,z
-x,y,1/2-z
-x,-y,-z
x,-y,1/2+z
1/2+x,1/2+y,z
1/2-x,1/2+y,1/2-z
1/2-x,1/2-y,-z
1/2+x,1/2-y,1/2+z
loop_
_atom_site_type_symbol
_atom_site_label
_atom_site_fract_x
_atom_site_fract_y
_atom_site_fract_z
Si Si1 0.797842 0.123471 0.610420
Si Si2 0.969628 0.679258 0.113597
Si Si3 0.264081 0.386617 0.573921
Si Si4 0.841261 0.671954 0.689031
O O1 0.940724 0.190521 0.610038
O O2 0.675912 0.125747 0.476646
O O3 0.743946 0.179060 0.713824
O O4 0.829223 0.997806 0.641318
O O5 0.000000 0.632846 0.250000
O O6 0.101910 0.645691 0.069548
O O7 0.254704 0.393758 0.431168
O O8 0.369238 0.292351 0.647258
O O9 0.000000 0.618220 0.750000
#
# Coordination Sequence:
#
# PCOD8153022 Si02
#       4
#     8   8   8   8
#     4  11  25  41  71  96 130 181 220 278 339 396
#     4  11  23  42  66  99 131 168 230 276 322 415
#     4  11  25  43  67  96 134 179 216 282 339 391
#     4  11  24  44  62  97 135 166 229 278 328 411
#
# _framework density 24.263660999999999
#
# number of rings (size 3 to 8) (size 9 to 14) (size 15 to 20)
#    0.000    1.000    5.000    0.750    3.500    1.000 
#    0.000    2.500    0.000    0.000    0.000    0.000 
#    0.000    0.000    0.000    0.000    0.000    0.000 
#
# Total GULP energy -198381.669872 kJ/mol
# GULP energy per Si atom -12398.854367 kJ/mol
# Density = 2.420844 g / cm^3
# Si number density = 24.263661 Si / 1000 Ang^3
#
#
#
# Elastic Constant Matrix: (Units=GPa)
#
#
# Indices 1 2 3 4 5 6 
#
# 1 47.8763 -5.1150 1.0573 0.0000 -4.0854 0.0000
# 2 -5.1150 127.1153 9.6141 0.0000 -16.3067 0.0000
# 3 1.0573 9.6141 155.2904 0.0000 -6.1836 0.0000
# 4 0.0000 0.0000 0.0000 18.7306 0.0000 -2.5440
# 5 -4.0854 -16.3067 -6.1836 0.0000 24.9741 0.0000
# 6 0.0000 0.0000 0.0000 -2.5440 0.0000 25.6683
#
#
#
# Elastic Compliance Matrix: (Units=1/GPa)
#
#
# Indices 1 2 3 4 5 6 
#
# 1 0.021419 0.001434 -0.000058 0.000000 0.004426 0.000000
# 2 0.001434 0.008697 -0.000316 0.000000 0.005835 0.000000
# 3 -0.000058 -0.000316 0.006515 0.000000 0.001397 0.000000
# 4 0.000000 0.000000 0.000000 0.054117 0.000000 0.005364
# 5 0.004426 0.005835 0.001397 0.000000 0.044921 0.000000
# 6 0.000000 0.000000 0.000000 0.005364 0.000000 0.039490
#
#
# Mechanical properties :
#
#
# Convention : Reuss Voigt Hill
#
# Bulk Modulus (GPa) = 25.80570 37.93277 31.86923
# Shear Modulus (GPa) = 26.88787 35.52297 31.20542
#
# Velocity S-wave (km/s) = 3.33251 3.83043 3.59011
# Velocity P-wave (km/s) = 5.04639 5.93552 5.50892
#
# Compressibility (1/GPa) = 0.03875113
#
# Stress axis : x y z
#
# Youngs Moduli (GPa) = 46.68679 114.98208 153.48857
#
# Poissons Ratio (x) = -0.16489 0.00896
# Poissons Ratio (y) = -0.06695 0.04848
# Poissons Ratio (z) = 0.00273 0.03632
#
# Static dielectric constant tensor:
#      x y z
#    x 4.021740 0.000000 0.036120 
#    y 0.000000 4.312960 0.000000 
#    z 0.036120 0.000000 4.620350 
# 
# 
# High freq. dielectric constant tensor:
#      x y z
#    x 1.940300 0.000000 0.003640 
#    y 0.000000 1.952110 0.000000 
#    z 0.003640 0.000000 1.986630 
# 
# From -- ./inp_files/83809.got.cif
#   From: 2010.06.25/outbox.cif.g09.slc.cpg/sg15_42_cif.got.tgz:83809.got - 2010.06.28 07:06:18.
