data_PCOD8153489
_publ_section_title
;
Structure prediction by ZEFSAII (Michael W. Deem and Ramdas Pophale) SiO2 
 PCOD8153489
Probable space group: C 2/C
;
_chemical_formula_sum "Si O2"
_cell_formula_units_Z 60
_cell_length_a 16.329955
_cell_length_b 28.273262
_cell_length_c 11.014596
_cell_angle_alpha 90.000000
_cell_angle_beta 29.493357
_cell_angle_gamma 90.000000
_cell_volume 2503.682715
_symmetry_space_group_name_H-M "C 2/C"
_symmetry_group_IT_number 15
_symmetry_cell_setting 'monoclinic'
loop_
_space_group_symop_operation_xyz
x,y,z
-x,y,1/2-z
-x,-y,-z
x,-y,1/2+z
1/2+x,1/2+y,z
1/2-x,1/2+y,1/2-z
1/2-x,1/2-y,-z
1/2+x,1/2-y,1/2+z
loop_
_atom_site_type_symbol
_atom_site_label
_atom_site_fract_x
_atom_site_fract_y
_atom_site_fract_z
Si Si1 0.000000 0.162114 0.750000
Si Si2 0.799750 0.265784 0.303104
Si Si3 0.657879 0.591897 0.840465
Si Si4 0.816120 0.531893 0.431874
Si Si5 0.248205 0.406477 0.712179
Si Si6 0.942966 0.193649 0.582631
Si Si7 0.657184 0.433033 0.653891
Si Si8 0.899787 0.368937 0.199585
O O1 0.893371 0.193964 0.790611
O O2 0.136273 0.131420 0.503151
O O3 0.750000 0.250000 0.500000
O O4 0.659004 0.278195 0.386766
O O5 0.910571 0.312372 0.178318
O O6 0.881828 0.219808 0.139411
O O7 0.686858 0.559417 0.686079
O O8 0.543439 0.638151 0.964982
O O9 0.839847 0.609183 0.647925
O O10 0.550857 0.567369 0.091064
O O11 0.821201 0.556324 0.295376
O O12 0.745815 0.480114 0.494074
O O13 0.000000 0.528210 0.250000
O O14 0.345083 0.433388 0.694373
O O15 0.086399 0.384217 0.986725
O O16 0.760830 0.387131 0.475059
#
# Coordination Sequence:
#
# PCOD8153489 Si02
#       8
#     4   8   8   8   8   8   8   8
#     4  12  26  48  76 104 156 194 256 310 374 462
#     4  11  26  46  76 109 151 187 250 312 381 452
#     4  11  23  48  70 105 148 194 240 306 374 441
#     4  12  25  44  72 105 149 197 251 308 367 449
#     4  12  25  47  74 101 147 198 246 307 376 438
#     4  11  25  47  74 110 143 197 247 305 380 454
#     4  12  26  43  73 108 145 192 258 306 376 445
#     4  11  26  46  74 106 145 197 241 308 381 447
#
# _framework density 23.964699
#
# number of rings (size 3 to 8) (size 9 to 14) (size 15 to 20)
#    0.000    0.533    4.000    3.200    3.733    4.800 
#    2.400    0.000    0.000    0.000    0.000    0.000 
#    0.000    0.000    0.000    0.000    0.000    0.000 
#
# Total GULP energy -371715.045547 kJ/mol
# GULP energy per Si atom -12390.501518 kJ/mol
# Density = 2.391015 g / cm^3
# Si number density = 23.964699 Si / 1000 Ang^3
#
#
#
# Elastic Constant Matrix: (Units=GPa)
#
#
# Indices 1 2 3 4 5 6 
#
# 1 77.9468 24.9610 3.4669 -0.0017 8.3691 0.0012
# 2 24.9610 92.2428 23.9683 0.0003 -6.3807 -0.0004
# 3 3.4669 23.9683 107.6759 -0.0009 -10.6307 0.0011
# 4 -0.0017 0.0003 -0.0009 39.7838 0.0013 2.4002
# 5 8.3691 -6.3807 -10.6307 0.0013 35.8757 -0.0010
# 6 0.0012 -0.0004 0.0011 2.4002 -0.0010 42.2062
#
#
#
# Elastic Compliance Matrix: (Units=1/GPa)
#
#
# Indices 1 2 3 4 5 6 
#
# 1 0.014638 -0.004266 0.000068 0.000001 -0.004153 -0.000001
# 2 -0.004266 0.012811 -0.002463 0.000000 0.002544 0.000000
# 3 0.000068 -0.002463 0.010083 0.000000 0.002534 0.000000
# 4 0.000001 0.000000 0.000000 0.025222 -0.000001 -0.001434
# 5 -0.004153 0.002544 0.002534 -0.000001 0.030046 0.000001
# 6 -0.000001 0.000000 0.000000 -0.001434 0.000001 0.023775
#
#
# Mechanical properties :
#
#
# Convention : Reuss Voigt Hill
#
# Bulk Modulus (GPa) = 41.30389 42.51754 41.91072
# Shear Modulus (GPa) = 36.23997 38.60441 37.42219
#
# Velocity S-wave (km/s) = 3.89295 4.01794 3.95594
# Velocity P-wave (km/s) = 6.12205 6.26940 6.19616
#
# Compressibility (1/GPa) = 0.02421079
#
# Stress axis : x y z
#
# Youngs Moduli (GPa) = 68.31374 78.05539 99.17278
#
# Poissons Ratio (x) = 0.33300 -0.00677
# Poissons Ratio (y) = 0.29144 0.24429
# Poissons Ratio (z) = -0.00466 0.19227
#
# Static dielectric constant tensor:
#      x y z
#    x 4.863290 -0.000010 -0.068390 
#    y -0.000010 4.008810 -0.000030 
#    z -0.068390 -0.000030 3.881130 
# 
# 
# High freq. dielectric constant tensor:
#      x y z
#    x 1.990630 0.000000 0.004030 
#    y 0.000000 1.948540 0.000000 
#    z 0.004030 0.000000 1.944360 
# 
# From -- ./inp_files/108399.got.cif
#   From: 2010.06.25/outbox.cif.g09.slc.cpg/sg15_55_cif.got.tgz:108399.got - 2010.06.28 07:06:18.
