data_PCOD8153989
_publ_section_title
;
Structure prediction by ZEFSAII (Michael W. Deem and Ramdas Pophale) SiO2 
 PCOD8153989
Probable space group: C 2/C
;
_chemical_formula_sum "Si O2"
_cell_formula_units_Z 48
_cell_length_a 6.963811
_cell_length_b 27.490181
_cell_length_c 13.478612
_cell_angle_alpha 90.000000
_cell_angle_beta 126.129452
_cell_angle_gamma 90.000000
_cell_volume 2084.072347
_symmetry_space_group_name_H-M "C 2/C"
_symmetry_group_IT_number 15
_symmetry_cell_setting 'monoclinic'
loop_
_space_group_symop_operation_xyz
x,y,z
-x,y,1/2-z
-x,-y,-z
x,-y,1/2+z
1/2+x,1/2+y,z
1/2-x,1/2+y,1/2-z
1/2-x,1/2-y,-z
1/2+x,1/2-y,1/2+z
loop_
_atom_site_type_symbol
_atom_site_label
_atom_site_fract_x
_atom_site_fract_y
_atom_site_fract_z
Si Si1 0.996599 0.938828 0.071622
Si Si2 0.445101 0.288504 0.845809
Si Si3 0.000000 0.601830 0.750000
Si Si4 0.457646 0.889879 0.532008
Si Si5 0.885377 0.954584 0.607231
Si Si6 0.500000 0.147987 0.250000
Si Si7 0.567894 0.185446 0.924949
O O1 0.267874 0.932436 0.191529
O O2 0.977193 0.930971 0.945632
O O3 0.884057 0.989064 0.076967
O O4 0.822006 0.900142 0.069295
O O5 0.500000 0.305641 0.750000
O O6 0.405882 0.229781 0.835713
O O7 0.224408 0.316250 0.823980
O O8 0.657135 0.299281 0.987771
O O9 0.027115 0.636408 0.851702
O O10 0.622117 0.930798 0.528629
O O11 0.521933 0.889582 0.666866
O O12 0.495623 0.833533 0.511552
O O13 0.000000 0.944470 0.750000
#
# Coordination Sequence:
#
# PCOD8153989 Si02
#       7
#     8   8   4   8   8   4   8
#     4  11  27  46  70 103 141 181 234 284 347 414
#     4  11  24  48  67 104 142 184 229 293 348 401
#     4  12  24  46  71 104 138 192 232 283 342 426
#     4  12  25  44  71 106 131 186 234 283 346 415
#     4  11  26  46  71 100 141 180 224 294 347 406
#     4  12  26  40  79 102 140 180 238 287 342 424
#     4  11  25  44  74  98 144 184 230 289 346 411
#
# _framework density 23.031828999999998
#
# number of rings (size 3 to 8) (size 9 to 14) (size 15 to 20)
#    0.000    0.667    4.167    2.500    4.667    4.667 
#    0.000    0.000    0.000    0.000    0.000    0.000 
#    0.000    0.000    0.000    0.000    0.000    0.000 
#
# Total GULP energy -297442.617240 kJ/mol
# GULP energy per Si atom -12393.442385 kJ/mol
# Density = 2.297941 g / cm^3
# Si number density = 23.031829 Si / 1000 Ang^3
#
#
#
# Elastic Constant Matrix: (Units=GPa)
#
#
# Indices 1 2 3 4 5 6 
#
# 1 126.3835 62.8371 33.2343 0.0000 17.2590 0.0000
# 2 62.8371 101.4187 17.0914 0.0000 11.3877 0.0000
# 3 33.2343 17.0914 77.6662 0.0000 2.7050 0.0000
# 4 0.0000 0.0000 0.0000 38.6161 0.0000 -4.4653
# 5 17.2590 11.3877 2.7050 0.0000 40.0240 0.0000
# 6 0.0000 0.0000 0.0000 -4.4653 0.0000 25.1497
#
#
#
# Elastic Compliance Matrix: (Units=1/GPa)
#
#
# Indices 1 2 3 4 5 6 
#
# 1 0.012816 -0.006922 -0.003846 0.000000 -0.003297 0.000000
# 2 -0.006922 0.014294 -0.000146 0.000000 -0.001072 0.000000
# 3 -0.003846 -0.000146 0.014528 0.000000 0.000718 0.000000
# 4 0.000000 0.000000 0.000000 0.026439 0.000000 0.004694
# 5 -0.003297 -0.001072 0.000718 0.000000 0.026663 0.000000
# 6 0.000000 0.000000 0.000000 0.004694 0.000000 0.040595
#
#
# Mechanical properties :
#
#
# Convention : Reuss Voigt Hill
#
# Bulk Modulus (GPa) = 50.47996 59.08822 54.78409
# Shear Modulus (GPa) = 30.53131 33.57836 32.05484
#
# Velocity S-wave (km/s) = 3.64485 3.82240 3.73468
# Velocity P-wave (km/s) = 6.29907 6.72248 6.51422
#
# Compressibility (1/GPa) = 0.01980984
#
# Stress axis : x y z
#
# Youngs Moduli (GPa) = 78.03035 69.96009 68.83048
#
# Poissons Ratio (x) = 0.48426 0.26471
# Poissons Ratio (y) = 0.54012 0.01006
# Poissons Ratio (z) = 0.30009 0.01023
#
# Static dielectric constant tensor:
#      x y z
#    x 4.327450 0.000000 -0.268300 
#    y 0.000000 4.178310 0.000000 
#    z -0.268300 0.000000 4.222680 
# 
# 
# High freq. dielectric constant tensor:
#      x y z
#    x 1.912890 0.000000 -0.011320 
#    y 0.000000 1.913580 0.000000 
#    z -0.011320 0.000000 1.911740 
# 
# From -- ./inp_files/130978.got.cif
#   From: 2010.06.25/outbox.cif.g09.slc.cpg/sg15_66_cif.got.tgz:130978.got - 2010.06.28 07:06:18.
