data_PCOD8153158
_publ_section_title
;
Structure prediction by ZEFSAII (Michael W. Deem and Ramdas Pophale) SiO2 
 PCOD8153158
Probable space group: C 2/C
;
_chemical_formula_sum "Si O2"
_cell_formula_units_Z 44
_cell_length_a 7.462899
_cell_length_b 17.359437
_cell_length_c 16.812709
_cell_angle_alpha 90.000000
_cell_angle_beta 109.003150
_cell_angle_gamma 90.000000
_cell_volume 2059.409632
_symmetry_space_group_name_H-M "C 2/C"
_symmetry_group_IT_number 15
_symmetry_cell_setting 'monoclinic'
loop_
_space_group_symop_operation_xyz
x,y,z
-x,y,1/2-z
-x,-y,-z
x,-y,1/2+z
1/2+x,1/2+y,z
1/2-x,1/2+y,1/2-z
1/2-x,1/2-y,-z
1/2+x,1/2-y,1/2+z
loop_
_atom_site_type_symbol
_atom_site_label
_atom_site_fract_x
_atom_site_fract_y
_atom_site_fract_z
Si Si1 0.500000 0.196243 0.750000
Si Si2 0.968084 0.414006 0.387717
Si Si3 0.689150 0.477910 0.571690
Si Si4 0.359726 0.171965 0.031177
Si Si5 0.154042 0.308896 0.703161
Si Si6 0.710416 0.974372 0.745488
O O1 0.454724 0.144730 0.666908
O O2 0.311815 0.244737 0.738025
O O3 0.898850 0.368391 0.453537
O O4 0.788787 0.461965 0.324660
O O5 0.136946 0.471716 0.437503
O O6 0.500000 0.500000 0.500000
O O7 0.738641 0.387308 0.568004
O O8 0.653385 0.494979 0.660577
O O9 0.553078 0.196235 0.102955
O O10 0.250000 0.250000 0.000000
O O11 0.262726 0.390703 0.719883
O O12 0.000000 0.298334 0.750000
O O13 0.500000 0.971334 0.750000
#
# Coordination Sequence:
#
# PCOD8153158 Si02
#       6
#     4   8   8   8   8   8
#     4  12  26  42  74 102 134 196 236 284 356 422
#     4  11  23  46  68  98 138 186 237 287 346 424
#     4  11  23  43  69 101 136 180 235 289 350 417
#     4  12  26  43  69 106 145 184 230 300 359 413
#     4  11  23  46  69  97 146 185 232 290 354 417
#     4   9  18  43  68  85 132 189 220 283 349 404
#
# _framework density 21.365345999999999
#
# number of rings (size 3 to 8) (size 9 to 14) (size 15 to 20)
#    0.000    1.091    8.182    1.636    2.545    2.182 
#    0.000    0.000    0.000    0.000    0.000    0.000 
#    0.000    0.000    0.000    0.000    0.000    0.000 
#
# Total GULP energy -272785.942626 kJ/mol
# GULP energy per Si atom -12399.361028 kJ/mol
# Density = 2.131672 g / cm^3
# Si number density = 21.365346 Si / 1000 Ang^3
#
#
#
# Elastic Constant Matrix: (Units=GPa)
#
#
# Indices 1 2 3 4 5 6 
#
# 1 61.1426 47.6933 44.4589 0.0000 8.5974 0.0000
# 2 47.6933 149.4905 55.9180 0.0000 6.8307 0.0000
# 3 44.4589 55.9180 164.1943 0.0000 14.2687 0.0000
# 4 0.0000 0.0000 0.0000 38.1384 0.0000 -2.8221
# 5 8.5974 6.8307 14.2687 0.0000 37.5916 0.0000
# 6 0.0000 0.0000 0.0000 -2.8221 0.0000 28.0124
#
#
#
# Elastic Compliance Matrix: (Units=1/GPa)
#
#
# Indices 1 2 3 4 5 6 
#
# 1 0.024700 -0.006120 -0.004353 0.000000 -0.002885 0.000000
# 2 -0.006120 0.009189 -0.001498 0.000000 0.000299 0.000000
# 3 -0.004353 -0.001498 0.007931 0.000000 -0.001742 0.000000
# 4 0.000000 0.000000 0.000000 0.026417 0.000000 0.002661
# 5 -0.002885 0.000299 -0.001742 0.000000 0.027869 0.000000
# 6 0.000000 0.000000 0.000000 0.002661 0.000000 0.035967
#
#
# Mechanical properties :
#
#
# Convention : Reuss Voigt Hill
#
# Bulk Modulus (GPa) = 55.93872 74.55200 65.24536
# Shear Modulus (GPa) = 30.86926 35.86561 33.36743
#
# Velocity S-wave (km/s) = 3.80521 4.10162 3.95619
# Velocity P-wave (km/s) = 6.74871 7.57632 7.17446
#
# Compressibility (1/GPa) = 0.01787670
#
# Stress axis : x y z
#
# Youngs Moduli (GPa) = 40.48572 108.82943 126.09321
#
# Poissons Ratio (x) = 0.66606 0.54889
# Poissons Ratio (y) = 0.24778 0.18890
# Poissons Ratio (z) = 0.17624 0.16304
#
# Static dielectric constant tensor:
#      x y z
#    x 3.399720 0.000000 0.011690 
#    y 0.000000 4.253630 0.000000 
#    z 0.011690 0.000000 4.482240 
# 
# 
# High freq. dielectric constant tensor:
#      x y z
#    x 1.800110 0.000000 0.000330 
#    y 0.000000 1.854550 0.000000 
#    z 0.000330 0.000000 1.861960 
# 
# From -- ./inp_files/189319.got.cif
#   From: 2010.06.25/outbox.cif.g09.slc.cpg/sg15_95_cif.got.tgz:189319.got - 2010.06.28 07:06:18.
