data_PCOD8153353
_publ_section_title
;
Structure prediction by ZEFSAII (Michael W. Deem and Ramdas Pophale) SiO2 
 PCOD8153353
Probable space group: C 2/C
;
_chemical_formula_sum "Si O2"
_cell_formula_units_Z 52
_cell_length_a 7.195221
_cell_length_b 26.700654
_cell_length_c 13.196386
_cell_angle_alpha 90.000000
_cell_angle_beta 71.331176
_cell_angle_gamma 90.000000
_cell_volume 2401.858198
_symmetry_space_group_name_H-M "C 2/C"
_symmetry_group_IT_number 15
_symmetry_cell_setting 'monoclinic'
loop_
_space_group_symop_operation_xyz
x,y,z
-x,y,1/2-z
-x,-y,-z
x,-y,1/2+z
1/2+x,1/2+y,z
1/2-x,1/2+y,1/2-z
1/2-x,1/2-y,-z
1/2+x,1/2-y,1/2+z
loop_
_atom_site_type_symbol
_atom_site_label
_atom_site_fract_x
_atom_site_fract_y
_atom_site_fract_z
Si Si1 0.388156 0.610092 0.498726
Si Si2 0.000000 0.604163 0.250000
Si Si3 0.200036 0.787340 0.154057
Si Si4 0.358942 0.430428 0.364026
Si Si5 0.226555 0.176875 0.417478
Si Si6 0.982754 0.632831 0.645143
Si Si7 0.298267 0.545373 0.333824
O O1 0.520240 0.577872 0.553973
O O2 0.523909 0.650739 0.417763
O O3 0.282745 0.570630 0.445147
O O4 0.205071 0.641522 0.572033
O O5 0.100470 0.639058 0.146461
O O6 0.136463 0.565491 0.285459
O O7 0.238102 0.728373 0.147162
O O8 0.382231 0.812808 0.179993
O O9 0.000000 0.799170 0.250000
O O10 0.202407 0.812381 0.041622
O O11 0.500000 0.410665 0.250000
O O12 0.157524 0.399032 0.404815
O O13 0.288424 0.486430 0.355034
O O14 0.000000 0.604591 0.750000
O O15 0.500000 0.561917 0.250000
#
# Coordination Sequence:
#
# PCOD8153353 Si02
#       7
#     8   4   8   8   8   8   8
#     4  12  24  45  68 104 142 180 236 285 355 420
#     4  12  24  50  68 104 148 188 240 290 354 424
#     4  11  23  45  72 104 136 185 239 292 360 419
#     4  11  24  45  69 100 141 181 233 292 346 424
#     4  11  24  44  74  99 139 190 232 296 357 419
#     4  12  24  41  69 101 137 182 226 287 349 414
#     4  11  26  42  71 100 139 186 234 288 349 421
#
# _framework density 21.649903999999999
#
# number of rings (size 3 to 8) (size 9 to 14) (size 15 to 20)
#    0.000    0.615    5.385    2.769    1.077    1.231 
#    2.769    0.000    0.000    0.000    0.000    0.000 
#    0.000    0.000    0.000    0.000    0.000    0.000 
#
# Total GULP energy -322220.339904 kJ/mol
# GULP energy per Si atom -12393.089996 kJ/mol
# Density = 2.160063 g / cm^3
# Si number density = 21.649904 Si / 1000 Ang^3
#
#
#
# Elastic Constant Matrix: (Units=GPa)
#
#
# Indices 1 2 3 4 5 6 
#
# 1 156.2016 75.7412 49.4787 0.0000 -5.6175 0.0000
# 2 75.7412 140.0114 39.6072 0.0000 -6.7149 0.0000
# 3 49.4787 39.6072 90.9360 0.0000 -10.7389 0.0000
# 4 0.0000 0.0000 0.0000 1.7565 0.0000 -2.7214
# 5 -5.6175 -6.7149 -10.7389 0.0000 50.7360 0.0000
# 6 0.0000 0.0000 0.0000 -2.7214 0.0000 17.2277
#
#
#
# Elastic Compliance Matrix: (Units=1/GPa)
#
#
# Indices 1 2 3 4 5 6 
#
# 1 0.009494 -0.004194 -0.003364 0.000000 -0.000216 0.000000
# 2 -0.004194 0.010005 -0.002024 0.000000 0.000431 0.000000
# 3 -0.003364 -0.002024 0.013983 0.000000 0.002319 0.000000
# 4 0.000000 0.000000 0.000000 0.753786 0.000000 0.119075
# 5 -0.000216 0.000431 0.002319 0.000000 0.020234 0.000000
# 6 0.000000 0.000000 0.000000 0.119075 0.000000 0.076856
#
#
# Mechanical properties :
#
#
# Convention : Reuss Voigt Hill
#
# Bulk Modulus (GPa) = 69.85611 79.64481 74.75046
# Shear Modulus (GPa) = 5.50482 28.76550 17.13516
#
# Velocity S-wave (km/s) = 1.59630 3.64904 2.81635
# Velocity P-wave (km/s) = 5.97778 7.39063 6.72143
#
# Compressibility (1/GPa) = 0.01431514
#
# Stress axis : x y z
#
# Youngs Moduli (GPa) = 105.33275 99.95322 71.51627
#
# Poissons Ratio (x) = 0.41925 0.24059
# Poissons Ratio (y) = 0.44181 0.14478
# Poissons Ratio (z) = 0.35436 0.20235
#
# Static dielectric constant tensor:
#      x y z
#    x 4.031180 0.000000 -0.007350 
#    y 0.000000 4.003580 0.000000 
#    z -0.007350 0.000000 4.254760 
# 
# 
# High freq. dielectric constant tensor:
#      x y z
#    x 1.855720 0.000000 -0.008900 
#    y 0.000000 1.856780 0.000000 
#    z -0.008900 0.000000 1.858190 
# 
# From -- ./inp_files/130702.got.cif
#   From: 2010.06.25/outbox.cif.g09.slc.cpg/sg15_66_cif.got.tgz:130702.got - 2010.06.28 07:06:18.
