data_PCOD8153042
_publ_section_title
;
Structure prediction by ZEFSAII (Michael W. Deem and Ramdas Pophale) SiO2 
 PCOD8153042
Probable space group: C 2/C
;
_chemical_formula_sum "Si O2"
_cell_formula_units_Z 44
_cell_length_a 11.496252
_cell_length_b 7.836373
_cell_length_c 24.065761
_cell_angle_alpha 90.000000
_cell_angle_beta 117.272568
_cell_angle_gamma 90.000000
_cell_volume 1927.049912
_symmetry_space_group_name_H-M "C 2/C"
_symmetry_group_IT_number 15
_symmetry_cell_setting 'monoclinic'
loop_
_space_group_symop_operation_xyz
x,y,z
-x,y,1/2-z
-x,-y,-z
x,-y,1/2+z
1/2+x,1/2+y,z
1/2-x,1/2+y,1/2-z
1/2-x,1/2-y,-z
1/2+x,1/2-y,1/2+z
loop_
_atom_site_type_symbol
_atom_site_label
_atom_site_fract_x
_atom_site_fract_y
_atom_site_fract_z
Si Si1 0.720464 0.229890 0.862637
Si Si2 0.500000 0.030579 0.750000
Si Si3 0.866052 0.071221 0.994301
Si Si4 0.041978 0.657429 0.154310
Si Si5 0.521080 0.884664 0.057626
Si Si6 0.198279 0.096393 0.909799
O O1 0.598483 0.148276 0.805385
O O2 0.764394 0.110458 0.923296
O O3 0.838479 0.236729 0.844396
O O4 0.682882 0.419168 0.873619
O O5 0.422570 0.909871 0.776447
O O6 0.907111 0.244031 0.036069
O O7 0.799816 0.940484 0.023232
O O8 0.000000 0.000000 0.000000
O O9 0.007548 0.492696 0.110141
O O10 0.918555 0.781065 0.132073
O O11 0.668027 0.808976 0.080773
O O12 0.500000 0.000000 0.000000
#
# Coordination Sequence:
#
# PCOD8153042 Si02
#       6
#     8   4   8   8   8   8
#     4  11  26  48  66 102 136 182 233 281 335 418
#     4  12  30  46  70  90 144 188 234 276 330 412
#     4  12  23  42  72 107 141 172 221 291 357 409
#     4  11  26  47  69 103 135 184 233 279 345 412
#     4  11  23  42  68 108 139 166 222 289 343 421
#     4  11  24  42  75 100 140 176 222 287 360 394
#
# _framework density 22.832830000000001
#
# number of rings (size 3 to 8) (size 9 to 14) (size 15 to 20)
#    0.000    0.727    5.455    1.636    5.091    6.545 
#    0.000    0.000    0.000    0.000    0.000    0.000 
#    0.000    0.000    0.000    0.000    0.000    0.000 
#
# Total GULP energy -272887.769447 kJ/mol
# GULP energy per Si atom -12403.989520 kJ/mol
# Density = 2.278086 g / cm^3
# Si number density = 22.832830 Si / 1000 Ang^3
#
#
#
# Elastic Constant Matrix: (Units=GPa)
#
#
# Indices 1 2 3 4 5 6 
#
# 1 119.2488 24.6245 54.9025 0.0000 6.3343 0.0000
# 2 24.6245 35.4260 38.6036 0.0000 8.5412 0.0000
# 3 54.9025 38.6036 134.0798 0.0000 3.6779 0.0000
# 4 0.0000 0.0000 0.0000 22.4908 0.0000 8.3575
# 5 6.3343 8.5412 3.6779 0.0000 44.2685 0.0000
# 6 0.0000 0.0000 0.0000 8.3575 0.0000 46.3699
#
#
#
# Elastic Compliance Matrix: (Units=1/GPa)
#
#
# Indices 1 2 3 4 5 6 
#
# 1 0.010699 -0.003714 -0.003297 0.000000 -0.000540 0.000000
# 2 -0.003714 0.044685 -0.011148 0.000000 -0.007164 0.000000
# 3 -0.003297 -0.011148 0.011973 0.000000 0.001628 0.000000
# 4 0.000000 0.000000 0.000000 0.047654 0.000000 -0.008589
# 5 -0.000540 -0.007164 0.001628 0.000000 0.023914 0.000000
# 6 0.000000 0.000000 0.000000 -0.008589 0.000000 0.023114
#
#
# Mechanical properties :
#
#
# Convention : Reuss Voigt Hill
#
# Bulk Modulus (GPa) = 32.21735 58.33508 45.27621
# Shear Modulus (GPa) = 23.95740 34.00080 28.97910
#
# Velocity S-wave (km/s) = 3.24273 3.86310 3.56643
# Velocity P-wave (km/s) = 5.30671 6.74554 6.06891
#
# Compressibility (1/GPa) = 0.03103917
#
# Stress axis : x y z
#
# Youngs Moduli (GPa) = 93.46291 22.37900 83.51898
#
# Poissons Ratio (x) = 0.08312 0.27536
# Poissons Ratio (y) = 0.34713 0.93107
# Poissons Ratio (z) = 0.30815 0.24948
#
# Static dielectric constant tensor:
#      x y z
#    x 4.787860 0.000000 -0.128900 
#    y 0.000000 4.307250 0.000000 
#    z -0.128900 0.000000 3.957810 
# 
# 
# High freq. dielectric constant tensor:
#      x y z
#    x 1.931750 0.000000 -0.008030 
#    y 0.000000 1.905100 0.000000 
#    z -0.008030 0.000000 1.885970 
# 
# From -- ./inp_files/267983.got.cif
#   From: 2010.06.25/outbox.cif.g09.slc.cpg/sg15_134_cif.got.tgz:267983.got - 2010.06.28 07:06:18.
