data_PCOD8153856
_publ_section_title
;
Structure prediction by ZEFSAII (Michael W. Deem and Ramdas Pophale) SiO2 
 PCOD8153856
Probable space group: C 2/C
;
_chemical_formula_sum "Si O2"
_cell_formula_units_Z 36
_cell_length_a 30.111271
_cell_length_b 5.044874
_cell_length_c 23.924471
_cell_angle_alpha 90.000000
_cell_angle_beta 153.947628
_cell_angle_gamma 90.000000
_cell_volume 1596.160976
_symmetry_space_group_name_H-M "C 2/C"
_symmetry_group_IT_number 15
_symmetry_cell_setting 'monoclinic'
loop_
_space_group_symop_operation_xyz
x,y,z
-x,y,1/2-z
-x,-y,-z
x,-y,1/2+z
1/2+x,1/2+y,z
1/2-x,1/2+y,1/2-z
1/2-x,1/2-y,-z
1/2+x,1/2-y,1/2+z
loop_
_atom_site_type_symbol
_atom_site_label
_atom_site_fract_x
_atom_site_fract_y
_atom_site_fract_z
Si Si1 0.425005 0.315870 0.566660
Si Si2 0.000000 0.441062 0.750000
Si Si3 0.890173 0.141709 0.706371
Si Si4 0.515978 0.752647 0.056212
Si Si5 0.194548 0.656911 0.835497
O O1 0.472895 0.114784 0.665620
O O2 0.493105 0.583207 0.643942
O O3 0.434869 0.209774 0.514681
O O4 0.310082 0.373739 0.450212
O O5 0.902543 0.255073 0.656824
O O6 0.842836 0.364814 0.691913
O O7 0.822705 0.872508 0.633548
O O8 0.629577 0.736471 0.209769
O O9 0.500000 0.500000 0.000000
O O10 0.500000 0.000000 0.000000
#
# Coordination Sequence:
#
# PCOD8153856 Si02
#       5
#     8   4   8   8   8
#     4  11  27  48  74 107 146 189 242 294 361 432
#     4  12  24  48  72 102 154 186 236 300 364 410
#     4  11  24  46  66 108 146 182 231 298 348 427
#     4  11  24  46  72 101 145 181 235 301 346 418
#     4  11  26  45  75 106 142 190 241 286 370 426
#
# _framework density 22.554117999999999
#
# number of rings (size 3 to 8) (size 9 to 14) (size 15 to 20)
#    0.000    0.889    4.444    3.333    3.111    3.556 
#    0.000    0.000    0.000    0.000    0.000    0.000 
#    0.000    0.000    0.000    0.000    0.000    0.000 
#
# Total GULP energy -223082.903715 kJ/mol
# GULP energy per Si atom -12393.494651 kJ/mol
# Density = 2.250278 g / cm^3
# Si number density = 22.554118 Si / 1000 Ang^3
#
#
#
# Elastic Constant Matrix: (Units=GPa)
#
#
# Indices 1 2 3 4 5 6 
#
# 1 188.2223 81.7687 73.1208 0.0019 19.9708 0.0007
# 2 81.7687 163.8634 46.4157 -0.0068 10.5257 -0.0071
# 3 73.1208 46.4157 92.7583 -0.0016 42.7350 -0.0007
# 4 0.0019 -0.0068 -0.0016 23.5080 -0.0011 2.0356
# 5 19.9708 10.5257 42.7350 -0.0011 54.2174 0.0003
# 6 0.0007 -0.0071 -0.0007 2.0356 0.0003 47.6734
#
#
#
# Elastic Compliance Matrix: (Units=1/GPa)
#
#
# Indices 1 2 3 4 5 6 
#
# 1 0.008853 -0.002636 -0.006897 -0.000002 0.002688 -0.000001
# 2 -0.002636 0.008073 -0.002648 0.000002 0.001491 0.000001
# 3 -0.006897 -0.002648 0.025336 0.000001 -0.016916 0.000000
# 4 -0.000002 0.000002 0.000001 0.042696 0.000000 -0.001823
# 5 0.002688 0.001491 -0.016916 0.000000 0.030498 0.000000
# 6 -0.000001 0.000001 0.000000 -0.001823 0.000000 0.021054
#
#
# Mechanical properties :
#
#
# Convention : Reuss Voigt Hill
#
# Bulk Modulus (GPa) = 55.87432 94.16162 75.01797
# Shear Modulus (GPa) = 29.96887 41.31569 35.64228
#
# Velocity S-wave (km/s) = 3.64916 4.28465 3.97961
# Velocity P-wave (km/s) = 6.52552 8.14355 7.37902
#
# Compressibility (1/GPa) = 0.01789731
#
# Stress axis : x y z
#
# Youngs Moduli (GPa) = 112.96238 123.87652 39.46889
#
# Poissons Ratio (x) = 0.32658 0.27223
# Poissons Ratio (y) = 0.29781 0.10453
# Poissons Ratio (z) = 0.77915 0.32807
#
# Static dielectric constant tensor:
#      x y z
#    x 4.490990 0.000020 0.058390 
#    y 0.000020 4.363710 -0.000010 
#    z 0.058390 -0.000010 4.049780 
# 
# 
# High freq. dielectric constant tensor:
#      x y z
#    x 1.905250 0.000000 0.008290 
#    y 0.000000 1.913250 0.000000 
#    z 0.008290 0.000000 1.863340 
# 
# From -- ./inp_files/284020.got.cif
#   From: 2010.06.25/outbox.cif.g09.slc.cpg/sg15_143_cif.got.tgz:284020.got - 2010.06.28 07:06:18.
