data_PCOD8153784
_publ_section_title
;
Structure prediction by ZEFSAII (Michael W. Deem and Ramdas Pophale) SiO2 
 PCOD8153784
Probable space group: C 2/C
;
_chemical_formula_sum "Si O2"
_cell_formula_units_Z 56
_cell_length_a 14.254947
_cell_length_b 7.545234
_cell_length_c 24.124376
_cell_angle_alpha 90.000000
_cell_angle_beta 110.755149
_cell_angle_gamma 90.000000
_cell_volume 2426.353249
_symmetry_space_group_name_H-M "C 2/C"
_symmetry_group_IT_number 15
_symmetry_cell_setting 'monoclinic'
loop_
_space_group_symop_operation_xyz
x,y,z
-x,y,1/2-z
-x,-y,-z
x,-y,1/2+z
1/2+x,1/2+y,z
1/2-x,1/2+y,1/2-z
1/2-x,1/2-y,-z
1/2+x,1/2-y,1/2+z
loop_
_atom_site_type_symbol
_atom_site_label
_atom_site_fract_x
_atom_site_fract_y
_atom_site_fract_z
Si Si1 0.283554 0.485374 0.361063
Si Si2 0.627651 0.216258 0.696986
Si Si3 0.793197 0.906334 0.573084
Si Si4 0.410046 0.072527 0.629002
Si Si5 0.252024 0.386513 0.685865
Si Si6 0.389138 0.440744 0.990868
Si Si7 0.597952 0.952272 0.988552
O O1 0.341236 0.651497 0.346322
O O2 0.160170 0.510940 0.336403
O O3 0.311397 0.295642 0.338450
O O4 0.315912 0.465684 0.431940
O O5 0.510758 0.164569 0.672732
O O6 0.651885 0.323812 0.758102
O O7 0.688759 0.030896 0.706934
O O8 0.838302 0.712851 0.584357
O O9 0.787855 0.976686 0.635816
O O10 0.867285 0.020194 0.550590
O O11 0.683227 0.904598 0.521881
O O12 0.430876 0.937200 0.582906
O O13 0.366635 0.233801 0.979869
O O14 0.500000 0.500000 0.000000
O O15 0.500000 0.000000 0.000000
#
# Coordination Sequence:
#
# PCOD8153784 Si02
#       7
#     8   8   8   8   8   8   8
#     4  11  25  47  72 106 149 197 241 317 372 450
#     4  12  25  53  72 110 141 201 260 310 382 453
#     4  11  24  45  68 106 146 187 239 307 370 451
#     4  11  26  43  76 103 147 191 244 311 376 454
#     4  11  26  45  81  96 150 195 251 320 372 452
#     4  12  26  42  71 108 153 192 244 300 382 459
#     4  12  24  41  69 109 145 198 239 302 382 454
#
# _framework density 23.079903000000002
#
# number of rings (size 3 to 8) (size 9 to 14) (size 15 to 20)
#    0.000    0.571    2.857    5.143   10.000    2.286 
#    0.000    0.000    6.286    0.000    0.000    0.000 
#    0.000    0.000    0.000    0.000    0.000    0.000 
#
# Total GULP energy -346958.004797 kJ/mol
# GULP energy per Si atom -12391.357314 kJ/mol
# Density = 2.302737 g / cm^3
# Si number density = 23.079903 Si / 1000 Ang^3
#
#
#
# Elastic Constant Matrix: (Units=GPa)
#
#
# Indices 1 2 3 4 5 6 
#
# 1 142.2957 12.6894 23.8360 0.0000 15.1846 0.0000
# 2 12.6894 68.4818 5.1319 0.0000 16.5593 0.0000
# 3 23.8360 5.1319 99.7094 0.0000 9.6045 0.0000
# 4 0.0000 0.0000 0.0000 38.5064 0.0000 -3.6100
# 5 15.1846 16.5593 9.6045 0.0000 37.7826 0.0000
# 6 0.0000 0.0000 0.0000 -3.6100 0.0000 32.8950
#
#
#
# Elastic Compliance Matrix: (Units=1/GPa)
#
#
# Indices 1 2 3 4 5 6 
#
# 1 0.007603 -0.000726 -0.001554 0.000000 -0.002342 0.000000
# 2 -0.000726 0.016405 -0.000007 0.000000 -0.006897 0.000000
# 3 -0.001554 -0.000007 0.010600 0.000000 -0.002067 0.000000
# 4 0.000000 0.000000 0.000000 0.026240 0.000000 0.002880
# 5 -0.002342 -0.006897 -0.002067 0.000000 0.030957 0.000000
# 6 0.000000 0.000000 0.000000 0.002880 0.000000 0.030716
#
#
# Mechanical properties :
#
#
# Convention : Reuss Voigt Hill
#
# Bulk Modulus (GPa) = 33.29544 43.75572 38.52558
# Shear Modulus (GPa) = 36.46839 39.75879 38.11359
#
# Velocity S-wave (km/s) = 3.97935 4.15499 4.06812
# Velocity P-wave (km/s) = 5.96415 6.48214 6.22853
#
# Compressibility (1/GPa) = 0.03003414
#
# Stress axis : x y z
#
# Youngs Moduli (GPa) = 131.53254 60.95680 94.33792
#
# Poissons Ratio (x) = 0.04425 0.14665
# Poissons Ratio (y) = 0.09548 0.00061
# Poissons Ratio (z) = 0.20447 0.00040
#
# Static dielectric constant tensor:
#      x y z
#    x 4.233250 0.000000 -0.275610 
#    y 0.000000 4.110680 0.000000 
#    z -0.275610 0.000000 4.329150 
# 
# 
# High freq. dielectric constant tensor:
#      x y z
#    x 1.912330 0.000000 -0.011650 
#    y 0.000000 1.909300 0.000000 
#    z -0.011650 0.000000 1.919510 
# 
# From -- ./inp_files/272838.got.cif
#   From: 2010.06.25/outbox.cif.g09.slc.cpg/sg15_137_cif.got.tgz:272838.got - 2010.06.28 07:06:18.
