data_PCOD8153810
_publ_section_title
;
Structure prediction by ZEFSAII (Michael W. Deem and Ramdas Pophale) SiO2 
 PCOD8153810
Probable space group: C 2/C
;
_chemical_formula_sum "Si O2"
_cell_formula_units_Z 44
_cell_length_a 13.472281
_cell_length_b 6.577310
_cell_length_c 23.126657
_cell_angle_alpha 90.000000
_cell_angle_beta 67.183181
_cell_angle_gamma 90.000000
_cell_volume 1888.926881
_symmetry_space_group_name_H-M "C 2/C"
_symmetry_group_IT_number 15
_symmetry_cell_setting 'monoclinic'
loop_
_space_group_symop_operation_xyz
x,y,z
-x,y,1/2-z
-x,-y,-z
x,-y,1/2+z
1/2+x,1/2+y,z
1/2-x,1/2+y,1/2-z
1/2-x,1/2-y,-z
1/2+x,1/2-y,1/2+z
loop_
_atom_site_type_symbol
_atom_site_label
_atom_site_fract_x
_atom_site_fract_y
_atom_site_fract_z
Si Si1 0.816487 0.295388 0.810617
Si Si2 0.500000 0.497161 0.750000
Si Si3 0.867250 0.343225 0.224566
Si Si4 0.923344 0.811300 0.013310
Si Si5 0.002023 0.508404 0.407361
Si Si6 0.265324 0.105433 0.441714
O O1 0.860473 0.522195 0.784844
O O2 0.751297 0.223410 0.768867
O O3 0.735949 0.299550 0.885178
O O4 0.913592 0.139895 0.801848
O O5 0.560168 0.356023 0.782817
O O6 0.916779 0.477089 0.162664
O O7 0.935996 0.666519 0.065522
O O8 0.800588 0.894835 0.034677
O O9 0.963932 0.694135 0.948172
O O10 0.000000 0.000000 0.000000
O O11 0.892414 0.588597 0.404672
O O12 0.250000 0.250000 0.500000
#
# Coordination Sequence:
#
# PCOD8153810 Si02
#       6
#     8   4   8   8   8   8
#     4  12  28  48  75 113 147 198 252 307 386 448
#     4  12  26  50  80 104 154 194 250 316 378 448
#     4  12  27  49  77 110 147 196 250 317 373 456
#     4  11  24  45  70 104 146 194 243 305 365 446
#     4  11  26  44  72 106 145 193 250 302 379 439
#     4  12  26  45  73 107 149 195 246 304 372 447
#
# _framework density 23.293648000000001
#
# number of rings (size 3 to 8) (size 9 to 14) (size 15 to 20)
#    0.000    0.364    3.636    4.364    7.636    4.364 
#    0.000    0.000    0.000    0.000    0.000    0.000 
#    0.000    0.000    0.000    0.000    0.000    0.000 
#
# Total GULP energy -272776.589575 kJ/mol
# GULP energy per Si atom -12398.935890 kJ/mol
# Density = 2.324063 g / cm^3
# Si number density = 23.293648 Si / 1000 Ang^3
#
#
#
# Elastic Constant Matrix: (Units=GPa)
#
#
# Indices 1 2 3 4 5 6 
#
# 1 103.6723 43.6337 18.2054 0.0000 -4.3260 0.0003
# 2 43.6337 132.2694 57.5631 0.0000 -0.9632 0.0006
# 3 18.2054 57.5631 142.8488 0.0000 -3.0150 0.0000
# 4 0.0000 0.0000 0.0000 29.3474 0.0000 0.0316
# 5 -4.3260 -0.9632 -3.0150 0.0000 30.4769 0.0000
# 6 0.0003 0.0006 0.0000 0.0316 0.0000 55.3084
#
#
#
# Elastic Compliance Matrix: (Units=1/GPa)
#
#
# Indices 1 2 3 4 5 6 
#
# 1 0.011269 -0.003754 0.000108 0.000000 0.001492 0.000000
# 2 -0.003754 0.010419 -0.003732 0.000000 -0.000573 0.000000
# 3 0.000108 -0.003732 0.008506 0.000000 0.000739 0.000000
# 4 0.000000 0.000000 0.000000 0.034075 0.000000 -0.000019
# 5 0.001492 -0.000573 0.000739 0.000000 0.033078 0.000000
# 6 0.000000 0.000000 0.000000 -0.000019 0.000000 0.018080
#
#
# Mechanical properties :
#
#
# Convention : Reuss Voigt Hill
#
# Bulk Modulus (GPa) = 64.77452 68.62166 66.69809
# Shear Modulus (GPa) = 36.94716 40.31910 38.63313
#
# Velocity S-wave (km/s) = 3.98697 4.16493 4.07692
# Velocity P-wave (km/s) = 7.00448 7.25618 7.13144
#
# Compressibility (1/GPa) = 0.01543817
#
# Stress axis : x y z
#
# Youngs Moduli (GPa) = 88.74014 95.98271 117.56220
#
# Poissons Ratio (x) = 0.36027 -0.01268
# Poissons Ratio (y) = 0.33309 0.43875
# Poissons Ratio (z) = -0.00957 0.35821
#
# Static dielectric constant tensor:
#      x y z
#    x 4.040450 0.000000 0.381500 
#    y 0.000000 3.951950 0.000000 
#    z 0.381500 0.000000 3.748540 
# 
# 
# High freq. dielectric constant tensor:
#      x y z
#    x 1.938550 0.000000 0.003180 
#    y 0.000000 1.927920 0.000000 
#    z 0.003180 0.000000 1.924040 
# 
# From -- ./inp_files/271870.got.cif
#   From: 2010.06.25/outbox.cif.g09.slc.cpg/sg15_136_cif.got.tgz:271870.got - 2010.06.28 07:06:18.
