data_PCOD8153608
_publ_section_title
;
Structure prediction by ZEFSAII (Michael W. Deem and Ramdas Pophale) SiO2 
 PCOD8153608
Probable space group: C 2/C
;
_chemical_formula_sum "Si O2"
_cell_formula_units_Z 48
_cell_length_a 16.214564
_cell_length_b 16.527494
_cell_length_c 19.521710
_cell_angle_alpha 90.000000
_cell_angle_beta 153.271447
_cell_angle_gamma 90.000000
_cell_volume 2352.962333
_symmetry_space_group_name_H-M "C 2/C"
_symmetry_group_IT_number 15
_symmetry_cell_setting 'monoclinic'
loop_
_space_group_symop_operation_xyz
x,y,z
-x,y,1/2-z
-x,-y,-z
x,-y,1/2+z
1/2+x,1/2+y,z
1/2-x,1/2+y,1/2-z
1/2-x,1/2-y,-z
1/2+x,1/2-y,1/2+z
loop_
_atom_site_type_symbol
_atom_site_label
_atom_site_fract_x
_atom_site_fract_y
_atom_site_fract_z
Si Si1 0.669357 0.417307 0.070637
Si Si2 0.781113 0.096513 0.352031
Si Si3 0.145072 0.703270 0.699431
Si Si4 0.540615 0.180326 0.075250
Si Si5 0.590211 0.684299 0.388467
Si Si6 0.202447 0.749751 0.387970
O O1 0.723862 0.510750 0.114005
O O2 0.828569 0.370826 0.229525
O O3 0.483068 0.391759 0.971035
O O4 0.665516 0.392559 0.987511
O O5 0.638594 0.101879 0.181829
O O6 0.724061 0.163555 0.365454
O O7 0.337225 0.740116 0.811769
O O8 0.991180 0.675262 0.530227
O O9 0.072923 0.779135 0.688287
O O10 0.333780 0.185462 0.949300
O O11 0.500000 0.655764 0.250000
O O12 0.750000 0.750000 0.500000
O O13 0.250000 0.750000 0.500000
O O14 0.000000 0.782219 0.250000
#
# Coordination Sequence:
#
# PCOD8153608 Si02
#       6
#     8   8   8   8   8   8
#     4  11  24  43  66  95 132 170 215 271 327 378
#     4  11  24  43  65  93 133 169 214 276 324 379
#     4  12  20  39  67  91 125 173 224 261 309 399
#     4  12  20  39  68  95 123 172 229 262 311 396
#     4  12  22  38  65  99 126 170 218 268 323 389
#     4  12  22  38  65  96 123 168 217 268 325 385
#
# _framework density 20.399816000000001
#
# number of rings (size 3 to 8) (size 9 to 14) (size 15 to 20)
#    0.000    0.333   10.000    0.000    0.000    0.667 
#    3.000    0.833    0.000    0.000    0.000    0.000 
#    0.000    0.000    0.000    0.000    0.000    0.000 
#
# Total GULP energy -297313.201830 kJ/mol
# GULP energy per Si atom -12388.050076 kJ/mol
# Density = 2.035339 g / cm^3
# Si number density = 20.399816 Si / 1000 Ang^3
#
#
#
# Elastic Constant Matrix: (Units=GPa)
#
#
# Indices 1 2 3 4 5 6 
#
# 1 72.2446 31.8843 39.2979 0.0482 -24.3582 0.0030
# 2 31.8843 83.5101 45.8167 0.0022 -16.6257 0.0311
# 3 39.2979 45.8167 150.1635 -0.0148 -36.9804 0.0319
# 4 0.0482 0.0022 -0.0148 24.9231 0.0362 -9.4603
# 5 -24.3582 -16.6257 -36.9804 0.0362 55.2088 0.0123
# 6 0.0030 0.0311 0.0319 -9.4603 0.0123 31.5267
#
#
#
# Elastic Compliance Matrix: (Units=1/GPa)
#
#
# Indices 1 2 3 4 5 6 
#
# 1 0.019054 -0.005030 -0.002101 -0.000050 0.005485 -0.000012
# 2 -0.005030 0.015839 -0.003459 0.000002 0.000234 -0.000011
# 3 -0.002101 -0.003459 0.009317 0.000001 0.004272 -0.000007
# 4 -0.000050 0.000002 0.000001 0.045281 -0.000054 0.013588
# 5 0.005485 0.000234 0.004272 -0.000054 0.023465 -0.000030
# 6 -0.000012 -0.000011 -0.000007 0.013588 -0.000030 0.035796
#
#
# Mechanical properties :
#
#
# Convention : Reuss Voigt Hill
#
# Bulk Modulus (GPa) = 43.42190 59.99067 51.70628
# Shear Modulus (GPa) = 28.15171 34.92633 31.53902
#
# Velocity S-wave (km/s) = 3.71886 4.14223 3.93624
# Velocity P-wave (km/s) = 6.30647 7.23524 6.78676
#
# Compressibility (1/GPa) = 0.02302986
#
# Stress axis : x y z
#
# Youngs Moduli (GPa) = 52.48247 63.13400 107.33523
#
# Poissons Ratio (x) = 0.31758 0.22551
# Poissons Ratio (y) = 0.26400 0.37125
# Poissons Ratio (z) = 0.11026 0.21837
#
# Static dielectric constant tensor:
#      x y z
#    x 3.899900 -0.000050 -0.124570 
#    y -0.000050 3.411880 -0.000070 
#    z -0.124570 -0.000070 4.142580 
# 
# 
# High freq. dielectric constant tensor:
#      x y z
#    x 1.804610 0.000000 -0.006290 
#    y 0.000000 1.753720 -0.000010 
#    z -0.006290 -0.000010 1.824630 
# 
# From -- ./inp_files/206510.got.cif
#   From: 2010.06.25/outbox.cif.g09.slc.cpg/sg15_104_cif.got.tgz:206510.got - 2010.06.28 07:06:18.
