data_PCOD8153598
_publ_section_title
;
Structure prediction by ZEFSAII (Michael W. Deem and Ramdas Pophale) SiO2 
 PCOD8153598
Probable space group: C 2/C
;
_chemical_formula_sum "Si O2"
_cell_formula_units_Z 36
_cell_length_a 7.389348
_cell_length_b 12.545837
_cell_length_c 17.956300
_cell_angle_alpha 90.000000
_cell_angle_beta 116.724505
_cell_angle_gamma 90.000000
_cell_volume 1486.829548
_symmetry_space_group_name_H-M "C 2/C"
_symmetry_group_IT_number 15
_symmetry_cell_setting 'monoclinic'
loop_
_space_group_symop_operation_xyz
x,y,z
-x,y,1/2-z
-x,-y,-z
x,-y,1/2+z
1/2+x,1/2+y,z
1/2-x,1/2+y,1/2-z
1/2-x,1/2-y,-z
1/2+x,1/2-y,1/2+z
loop_
_atom_site_type_symbol
_atom_site_label
_atom_site_fract_x
_atom_site_fract_y
_atom_site_fract_z
Si Si1 0.288315 0.903679 0.686379
Si Si2 0.052541 0.162601 0.995821
Si Si3 0.635546 0.123075 0.868012
Si Si4 0.613655 0.107132 0.542063
Si Si5 0.000000 0.189042 0.250000
O O1 0.500000 0.846283 0.750000
O O2 0.193598 0.856829 0.593457
O O3 0.131142 0.889951 0.724069
O O4 0.343895 0.027540 0.686090
O O5 0.028662 0.290058 0.981130
O O6 0.174174 0.883945 0.038928
O O7 0.150591 0.105165 0.940254
O O8 0.425329 0.120324 0.876484
O O9 0.644483 0.234147 0.825483
O O10 0.500000 0.000000 0.500000
#
# Coordination Sequence:
#
# PCOD8153598 Si02
#       5
#     8   8   8   8   4
#     4  12  28  48  72 108 147 193 246 302 371 437
#     4  11  26  45  75 109 138 193 245 300 365 436
#     4  12  26  49  71 105 149 189 248 300 368 436
#     4  11  24  42  76 109 142 184 245 307 359 436
#     4  12  30  48  72 106 154 196 236 312 366 438
#
# _framework density 24.212595
#
# number of rings (size 3 to 8) (size 9 to 14) (size 15 to 20)
#    0.000    0.444    5.556    1.333    6.222    1.778 
#    2.000    0.000    0.000    0.000    0.000    0.000 
#    0.000    0.000    0.000    0.000    0.000    0.000 
#
# Total GULP energy -223059.787433 kJ/mol
# GULP energy per Si atom -12392.210413 kJ/mol
# Density = 2.415749 g / cm^3
# Si number density = 24.212595 Si / 1000 Ang^3
#
#
#
# Elastic Constant Matrix: (Units=GPa)
#
#
# Indices 1 2 3 4 5 6 
#
# 1 164.7140 52.8087 84.0019 0.0000 -31.3318 0.0000
# 2 52.8087 130.9352 28.8918 0.0000 -25.6294 0.0000
# 3 84.0019 28.8918 131.6993 0.0000 -2.9108 0.0000
# 4 0.0000 0.0000 0.0000 30.2900 0.0000 -16.3325
# 5 -31.3318 -25.6294 -2.9108 0.0000 62.8987 0.0000
# 6 0.0000 0.0000 0.0000 -16.3325 0.0000 42.0302
#
#
#
# Elastic Compliance Matrix: (Units=1/GPa)
#
#
# Indices 1 2 3 4 5 6 
#
# 1 0.010772 -0.002129 -0.006311 0.000000 0.004207 0.000000
# 2 -0.002129 0.009142 -0.000590 0.000000 0.002638 0.000000
# 3 -0.006311 -0.000590 0.011685 0.000000 -0.002843 0.000000
# 4 0.000000 0.000000 0.000000 0.041765 0.000000 0.016230
# 5 0.004207 0.002638 -0.002843 0.000000 0.018937 0.000000
# 6 0.000000 0.000000 0.000000 0.016230 0.000000 0.030099
#
#
# Mechanical properties :
#
#
# Convention : Reuss Voigt Hill
#
# Bulk Modulus (GPa) = 73.84965 84.30590 79.07777
# Shear Modulus (GPa) = 34.48919 44.48686 39.48803
#
# Velocity S-wave (km/s) = 3.77826 4.29107 4.04281
# Velocity P-wave (km/s) = 7.04275 7.71010 7.38397
#
# Compressibility (1/GPa) = 0.01354103
#
# Stress axis : x y z
#
# Youngs Moduli (GPa) = 92.83095 109.38186 85.58094
#
# Poissons Ratio (x) = 0.23284 0.54009
# Poissons Ratio (y) = 0.19761 0.05045
# Poissons Ratio (z) = 0.58585 0.06449
#
# Static dielectric constant tensor:
#      x y z
#    x 4.721900 0.000000 -0.180350 
#    y 0.000000 4.482380 0.000000 
#    z -0.180350 0.000000 4.366770 
# 
# 
# High freq. dielectric constant tensor:
#      x y z
#    x 1.971240 0.000000 -0.014060 
#    y 0.000000 1.970500 0.000000 
#    z -0.014060 0.000000 1.945530 
# 
# From -- ./inp_files/229586.got.cif
#   From: 2010.06.25/outbox.cif.g09.slc.cpg/sg15_115_cif.got.tgz:229586.got - 2010.06.28 07:06:18.
