data_PCOD8153877
_publ_section_title
;
Structure prediction by ZEFSAII (Michael W. Deem and Ramdas Pophale) SiO2 
 PCOD8153877
Probable space group: C 2/C
;
_chemical_formula_sum "Si O2"
_cell_formula_units_Z 64
_cell_length_a 8.206237
_cell_length_b 17.628807
_cell_length_c 28.577063
_cell_angle_alpha 90.000000
_cell_angle_beta 135.881821
_cell_angle_gamma 90.000000
_cell_volume 2877.938712
_symmetry_space_group_name_H-M "C 2/C"
_symmetry_group_IT_number 15
_symmetry_cell_setting 'monoclinic'
loop_
_space_group_symop_operation_xyz
x,y,z
-x,y,1/2-z
-x,-y,-z
x,-y,1/2+z
1/2+x,1/2+y,z
1/2-x,1/2+y,1/2-z
1/2-x,1/2-y,-z
1/2+x,1/2-y,1/2+z
loop_
_atom_site_type_symbol
_atom_site_label
_atom_site_fract_x
_atom_site_fract_y
_atom_site_fract_z
Si Si1 0.337346 0.041995 0.503100
Si Si2 0.347209 0.796052 0.762233
Si Si3 0.849564 0.728064 0.634287
Si Si4 0.786043 0.953947 0.737767
Si Si5 0.928153 0.291996 0.003100
Si Si6 0.920800 0.560357 0.624637
Si Si7 0.952386 0.810357 0.124636
Si Si8 0.571869 0.521936 0.634286
O O1 0.434153 0.125000 0.523661
O O2 0.336660 0.019882 0.558583
O O3 0.500000 0.000000 0.500000
O O4 0.079783 0.033602 0.429524
O O5 0.500000 0.817502 0.750000
O O6 0.359185 0.875000 0.793674
O O7 0.482785 0.724627 0.812196
O O8 0.078462 0.773999 0.696513
O O9 0.682168 0.783603 0.570477
O O10 0.924389 0.652075 0.621024
O O11 0.683561 0.708794 0.643002
O O12 0.000000 0.932496 0.750000
O O13 0.671811 0.025373 0.687806
O O14 0.845898 0.976000 0.803487
O O15 0.206252 0.269882 0.058582
O O16 0.750000 0.250000 0.000000
O O17 0.781452 0.541206 0.643003
O O18 0.930731 0.902075 0.121024
#
# Coordination Sequence:
#
# PCOD8153877 Si02
#       8
#     8   8   8   8   8   8   8   8
#     4  12  24  43  69 102 142 183 240 289 356 425
#     4  12  26  45  71 101 138 183 237 295 358 429
#     4  11  24  46  70 102 141 186 236 292 358 427
#     4  12  26  45  71 101 138 183 237 295 358 429
#     4  12  24  43  69 102 142 183 240 289 356 425
#     4  11  25  44  69 102 141 186 236 293 355 425
#     4  11  25  44  69 102 141 186 236 293 355 425
#     4  11  24  46  70 102 141 186 236 292 358 427
#
# _framework density 22.238136999999998
#
# number of rings (size 3 to 8) (size 9 to 14) (size 15 to 20)
#    0.000    0.500    2.500    6.000    0.000    5.000 
#    4.500    0.000    0.000    0.000    0.000    0.000 
#    0.000    0.000    0.000    0.000    0.000    0.000 
#
# Total GULP energy -396433.093382 kJ/mol
# GULP energy per Si atom -12388.534168 kJ/mol
# Density = 2.218752 g / cm^3
# Si number density = 22.238137 Si / 1000 Ang^3
#
#
#
# Elastic Constant Matrix: (Units=GPa)
#
#
# Indices 1 2 3 4 5 6 
#
# 1 97.2233 49.8395 25.4446 0.0000 -0.2853 0.0000
# 2 49.8395 71.6313 24.7427 0.0000 0.2944 0.0000
# 3 25.4446 24.7427 141.2828 0.0001 -0.2321 0.0001
# 4 0.0000 0.0000 0.0001 36.3512 0.0001 0.0306
# 5 -0.2853 0.2944 -0.2321 0.0001 47.9928 0.0001
# 6 0.0000 0.0000 0.0001 0.0306 0.0001 38.9657
#
#
#
# Elastic Compliance Matrix: (Units=1/GPa)
#
#
# Indices 1 2 3 4 5 6 
#
# 1 0.016121 -0.010872 -0.000999 0.000000 0.000158 0.000000
# 2 -0.010872 0.022192 -0.001929 0.000000 -0.000210 0.000000
# 3 -0.000999 -0.001929 0.007596 0.000000 0.000043 0.000000
# 4 0.000000 0.000000 0.000000 0.027509 0.000000 -0.000022
# 5 0.000158 -0.000210 0.000043 0.000000 0.020839 0.000000
# 6 0.000000 0.000000 0.000000 -0.000022 0.000000 0.025664
#
#
# Mechanical properties :
#
#
# Convention : Reuss Voigt Hill
#
# Bulk Modulus (GPa) = 54.61840 56.68787 55.65313
# Shear Modulus (GPa) = 32.54710 38.66931 35.60820
#
# Velocity S-wave (km/s) = 3.82982 4.17450 4.00587
# Velocity P-wave (km/s) = 6.64610 6.98441 6.81735
#
# Compressibility (1/GPa) = 0.01830885
#
# Stress axis : x y z
#
# Youngs Moduli (GPa) = 62.03130 45.06118 131.65203
#
# Poissons Ratio (x) = 0.48991 0.13153
# Poissons Ratio (y) = 0.67441 0.25393
# Poissons Ratio (z) = 0.06197 0.08691
#
# Static dielectric constant tensor:
#      x y z
#    x 4.495910 0.000000 0.012070 
#    y 0.000000 4.341590 0.000000 
#    z 0.012070 0.000000 3.566130 
# 
# 
# High freq. dielectric constant tensor:
#      x y z
#    x 1.898560 0.000000 0.000260 
#    y 0.000000 1.877680 0.000000 
#    z 0.000260 0.000000 1.876600 
# 
# From -- ./inp_files/308787.got.cif
#   From: 2010.06.25/outbox.cif.g09.slc.cpg/sg15_155_cif.got.tgz:308787.got - 2010.06.28 07:06:18.
