data_PCOD8153636
_publ_section_title
;
Structure prediction by ZEFSAII (Michael W. Deem and Ramdas Pophale) SiO2 
 PCOD8153636
Probable space group: C 2/C
;
_chemical_formula_sum "Si O2"
_cell_formula_units_Z 40
_cell_length_a 9.704960
_cell_length_b 14.624142
_cell_length_c 17.371438
_cell_angle_alpha 90.000000
_cell_angle_beta 47.353789
_cell_angle_gamma 90.000000
_cell_volume 1813.479545
_symmetry_space_group_name_H-M "C 2/C"
_symmetry_group_IT_number 15
_symmetry_cell_setting 'monoclinic'
loop_
_space_group_symop_operation_xyz
x,y,z
-x,y,1/2-z
-x,-y,-z
x,-y,1/2+z
1/2+x,1/2+y,z
1/2-x,1/2+y,1/2-z
1/2-x,1/2-y,-z
1/2+x,1/2-y,1/2+z
loop_
_atom_site_type_symbol
_atom_site_label
_atom_site_fract_x
_atom_site_fract_y
_atom_site_fract_z
Si Si1 0.137611 0.516053 0.837788
Si Si2 0.874673 0.837889 0.467487
Si Si3 0.834348 0.204907 0.751570
Si Si4 0.255238 0.521936 0.455003
Si Si5 0.635419 0.386693 0.853702
O O1 0.225504 0.614789 0.816153
O O2 0.185034 0.454729 0.895330
O O3 0.218562 0.463129 0.732639
O O4 0.912898 0.529933 0.918770
O O5 0.750000 0.750000 0.500000
O O6 0.855025 0.883029 0.557996
O O7 0.084342 0.806933 0.365730
O O8 0.823976 0.917336 0.426588
O O9 0.688213 0.287691 0.801560
O O10 0.000000 0.227584 0.750000
O O11 0.423192 0.590775 0.410730
#
# Coordination Sequence:
#
# PCOD8153636 Si02
#       5
#     8   8   8   8   8
#     4  11  24  45  72  99 144 192 229 295 369 426
#     4  12  23  43  71 105 138 184 248 290 354 441
#     4  12  23  44  70  97 138 194 235 286 359 431
#     4  11  24  43  70 103 141 188 237 291 365 428
#     4  12  25  43  73 105 144 184 241 304 351 432
#
# _framework density 22.057044999999999
#
# number of rings (size 3 to 8) (size 9 to 14) (size 15 to 20)
#    0.000    0.400    6.000    2.400    0.000    2.400 
#    0.000    2.000    0.000    0.000    0.000    0.000 
#    0.000    0.000    0.000    0.000    0.000    0.000 
#
# Total GULP energy -247967.036874 kJ/mol
# GULP energy per Si atom -12398.351844 kJ/mol
# Density = 2.200684 g / cm^3
# Si number density = 22.057045 Si / 1000 Ang^3
#
#
#
# Elastic Constant Matrix: (Units=GPa)
#
#
# Indices 1 2 3 4 5 6 
#
# 1 84.6865 59.1670 67.2645 0.0000 -18.8101 0.0000
# 2 59.1670 125.8560 57.0191 0.0000 -7.8422 0.0000
# 3 67.2645 57.0191 178.1192 -0.0001 -19.4295 0.0000
# 4 0.0000 0.0000 -0.0001 50.3539 0.0000 -11.5822
# 5 -18.8101 -7.8422 -19.4295 0.0000 39.7807 0.0000
# 6 0.0000 0.0000 0.0000 -11.5822 0.0000 28.8334
#
#
#
# Elastic Compliance Matrix: (Units=1/GPa)
#
#
# Indices 1 2 3 4 5 6 
#
# 1 0.023276 -0.008039 -0.005481 0.000000 0.006744 0.000000
# 2 -0.008039 0.012076 -0.001040 0.000000 -0.001929 0.000000
# 3 -0.005481 -0.001040 0.008146 0.000000 0.001182 0.000000
# 4 0.000000 0.000000 0.000000 0.021881 0.000000 0.008789
# 5 0.006744 -0.001929 0.001182 0.000000 0.028524 0.000000
# 6 0.000000 0.000000 0.000000 0.008789 0.000000 0.038213
#
#
# Mechanical properties :
#
#
# Convention : Reuss Voigt Hill
#
# Bulk Modulus (GPa) = 69.55234 83.95146 76.75190
# Shear Modulus (GPa) = 30.11524 37.47434 33.79479
#
# Velocity S-wave (km/s) = 3.69905 4.12633 3.91852
# Velocity P-wave (km/s) = 7.06013 7.80038 7.43946
#
# Compressibility (1/GPa) = 0.01437766
#
# Stress axis : x y z
#
# Youngs Moduli (GPa) = 42.96236 82.80856 122.76110
#
# Poissons Ratio (x) = 0.66571 0.67283
# Poissons Ratio (y) = 0.34538 0.12770
# Poissons Ratio (z) = 0.23547 0.08614
#
# Static dielectric constant tensor:
#      x y z
#    x 3.845840 0.000000 0.026510 
#    y 0.000000 3.958090 0.000000 
#    z 0.026510 0.000000 4.702270 
# 
# 
# High freq. dielectric constant tensor:
#      x y z
#    x 1.840180 0.000000 -0.006730 
#    y 0.000000 1.869440 0.000000 
#    z -0.006730 0.000000 1.899320 
# 
# From -- ./inp_files/197591.got.cif
#   From: 2010.06.25/outbox.cif.g09.slc.cpg/sg15_99_cif.got.tgz:197591.got - 2010.06.28 07:06:18.
