data_PCOD8153071
_publ_section_title
;
Structure prediction by ZEFSAII (Michael W. Deem and Ramdas Pophale) SiO2 
 PCOD8153071
Probable space group: C 2/C
;
_chemical_formula_sum "Si O2"
_cell_formula_units_Z 40
_cell_length_a 13.860408
_cell_length_b 16.113859
_cell_length_c 9.038136
_cell_angle_alpha 90.000000
_cell_angle_beta 65.091025
_cell_angle_gamma 90.000000
_cell_volume 1830.843501
_symmetry_space_group_name_H-M "C 2/C"
_symmetry_group_IT_number 15
_symmetry_cell_setting 'monoclinic'
loop_
_space_group_symop_operation_xyz
x,y,z
-x,y,1/2-z
-x,-y,-z
x,-y,1/2+z
1/2+x,1/2+y,z
1/2-x,1/2+y,1/2-z
1/2-x,1/2-y,-z
1/2+x,1/2-y,1/2+z
loop_
_atom_site_type_symbol
_atom_site_label
_atom_site_fract_x
_atom_site_fract_y
_atom_site_fract_z
Si Si1 0.780821 0.552097 0.011537
Si Si2 0.572960 0.456152 0.067731
Si Si3 0.723910 0.339245 0.814434
Si Si4 0.891622 0.686160 0.735100
Si Si5 0.602900 0.880853 0.586485
O O1 0.661613 0.523600 0.053074
O O2 0.779524 0.592047 0.174738
O O3 0.825011 0.615700 0.861322
O O4 0.855945 0.473075 0.968200
O O5 0.500000 0.426765 0.250000
O O6 0.500000 0.500000 0.000000
O O7 0.619993 0.373617 0.963913
O O8 0.690060 0.262617 0.732994
O O9 0.810908 0.321252 0.886796
O O10 0.928040 0.657227 0.550444
O O11 0.000000 0.711873 0.750000
O O12 0.500000 0.886705 0.750000
#
# Coordination Sequence:
#
# PCOD8153071 Si02
#       5
#     8   8   8   8   8
#     4  11  24  44  70  98 133 178 231 277 332 410
#     4  11  23  42  70 100 135 183 227 277 332 401
#     4  11  25  44  67 102 139 173 227 278 337 406
#     4  12  27  44  69 101 138 179 221 286 345 397
#     4  11  24  46  71  97 134 177 228 276 338 407
#
# _framework density 21.847854000000002
#
# number of rings (size 3 to 8) (size 9 to 14) (size 15 to 20)
#    0.000    0.800    2.000    5.400    5.600    3.200 
#    0.000    0.000    0.000    0.000    0.000    0.000 
#    0.000    0.000    0.000    0.000    0.000    0.000 
#
# Total GULP energy -248058.691316 kJ/mol
# GULP energy per Si atom -12402.934566 kJ/mol
# Density = 2.179813 g / cm^3
# Si number density = 21.847854 Si / 1000 Ang^3
#
#
#
# Elastic Constant Matrix: (Units=GPa)
#
#
# Indices 1 2 3 4 5 6 
#
# 1 132.1159 51.8982 59.0832 0.0000 5.2322 0.0000
# 2 51.8982 90.8106 25.8011 0.0000 6.8209 0.0000
# 3 59.0832 25.8011 136.8931 0.0000 1.8376 0.0000
# 4 0.0000 0.0000 0.0000 34.4155 0.0000 3.4354
# 5 5.2322 6.8209 1.8376 0.0000 43.3103 0.0000
# 6 0.0000 0.0000 0.0000 3.4354 0.0000 20.3915
#
#
#
# Elastic Compliance Matrix: (Units=1/GPa)
#
#
# Indices 1 2 3 4 5 6 
#
# 1 0.011463 -0.005409 -0.003923 0.000000 -0.000367 0.000000
# 2 -0.005409 0.014320 -0.000343 0.000000 -0.001587 0.000000
# 3 -0.003923 -0.000343 0.009061 0.000000 0.000144 0.000000
# 4 0.000000 0.000000 0.000000 0.029554 0.000000 -0.004979
# 5 -0.000367 -0.001587 0.000144 0.000000 0.023377 0.000000
# 6 0.000000 0.000000 0.000000 -0.004979 0.000000 0.049879
#
#
# Mechanical properties :
#
#
# Convention : Reuss Voigt Hill
#
# Bulk Modulus (GPa) = 64.54337 70.37606 67.45971
# Shear Modulus (GPa) = 30.83228 34.49260 32.66244
#
# Velocity S-wave (km/s) = 3.76071 3.97768 3.87071
# Velocity P-wave (km/s) = 6.96158 7.30600 7.13587
#
# Compressibility (1/GPa) = 0.01549346
#
# Stress axis : x y z
#
# Youngs Moduli (GPa) = 87.23943 69.83350 110.36459
#
# Poissons Ratio (x) = 0.37772 0.43296
# Poissons Ratio (y) = 0.47186 0.03788
# Poissons Ratio (z) = 0.34224 0.02397
#
# Static dielectric constant tensor:
#      x y z
#    x 4.108880 0.000000 0.120250 
#    y 0.000000 3.883700 0.000000 
#    z 0.120250 0.000000 4.169260 
# 
# 
# High freq. dielectric constant tensor:
#      x y z
#    x 1.872540 0.000000 0.002830 
#    y 0.000000 1.851090 0.000000 
#    z 0.002830 0.000000 1.884840 
# 
# From -- ./inp_files/37868.got.cif
#   From: 2010.06.25/outbox.cif.g09.slc.cpg/sg15_19_cif.got.tgz:37868.got - 2010.06.28 07:06:18.
