data_PCOD8153237
_publ_section_title
;
Structure prediction by ZEFSAII (Michael W. Deem and Ramdas Pophale) SiO2 
 PCOD8153237
Probable space group: C 2/C
;
_chemical_formula_sum "Si O2"
_cell_formula_units_Z 52
_cell_length_a 22.064196
_cell_length_b 9.449156
_cell_length_c 18.044472
_cell_angle_alpha 90.000000
_cell_angle_beta 138.154731
_cell_angle_gamma 90.000000
_cell_volume 2509.747810
_symmetry_space_group_name_H-M "C 2/C"
_symmetry_group_IT_number 15
_symmetry_cell_setting 'monoclinic'
loop_
_space_group_symop_operation_xyz
x,y,z
-x,y,1/2-z
-x,-y,-z
x,-y,1/2+z
1/2+x,1/2+y,z
1/2-x,1/2+y,1/2-z
1/2-x,1/2-y,-z
1/2+x,1/2-y,1/2+z
loop_
_atom_site_type_symbol
_atom_site_label
_atom_site_fract_x
_atom_site_fract_y
_atom_site_fract_z
Si Si1 0.800120 0.119884 0.764833
Si Si2 0.250297 0.880472 0.444155
Si Si3 0.945623 0.515024 0.068102
Si Si4 0.000000 0.340393 0.250000
Si Si5 0.529970 0.210847 0.030624
Si Si6 0.330581 0.668850 0.109827
Si Si7 0.154405 0.194507 0.204073
O O1 0.795114 0.165279 0.674334
O O2 0.891152 0.178526 0.883289
O O3 0.709282 0.175000 0.720467
O O4 0.800760 0.952518 0.780132
O O5 0.250000 0.750000 0.500000
O O6 0.351524 0.940780 0.521927
O O7 0.185422 0.002319 0.419683
O O8 0.012161 0.442378 0.189455
O O9 0.996279 0.650402 0.079273
O O10 0.926837 0.409736 0.982452
O O11 0.919984 0.233086 0.154196
O O12 0.449380 0.294137 0.916276
O O13 0.339109 0.706236 0.202915
O O14 0.250000 0.750000 0.000000
#
# Coordination Sequence:
#
# PCOD8153237 Si02
#       7
#     8   8   8   4   8   8   8
#     4  11  25  42  69  96 134 175 220 278 341 397
#     4  11  25  47  63  99 138 174 223 277 339 402
#     4  11  24  44  70  97 135 175 225 278 338 403
#     4  12  24  42  70 100 132 180 222 272 334 402
#     4  11  23  44  68 100 133 173 226 281 337 404
#     4  11  24  43  68  94 132 178 225 269 331 403
#     4  11  24  44  66  98 133 172 225 277 335 402
#
# _framework density 20.719213
#
# number of rings (size 3 to 8) (size 9 to 14) (size 15 to 20)
#    0.000    0.923    4.615    2.308    4.308    1.231 
#    5.538    0.000    0.000    0.000    0.000    0.000 
#    0.000    0.000    0.000    0.000    0.000    0.000 
#
# Total GULP energy -322418.292764 kJ/mol
# GULP energy per Si atom -12400.703568 kJ/mol
# Density = 2.067205 g / cm^3
# Si number density = 20.719213 Si / 1000 Ang^3
#
#
#
# Elastic Constant Matrix: (Units=GPa)
#
#
# Indices 1 2 3 4 5 6 
#
# 1 59.4874 31.6562 20.2246 0.0000 2.3053 0.0000
# 2 31.6562 83.5820 32.2248 0.0000 -8.6031 0.0000
# 3 20.2246 32.2248 116.2709 0.0000 10.4179 0.0000
# 4 0.0000 0.0000 0.0000 28.8763 0.0000 -2.9617
# 5 2.3053 -8.6031 10.4179 0.0000 35.5226 0.0000
# 6 0.0000 0.0000 0.0000 -2.9617 0.0000 37.2501
#
#
#
# Elastic Compliance Matrix: (Units=1/GPa)
#
#
# Indices 1 2 3 4 5 6 
#
# 1 0.021617 -0.008000 -0.001277 0.000000 -0.002966 0.000000
# 2 -0.008000 0.017078 -0.003860 0.000000 0.005787 0.000000
# 3 -0.001277 -0.003860 0.010238 0.000000 -0.003855 0.000000
# 4 0.000000 0.000000 0.000000 0.034915 0.000000 0.002776
# 5 -0.002966 0.005787 -0.003855 0.000000 0.030876 0.000000
# 6 0.000000 0.000000 0.000000 0.002776 0.000000 0.027066
#
#
# Mechanical properties :
#
#
# Convention : Reuss Voigt Hill
#
# Bulk Modulus (GPa) = 44.13447 47.50573 45.82010
# Shear Modulus (GPa) = 28.47093 32.01210 30.24151
#
# Velocity S-wave (km/s) = 3.71095 3.93497 3.82460
# Velocity P-wave (km/s) = 6.30151 6.60480 6.45494
#
# Compressibility (1/GPa) = 0.02265803
#
# Stress axis : x y z
#
# Youngs Moduli (GPa) = 46.26066 58.55385 97.67525
#
# Poissons Ratio (x) = 0.46843 0.12474
# Poissons Ratio (y) = 0.37009 0.37705
# Poissons Ratio (z) = 0.05908 0.22603
#
# Static dielectric constant tensor:
#      x y z
#    x 3.715740 0.000000 -0.033840 
#    y 0.000000 3.899920 0.000000 
#    z -0.033840 0.000000 3.884770 
# 
# 
# High freq. dielectric constant tensor:
#      x y z
#    x 1.804780 0.000000 -0.001980 
#    y 0.000000 1.814500 0.000000 
#    z -0.001980 0.000000 1.829090 
# 
# From -- ./inp_files/255078.got.cif
#   From: 2010.06.25/outbox.cif.g09.slc.cpg/sg15_128_cif.got.tgz:255078.got - 2010.06.28 07:06:18.
