data_PCOD8153681
_publ_section_title
;
Structure prediction by ZEFSAII (Michael W. Deem and Ramdas Pophale) SiO2 
 PCOD8153681
Probable space group: C 2/C
;
_chemical_formula_sum "Si O2"
_cell_formula_units_Z 40
_cell_length_a 17.365950
_cell_length_b 14.448426
_cell_length_c 20.201719
_cell_angle_alpha 90.000000
_cell_angle_beta 20.646763
_cell_angle_gamma 90.000000
_cell_volume 1787.296104
_symmetry_space_group_name_H-M "C 2/C"
_symmetry_group_IT_number 15
_symmetry_cell_setting 'monoclinic'
loop_
_space_group_symop_operation_xyz
x,y,z
-x,y,1/2-z
-x,-y,-z
x,-y,1/2+z
1/2+x,1/2+y,z
1/2-x,1/2+y,1/2-z
1/2-x,1/2-y,-z
1/2+x,1/2-y,1/2+z
loop_
_atom_site_type_symbol
_atom_site_label
_atom_site_fract_x
_atom_site_fract_y
_atom_site_fract_z
Si Si1 0.560940 0.341315 0.524158
Si Si2 0.550670 0.313779 0.140640
Si Si3 0.529549 0.030987 0.804072
Si Si4 0.690405 0.656901 0.145130
Si Si5 0.246470 0.850803 0.853882
O O1 0.766431 0.404626 0.343825
O O2 0.415504 0.379338 0.701647
O O3 0.636591 0.237826 0.480523
O O4 0.416789 0.343231 0.575032
O O5 0.500000 0.370517 0.250000
O O6 0.349291 0.250124 0.279632
O O7 0.750000 0.250000 0.000000
O O8 0.614573 0.379184 0.027589
O O9 0.500000 0.021731 0.750000
O O10 0.571910 0.930237 0.802575
O O11 0.312533 0.071445 0.012223
O O12 0.500000 0.695277 0.250000
#
# Coordination Sequence:
#
# PCOD8153681 Si02
#       5
#     8   8   8   8   8
#     4  12  24  43  69 102 141 177 231 285 350 406
#     4   9  19  41  67  92 131 184 232 269 341 418
#     4  12  25  45  70 100 142 179 233 289 337 417
#     4  12  24  44  72 103 136 190 231 275 349 418
#     4  11  24  44  66 103 139 177 228 294 345 400
#
# _framework density 22.380177
#
# number of rings (size 3 to 8) (size 9 to 14) (size 15 to 20)
#    0.000    0.800    4.000    4.800    0.000    0.800 
#   10.800    0.000    0.000    0.000    0.000    0.000 
#    0.000    0.000    0.000    0.000    0.000    0.000 
#
# Total GULP energy -248003.751880 kJ/mol
# GULP energy per Si atom -12400.187594 kJ/mol
# Density = 2.232924 g / cm^3
# Si number density = 22.380177 Si / 1000 Ang^3
#
#
#
# Elastic Constant Matrix: (Units=GPa)
#
#
# Indices 1 2 3 4 5 6 
#
# 1 184.3991 18.7190 54.1678 -1.5207 -9.3823 -0.1478
# 2 18.7190 65.5980 14.1522 -0.5088 -0.0145 -0.2148
# 3 54.1678 14.1522 101.1620 -2.3191 11.4751 -0.2609
# 4 -1.5207 -0.5088 -2.3191 122.7841 0.2487 5.5284
# 5 -9.3823 -0.0145 11.4751 0.2487 42.3093 0.0104
# 6 -0.1478 -0.2148 -0.2609 5.5284 0.0104 0.5439
#
#
#
# Elastic Compliance Matrix: (Units=1/GPa)
#
#
# Indices 1 2 3 4 5 6 
#
# 1 0.006767 -0.001123 -0.003753 0.000043 0.002518 -0.000896
# 2 -0.001123 0.015945 -0.001637 -0.000394 0.000200 0.009204
# 3 -0.003753 -0.001637 0.012618 -0.000014 -0.004256 0.004609
# 4 0.000043 -0.000394 -0.000014 0.015027 -0.000037 -0.152897
# 5 0.002518 0.000200 -0.004256 -0.000037 0.025349 -0.001383
# 6 -0.000896 0.009204 0.004609 -0.152897 -0.001383 3.398430
#
#
# Mechanical properties :
#
#
# Convention : Reuss Voigt Hill
#
# Bulk Modulus (GPa) = 44.83707 58.35967 51.59837
# Shear Modulus (GPa) = 1.43078 50.73548 26.08313
#
# Velocity S-wave (km/s) = 0.80043 4.76645 3.41758
# Velocity P-wave (km/s) = 4.57515 7.51167 6.21921
#
# Compressibility (1/GPa) = 0.02230297
#
# Stress axis : x y z
#
# Youngs Moduli (GPa) = 147.76668 62.71451 79.24963
#
# Poissons Ratio (x) = 0.07045 0.29746
# Poissons Ratio (y) = 0.16600 0.12974
# Poissons Ratio (z) = 0.55464 0.10267
#
# Static dielectric constant tensor:
#      x y z
#    x 4.312390 0.002120 0.334490 
#    y 0.002120 1.535240 0.009560 
#    z 0.334490 0.009560 4.765860 
# 
# 
# High freq. dielectric constant tensor:
#      x y z
#    x 1.897760 -0.000010 -0.000220 
#    y -0.000010 1.856170 0.000020 
#    z -0.000220 0.000020 1.897600 
# 
# From -- ./inp_files/215845.got.cif
#   From: 2010.06.25/outbox.cif.g09.slc.cpg/sg15_108_cif.got.tgz:215845.got - 2010.06.28 07:06:18.
