data_PCOD8153285
_publ_section_title
;
Structure prediction by ZEFSAII (Michael W. Deem and Ramdas Pophale) SiO2 
 PCOD8153285
Probable space group: C 2/C
;
_chemical_formula_sum "Si O2"
_cell_formula_units_Z 44
_cell_length_a 11.231837
_cell_length_b 23.349995
_cell_length_c 11.646915
_cell_angle_alpha 90.000000
_cell_angle_beta 138.994666
_cell_angle_gamma 90.000000
_cell_volume 2004.185488
_symmetry_space_group_name_H-M "C 2/C"
_symmetry_group_IT_number 15
_symmetry_cell_setting 'monoclinic'
loop_
_space_group_symop_operation_xyz
x,y,z
-x,y,1/2-z
-x,-y,-z
x,-y,1/2+z
1/2+x,1/2+y,z
1/2-x,1/2+y,1/2-z
1/2-x,1/2-y,-z
1/2+x,1/2-y,1/2+z
loop_
_atom_site_type_symbol
_atom_site_label
_atom_site_fract_x
_atom_site_fract_y
_atom_site_fract_z
Si Si1 0.713363 0.558421 0.384585
Si Si2 0.788193 0.927135 0.086437
Si Si3 0.277964 0.653635 0.773186
Si Si4 0.323484 0.231455 0.173648
Si Si5 0.162933 0.881807 0.616880
Si Si6 0.500000 0.123446 0.750000
O O1 0.500000 0.569047 0.250000
O O2 0.762603 0.491646 0.418748
O O3 0.748654 0.584615 0.285497
O O4 0.847346 0.585815 0.575267
O O5 0.692610 0.884294 0.107420
O O6 0.000000 0.914682 0.250000
O O7 0.737653 0.911508 0.919124
O O8 0.350546 0.714407 0.778588
O O9 0.113197 0.663043 0.743500
O O10 0.442850 0.617205 0.950626
O O11 0.500000 0.201465 0.250000
O O12 0.210298 0.185156 0.161746
O O13 0.250000 0.250000 0.000000
#
# Coordination Sequence:
#
# PCOD8153285 Si02
#       6
#     8   8   8   8   8   4
#     4  11  25  45  68 100 142 188 227 284 348 415
#     4   9  21  40  72  99 133 181 232 286 347 399
#     4  11  23  45  66 102 141 181 231 284 341 417
#     4  12  23  43  71 102 132 171 231 293 344 399
#     4  11  23  44  73 100 137 185 229 286 356 402
#     4  12  28  44  66 102 144 188 232 278 340 430
#
# _framework density 21.954055
#
# number of rings (size 3 to 8) (size 9 to 14) (size 15 to 20)
#    0.000    1.091    5.455    0.545    5.091    2.909 
#    3.273    1.818    0.000    0.000    0.000    0.000 
#    0.000    0.000    0.000    0.000    0.000    0.000 
#
# Total GULP energy -272597.019631 kJ/mol
# GULP energy per Si atom -12390.773620 kJ/mol
# Density = 2.190409 g / cm^3
# Si number density = 21.954055 Si / 1000 Ang^3
#
#
#
# Elastic Constant Matrix: (Units=GPa)
#
#
# Indices 1 2 3 4 5 6 
#
# 1 131.2533 47.2621 30.8713 0.0000 -13.3311 0.0000
# 2 47.2621 123.2746 35.4762 0.0000 -19.7401 0.0000
# 3 30.8713 35.4762 104.0417 0.0000 -17.5414 0.0000
# 4 0.0000 0.0000 0.0000 26.7303 0.0000 0.6789
# 5 -13.3311 -19.7401 -17.5414 0.0000 35.9610 0.0000
# 6 0.0000 0.0000 0.0000 0.6789 0.0000 31.3477
#
#
#
# Elastic Compliance Matrix: (Units=1/GPa)
#
#
# Indices 1 2 3 4 5 6 
#
# 1 0.009129 -0.002887 -0.001548 0.000000 0.001044 0.000000
# 2 -0.002887 0.010397 -0.002078 0.000000 0.003624 0.000000
# 3 -0.001548 -0.002078 0.011430 0.000000 0.003861 0.000000
# 4 0.000000 0.000000 0.000000 0.037431 0.000000 -0.000811
# 5 0.001044 0.003624 0.003861 0.000000 0.032067 0.000000
# 6 0.000000 0.000000 0.000000 -0.000811 0.000000 0.031918
#
#
# Mechanical properties :
#
#
# Convention : Reuss Voigt Hill
#
# Bulk Modulus (GPa) = 55.77172 65.08765 60.42969
# Shear Modulus (GPa) = 33.03057 35.13849 34.08453
#
# Velocity S-wave (km/s) = 3.88304 4.00502 3.94450
# Velocity P-wave (km/s) = 6.75003 7.14832 6.95203
#
# Compressibility (1/GPa) = 0.01793023
#
# Stress axis : x y z
#
# Youngs Moduli (GPa) = 109.54551 96.18182 87.48661
#
# Poissons Ratio (x) = 0.27769 0.13544
# Poissons Ratio (y) = 0.31627 0.18176
# Poissons Ratio (z) = 0.16960 0.19983
#
# Static dielectric constant tensor:
#      x y z
#    x 3.966810 0.000000 -0.131000 
#    y 0.000000 3.569130 0.000000 
#    z -0.131000 0.000000 3.982800 
# 
# 
# High freq. dielectric constant tensor:
#      x y z
#    x 1.862440 0.000000 -0.003270 
#    y 0.000000 1.852970 0.000000 
#    z -0.003270 0.000000 1.870370 
# 
# From -- ./inp_files/91131.got.cif
#   From: 2010.06.25/outbox.cif.g09.slc.cpg/sg15_46_cif.got.tgz:91131.got - 2010.06.28 07:06:18.
