data_PCOD8153483
_publ_section_title
;
Structure prediction by ZEFSAII (Michael W. Deem and Ramdas Pophale) SiO2 
 PCOD8153483
Probable space group: C 2/C
;
_chemical_formula_sum "Si O2"
_cell_formula_units_Z 32
_cell_length_a 9.117367
_cell_length_b 13.399573
_cell_length_c 10.716331
_cell_angle_alpha 90.000000
_cell_angle_beta 85.071053
_cell_angle_gamma 90.000000
_cell_volume 1304.360155
_symmetry_space_group_name_H-M "C 2/C"
_symmetry_group_IT_number 15
_symmetry_cell_setting 'monoclinic'
loop_
_space_group_symop_operation_xyz
x,y,z
-x,y,1/2-z
-x,-y,-z
x,-y,1/2+z
1/2+x,1/2+y,z
1/2-x,1/2+y,1/2-z
1/2-x,1/2-y,-z
1/2+x,1/2-y,1/2+z
loop_
_atom_site_type_symbol
_atom_site_label
_atom_site_fract_x
_atom_site_fract_y
_atom_site_fract_z
Si Si1 0.414582 0.004425 0.636156
Si Si2 0.150638 0.859995 0.675036
Si Si3 0.471042 0.609913 0.559377
Si Si4 0.776167 0.170039 0.792007
O O1 0.500000 0.959230 0.750000
O O2 0.255949 0.952951 0.638039
O O3 0.500000 0.000000 0.500000
O O4 0.380691 0.120867 0.664192
O O5 0.098668 0.819207 0.543460
O O6 0.242886 0.781721 0.749644
O O7 0.000000 0.898546 0.750000
O O8 0.500000 0.500000 0.500000
O O9 0.352977 0.603666 0.678888
O O10 0.617615 0.668113 0.594712
#
# Coordination Sequence:
#
# PCOD8153483 Si02
#       4
#     8   8   8   8
#     4  12  28  50  79 114 162 209 265 332 401 474
#     4  12  27  48  79 113 156 207 264 322 401 473
#     4  11  23  47  81 108 154 207 265 323 399 479
#     4  11  26  47  75 117 153 206 265 328 394 473
#
# _framework density 24.533102
#
# number of rings (size 3 to 8) (size 9 to 14) (size 15 to 20)
#    0.000    0.500    2.500    4.500    7.000    3.000 
#    0.000    0.000    0.000    0.000    0.000    0.000 
#    0.000    0.000    0.000    0.000    0.000    0.000 
#
# Total GULP energy -198347.248571 kJ/mol
# GULP energy per Si atom -12396.703036 kJ/mol
# Density = 2.447726 g / cm^3
# Si number density = 24.533102 Si / 1000 Ang^3
#
#
#
# Elastic Constant Matrix: (Units=GPa)
#
#
# Indices 1 2 3 4 5 6 
#
# 1 159.0511 37.0195 87.7405 0.0000 14.5518 0.0000
# 2 37.0195 79.4636 23.1066 0.0000 0.3634 0.0000
# 3 87.7405 23.1066 153.7380 0.0000 10.0479 0.0000
# 4 0.0000 0.0000 0.0000 31.0851 0.0000 7.5397
# 5 14.5518 0.3634 10.0479 0.0000 70.0604 0.0000
# 6 0.0000 0.0000 0.0000 7.5397 0.0000 33.1839
#
#
#
# Elastic Compliance Matrix: (Units=1/GPa)
#
#
# Indices 1 2 3 4 5 6 
#
# 1 0.009971 -0.003147 -0.005132 0.000000 -0.001319 0.000000
# 2 -0.003147 0.014156 -0.000373 0.000000 0.000634 0.000000
# 3 -0.005132 -0.000373 0.009509 0.000000 -0.000296 0.000000
# 4 0.000000 0.000000 0.000000 0.034046 0.000000 -0.007736
# 5 -0.001319 0.000634 -0.000296 0.000000 0.014586 0.000000
# 6 0.000000 0.000000 0.000000 -0.007736 0.000000 0.031893
#
#
# Mechanical properties :
#
#
# Convention : Reuss Voigt Hill
#
# Bulk Modulus (GPa) = 61.22674 76.44287 68.83481
# Shear Modulus (GPa) = 36.52072 43.15828 39.83950
#
# Velocity S-wave (km/s) = 3.86246 4.19881 4.03415
# Velocity P-wave (km/s) = 6.70093 7.39821 7.05818
#
# Compressibility (1/GPa) = 0.01633273
#
# Stress axis : x y z
#
# Youngs Moduli (GPa) = 100.28840 70.64114 105.16778
#
# Poissons Ratio (x) = 0.22231 0.53967
# Poissons Ratio (y) = 0.31562 0.03922
# Poissons Ratio (z) = 0.51463 0.02635
#
# Static dielectric constant tensor:
#      x y z
#    x 4.723420 0.000000 0.252720 
#    y 0.000000 3.899490 0.000000 
#    z 0.252720 0.000000 4.856340 
# 
# 
# High freq. dielectric constant tensor:
#      x y z
#    x 1.997790 0.000000 0.010480 
#    y 0.000000 1.951540 0.000000 
#    z 0.010480 0.000000 1.993510 
# 
# From -- ./inp_files/75538.got.cif
#   From: 2010.06.25/outbox.cif.g09.slc.cpg/sg15_38_cif.got.tgz:75538.got - 2010.06.28 07:06:18.
