data_PCOD8153411
_publ_section_title
;
Structure prediction by ZEFSAII (Michael W. Deem and Ramdas Pophale) SiO2 
 PCOD8153411
Probable space group: C 2/C
;
_chemical_formula_sum "Si O2"
_cell_formula_units_Z 40
_cell_length_a 16.589744
_cell_length_b 24.601002
_cell_length_c 9.293308
_cell_angle_alpha 90.000000
_cell_angle_beta 31.188266
_cell_angle_gamma 90.000000
_cell_volume 1964.121369
_symmetry_space_group_name_H-M "C 2/C"
_symmetry_group_IT_number 15
_symmetry_cell_setting 'monoclinic'
loop_
_space_group_symop_operation_xyz
x,y,z
-x,y,1/2-z
-x,-y,-z
x,-y,1/2+z
1/2+x,1/2+y,z
1/2-x,1/2+y,1/2-z
1/2-x,1/2-y,-z
1/2+x,1/2-y,1/2+z
loop_
_atom_site_type_symbol
_atom_site_label
_atom_site_fract_x
_atom_site_fract_y
_atom_site_fract_z
Si Si1 0.068108 0.543641 0.499580
Si Si2 0.932893 0.755198 0.197405
Si Si3 0.924587 0.151852 0.213445
Si Si4 0.924037 0.953041 0.519302
Si Si5 0.939329 0.663229 0.689108
O O1 0.249772 0.535801 0.238969
O O2 0.000000 0.500000 0.500000
O O3 0.009747 0.603952 0.549025
O O4 0.000000 0.523852 0.750000
O O5 0.750000 0.750000 0.500000
O O6 0.000000 0.770738 0.250000
O O7 0.980767 0.799580 0.005790
O O8 0.001908 0.698681 0.034248
O O9 0.937898 0.101371 0.088366
O O10 0.746121 0.166073 0.517657
O O11 0.000000 0.136803 0.250000
O O12 0.000000 0.000000 0.500000
O O13 0.000000 0.945207 0.250000
O O14 0.000000 0.685612 0.750000
#
# Coordination Sequence:
#
# PCOD8153411 Si02
#       5
#     8   8   8   8   8
#     4  11  24  45  69  99 136 179 224 275 338 403
#     4  12  26  44  70 104 135 173 229 285 340 402
#     4  12  25  45  70  98 137 183 226 275 341 407
#     4  12  26  44  71 102 139 177 227 285 335 403
#     4  11  23  46  69  95 137 182 225 274 343 405
#
# _framework density 20.365341000000001
#
# number of rings (size 3 to 8) (size 9 to 14) (size 15 to 20)
#    0.000    0.400    4.000    6.000    5.600    0.800 
#    0.000    0.000    0.000    0.000    0.000    0.000 
#    0.000    0.000    0.000    0.000    0.000    0.000 
#
# Total GULP energy -247947.193951 kJ/mol
# GULP energy per Si atom -12397.359698 kJ/mol
# Density = 2.031899 g / cm^3
# Si number density = 20.365341 Si / 1000 Ang^3
#
#
#
# Elastic Constant Matrix: (Units=GPa)
#
#
# Indices 1 2 3 4 5 6 
#
# 1 153.6714 56.8531 79.9700 -0.0001 -6.8781 -0.0003
# 2 56.8531 121.6656 70.7420 0.0000 3.7710 0.0000
# 3 79.9700 70.7420 191.4703 0.0000 -19.6609 -0.0006
# 4 -0.0001 0.0000 0.0000 38.7834 0.0001 3.5153
# 5 -6.8781 3.7710 -19.6609 0.0001 53.5279 0.0004
# 6 -0.0003 0.0000 -0.0006 3.5153 0.0004 28.8616
#
#
#
# Elastic Compliance Matrix: (Units=1/GPa)
#
#
# Indices 1 2 3 4 5 6 
#
# 1 0.008897 -0.002580 -0.002729 0.000000 0.000322 0.000000
# 2 -0.002580 0.011482 -0.003410 0.000000 -0.002393 0.000000
# 3 -0.002729 -0.003410 0.007910 0.000000 0.002795 0.000000
# 4 0.000000 0.000000 0.000000 0.026072 0.000000 -0.003176
# 5 0.000322 -0.002393 0.002795 0.000000 0.019918 0.000000
# 6 0.000000 0.000000 0.000000 -0.003176 0.000000 0.035035
#
#
# Mechanical properties :
#
#
# Convention : Reuss Voigt Hill
#
# Bulk Modulus (GPa) = 92.17856 97.99306 95.08581
# Shear Modulus (GPa) = 38.35232 41.51740 39.93486
#
# Velocity S-wave (km/s) = 4.34431 4.52002 4.43303
# Velocity P-wave (km/s) = 8.39790 8.68693 8.54364
#
# Compressibility (1/GPa) = 0.01084851
#
# Stress axis : x y z
#
# Youngs Moduli (GPa) = 112.39935 87.09202 126.42767
#
# Poissons Ratio (x) = 0.22473 0.34507
# Poissons Ratio (y) = 0.29004 0.43115
# Poissons Ratio (z) = 0.30678 0.29701
#
# Static dielectric constant tensor:
#      x y z
#    x 3.846360 0.000000 0.085560 
#    y 0.000000 3.808410 0.000000 
#    z 0.085560 0.000000 3.895670 
# 
# 
# High freq. dielectric constant tensor:
#      x y z
#    x 1.816360 0.000000 -0.000840 
#    y 0.000000 1.804610 0.000000 
#    z -0.000840 0.000000 1.822570 
# 
# From -- ./inp_files/51668.got.cif
#   From: 2010.06.25/outbox.cif.g09.slc.cpg/sg15_26_cif.got.tgz:51668.got - 2010.06.28 07:06:18.
