data_PCOD8153312
_publ_section_title
;
Structure prediction by ZEFSAII (Michael W. Deem and Ramdas Pophale) SiO2 
 PCOD8153312
Probable space group: C 2/C
;
_chemical_formula_sum "Si O2"
_cell_formula_units_Z 44
_cell_length_a 20.640375
_cell_length_b 10.136850
_cell_length_c 8.470729
_cell_angle_alpha 90.000000
_cell_angle_beta 69.005827
_cell_angle_gamma 90.000000
_cell_volume 1654.665001
_symmetry_space_group_name_H-M "C 2/C"
_symmetry_group_IT_number 15
_symmetry_cell_setting 'monoclinic'
loop_
_space_group_symop_operation_xyz
x,y,z
-x,y,1/2-z
-x,-y,-z
x,-y,1/2+z
1/2+x,1/2+y,z
1/2-x,1/2+y,1/2-z
1/2-x,1/2-y,-z
1/2+x,1/2-y,1/2+z
loop_
_atom_site_type_symbol
_atom_site_label
_atom_site_fract_x
_atom_site_fract_y
_atom_site_fract_z
Si Si1 0.670865 0.087421 0.818921
Si Si2 0.782252 0.129376 0.245703
Si Si3 0.129225 0.976681 0.561862
Si Si4 0.500000 0.369296 0.250000
Si Si5 0.534829 0.737604 0.045169
Si Si6 0.573863 0.995350 0.137361
O O1 0.724256 0.210320 0.753611
O O2 0.609671 0.091347 0.743609
O O3 0.710647 0.947047 0.773864
O O4 0.629576 0.100165 0.022109
O O5 0.807702 0.082916 0.393606
O O6 0.840344 0.094049 0.068480
O O7 0.100865 0.858535 0.477792
O O8 0.066782 0.037815 0.719161
O O9 0.489449 0.289502 0.425418
O O10 0.500000 0.718766 0.250000
O O11 0.558381 0.889714 0.010235
O O12 0.500000 0.061603 0.250000
#
# Coordination Sequence:
#
# PCOD8153312 Si02
#       6
#     8   8   8   4   8   8
#     4  12  29  54  79 118 161 216 283 333 421 508
#     4  12  29  47  81 113 162 219 275 344 407 508
#     4  12  23  45  72 114 159 212 274 333 420 485
#     4  12  24  40  80 122 160 218 276 346 416 502
#     4  11  23  44  75 117 161 209 271 344 419 489
#     4  11  27  52  82 113 162 212 269 351 423 489
#
# _framework density 26.591484000000001
#
# number of rings (size 3 to 8) (size 9 to 14) (size 15 to 20)
#    0.000    0.364    4.545    3.273    5.091    5.818 
#    3.273    0.000    0.000    0.000    0.000    0.000 
#    0.000    0.000    0.000    0.000    0.000    0.000 
#
# Total GULP energy -272674.816088 kJ/mol
# GULP energy per Si atom -12394.309822 kJ/mol
# Density = 2.653096 g / cm^3
# Si number density = 26.591484 Si / 1000 Ang^3
#
#
#
# Elastic Constant Matrix: (Units=GPa)
#
#
# Indices 1 2 3 4 5 6 
#
# 1 112.4277 32.9810 27.9618 0.0000 -3.4476 0.0000
# 2 32.9810 112.3108 28.9213 0.0000 -1.6707 0.0000
# 3 27.9618 28.9213 105.9152 0.0000 9.0703 0.0000
# 4 0.0000 0.0000 0.0000 29.0010 0.0000 -0.9942
# 5 -3.4476 -1.6707 9.0703 0.0000 52.8380 0.0000
# 6 0.0000 0.0000 0.0000 -0.9942 0.0000 36.8907
#
#
#
# Elastic Compliance Matrix: (Units=1/GPa)
#
#
# Indices 1 2 3 4 5 6 
#
# 1 0.010158 -0.002428 -0.002100 0.000000 0.000946 0.000000
# 2 -0.002428 0.010188 -0.002187 0.000000 0.000539 0.000000
# 3 -0.002100 -0.002187 0.010769 0.000000 -0.002055 0.000000
# 4 0.000000 0.000000 0.000000 0.034514 0.000000 0.000930
# 5 0.000946 0.000539 -0.002055 0.000000 0.019357 0.000000
# 6 0.000000 0.000000 0.000000 0.000930 0.000000 0.027132
#
#
# Mechanical properties :
#
#
# Convention : Reuss Voigt Hill
#
# Bulk Modulus (GPa) = 56.54460 56.70911 56.62685
# Shear Modulus (GPa) = 38.03908 39.79855 38.91881
#
# Velocity S-wave (km/s) = 3.78630 3.87287 3.82983
# Velocity P-wave (km/s) = 6.35807 6.43204 6.39516
#
# Compressibility (1/GPa) = 0.01768515
#
# Stress axis : x y z
#
# Youngs Moduli (GPa) = 98.44260 98.15312 92.85875
#
# Poissons Ratio (x) = 0.23834 0.19498
# Poissons Ratio (y) = 0.23904 0.20309
# Poissons Ratio (z) = 0.20671 0.21467
#
# Static dielectric constant tensor:
#      x y z
#    x 4.656350 0.000000 0.110240 
#    y 0.000000 4.806610 0.000000 
#    z 0.110240 0.000000 4.698110 
# 
# 
# High freq. dielectric constant tensor:
#      x y z
#    x 2.065190 0.000000 0.005900 
#    y 0.000000 2.065910 0.000000 
#    z 0.005900 0.000000 2.069990 
# 
# From -- ./inp_files/54342.got.cif
#   From: 2010.06.25/outbox.cif.g09.slc.cpg/sg15_28_cif.got.tgz:54342.got - 2010.06.28 07:06:18.
