data_PCOD8153346
_publ_section_title
;
Structure prediction by ZEFSAII (Michael W. Deem and Ramdas Pophale) SiO2 
 PCOD8153346
Probable space group: C 2/C
;
_chemical_formula_sum "Si O2"
_cell_formula_units_Z 40
_cell_length_a 13.343087
_cell_length_b 11.800779
_cell_length_c 14.477267
_cell_angle_alpha 90.000000
_cell_angle_beta 57.136048
_cell_angle_gamma 90.000000
_cell_volume 1914.753748
_symmetry_space_group_name_H-M "C 2/C"
_symmetry_group_IT_number 15
_symmetry_cell_setting 'monoclinic'
loop_
_space_group_symop_operation_xyz
x,y,z
-x,y,1/2-z
-x,-y,-z
x,-y,1/2+z
1/2+x,1/2+y,z
1/2-x,1/2+y,1/2-z
1/2-x,1/2-y,-z
1/2+x,1/2-y,1/2+z
loop_
_atom_site_type_symbol
_atom_site_label
_atom_site_fract_x
_atom_site_fract_y
_atom_site_fract_z
Si Si1 0.868484 0.505713 0.289129
Si Si2 0.046833 0.910539 0.904446
Si Si3 0.735614 0.478141 0.180013
Si Si4 0.748511 0.769990 0.608649
Si Si5 0.712928 0.377862 0.512593
O O1 0.851471 0.487864 0.188065
O O2 0.853628 0.638361 0.318710
O O3 0.765593 0.434871 0.393513
O O4 0.000000 0.463423 0.250000
O O5 0.123118 0.812743 0.917496
O O6 0.929315 0.863368 0.914694
O O7 0.122021 0.969673 0.787058
O O8 0.000000 0.000000 0.000000
O O9 0.710536 0.346475 0.175287
O O10 0.760987 0.546801 0.073541
O O11 0.750000 0.750000 0.500000
O O12 0.750000 0.250000 0.500000
#
# Coordination Sequence:
#
# PCOD8153346 Si02
#       5
#     8   8   8   8   8
#     4  11  27  45  65 101 139 178 233 285 345 410
#     4  11  23  45  72 101 140 180 232 281 345 420
#     4  11  25  46  72  99 139 184 226 287 352 407
#     4  11  23  45  71 103 134 180 237 282 342 410
#     4  12  27  45  68 104 138 185 232 280 351 417
#
# _framework density 20.890415000000001
#
# number of rings (size 3 to 8) (size 9 to 14) (size 15 to 20)
#    0.000    0.800    6.000    0.600    8.400    5.600 
#    0.000    0.000    0.000    0.000    0.000    0.000 
#    0.000    0.000    0.000    0.000    0.000    0.000 
#
# Total GULP energy -248009.175264 kJ/mol
# GULP energy per Si atom -12400.458763 kJ/mol
# Density = 2.084287 g / cm^3
# Si number density = 20.890415 Si / 1000 Ang^3
#
#
#
# Elastic Constant Matrix: (Units=GPa)
#
#
# Indices 1 2 3 4 5 6 
#
# 1 158.0933 35.5770 45.3404 0.0000 -5.9969 0.0000
# 2 35.5770 157.3620 33.7136 0.0000 7.2132 0.0000
# 3 45.3404 33.7136 68.1534 0.0000 9.3056 0.0000
# 4 0.0000 0.0000 0.0000 32.8091 0.0000 7.2561
# 5 -5.9969 7.2132 9.3056 0.0000 42.0467 0.0000
# 6 0.0000 0.0000 0.0000 7.2561 0.0000 30.7964
#
#
#
# Elastic Compliance Matrix: (Units=1/GPa)
#
#
# Indices 1 2 3 4 5 6 
#
# 1 0.008136 -0.000806 -0.005353 0.000000 0.002483 0.000000
# 2 -0.000806 0.007196 -0.002928 0.000000 -0.000702 0.000000
# 3 -0.005353 -0.002928 0.020332 0.000000 -0.004761 0.000000
# 4 0.000000 0.000000 0.000000 0.032155 0.000000 -0.007576
# 5 0.002483 -0.000702 -0.004761 0.000000 0.025311 0.000000
# 6 0.000000 0.000000 0.000000 -0.007576 0.000000 0.034256
#
#
# Mechanical properties :
#
#
# Convention : Reuss Voigt Hill
#
# Bulk Modulus (GPa) = 57.17246 68.09676 62.63461
# Shear Modulus (GPa) = 33.02684 39.06229 36.04456
#
# Velocity S-wave (km/s) = 3.98044 4.32889 4.15831
# Velocity P-wave (km/s) = 6.96795 7.59299 7.28718
#
# Compressibility (1/GPa) = 0.01749094
#
# Stress axis : x y z
#
# Youngs Moduli (GPa) = 122.90626 138.95684 49.18298
#
# Poissons Ratio (x) = 0.11207 0.26328
# Poissons Ratio (y) = 0.09912 0.14399
# Poissons Ratio (z) = 0.65791 0.40681
#
# Static dielectric constant tensor:
#      x y z
#    x 4.431780 0.000000 -0.158800 
#    y 0.000000 3.898260 0.000000 
#    z -0.158800 0.000000 3.852260 
# 
# 
# High freq. dielectric constant tensor:
#      x y z
#    x 1.832880 0.000000 0.012050 
#    y 0.000000 1.827610 0.000000 
#    z 0.012050 0.000000 1.817560 
# 
# From -- ./inp_files/151502.got.cif
#   From: 2010.06.25/outbox.cif.g09.slc.cpg/sg15_76_cif.got.tgz:151502.got - 2010.06.28 07:06:18.
