data_PCOD8153600
_publ_section_title
;
Structure prediction by ZEFSAII (Michael W. Deem and Ramdas Pophale) SiO2 
 PCOD8153600
Probable space group: C 2/C
;
_chemical_formula_sum "Si O2"
_cell_formula_units_Z 44
_cell_length_a 22.939870
_cell_length_b 6.420812
_cell_length_c 23.769475
_cell_angle_alpha 90.000000
_cell_angle_beta 144.571810
_cell_angle_gamma 90.000000
_cell_volume 2029.506398
_symmetry_space_group_name_H-M "C 2/C"
_symmetry_group_IT_number 15
_symmetry_cell_setting 'monoclinic'
loop_
_space_group_symop_operation_xyz
x,y,z
-x,y,1/2-z
-x,-y,-z
x,-y,1/2+z
1/2+x,1/2+y,z
1/2-x,1/2+y,1/2-z
1/2-x,1/2-y,-z
1/2+x,1/2-y,1/2+z
loop_
_atom_site_type_symbol
_atom_site_label
_atom_site_fract_x
_atom_site_fract_y
_atom_site_fract_z
Si Si1 0.000000 0.021096 0.750000
Si Si2 0.881076 0.358898 0.196563
Si Si3 0.613673 0.868259 0.029175
Si Si4 0.422707 0.099519 0.124574
Si Si5 0.603190 0.205366 0.112390
Si Si6 0.750555 0.026596 0.316049
O O1 0.916250 0.878902 0.715281
O O2 0.941191 0.162308 0.658420
O O3 0.855510 0.471654 0.116973
O O4 0.784987 0.370716 0.161951
O O5 0.969861 0.487778 0.296242
O O6 0.708861 0.741813 0.126917
O O7 0.602298 0.086408 0.052182
O O8 0.634141 0.907779 0.979409
O O9 0.509374 0.741055 0.955480
O O10 0.657193 0.065408 0.201730
O O11 0.660695 0.422015 0.149809
#
# Coordination Sequence:
#
# PCOD8153600 Si02
#       6
#     4   8   8   8   8   8
#     4   8  18  36  62  92 120 164 208 254 318 358
#     4   9  20  37  62  94 129 157 206 267 302 374
#     4  11  24  43  63  90 130 164 210 261 308 379
#     4   9  19  39  64  92 123 166 203 257 324 363
#     4  11  25  42  62  95 124 167 210 260 310 370
#     4  12  23  41  65  93 127 166 213 256 315 374
#
# _framework density 21.680149
#
# number of rings (size 3 to 8) (size 9 to 14) (size 15 to 20)
#    0.000    2.182    3.636    0.545    0.000    8.000 
#    0.000    1.818    0.000    0.000    0.000    0.000 
#    0.000    0.000    0.000    0.000    0.000    0.000 
#
# Total GULP energy -272832.649300 kJ/mol
# GULP energy per Si atom -12401.484059 kJ/mol
# Density = 2.163080 g / cm^3
# Si number density = 21.680149 Si / 1000 Ang^3
#
#
#
# Elastic Constant Matrix: (Units=GPa)
#
#
# Indices 1 2 3 4 5 6 
#
# 1 73.1353 4.6910 26.8537 0.0000 -17.5503 0.0056
# 2 4.6910 79.3342 13.8928 -0.0016 -12.3866 -0.0173
# 3 26.8537 13.8928 85.3579 0.0002 -23.1906 -0.0018
# 4 0.0000 -0.0016 0.0002 18.8055 0.0005 2.1276
# 5 -17.5503 -12.3866 -23.1906 0.0005 41.3896 0.0014
# 6 0.0056 -0.0173 -0.0018 2.1276 0.0014 25.0897
#
#
#
# Elastic Compliance Matrix: (Units=1/GPa)
#
#
# Indices 1 2 3 4 5 6 
#
# 1 0.016227 0.000475 -0.003862 0.000000 0.004859 -0.000004
# 2 0.000475 0.013355 -0.001395 0.000000 0.003417 0.000009
# 3 -0.003862 -0.001395 0.014861 0.000000 0.006272 0.000001
# 4 0.000000 0.000000 0.000000 0.053691 -0.000001 -0.004553
# 5 0.004859 0.003417 0.006272 -0.000001 0.030757 0.000000
# 6 -0.000004 0.000009 0.000001 -0.004553 0.000000 0.040243
#
#
# Mechanical properties :
#
#
# Convention : Reuss Voigt Hill
#
# Bulk Modulus (GPa) = 28.67019 36.52247 32.59633
# Shear Modulus (GPa) = 26.27094 29.88297 28.07695
#
# Velocity S-wave (km/s) = 3.48480 3.71665 3.60259
# Velocity P-wave (km/s) = 5.42629 5.94143 5.68969
#
# Compressibility (1/GPa) = 0.03487944
#
# Stress axis : x y z
#
# Youngs Moduli (GPa) = 61.62597 74.88108 67.28825
#
# Poissons Ratio (x) = -0.03561 0.25989
# Poissons Ratio (y) = -0.02930 0.09386
# Poissons Ratio (z) = 0.23802 0.10445
#
# Static dielectric constant tensor:
#      x y z
#    x 3.916060 0.000000 -0.110870 
#    y 0.000000 3.664110 0.000000 
#    z -0.110870 0.000000 3.763130 
# 
# 
# High freq. dielectric constant tensor:
#      x y z
#    x 1.854480 0.000000 -0.010220 
#    y 0.000000 1.841730 0.000000 
#    z -0.010220 0.000000 1.841460 
# 
# From -- ./inp_files/170789.got.cif
#   From: 2010.06.25/outbox.cif.g09.slc.cpg/sg15_86_cif.got.tgz:170789.got - 2010.06.28 07:06:18.
