data_PCOD8153492
_publ_section_title
;
Structure prediction by ZEFSAII (Michael W. Deem and Ramdas Pophale) SiO2 
 PCOD8153492
Probable space group: C 2/C
;
_chemical_formula_sum "Si O2"
_cell_formula_units_Z 40
_cell_length_a 9.701436
_cell_length_b 10.171305
_cell_length_c 17.327721
_cell_angle_alpha 90.000000
_cell_angle_beta 91.117615
_cell_angle_gamma 90.000000
_cell_volume 1709.509506
_symmetry_space_group_name_H-M "C 2/C"
_symmetry_group_IT_number 15
_symmetry_cell_setting 'monoclinic'
loop_
_space_group_symop_operation_xyz
x,y,z
-x,y,1/2-z
-x,-y,-z
x,-y,1/2+z
1/2+x,1/2+y,z
1/2-x,1/2+y,1/2-z
1/2-x,1/2-y,-z
1/2+x,1/2-y,1/2+z
loop_
_atom_site_type_symbol
_atom_site_label
_atom_site_fract_x
_atom_site_fract_y
_atom_site_fract_z
Si Si1 0.695814 0.639948 0.820411
Si Si2 0.985377 0.121391 0.943745
Si Si3 0.813674 0.451147 0.071021
Si Si4 0.405213 0.154596 0.951872
Si Si5 0.656448 0.917648 0.771095
O O1 0.550895 0.601255 0.859647
O O2 0.803591 0.697551 0.883561
O O3 0.677444 0.759959 0.758769
O O4 0.746545 0.505379 0.782054
O O5 0.820918 0.143558 0.933007
O O6 0.073747 0.238569 0.981394
O O7 0.000000 0.000000 0.000000
O O8 0.804076 0.554955 0.140013
O O9 0.947074 0.362530 0.087332
O O10 0.838580 0.524499 0.989653
O O11 0.500000 0.955821 0.750000
#
# Coordination Sequence:
#
# PCOD8153492 Si02
#       5
#     8   8   8   8   8
#     4  12  27  50  76 105 153 197 246 305 371 440
#     4  12  24  42  75 112 137 182 251 308 358 430
#     4  11  24  45  77 106 143 191 238 305 369 430
#     4  11  23  48  74 107 145 188 244 303 366 432
#     4  12  28  51  71 107 155 198 242 302 374 448
#
# _framework density 23.398523000000001
#
# number of rings (size 3 to 8) (size 9 to 14) (size 15 to 20)
#    0.000    0.400    6.000    2.400    2.800    1.600 
#    3.600    0.000    0.000    0.000    0.000    0.000 
#    0.000    0.000    0.000    0.000    0.000    0.000 
#
# Total GULP energy -247978.841561 kJ/mol
# GULP energy per Si atom -12398.942078 kJ/mol
# Density = 2.334527 g / cm^3
# Si number density = 23.398523 Si / 1000 Ang^3
#
#
#
# Elastic Constant Matrix: (Units=GPa)
#
#
# Indices 1 2 3 4 5 6 
#
# 1 144.1169 40.1568 52.8895 0.0000 -27.5213 0.0000
# 2 40.1568 104.7564 35.5815 0.0000 -27.7774 0.0000
# 3 52.8895 35.5815 79.7119 0.0000 -16.2005 0.0000
# 4 0.0000 0.0000 0.0000 44.4749 0.0000 0.0884
# 5 -27.5213 -27.7774 -16.2005 0.0000 42.9742 0.0000
# 6 0.0000 0.0000 0.0000 0.0884 0.0000 37.6311
#
#
#
# Elastic Compliance Matrix: (Units=1/GPa)
#
#
# Indices 1 2 3 4 5 6 
#
# 1 0.009887 -0.000994 -0.005372 0.000000 0.003664 0.000000
# 2 -0.000994 0.012882 -0.003821 0.000000 0.006250 0.000000
# 3 -0.005372 -0.003821 0.017992 0.000000 0.000873 0.000000
# 4 0.000000 0.000000 0.000000 0.022485 0.000000 -0.000053
# 5 0.003664 0.006250 0.000873 0.000000 0.029985 0.000000
# 6 0.000000 0.000000 0.000000 -0.000053 0.000000 0.026574
#
#
# Mechanical properties :
#
#
# Convention : Reuss Voigt Hill
#
# Bulk Modulus (GPa) = 49.04665 65.09343 57.07004
# Shear Modulus (GPa) = 34.01989 38.34653 36.18321
#
# Velocity S-wave (km/s) = 3.81718 4.05266 3.93668
# Velocity P-wave (km/s) = 6.35884 7.05539 6.71615
#
# Compressibility (1/GPa) = 0.02038875
#
# Stress axis : x y z
#
# Youngs Moduli (GPa) = 101.14478 77.62899 55.57977
#
# Poissons Ratio (x) = 0.07715 0.29855
# Poissons Ratio (y) = 0.10052 0.21235
# Poissons Ratio (z) = 0.54331 0.29659
#
# Static dielectric constant tensor:
#      x y z
#    x 4.717620 0.000000 0.079060 
#    y 0.000000 3.244330 0.000000 
#    z 0.079060 0.000000 4.020840 
# 
# 
# High freq. dielectric constant tensor:
#      x y z
#    x 1.948070 0.000000 0.000290 
#    y 0.000000 1.912550 0.000000 
#    z 0.000290 0.000000 1.920310 
# 
# From -- ./inp_files/187873.got.cif
#   From: 2010.06.25/outbox.cif.g09.slc.cpg/sg15_94_cif.got.tgz:187873.got - 2010.06.28 07:06:18.
