data_PCOD8153438
_publ_section_title
;
Structure prediction by ZEFSAII (Michael W. Deem and Ramdas Pophale) SiO2 
 PCOD8153438
Probable space group: C 2/C
;
_chemical_formula_sum "Si O2"
_cell_formula_units_Z 28
_cell_length_a 7.276569
_cell_length_b 13.860203
_cell_length_c 11.835567
_cell_angle_alpha 90.000000
_cell_angle_beta 104.804200
_cell_angle_gamma 90.000000
_cell_volume 1154.048462
_symmetry_space_group_name_H-M "C 2/C"
_symmetry_group_IT_number 15
_symmetry_cell_setting 'monoclinic'
loop_
_space_group_symop_operation_xyz
x,y,z
-x,y,1/2-z
-x,-y,-z
x,-y,1/2+z
1/2+x,1/2+y,z
1/2-x,1/2+y,1/2-z
1/2-x,1/2-y,-z
1/2+x,1/2-y,1/2+z
loop_
_atom_site_type_symbol
_atom_site_label
_atom_site_fract_x
_atom_site_fract_y
_atom_site_fract_z
Si Si1 0.756190 0.656150 0.320068
Si Si2 0.821243 0.655037 0.066082
Si Si3 0.500000 0.826612 0.250000
Si Si4 0.186845 0.057446 0.839464
O O1 0.772987 0.657075 0.188394
O O2 0.638512 0.751834 0.340663
O O3 0.652139 0.556329 0.328698
O O4 0.953585 0.650261 0.416604
O O5 0.750000 0.750000 0.000000
O O6 0.709968 0.573047 0.977860
O O7 0.623905 0.898189 0.190532
O O8 0.000000 0.106233 0.750000
#
# Coordination Sequence:
#
# PCOD8153438 Si02
#       4
#     8   8   4   8
#     4  11  25  47  72 110 146 190 248 297 366 435
#     4  11  23  46  75 104 149 192 239 306 361 429
#     4  12  24  46  72 108 144 194 242 294 362 438
#     4  12  26  48  74 107 150 191 242 303 363 432
#
# _framework density 24.262412000000001
#
# number of rings (size 3 to 8) (size 9 to 14) (size 15 to 20)
#    0.000    0.571    4.286    4.286    0.000    2.286 
#    5.143    0.000    0.000    0.000    0.000    0.000 
#    0.000    0.000    0.000    0.000    0.000    0.000 
#
# Total GULP energy -173436.551896 kJ/mol
# GULP energy per Si atom -12388.325135 kJ/mol
# Density = 2.420719 g / cm^3
# Si number density = 24.262412 Si / 1000 Ang^3
#
#
#
# Elastic Constant Matrix: (Units=GPa)
#
#
# Indices 1 2 3 4 5 6 
#
# 1 89.4846 -0.8956 31.8667 0.0000 26.5548 0.0000
# 2 -0.8956 98.4968 3.6617 0.0000 -3.6438 0.0000
# 3 31.8667 3.6617 130.5527 0.0000 39.0528 0.0000
# 4 0.0000 0.0000 0.0000 41.2719 0.0000 -0.2935
# 5 26.5548 -3.6438 39.0528 0.0000 40.5762 0.0000
# 6 0.0000 0.0000 0.0000 -0.2935 0.0000 37.9192
#
#
#
# Elastic Compliance Matrix: (Units=1/GPa)
#
#
# Indices 1 2 3 4 5 6 
#
# 1 0.013953 -0.000143 -0.000936 0.000000 -0.008244 0.000000
# 2 -0.000143 0.010246 -0.000780 0.000000 0.001765 0.000000
# 3 -0.000936 -0.000780 0.010880 0.000000 -0.009929 0.000000
# 4 0.000000 0.000000 0.000000 0.024231 0.000000 0.000188
# 5 -0.008244 0.001765 -0.009929 0.000000 0.039755 0.000000
# 6 0.000000 0.000000 0.000000 0.000188 0.000000 0.026373
#
#
# Mechanical properties :
#
#
# Convention : Reuss Voigt Hill
#
# Bulk Modulus (GPa) = 31.88749 43.08885 37.48817
# Shear Modulus (GPa) = 35.81381 42.88022 39.34701
#
# Velocity S-wave (km/s) = 3.84618 4.20855 4.03144
# Velocity P-wave (km/s) = 5.73545 6.43536 6.09546
#
# Compressibility (1/GPa) = 0.03136026
#
# Stress axis : x y z
#
# Youngs Moduli (GPa) = 71.66758 97.60280 91.90934
#
# Poissons Ratio (x) = 0.01399 0.08601
# Poissons Ratio (y) = 0.01027 0.07172
# Poissons Ratio (z) = 0.06707 0.07616
#
# Static dielectric constant tensor:
#      x y z
#    x 4.541700 0.000000 0.407120 
#    y 0.000000 4.408840 0.000000 
#    z 0.407120 0.000000 3.934480 
# 
# 
# High freq. dielectric constant tensor:
#      x y z
#    x 1.965350 0.000000 0.027340 
#    y 0.000000 1.975000 0.000000 
#    z 0.027340 0.000000 1.967860 
# 
# From -- ./inp_files/75038.got.cif
#   From: 2010.06.25/outbox.cif.g09.slc.cpg/sg15_38_cif.got.tgz:75038.got - 2010.06.28 07:06:18.
