data_PCOD8153238
_publ_section_title
;
Structure prediction by ZEFSAII (Michael W. Deem and Ramdas Pophale) SiO2 
 PCOD8153238
Probable space group: C 2/C
;
_chemical_formula_sum "Si O2"
_cell_formula_units_Z 56
_cell_length_a 11.201267
_cell_length_b 9.377920
_cell_length_c 25.748768
_cell_angle_alpha 90.000000
_cell_angle_beta 114.153917
_cell_angle_gamma 90.000000
_cell_volume 2467.964881
_symmetry_space_group_name_H-M "C 2/C"
_symmetry_group_IT_number 15
_symmetry_cell_setting 'monoclinic'
loop_
_space_group_symop_operation_xyz
x,y,z
-x,y,1/2-z
-x,-y,-z
x,-y,1/2+z
1/2+x,1/2+y,z
1/2-x,1/2+y,1/2-z
1/2-x,1/2-y,-z
1/2+x,1/2-y,1/2+z
loop_
_atom_site_type_symbol
_atom_site_label
_atom_site_fract_x
_atom_site_fract_y
_atom_site_fract_z
Si Si1 0.746731 0.469257 0.345910
Si Si2 0.596233 0.711402 0.359318
Si Si3 0.461627 0.273811 0.140522
Si Si4 0.856867 0.989142 0.789131
Si Si5 0.610392 0.990506 0.811000
Si Si6 0.608368 0.820928 0.977353
Si Si7 0.487941 0.876782 0.063732
O O1 0.722687 0.611964 0.375170
O O2 0.668429 0.345584 0.360590
O O3 0.701348 0.494525 0.278751
O O4 0.899071 0.433511 0.377032
O O5 0.470500 0.629332 0.312422
O O6 0.630614 0.852355 0.334930
O O7 0.582657 0.748854 0.417830
O O8 0.588212 0.354287 0.185771
O O9 0.473387 0.268523 0.080128
O O10 0.444861 0.110380 0.153995
O O11 0.745826 0.937711 0.809277
O O12 0.500000 0.994286 0.750000
O O13 0.610137 0.991998 0.966312
O O14 0.750000 0.750000 0.000000
O O15 0.543703 0.801617 0.022094
#
# Coordination Sequence:
#
# PCOD8153238 Si02
#       7
#     8   8   8   8   8   8   8
#     4  11  23  44  68 100 143 177 221 277 345 411
#     4  11  24  42  65 102 139 172 222 275 335 411
#     4  11  23  45  68  97 136 180 226 281 339 399
#     4  11  26  42  66 103 144 180 216 277 348 411
#     4  12  24  39  67  99 134 177 225 269 328 413
#     4  11  24  46  73  96 131 180 237 285 333 397
#     4  11  24  45  72  96 131 183 223 284 348 387
#
# _framework density 22.690760000000001
#
# number of rings (size 3 to 8) (size 9 to 14) (size 15 to 20)
#    0.000    0.857    2.857    5.143    2.000    2.286 
#    0.000    7.143    0.000    0.000    0.000    0.000 
#    0.000    0.000    0.000    0.000    0.000    0.000 
#
# Total GULP energy -347124.360693 kJ/mol
# GULP energy per Si atom -12397.298596 kJ/mol
# Density = 2.263912 g / cm^3
# Si number density = 22.690760 Si / 1000 Ang^3
#
#
#
# Elastic Constant Matrix: (Units=GPa)
#
#
# Indices 1 2 3 4 5 6 
#
# 1 63.6300 31.1898 35.5842 0.0000 -5.8613 0.0000
# 2 31.1898 85.9479 34.4828 0.0000 -7.4930 0.0000
# 3 35.5842 34.4828 125.1437 0.0000 -34.8806 0.0000
# 4 0.0000 0.0000 0.0000 36.8081 0.0000 -9.4207
# 5 -5.8613 -7.4930 -34.8806 0.0000 37.6795 0.0000
# 6 0.0000 0.0000 0.0000 -9.4207 0.0000 41.2231
#
#
#
# Elastic Compliance Matrix: (Units=1/GPa)
#
#
# Indices 1 2 3 4 5 6 
#
# 1 0.021232 -0.005866 -0.005156 0.000000 -0.002636 0.000000
# 2 -0.005866 0.014729 -0.002464 0.000000 -0.000265 0.000000
# 3 -0.005156 -0.002464 0.013175 0.000000 0.010904 0.000000
# 4 0.000000 0.000000 0.000000 0.028856 0.000000 0.006594
# 5 -0.002636 -0.000265 0.010904 0.000000 0.036171 0.000000
# 6 0.000000 0.000000 0.000000 0.006594 0.000000 0.025765
#
#
# Mechanical properties :
#
#
# Convention : Reuss Voigt Hill
#
# Bulk Modulus (GPa) = 45.11844 53.02613 49.07229
# Shear Modulus (GPa) = 28.68805 34.70647 31.69726
#
# Velocity S-wave (km/s) = 3.55956 3.91518 3.74160
# Velocity P-wave (km/s) = 6.06805 6.62253 6.35135
#
# Compressibility (1/GPa) = 0.02216389
#
# Stress axis : x y z
#
# Youngs Moduli (GPa) = 47.09953 67.89149 75.90043
#
# Poissons Ratio (x) = 0.39826 0.39131
# Poissons Ratio (y) = 0.27629 0.18705
# Poissons Ratio (z) = 0.24283 0.16731
#
# Static dielectric constant tensor:
#      x y z
#    x 4.316570 0.000000 -0.275650 
#    y 0.000000 4.202980 0.000000 
#    z -0.275650 0.000000 4.361140 
# 
# 
# High freq. dielectric constant tensor:
#      x y z
#    x 1.897980 0.000000 -0.015800 
#    y 0.000000 1.900930 0.000000 
#    z -0.015800 0.000000 1.898740 
# 
# From -- ./inp_files/291609.got.cif
#   From: 2010.06.25/outbox.cif.g09.slc.cpg/sg15_146_cif.got.tgz:291609.got - 2010.06.28 07:06:18.
