data_PCOD8153381
_publ_section_title
;
Structure prediction by ZEFSAII (Michael W. Deem and Ramdas Pophale) SiO2 
 PCOD8153381
Probable space group: C 2/C
;
_chemical_formula_sum "Si O2"
_cell_formula_units_Z 52
_cell_length_a 17.268484
_cell_length_b 8.506185
_cell_length_c 17.752280
_cell_angle_alpha 90.000000
_cell_angle_beta 107.194807
_cell_angle_gamma 90.000000
_cell_volume 2491.066372
_symmetry_space_group_name_H-M "C 2/C"
_symmetry_group_IT_number 15
_symmetry_cell_setting 'monoclinic'
loop_
_space_group_symop_operation_xyz
x,y,z
-x,y,1/2-z
-x,-y,-z
x,-y,1/2+z
1/2+x,1/2+y,z
1/2-x,1/2+y,1/2-z
1/2-x,1/2-y,-z
1/2+x,1/2-y,1/2+z
loop_
_atom_site_type_symbol
_atom_site_label
_atom_site_fract_x
_atom_site_fract_y
_atom_site_fract_z
Si Si1 0.249071 0.543797 0.824890
Si Si2 0.142056 0.314285 0.698993
Si Si3 0.169369 0.689246 0.938708
Si Si4 0.609828 0.640563 0.064658
Si Si5 0.453032 0.476087 0.597383
Si Si6 0.000000 0.831237 0.250000
Si Si7 0.905903 0.502739 0.958388
O O1 0.196911 0.446753 0.751342
O O2 0.306428 0.656190 0.793008
O O3 0.186612 0.641305 0.858053
O O4 0.302848 0.433698 0.894184
O O5 0.062857 0.282149 0.725931
O O6 0.115387 0.369898 0.608687
O O7 0.101120 0.821642 0.918267
O O8 0.250000 0.750000 0.000000
O O9 0.138700 0.538868 0.976577
O O10 0.545112 0.572217 0.105283
O O11 0.621084 0.826513 0.077632
O O12 0.581007 0.601327 0.972179
O O13 0.451426 0.558587 0.677873
O O14 0.000000 0.500000 0.000000
#
# Coordination Sequence:
#
# PCOD8153381 Si02
#       7
#     8   8   8   8   8   4   8
#     4  12  27  48  71 104 145 182 233 293 357 409
#     4  12  28  47  69 105 146 182 230 295 353 419
#     4  12  25  47  73 104 139 184 234 290 346 418
#     4  11  23  45  75  99 135 192 231 285 345 418
#     4  11  24  45  72 100 140 184 237 281 349 416
#     4  12  28  44  74 104 140 184 238 288 350 422
#     4  12  25  45  74 103 141 185 236 286 344 419
#
# _framework density 20.874592
#
# number of rings (size 3 to 8) (size 9 to 14) (size 15 to 20)
#    0.000    0.308    6.154    1.846    6.462    3.077 
#    0.000    0.000    0.000    0.000    0.000    0.000 
#    0.000    0.000    0.000    0.000    0.000    0.000 
#
# Total GULP energy -322630.453751 kJ/mol
# GULP energy per Si atom -12408.863606 kJ/mol
# Density = 2.082708 g / cm^3
# Si number density = 20.874592 Si / 1000 Ang^3
#
#
#
# Elastic Constant Matrix: (Units=GPa)
#
#
# Indices 1 2 3 4 5 6 
#
# 1 104.0058 25.7335 30.9985 0.0000 -8.3066 0.0000
# 2 25.7335 93.9969 27.6505 0.0000 -3.0084 0.0000
# 3 30.9985 27.6505 93.9921 0.0000 4.3764 0.0000
# 4 0.0000 0.0000 0.0000 35.9920 0.0000 0.1080
# 5 -8.3066 -3.0084 4.3764 0.0000 32.6272 0.0000
# 6 0.0000 0.0000 0.0000 0.1080 0.0000 43.0647
#
#
#
# Elastic Compliance Matrix: (Units=1/GPa)
#
#
# Indices 1 2 3 4 5 6 
#
# 1 0.011351 -0.002039 -0.003290 0.000000 0.003143 0.000000
# 2 -0.002039 0.012091 -0.002930 0.000000 0.000989 0.000000
# 3 -0.003290 -0.002930 0.012717 0.000000 -0.002814 0.000000
# 4 0.000000 0.000000 0.000000 0.027784 0.000000 -0.000070
# 5 0.003143 0.000989 -0.002814 0.000000 0.031918 0.000000
# 6 0.000000 0.000000 0.000000 -0.000070 0.000000 0.023221
#
#
# Mechanical properties :
#
#
# Convention : Reuss Voigt Hill
#
# Bulk Modulus (GPa) = 50.91688 51.19552 51.05620
# Shear Modulus (GPa) = 35.17468 36.17760 35.67614
#
# Velocity S-wave (km/s) = 4.10939 4.16756 4.13858
# Velocity P-wave (km/s) = 6.85280 6.90917 6.88104
#
# Compressibility (1/GPa) = 0.01963985
#
# Stress axis : x y z
#
# Youngs Moduli (GPa) = 88.09796 82.70932 78.63315
#
# Poissons Ratio (x) = 0.16866 0.25871
# Poissons Ratio (y) = 0.17965 0.23042
# Poissons Ratio (z) = 0.28984 0.24236
#
# Static dielectric constant tensor:
#      x y z
#    x 3.785830 0.000000 -0.010590 
#    y 0.000000 3.140170 0.000000 
#    z -0.010590 0.000000 3.823460 
# 
# 
# High freq. dielectric constant tensor:
#      x y z
#    x 1.830040 0.000000 0.002350 
#    y 0.000000 1.828690 0.000000 
#    z 0.002350 0.000000 1.823010 
# 
# From -- ./inp_files/209699.got.cif
#   From: 2010.06.25/outbox.cif.g09.slc.cpg/sg15_105_cif.got.tgz:209699.got - 2010.06.28 07:06:18.
