data_PCOD8153057
_publ_section_title
;
Structure prediction by ZEFSAII (Michael W. Deem and Ramdas Pophale) SiO2 
 PCOD8153057
Probable space group: C 2/C
;
_chemical_formula_sum "Si O2"
_cell_formula_units_Z 60
_cell_length_a 16.469945
_cell_length_b 9.481113
_cell_length_c 17.038430
_cell_angle_alpha 90.000000
_cell_angle_beta 87.002122
_cell_angle_gamma 90.000000
_cell_volume 2656.967823
_symmetry_space_group_name_H-M "C 2/C"
_symmetry_group_IT_number 15
_symmetry_cell_setting 'monoclinic'
loop_
_space_group_symop_operation_xyz
x,y,z
-x,y,1/2-z
-x,-y,-z
x,-y,1/2+z
1/2+x,1/2+y,z
1/2-x,1/2+y,1/2-z
1/2-x,1/2-y,-z
1/2+x,1/2-y,1/2+z
loop_
_atom_site_type_symbol
_atom_site_label
_atom_site_fract_x
_atom_site_fract_y
_atom_site_fract_z
Si Si1 0.742977 0.229939 0.197185
Si Si2 0.023061 0.808110 0.441608
Si Si3 0.500000 0.998384 0.750000
Si Si4 0.602312 0.892924 0.603398
Si Si5 0.780606 0.957218 0.837609
Si Si6 0.960388 0.920097 0.889422
Si Si7 0.130831 0.547147 0.451939
Si Si8 0.585176 0.807649 0.347369
O O1 0.686280 0.153350 0.137343
O O2 0.740237 0.158072 0.282411
O O3 0.718949 0.393388 0.207290
O O4 0.833300 0.216457 0.157456
O O5 0.048664 0.887435 0.518861
O O6 0.093736 0.693704 0.421397
O O7 0.935224 0.729751 0.450326
O O8 0.009878 0.931441 0.376674
O O9 0.422181 0.092198 0.728620
O O10 0.533648 0.911152 0.674327
O O11 0.621810 0.030313 0.547513
O O12 0.872284 0.920633 0.854546
O O13 0.724489 0.962762 0.918653
O O14 0.009161 0.795629 0.846257
O O15 0.080467 0.413501 0.421488
#
# Coordination Sequence:
#
# PCOD8153057 Si02
#       8
#     8   8   4   8   8   8   8   8
#     4  11  26  45  69 100 146 184 232 289 358 416
#     4  11  23  42  69 105 138 177 226 298 347 414
#     4  12  24  42  76 102 134 186 244 284 350 424
#     4  12  23  44  73 105 135 184 238 297 339 418
#     4  11  26  48  69 104 142 189 235 292 350 429
#     4  11  24  44  70 104 146 175 233 291 365 406
#     4  11  24  45  75  99 136 184 247 281 344 422
#     4  11  23  44  69 101 133 189 229 290 347 428
#
# _framework density 22.582132999999999
#
# number of rings (size 3 to 8) (size 9 to 14) (size 15 to 20)
#    0.000    0.800    4.000    3.600    0.000    6.933 
#    0.000    0.000    0.000    0.000    0.000    0.000 
#    0.000    0.000    0.000    0.000    0.000    0.000 
#
# Total GULP energy -371823.012031 kJ/mol
# GULP energy per Si atom -12394.100401 kJ/mol
# Density = 2.253074 g / cm^3
# Si number density = 22.582133 Si / 1000 Ang^3
#
#
#
# Elastic Constant Matrix: (Units=GPa)
#
#
# Indices 1 2 3 4 5 6 
#
# 1 148.8808 67.2608 41.8494 0.0000 21.3998 0.0000
# 2 67.2608 120.3770 39.0029 0.0000 -1.0352 0.0000
# 3 41.8494 39.0029 84.2081 0.0000 1.9130 0.0000
# 4 0.0000 0.0000 0.0000 31.4743 0.0000 4.7036
# 5 21.3998 -1.0352 1.9130 0.0000 35.3869 0.0000
# 6 0.0000 0.0000 0.0000 4.7036 0.0000 44.3686
#
#
#
# Elastic Compliance Matrix: (Units=1/GPa)
#
#
# Indices 1 2 3 4 5 6 
#
# 1 0.010779 -0.005167 -0.002816 0.000000 -0.006518 0.000000
# 2 -0.005167 0.012260 -0.003194 0.000000 0.003656 0.000000
# 3 -0.002816 -0.003194 0.014736 0.000000 0.000813 0.000000
# 4 0.000000 0.000000 0.000000 0.032283 0.000000 -0.003422
# 5 -0.006518 0.003656 0.000813 0.000000 0.032264 0.000000
# 6 0.000000 0.000000 0.000000 -0.003422 0.000000 0.022901
#
#
# Mechanical properties :
#
#
# Convention : Reuss Voigt Hill
#
# Bulk Modulus (GPa) = 64.84160 72.18803 68.51482
# Shear Modulus (GPa) = 32.74015 35.93615 34.33815
#
# Velocity S-wave (km/s) = 3.81179 3.99350 3.90370
# Velocity P-wave (km/s) = 6.93895 7.30071 7.12213
#
# Compressibility (1/GPa) = 0.01542220
#
# Stress axis : x y z
#
# Youngs Moduli (GPa) = 92.77030 81.56321 67.86219
#
# Poissons Ratio (x) = 0.42141 0.19110
# Poissons Ratio (y) = 0.47931 0.21676
# Poissons Ratio (z) = 0.26124 0.26052
#
# Static dielectric constant tensor:
#      x y z
#    x 4.052880 0.000000 0.306920 
#    y 0.000000 4.334290 0.000000 
#    z 0.306920 0.000000 3.925710 
# 
# 
# High freq. dielectric constant tensor:
#      x y z
#    x 1.893060 0.000000 0.022540 
#    y 0.000000 1.899480 0.000000 
#    z 0.022540 0.000000 1.880820 
# 
# From -- ./inp_files/209572.got.cif
#   From: 2010.06.25/outbox.cif.g09.slc.cpg/sg15_105_cif.got.tgz:209572.got - 2010.06.28 07:06:18.
