data_PCOD8153102
_publ_section_title
;
Structure prediction by ZEFSAII (Michael W. Deem and Ramdas Pophale) SiO2 
 PCOD8153102
Probable space group: C 2/C
;
_chemical_formula_sum "Si O2"
_cell_formula_units_Z 60
_cell_length_a 20.426168
_cell_length_b 10.979059
_cell_length_c 18.009030
_cell_angle_alpha 90.000000
_cell_angle_beta 139.189400
_cell_angle_gamma 90.000000
_cell_volume 2639.539891
_symmetry_space_group_name_H-M "C 2/C"
_symmetry_group_IT_number 15
_symmetry_cell_setting 'monoclinic'
loop_
_space_group_symop_operation_xyz
x,y,z
-x,y,1/2-z
-x,-y,-z
x,-y,1/2+z
1/2+x,1/2+y,z
1/2-x,1/2+y,1/2-z
1/2-x,1/2-y,-z
1/2+x,1/2-y,1/2+z
loop_
_atom_site_type_symbol
_atom_site_label
_atom_site_fract_x
_atom_site_fract_y
_atom_site_fract_z
Si Si1 0.160897 0.332077 0.397838
Si Si2 0.445365 0.375053 0.473795
Si Si3 0.500000 0.472022 0.250000
Si Si4 0.017570 0.679987 0.645721
Si Si5 0.330579 0.488580 0.499234
Si Si6 0.506777 0.074190 0.171410
Si Si7 0.813002 0.264687 0.479747
Si Si8 0.620639 0.696846 0.741780
O O1 0.250000 0.250000 0.500000
O O2 0.089546 0.336615 0.406909
O O3 0.216450 0.462934 0.428372
O O4 0.105042 0.278144 0.277225
O O5 0.500000 0.500000 0.500000
O O6 0.516528 0.274605 0.576122
O O7 0.351633 0.404812 0.446031
O O8 0.403301 0.313815 0.364657
O O9 0.584714 0.550992 0.365756
O O10 0.443802 0.392340 0.262955
O O11 0.034391 0.536736 0.638606
O O12 0.350692 0.628581 0.493265
O O13 0.500000 0.017846 0.250000
O O14 0.599303 0.166023 0.249632
O O15 0.407049 0.146773 0.063998
O O16 0.750000 0.250000 0.500000
O O17 0.739541 0.322364 0.354842
#
# Coordination Sequence:
#
# PCOD8153102 Si02
#       8
#     8   8   4   8   8   8   8   8
#     4  11  23  42  74 107 138 184 240 296 359 431
#     4  12  27  50  66  98 153 189 233 300 371 442
#     4  12  22  40  78 102 128 192 250 294 340 424
#     4  11  26  46  70 107 143 183 233 303 366 424
#     4  12  24  44  71 108 142 186 242 300 360 433
#     4  12  20  42  71 102 140 176 234 301 349 415
#     4  12  21  39  72 102 131 183 241 291 351 420
#     4  12  24  44  68 103 139 186 239 292 357 424
#
# _framework density 22.731235999999999
#
# number of rings (size 3 to 8) (size 9 to 14) (size 15 to 20)
#    0.000    0.267    8.667    1.600    1.867    0.533 
#    7.200    0.000    0.000    0.000    0.000    0.000 
#    0.000    0.000    0.000    0.000    0.000    0.000 
#
# Total GULP energy -371849.697853 kJ/mol
# GULP energy per Si atom -12394.989928 kJ/mol
# Density = 2.267950 g / cm^3
# Si number density = 22.731236 Si / 1000 Ang^3
#
#
#
# Elastic Constant Matrix: (Units=GPa)
#
#
# Indices 1 2 3 4 5 6 
#
# 1 60.3755 19.5615 37.3926 0.0000 -6.6948 0.0000
# 2 19.5615 89.2426 25.1819 0.0000 -8.7083 0.0000
# 3 37.3926 25.1819 149.6962 0.0000 -2.7992 0.0000
# 4 0.0000 0.0000 0.0000 41.0126 0.0000 -3.8638
# 5 -6.6948 -8.7083 -2.7992 0.0000 40.7441 0.0000
# 6 0.0000 0.0000 0.0000 -3.8638 0.0000 35.1231
#
#
#
# Elastic Compliance Matrix: (Units=1/GPa)
#
#
# Indices 1 2 3 4 5 6 
#
# 1 0.020658 -0.002989 -0.004612 0.000000 0.002439 0.000000
# 2 -0.002989 0.012432 -0.001306 0.000000 0.002076 0.000000
# 3 -0.004612 -0.001306 0.008043 0.000000 -0.000484 0.000000
# 4 0.000000 0.000000 0.000000 0.024638 0.000000 0.002710
# 5 0.002439 0.002076 -0.000484 0.000000 0.025355 0.000000
# 6 0.000000 0.000000 0.000000 0.002710 0.000000 0.028769
#
#
# Mechanical properties :
#
#
# Convention : Reuss Voigt Hill
#
# Bulk Modulus (GPa) = 42.88256 51.50960 47.19608
# Shear Modulus (GPa) = 34.36881 37.85451 36.11166
#
# Velocity S-wave (km/s) = 3.89262 4.08525 3.99009
# Velocity P-wave (km/s) = 6.25374 6.70535 6.48348
#
# Compressibility (1/GPa) = 0.02331950
#
# Stress axis : x y z
#
# Youngs Moduli (GPa) = 48.40731 80.44011 124.33500
#
# Poissons Ratio (x) = 0.24042 0.57341
# Poissons Ratio (y) = 0.14468 0.16236
# Poissons Ratio (z) = 0.22324 0.10504
#
# Static dielectric constant tensor:
#      x y z
#    x 3.268590 0.000000 -0.857340 
#    y 0.000000 4.630230 0.000000 
#    z -0.857340 0.000000 3.015430 
# 
# 
# High freq. dielectric constant tensor:
#      x y z
#    x 1.868020 0.000000 0.018000 
#    y 0.000000 1.911980 0.000000 
#    z 0.018000 0.000000 1.910360 
# 
# From -- ./inp_files/215231.got.cif
#   From: 2010.06.25/outbox.cif.g09.slc.cpg/sg15_108_cif.got.tgz:215231.got - 2010.06.28 07:06:18.
