data_PCOD8153090
_publ_section_title
;
Structure prediction by ZEFSAII (Michael W. Deem and Ramdas Pophale) SiO2 
 PCOD8153090
Probable space group: C 2/C
;
_chemical_formula_sum "Si O2"
_cell_formula_units_Z 52
_cell_length_a 13.255834
_cell_length_b 23.983222
_cell_length_c 9.337105
_cell_angle_alpha 90.000000
_cell_angle_beta 117.520185
_cell_angle_gamma 90.000000
_cell_volume 2632.546616
_symmetry_space_group_name_H-M "C 2/C"
_symmetry_group_IT_number 15
_symmetry_cell_setting 'monoclinic'
loop_
_space_group_symop_operation_xyz
x,y,z
-x,y,1/2-z
-x,-y,-z
x,-y,1/2+z
1/2+x,1/2+y,z
1/2-x,1/2+y,1/2-z
1/2-x,1/2-y,-z
1/2+x,1/2-y,1/2+z
loop_
_atom_site_type_symbol
_atom_site_label
_atom_site_fract_x
_atom_site_fract_y
_atom_site_fract_z
Si Si1 0.500000 0.128709 0.750000
Si Si2 0.407316 0.402944 0.976551
Si Si3 0.100463 0.534390 0.993968
Si Si4 0.868198 0.187018 0.204548
Si Si5 0.251518 0.002000 0.174862
Si Si6 0.844539 0.892651 0.257903
Si Si7 0.719622 0.192743 0.832012
O O1 0.451143 0.092357 0.588866
O O2 0.595335 0.167747 0.750001
O O3 0.363215 0.360945 0.823203
O O4 0.369031 0.467535 0.930984
O O5 0.358890 0.387829 0.098985
O O6 0.542740 0.400920 0.072998
O O7 0.191056 0.545296 0.177446
O O8 0.165333 0.503244 0.906375
O O9 0.000000 0.500000 0.000000
O O10 0.799559 0.242074 0.210183
O O11 0.000000 0.199088 0.250000
O O12 0.794177 0.171262 0.016979
O O13 0.238029 0.942260 0.243292
O O14 0.788930 0.832522 0.246033
#
# Coordination Sequence:
#
# PCOD8153090 Si02
#       7
#     4   8   8   8   8   8   8
#     4  12  22  38  66  96 126 172 214 264 314 394
#     4  11  25  40  64  94 130 167 219 263 330 383
#     4  12  22  38  62  89 129 170 209 264 319 382
#     4  11  23  44  69  96 126 170 218 281 319 393
#     4  12  23  41  60  93 131 171 215 261 325 395
#     4  11  23  43  63  94 131 174 208 272 323 386
#     4  11  23  42  71  95 128 167 222 264 335 381
#
# _framework density 19.752737
#
# number of rings (size 3 to 8) (size 9 to 14) (size 15 to 20)
#    0.000    0.615    6.923    1.385    0.000    0.615 
#    2.769    0.000    0.000    0.000    0.000    0.000 
#    0.000    0.000    0.000    0.000    0.000    0.000 
#
# Total GULP energy -322132.671878 kJ/mol
# GULP energy per Si atom -12389.718149 kJ/mol
# Density = 1.970778 g / cm^3
# Si number density = 19.752737 Si / 1000 Ang^3
#
#
#
# Elastic Constant Matrix: (Units=GPa)
#
#
# Indices 1 2 3 4 5 6 
#
# 1 104.8483 29.1592 21.5385 0.0000 -1.2772 0.0000
# 2 29.1592 70.3847 12.8580 0.0000 -9.3344 0.0000
# 3 21.5385 12.8580 73.7743 0.0000 0.5341 0.0000
# 4 0.0000 0.0000 0.0000 30.2142 0.0000 8.1753
# 5 -1.2772 -9.3344 0.5341 0.0000 24.9720 0.0000
# 6 0.0000 0.0000 0.0000 8.1753 0.0000 36.3750
#
#
#
# Elastic Compliance Matrix: (Units=1/GPa)
#
#
# Indices 1 2 3 4 5 6 
#
# 1 0.011248 -0.004330 -0.002522 0.000000 -0.000989 0.000000
# 2 -0.004330 0.017151 -0.001770 0.000000 0.006227 0.000000
# 3 -0.002522 -0.001770 0.014608 0.000000 -0.001103 0.000000
# 4 0.000000 0.000000 0.000000 0.035240 0.000000 -0.007920
# 5 -0.000989 0.006227 -0.001103 0.000000 0.042346 0.000000
# 6 0.000000 0.000000 0.000000 -0.007920 0.000000 0.029271
#
#
# Mechanical properties :
#
#
# Convention : Reuss Voigt Hill
#
# Bulk Modulus (GPa) = 38.81724 41.79097 40.30410
# Shear Modulus (GPa) = 28.45835 30.67567 29.56701
#
# Velocity S-wave (km/s) = 3.79981 3.94507 3.87312
# Velocity P-wave (km/s) = 6.24065 6.47722 6.36003
#
# Compressibility (1/GPa) = 0.02576175
#
# Stress axis : x y z
#
# Youngs Moduli (GPa) = 88.90549 58.30621 68.45744
#
# Poissons Ratio (x) = 0.25248 0.17265
# Poissons Ratio (y) = 0.38499 0.12117
# Poissons Ratio (z) = 0.22421 0.10320
#
# Static dielectric constant tensor:
#      x y z
#    x 3.764030 0.000000 0.175650 
#    y 0.000000 3.749990 0.000000 
#    z 0.175650 0.000000 3.811580 
# 
# 
# High freq. dielectric constant tensor:
#      x y z
#    x 1.783190 0.000000 0.011610 
#    y 0.000000 1.763670 0.000000 
#    z 0.011610 0.000000 1.778820 
# 
# From -- ./inp_files/42309.got.cif
#   From: 2010.06.25/outbox.cif.g09.slc.cpg/sg15_22_cif.got.tgz:42309.got - 2010.06.28 07:06:18.
