data_PCOD8153110
_publ_section_title
;
Structure prediction by ZEFSAII (Michael W. Deem and Ramdas Pophale) SiO2 
 PCOD8153110
Probable space group: C 2/C
;
_chemical_formula_sum "Si O2"
_cell_formula_units_Z 48
_cell_length_a 27.510280
_cell_length_b 15.483057
_cell_length_c 8.767754
_cell_angle_alpha 90.000000
_cell_angle_beta 143.746570
_cell_angle_gamma 90.000000
_cell_volume 2208.464897
_symmetry_space_group_name_H-M "C 2/C"
_symmetry_group_IT_number 15
_symmetry_cell_setting 'monoclinic'
loop_
_space_group_symop_operation_xyz
x,y,z
-x,y,1/2-z
-x,-y,-z
x,-y,1/2+z
1/2+x,1/2+y,z
1/2-x,1/2+y,1/2-z
1/2-x,1/2-y,-z
1/2+x,1/2-y,1/2+z
loop_
_atom_site_type_symbol
_atom_site_label
_atom_site_fract_x
_atom_site_fract_y
_atom_site_fract_z
Si Si1 0.285576 0.586418 0.948104
Si Si2 0.771800 0.576318 0.370771
Si Si3 0.970412 0.084829 0.504585
Si Si4 0.780412 0.744713 0.903569
Si Si5 0.470467 0.762501 0.848629
Si Si6 0.040525 0.421776 0.190933
O O1 0.280954 0.504594 0.823783
O O2 0.271834 0.672992 0.816992
O O3 0.222940 0.577266 0.931684
O O4 0.373049 0.592816 0.250402
O O5 0.730623 0.663435 0.204835
O O6 0.863315 0.563480 0.540440
O O7 0.000000 0.077779 0.750000
O O8 0.011191 0.169240 0.528973
O O9 0.000000 0.000000 0.500000
O O10 0.750000 0.750000 0.000000
O O11 0.875026 0.715002 0.131268
O O12 0.500000 0.758889 0.750000
O O13 0.527478 0.833144 0.070024
O O14 0.000000 0.413336 0.250000
O O15 0.000000 0.500000 0.000000
#
# Coordination Sequence:
#
# PCOD8153110 Si02
#       6
#     8   8   8   8   8   8
#     4  12  24  43  67  96 131 173 217 271 328 390
#     4  12  24  42  65  94 129 171 217 270 328 390
#     4  11  24  42  65  94 127 167 212 263 322 385
#     4  12  25  43  66  98 132 171 218 271 329 393
#     4  11  23  43  65  92 127 168 213 264 319 384
#     4  12  24  41  63  92 125 166 212 263 319 382
#
# _framework density 21.734555
#
# number of rings (size 3 to 8) (size 9 to 14) (size 15 to 20)
#    0.000    0.333    0.000   11.000    0.000    2.000 
#    0.000    0.000    0.000    0.000    0.000    0.000 
#    0.000    0.000    0.000    0.000    0.000    0.000 
#
# Total GULP energy -297748.346818 kJ/mol
# GULP energy per Si atom -12406.181117 kJ/mol
# Density = 2.168509 g / cm^3
# Si number density = 21.734555 Si / 1000 Ang^3
#
#
#
# Elastic Constant Matrix: (Units=GPa)
#
#
# Indices 1 2 3 4 5 6 
#
# 1 124.1987 24.1283 32.2731 0.0000 -8.6812 0.0000
# 2 24.1283 173.3976 44.5402 0.0000 -23.0502 0.0000
# 3 32.2731 44.5402 120.3835 0.0000 10.2294 0.0000
# 4 0.0000 0.0000 0.0000 38.2112 0.0000 1.0337
# 5 -8.6812 -23.0502 10.2294 0.0000 45.3059 0.0000
# 6 0.0000 0.0000 0.0000 1.0337 0.0000 31.5381
#
#
#
# Elastic Compliance Matrix: (Units=1/GPa)
#
#
# Indices 1 2 3 4 5 6 
#
# 1 0.008896 -0.000334 -0.002438 0.000000 0.002085 0.000000
# 2 -0.000334 0.007119 -0.002902 0.000000 0.004213 0.000000
# 3 -0.002438 -0.002902 0.010399 0.000000 -0.004292 0.000000
# 4 0.000000 0.000000 0.000000 0.026194 0.000000 -0.000859
# 5 0.002085 0.004213 -0.004292 0.000000 0.025584 0.000000
# 6 0.000000 0.000000 0.000000 -0.000859 0.000000 0.031736
#
#
# Mechanical properties :
#
#
# Convention : Reuss Voigt Hill
#
# Bulk Modulus (GPa) = 66.38361 68.87367 67.62864
# Shear Modulus (GPa) = 39.58850 44.14693 41.86771
#
# Velocity S-wave (km/s) = 4.27248 4.51176 4.39375
# Velocity P-wave (km/s) = 7.41269 7.67454 7.54475
#
# Compressibility (1/GPa) = 0.01506396
#
# Stress axis : x y z
#
# Youngs Moduli (GPa) = 112.41127 140.46458 96.16315
#
# Poissons Ratio (x) = 0.04697 0.23448
# Poissons Ratio (y) = 0.03759 0.27910
# Poissons Ratio (z) = 0.27409 0.40768
#
# Static dielectric constant tensor:
#      x y z
#    x 4.221750 0.000000 0.179790 
#    y 0.000000 4.027640 0.000000 
#    z 0.179790 0.000000 4.088580 
# 
# 
# High freq. dielectric constant tensor:
#      x y z
#    x 1.861360 0.000000 0.002300 
#    y 0.000000 1.878970 0.000000 
#    z 0.002300 0.000000 1.867360 
# 
# From -- ./inp_files/66510.got.cif
#   From: 2010.06.25/outbox.cif.g09.slc.cpg/sg15_34_cif.got.tgz:66510.got - 2010.06.28 07:06:18.
