data_PCOD8153373
_publ_section_title
;
Structure prediction by ZEFSAII (Michael W. Deem and Ramdas Pophale) SiO2 
 PCOD8153373
Probable space group: C 2/C
;
_chemical_formula_sum "Si O2"
_cell_formula_units_Z 52
_cell_length_a 26.299171
_cell_length_b 9.803941
_cell_length_c 10.745452
_cell_angle_alpha 90.000000
_cell_angle_beta 52.770346
_cell_angle_gamma 90.000000
_cell_volume 2205.966054
_symmetry_space_group_name_H-M "C 2/C"
_symmetry_group_IT_number 15
_symmetry_cell_setting 'monoclinic'
loop_
_space_group_symop_operation_xyz
x,y,z
-x,y,1/2-z
-x,-y,-z
x,-y,1/2+z
1/2+x,1/2+y,z
1/2-x,1/2+y,1/2-z
1/2-x,1/2-y,-z
1/2+x,1/2-y,1/2+z
loop_
_atom_site_type_symbol
_atom_site_label
_atom_site_fract_x
_atom_site_fract_y
_atom_site_fract_z
Si Si1 0.164913 0.563992 0.446633
Si Si2 0.812439 0.059441 0.262888
Si Si3 0.128565 0.265848 0.516189
Si Si4 0.629183 0.271704 0.290405
Si Si5 0.605624 0.281811 0.695229
Si Si6 0.988326 0.180278 0.935883
Si Si7 0.000000 0.940424 0.750000
O O1 0.237443 0.536767 0.376974
O O2 0.134429 0.419521 0.457947
O O3 0.158879 0.658535 0.335366
O O4 0.127804 0.632414 0.618570
O O5 0.832405 0.125530 0.366630
O O6 0.850301 0.918327 0.186901
O O7 0.830424 0.161638 0.125821
O O8 0.157798 0.251438 0.610683
O O9 0.051643 0.231192 0.628785
O O10 0.552940 0.249895 0.386584
O O11 0.563803 0.348161 0.645825
O O12 0.563043 0.283226 0.882246
O O13 0.002561 0.021655 0.878175
#
# Coordination Sequence:
#
# PCOD8153373 Si02
#       7
#     8   8   8   8   8   8   4
#     4  12  29  47  67 110 152 198 242 292 382 441
#     4  11  26  48  76 102 143 200 255 300 349 440
#     4  11  27  49  72 110 149 190 243 312 371 439
#     4  12  26  48  79 106 145 196 245 312 362 436
#     4  11  25  41  74 105 143 189 242 310 361 429
#     4  11  23  45  74 107 143 183 248 302 369 427
#     4  12  20  44  72 116 140 180 254 310 362 434
#
# _framework density 23.572437999999998
#
# number of rings (size 3 to 8) (size 9 to 14) (size 15 to 20)
#    0.000    0.615    3.077    2.769   12.923    3.077 
#    5.538    0.000    0.000    0.000    0.000    0.000 
#    0.000    0.000    0.000    0.000    0.000    0.000 
#
# Total GULP energy -322368.551963 kJ/mol
# GULP energy per Si atom -12398.790460 kJ/mol
# Density = 2.351879 g / cm^3
# Si number density = 23.572438 Si / 1000 Ang^3
#
#
#
# Elastic Constant Matrix: (Units=GPa)
#
#
# Indices 1 2 3 4 5 6 
#
# 1 126.2412 23.3097 14.4444 0.0000 -20.1002 0.0000
# 2 23.3097 143.1021 27.4912 0.0000 -8.7872 0.0000
# 3 14.4444 27.4912 68.6008 0.0000 -4.2448 0.0000
# 4 0.0000 0.0000 0.0000 32.4781 0.0000 2.7299
# 5 -20.1002 -8.7872 -4.2448 0.0000 38.9421 0.0000
# 6 0.0000 0.0000 0.0000 2.7299 0.0000 25.9406
#
#
#
# Elastic Compliance Matrix: (Units=1/GPa)
#
#
# Indices 1 2 3 4 5 6 
#
# 1 0.008916 -0.000955 -0.001232 0.000000 0.004252 0.000000
# 2 -0.000955 0.007748 -0.002846 0.000000 0.000946 0.000000
# 3 -0.001232 -0.002846 0.016006 0.000000 0.000467 0.000000
# 4 0.000000 0.000000 0.000000 0.031065 0.000000 -0.003269
# 5 0.004252 0.000946 0.000467 0.000000 0.028138 0.000000
# 6 0.000000 0.000000 0.000000 -0.003269 0.000000 0.038894
#
#
# Mechanical properties :
#
#
# Convention : Reuss Voigt Hill
#
# Bulk Modulus (GPa) = 44.23600 52.04832 48.14216
# Shear Modulus (GPa) = 33.70076 37.65209 35.67642
#
# Velocity S-wave (km/s) = 3.78520 4.00095 3.89457
# Velocity P-wave (km/s) = 6.15714 6.59330 6.37895
#
# Compressibility (1/GPa) = 0.02260602
#
# Stress axis : x y z
#
# Youngs Moduli (GPa) = 112.16357 129.06200 62.47802
#
# Poissons Ratio (x) = 0.12319 0.07695
# Poissons Ratio (y) = 0.10706 0.17778
# Poissons Ratio (z) = 0.13814 0.36725
#
# Static dielectric constant tensor:
#      x y z
#    x 4.771930 0.000000 0.165340 
#    y 0.000000 4.113030 0.000000 
#    z 0.165340 0.000000 4.117890 
# 
# 
# High freq. dielectric constant tensor:
#      x y z
#    x 1.960140 0.000000 0.010220 
#    y 0.000000 1.918960 0.000000 
#    z 0.010220 0.000000 1.937860 
# 
# From -- ./inp_files/121822.got.cif
#   From: 2010.06.25/outbox.cif.g09.slc.cpg/sg15_61_cif.got.tgz:121822.got - 2010.06.28 07:06:18.
