data_PCOD8153281
_publ_section_title
;
Structure prediction by ZEFSAII (Michael W. Deem and Ramdas Pophale) SiO2 
 PCOD8153281
Probable space group: C 2/C
;
_chemical_formula_sum "Si O2"
_cell_formula_units_Z 56
_cell_length_a 7.832751
_cell_length_b 22.260304
_cell_length_c 14.589579
_cell_angle_alpha 90.000000
_cell_angle_beta 110.433813
_cell_angle_gamma 90.000000
_cell_volume 2383.762816
_symmetry_space_group_name_H-M "C 2/C"
_symmetry_group_IT_number 15
_symmetry_cell_setting 'monoclinic'
loop_
_space_group_symop_operation_xyz
x,y,z
-x,y,1/2-z
-x,-y,-z
x,-y,1/2+z
1/2+x,1/2+y,z
1/2-x,1/2+y,1/2-z
1/2-x,1/2-y,-z
1/2+x,1/2-y,1/2+z
loop_
_atom_site_type_symbol
_atom_site_label
_atom_site_fract_x
_atom_site_fract_y
_atom_site_fract_z
Si Si1 0.328573 0.948761 0.602675
Si Si2 0.000000 0.256798 0.750000
Si Si3 0.278927 0.061908 0.362093
Si Si4 0.000000 0.153986 0.250000
Si Si5 0.668442 0.327041 0.608161
Si Si6 0.336572 0.080773 0.585561
Si Si7 0.762776 0.430233 0.380966
Si Si8 0.968896 0.838116 0.386829
O O1 0.538424 0.936759 0.665401
O O2 0.188903 0.899981 0.616834
O O3 0.334587 0.943403 0.494763
O O4 0.273772 0.016907 0.618418
O O5 0.860029 0.295458 0.663454
O O6 0.097811 0.215465 0.691646
O O7 0.174899 0.112823 0.289178
O O8 0.289616 0.081707 0.469629
O O9 0.193330 0.995190 0.331834
O O10 0.029438 0.193149 0.163159
O O11 0.584441 0.310319 0.493676
O O12 0.555153 0.092140 0.640849
O O13 0.215221 0.130059 0.614358
O O14 0.600098 0.381747 0.350699
#
# Coordination Sequence:
#
# PCOD8153281 Si02
#       8
#     8   4   8   4   8   8   8   8
#     4   8  17  35  65  90 132 172 205 270 340 401
#     4  12  28  49  66  90 131 182 242 282 330 388
#     4   9  17  32  56  99 138 164 207 262 332 413
#     4  12  22  33  62  98 131 166 224 276 324 404
#     4  11  24  44  66  95 129 175 232 279 333 395
#     4   9  17  37  65 101 132 170 210 266 347 404
#     4   8  18  34  62  97 132 171 210 259 334 409
#     4  11  23  44  72  93 131 179 223 283 337 391
#
# _framework density 23.492269
#
# number of rings (size 3 to 8) (size 9 to 14) (size 15 to 20)
#    0.000    2.286    1.429    3.000    2.000    2.286 
#    2.571    0.714    0.000    0.000    0.000    0.000 
#    0.000    0.000    0.000    0.000    0.000    0.000 
#
# Total GULP energy -346887.410921 kJ/mol
# GULP energy per Si atom -12388.836104 kJ/mol
# Density = 2.343880 g / cm^3
# Si number density = 23.492269 Si / 1000 Ang^3
#
#
#
# Elastic Constant Matrix: (Units=GPa)
#
#
# Indices 1 2 3 4 5 6 
#
# 1 77.9272 14.6629 10.1171 0.0000 -16.1176 0.0000
# 2 14.6629 54.1588 23.9863 0.0000 -11.0792 0.0000
# 3 10.1171 23.9863 47.4750 0.0000 -13.2896 0.0000
# 4 0.0000 0.0000 0.0000 -2.0636 0.0000 8.0756
# 5 -16.1176 -11.0792 -13.2896 0.0000 30.9154 0.0000
# 6 0.0000 0.0000 0.0000 8.0756 0.0000 27.1655
#
#
#
# Elastic Compliance Matrix: (Units=1/GPa)
#
#
# Indices 1 2 3 4 5 6 
#
# 1 0.014717 -0.002641 0.000092 0.000000 0.006766 0.000000
# 2 -0.002641 0.024664 -0.011151 0.000000 0.002668 0.000000
# 3 0.000092 -0.011151 0.029071 0.000000 0.008548 0.000000
# 4 0.000000 0.000000 0.000000 -0.224004 0.000000 0.066590
# 5 0.006766 0.002668 0.008548 0.000000 0.040504 0.000000
# 6 0.000000 0.000000 0.000000 0.066590 0.000000 0.017016
#
#
# Mechanical properties :
#
#
# Convention : Reuss Voigt Hill
#
# Bulk Modulus (GPa) = 24.36003 30.78818 27.57410
# Shear Modulus (GPa) = -87.80110 19.92311 -33.93900
#
# Velocity S-wave (km/s) = -6.12010 2.91532 -3.80503
# Velocity P-wave (km/s) = 6.28879 4.94634 2.74615
#
# Compressibility (1/GPa) = 0.04105086
#
# Stress axis : x y z
#
# Youngs Moduli (GPa) = 67.94947 40.54497 34.39829
#
# Poissons Ratio (x) = 0.10709 -0.00317
# Poissons Ratio (y) = 0.17947 0.38359
# Poissons Ratio (z) = -0.00626 0.45214
#
# Static dielectric constant tensor:
#      x y z
#    x 4.116500 0.000000 -0.359050 
#    y 0.000000 4.095450 0.000000 
#    z -0.359050 0.000000 7.599370 
# 
# 
# High freq. dielectric constant tensor:
#      x y z
#    x 1.924340 0.000000 -0.009820 
#    y 0.000000 1.899410 0.000000 
#    z -0.009820 0.000000 1.940430 
# 
# From -- ./inp_files/137511.got.cif
#   From: 2010.06.25/outbox.cif.g09.slc.cpg/sg15_69_cif.got.tgz:137511.got - 2010.06.28 07:06:18.
