data_PCOD8153872
_publ_section_title
;
Structure prediction by ZEFSAII (Michael W. Deem and Ramdas Pophale) SiO2 
 PCOD8153872
Probable space group: C 2/C
;
_chemical_formula_sum "Si O2"
_cell_formula_units_Z 36
_cell_length_a 10.431967
_cell_length_b 11.130324
_cell_length_c 14.319129
_cell_angle_alpha 90.000000
_cell_angle_beta 116.198846
_cell_angle_gamma 90.000000
_cell_volume 1491.806294
_symmetry_space_group_name_H-M "C 2/C"
_symmetry_group_IT_number 15
_symmetry_cell_setting 'monoclinic'
loop_
_space_group_symop_operation_xyz
x,y,z
-x,y,1/2-z
-x,-y,-z
x,-y,1/2+z
1/2+x,1/2+y,z
1/2-x,1/2+y,1/2-z
1/2-x,1/2-y,-z
1/2+x,1/2-y,1/2+z
loop_
_atom_site_type_symbol
_atom_site_label
_atom_site_fract_x
_atom_site_fract_y
_atom_site_fract_z
Si Si1 0.706052 0.891753 0.780357
Si Si2 0.201901 0.359159 0.577029
Si Si3 0.505661 0.478633 0.893251
Si Si4 0.000000 0.812844 0.250000
Si Si5 0.874420 0.632642 0.644468
O O1 0.641713 0.913951 0.654627
O O2 0.641601 0.770372 0.803625
O O3 0.663143 0.000200 0.833161
O O4 0.877836 0.885969 0.825757
O O5 0.346932 0.423134 0.591845
O O6 0.087716 0.371613 0.455229
O O7 0.236517 0.218994 0.609405
O O8 0.484832 0.606555 0.836827
O O9 0.500000 0.500000 0.000000
O O10 0.000000 0.684723 0.750000
#
# Coordination Sequence:
#
# PCOD8153872 Si02
#       5
#     8   8   8   4   8
#     4  12  24  47  73 106 150 190 250 314 368 451
#     4  11  25  45  76 104 144 205 246 308 384 448
#     4  12  25  48  76 107 150 201 252 311 380 446
#     4  12  28  48  74 114 152 198 254 314 376 452
#     4  11  24  46  69 106 144 189 251 305 375 448
#
# _framework density 24.131817999999999
#
# number of rings (size 3 to 8) (size 9 to 14) (size 15 to 20)
#    0.000    0.444    5.556    2.667    3.111    1.778 
#    0.000    0.000    0.000    0.000    0.000    0.000 
#    0.000    0.000    0.000    0.000    0.000    0.000 
#
# Total GULP energy -223143.309404 kJ/mol
# GULP energy per Si atom -12396.850522 kJ/mol
# Density = 2.407689 g / cm^3
# Si number density = 24.131818 Si / 1000 Ang^3
#
#
#
# Elastic Constant Matrix: (Units=GPa)
#
#
# Indices 1 2 3 4 5 6 
#
# 1 71.9315 36.8807 28.5187 0.0000 -3.9128 0.0000
# 2 36.8807 147.3866 47.3335 0.0000 -7.0267 0.0000
# 3 28.5187 47.3335 192.3832 0.0000 -16.6075 0.0000
# 4 0.0000 0.0000 0.0000 36.3253 0.0000 -0.5754
# 5 -3.9128 -7.0267 -16.6075 0.0000 43.1514 0.0000
# 6 0.0000 0.0000 0.0000 -0.5754 0.0000 23.5126
#
#
#
# Elastic Compliance Matrix: (Units=1/GPa)
#
#
# Indices 1 2 3 4 5 6 
#
# 1 0.016362 -0.003593 -0.001514 0.000000 0.000316 0.000000
# 2 -0.003593 0.008167 -0.001438 0.000000 0.000451 0.000000
# 3 -0.001514 -0.001438 0.005942 0.000000 0.001915 0.000000
# 4 0.000000 0.000000 0.000000 0.027540 0.000000 0.000674
# 5 0.000316 0.000451 0.001915 0.000000 0.024013 0.000000
# 6 0.000000 0.000000 0.000000 0.000674 0.000000 0.042547
#
#
# Mechanical properties :
#
#
# Convention : Reuss Voigt Hill
#
# Bulk Modulus (GPa) = 57.53573 70.79634 64.16603
# Shear Modulus (GPa) = 34.85437 40.52908 37.69172
#
# Velocity S-wave (km/s) = 3.80456 4.10260 3.95639
# Velocity P-wave (km/s) = 6.57218 7.20019 6.89334
#
# Compressibility (1/GPa) = 0.01738050
#
# Stress axis : x y z
#
# Youngs Moduli (GPa) = 61.11807 122.44093 168.30645
#
# Poissons Ratio (x) = 0.43991 0.25485
# Poissons Ratio (y) = 0.21959 0.24201
# Poissons Ratio (z) = 0.09255 0.17606
#
# Static dielectric constant tensor:
#      x y z
#    x 4.737110 0.000000 -0.323350 
#    y 0.000000 4.520210 0.000000 
#    z -0.323350 0.000000 5.706440 
# 
# 
# High freq. dielectric constant tensor:
#      x y z
#    x 1.941990 0.000000 -0.017900 
#    y 0.000000 1.963080 0.000000 
#    z -0.017900 0.000000 1.976020 
# 
# From -- ./inp_files/142032.got.cif
#   From: 2010.06.25/outbox.cif.g09.slc.cpg/sg15_72_cif.got.tgz:142032.got - 2010.06.28 07:06:18.
