data_PCOD8153262
_publ_section_title
;
Structure prediction by ZEFSAII (Michael W. Deem and Ramdas Pophale) SiO2 
 PCOD8153262
Probable space group: C 2/C
;
_chemical_formula_sum "Si O2"
_cell_formula_units_Z 48
_cell_length_a 11.439017
_cell_length_b 20.598570
_cell_length_c 11.815061
_cell_angle_alpha 90.000000
_cell_angle_beta 129.086139
_cell_angle_gamma 90.000000
_cell_volume 2160.900651
_symmetry_space_group_name_H-M "C 2/C"
_symmetry_group_IT_number 15
_symmetry_cell_setting 'monoclinic'
loop_
_space_group_symop_operation_xyz
x,y,z
-x,y,1/2-z
-x,-y,-z
x,-y,1/2+z
1/2+x,1/2+y,z
1/2-x,1/2+y,1/2-z
1/2-x,1/2-y,-z
1/2+x,1/2-y,1/2+z
loop_
_atom_site_type_symbol
_atom_site_label
_atom_site_fract_x
_atom_site_fract_y
_atom_site_fract_z
Si Si1 0.646165 0.757993 0.123778
Si Si2 0.833989 0.909540 0.533778
Si Si3 0.215327 0.112080 0.744041
Si Si4 0.000000 0.797288 0.750000
Si Si5 0.464255 0.930999 0.027436
Si Si6 0.500000 0.520588 0.750000
Si Si7 0.426267 0.822497 0.822141
O O1 0.769661 0.815884 0.196934
O O2 0.554039 0.751564 0.184738
O O3 0.754993 0.695923 0.182948
O O4 0.526490 0.766428 0.947632
O O5 0.869407 0.888817 0.427085
O O6 0.664837 0.931890 0.456896
O O7 0.867181 0.845366 0.628389
O O8 0.938677 0.972358 0.616375
O O9 0.132790 0.065617 0.783040
O O10 0.385069 0.091576 0.819794
O O11 0.416218 0.884936 0.894975
O O12 0.500000 0.000000 0.000000
O O13 0.500000 0.843344 0.750000
#
# Coordination Sequence:
#
# PCOD8153262 Si02
#       7
#     8   8   8   4   8   4   8
#     4  11  25  44  70 101 142 176 235 289 345 422
#     4  11  23  44  70  96 135 178 236 283 345 410
#     4  11  25  41  68  99 135 185 223 291 344 418
#     4  11  24  44  72 100 130 177 228 290 348 403
#     4  11  23  46  65 100 136 175 235 285 348 406
#     4  11  24  46  62 100 140 179 234 280 350 413
#     4  11  25  45  69 101 139 189 227 285 350 420
#
# _framework density 22.212959999999999
#
# number of rings (size 3 to 8) (size 9 to 14) (size 15 to 20)
#    0.000    1.000    3.333    2.500    5.833    2.667 
#    6.000    0.000    0.000    0.000    0.000    0.000 
#    0.000    0.000    0.000    0.000    0.000    0.000 
#
# Total GULP energy -297516.652622 kJ/mol
# GULP energy per Si atom -12396.527193 kJ/mol
# Density = 2.216240 g / cm^3
# Si number density = 22.212960 Si / 1000 Ang^3
#
#
#
# Elastic Constant Matrix: (Units=GPa)
#
#
# Indices 1 2 3 4 5 6 
#
# 1 61.9358 8.3675 -0.7162 0.0000 2.4805 0.0000
# 2 8.3675 83.4784 9.3818 0.0000 6.5440 0.0000
# 3 -0.7162 9.3818 62.4895 0.0000 -1.7270 0.0000
# 4 0.0000 0.0000 0.0000 22.1566 0.0000 3.7939
# 5 2.4805 6.5440 -1.7270 0.0000 38.8123 0.0000
# 6 0.0000 0.0000 0.0000 3.7939 0.0000 33.4641
#
#
#
# Elastic Compliance Matrix: (Units=1/GPa)
#
#
# Indices 1 2 3 4 5 6 
#
# 1 0.016401 -0.001631 0.000412 0.000000 -0.000755 0.000000
# 2 -0.001631 0.012527 -0.001957 0.000000 -0.002095 0.000000
# 3 0.000412 -0.001957 0.016330 0.000000 0.001030 0.000000
# 4 0.000000 0.000000 0.000000 0.046027 0.000000 -0.005218
# 5 -0.000755 -0.002095 0.001030 0.000000 0.026212 0.000000
# 6 0.000000 0.000000 0.000000 -0.005218 0.000000 0.030474
#
#
# Mechanical properties :
#
#
# Convention : Reuss Voigt Hill
#
# Bulk Modulus (GPa) = 25.70372 26.88556 26.29464
# Shear Modulus (GPa) = 29.88782 31.61132 30.74957
#
# Velocity S-wave (km/s) = 3.67210 3.77650 3.72466
# Velocity P-wave (km/s) = 5.43836 5.58083 5.51006
#
# Compressibility (1/GPa) = 0.03890488
#
# Stress axis : x y z
#
# Youngs Moduli (GPa) = 60.97152 79.82862 61.23796
#
# Poissons Ratio (x) = 0.13021 -0.02523
# Poissons Ratio (y) = 0.09945 0.11986
# Poissons Ratio (z) = -0.02512 0.15625
#
# Static dielectric constant tensor:
#      x y z
#    x 3.876680 0.000000 0.141440 
#    y 0.000000 3.721050 0.000000 
#    z 0.141440 0.000000 4.010840 
# 
# 
# High freq. dielectric constant tensor:
#      x y z
#    x 1.875870 0.000000 0.008610 
#    y 0.000000 1.877930 0.000000 
#    z 0.008610 0.000000 1.876910 
# 
# From -- ./inp_files/89455.got.cif
#   From: 2010.06.25/outbox.cif.g09.slc.cpg/sg15_45_cif.got.tgz:89455.got - 2010.06.28 07:06:18.
