data_PCOD8153938
_publ_section_title
;
Structure prediction by ZEFSAII (Michael W. Deem and Ramdas Pophale) SiO2 
 PCOD8153938
Probable space group: C 2/C
;
_chemical_formula_sum "Si O2"
_cell_formula_units_Z 40
_cell_length_a 11.599122
_cell_length_b 16.543310
_cell_length_c 9.112636
_cell_angle_alpha 90.000000
_cell_angle_beta 80.659148
_cell_angle_gamma 90.000000
_cell_volume 1725.418250
_symmetry_space_group_name_H-M "C 2/C"
_symmetry_group_IT_number 15
_symmetry_cell_setting 'monoclinic'
loop_
_space_group_symop_operation_xyz
x,y,z
-x,y,1/2-z
-x,-y,-z
x,-y,1/2+z
1/2+x,1/2+y,z
1/2-x,1/2+y,1/2-z
1/2-x,1/2-y,-z
1/2+x,1/2-y,1/2+z
loop_
_atom_site_type_symbol
_atom_site_label
_atom_site_fract_x
_atom_site_fract_y
_atom_site_fract_z
Si Si1 0.778319 0.416162 0.493814
Si Si2 0.477332 0.582645 0.422102
Si Si3 0.003332 0.362394 0.590453
Si Si4 0.696688 0.078954 0.848912
Si Si5 0.406990 0.315586 0.384830
O O1 0.649593 0.376958 0.518701
O O2 0.751082 0.498299 0.590160
O O3 0.822254 0.433489 0.320107
O O4 0.870219 0.356908 0.557365
O O5 0.500000 0.566107 0.250000
O O6 0.500000 0.500000 0.500000
O O7 0.570955 0.647863 0.459042
O O8 0.071552 0.412067 0.453034
O O9 0.073655 0.279910 0.607061
O O10 0.000000 0.407668 0.750000
O O11 0.777439 0.158133 0.860730
O O12 0.500000 0.352901 0.250000
#
# Coordination Sequence:
#
# PCOD8153938 Si02
#       5
#     8   8   8   8   8
#     4  12  25  43  74 102 138 183 237 288 349 416
#     4  12  24  41  69 102 138 176 235 289 348 410
#     4  11  27  46  67 102 143 187 230 284 353 422
#     4  12  24  45  73 101 141 183 232 292 347 421
#     4  11  24  47  69 101 140 183 228 288 351 418
#
# _framework density 23.182786
#
# number of rings (size 3 to 8) (size 9 to 14) (size 15 to 20)
#    0.000    0.400    4.000    4.800    2.800    2.400 
#    0.000    0.000    0.000    0.000    0.000    0.000 
#    0.000    0.000    0.000    0.000    0.000    0.000 
#
# Total GULP energy -247956.003800 kJ/mol
# GULP energy per Si atom -12397.800190 kJ/mol
# Density = 2.313002 g / cm^3
# Si number density = 23.182786 Si / 1000 Ang^3
#
#
#
# Elastic Constant Matrix: (Units=GPa)
#
#
# Indices 1 2 3 4 5 6 
#
# 1 115.1920 7.2057 34.9286 0.0000 4.3316 0.0000
# 2 7.2057 48.9017 13.9230 0.0000 4.4563 0.0000
# 3 34.9286 13.9230 201.4082 0.0000 -0.4663 0.0000
# 4 0.0000 0.0000 0.0000 28.0135 0.0000 -1.0365
# 5 4.3316 4.4563 -0.4663 0.0000 41.7290 0.0000
# 6 0.0000 0.0000 0.0000 -1.0365 0.0000 34.2445
#
#
#
# Elastic Compliance Matrix: (Units=1/GPa)
#
#
# Indices 1 2 3 4 5 6 
#
# 1 0.009236 -0.000840 -0.001546 0.000000 -0.000886 0.000000
# 2 -0.000840 0.021148 -0.001321 0.000000 -0.002186 0.000000
# 3 -0.001546 -0.001321 0.005325 0.000000 0.000361 0.000000
# 4 0.000000 0.000000 0.000000 0.035737 0.000000 0.001082
# 5 -0.000886 -0.002186 0.000361 0.000000 0.024294 0.000000
# 6 0.000000 0.000000 0.000000 0.001082 0.000000 0.029235
#
#
# Mechanical properties :
#
#
# Convention : Reuss Voigt Hill
#
# Bulk Modulus (GPa) = 35.34156 53.06849 44.20503
# Shear Modulus (GPa) = 35.25583 41.42702 38.34143
#
# Velocity S-wave (km/s) = 3.90394 4.23185 4.07120
# Velocity P-wave (km/s) = 5.96648 6.84245 6.41942
#
# Compressibility (1/GPa) = 0.02829530
#
# Stress axis : x y z
#
# Youngs Moduli (GPa) = 108.27535 47.28491 187.78396
#
# Poissons Ratio (x) = 0.03972 0.29025
# Poissons Ratio (y) = 0.09096 0.24812
# Poissons Ratio (z) = 0.16736 0.06248
#
# Static dielectric constant tensor:
#      x y z
#    x 4.285960 0.000000 -0.088760 
#    y 0.000000 3.872870 0.000000 
#    z -0.088760 0.000000 4.728060 
# 
# 
# High freq. dielectric constant tensor:
#      x y z
#    x 1.927220 0.000000 0.000600 
#    y 0.000000 1.888490 0.000000 
#    z 0.000600 0.000000 1.937910 
# 
# From -- ./inp_files/29041.got.cif
#   From: 2010.06.25/outbox.cif.g09.slc.cpg/sg15_15_cif.got.tgz:29041.got - 2010.06.28 07:06:18.
