data_PCOD8153306
_publ_section_title
;
Structure prediction by ZEFSAII (Michael W. Deem and Ramdas Pophale) SiO2 
 PCOD8153306
Probable space group: C 2/C
;
_chemical_formula_sum "Si O2"
_cell_formula_units_Z 44
_cell_length_a 11.827169
_cell_length_b 20.481235
_cell_length_c 8.762834
_cell_angle_alpha 90.000000
_cell_angle_beta 110.230086
_cell_angle_gamma 90.000000
_cell_volume 1991.721460
_symmetry_space_group_name_H-M "C 2/C"
_symmetry_group_IT_number 15
_symmetry_cell_setting 'monoclinic'
loop_
_space_group_symop_operation_xyz
x,y,z
-x,y,1/2-z
-x,-y,-z
x,-y,1/2+z
1/2+x,1/2+y,z
1/2-x,1/2+y,1/2-z
1/2-x,1/2-y,-z
1/2+x,1/2-y,1/2+z
loop_
_atom_site_type_symbol
_atom_site_label
_atom_site_fract_x
_atom_site_fract_y
_atom_site_fract_z
Si Si1 0.676538 0.198584 0.371718
Si Si2 0.688360 0.569398 0.010615
Si Si3 0.457650 0.225048 0.468428
Si Si4 0.500000 0.869658 0.250000
Si Si5 0.530880 0.627758 0.439429
Si Si6 0.250516 0.065188 0.688379
O O1 0.750000 0.250000 0.500000
O O2 0.740435 0.129761 0.385351
O O3 0.554058 0.189371 0.406656
O O4 0.661453 0.228054 0.193444
O O5 0.697073 0.565472 0.833042
O O6 0.548779 0.579890 0.991312
O O7 0.745669 0.506356 0.114994
O O8 0.436121 0.177295 0.598525
O O9 0.498512 0.296765 0.539730
O O10 0.609377 0.913556 0.237861
O O11 0.500000 0.611950 0.250000
O O12 0.670253 0.612774 0.543827
#
# Coordination Sequence:
#
# PCOD8153306 Si02
#       6
#     8   8   8   4   8   8
#     4  11  23  44  74 106 141 191 241 301 364 427
#     4  12  26  49  74 104 145 190 243 298 367 429
#     4  11  25  42  73 108 146 187 242 301 363 430
#     4  12  28  48  70 110 150 194 238 296 362 438
#     4  12  26  46  76 109 144 187 243 308 365 426
#     4  12  29  47  73 103 148 193 243 294 365 444
#
# _framework density 22.091442000000001
#
# number of rings (size 3 to 8) (size 9 to 14) (size 15 to 20)
#    0.000    0.364    4.545    3.273    7.636    2.909 
#    0.000    0.000    0.000    0.000    0.000    0.000 
#    0.000    0.000    0.000    0.000    0.000    0.000 
#
# Total GULP energy -272846.994726 kJ/mol
# GULP energy per Si atom -12402.136124 kJ/mol
# Density = 2.204116 g / cm^3
# Si number density = 22.091442 Si / 1000 Ang^3
#
#
#
# Elastic Constant Matrix: (Units=GPa)
#
#
# Indices 1 2 3 4 5 6 
#
# 1 94.6218 33.6502 47.2194 0.0000 1.6528 0.0000
# 2 33.6502 127.5916 44.8857 0.0000 4.3172 0.0000
# 3 47.2194 44.8857 177.3897 0.0000 -3.3020 0.0000
# 4 0.0000 0.0000 0.0000 32.7286 0.0000 -5.8844
# 5 1.6528 4.3172 -3.3020 0.0000 34.0456 0.0000
# 6 0.0000 0.0000 0.0000 -5.8844 0.0000 23.2876
#
#
#
# Elastic Compliance Matrix: (Units=1/GPa)
#
#
# Indices 1 2 3 4 5 6 
#
# 1 0.012832 -0.002369 -0.002827 0.000000 -0.000597 0.000000
# 2 -0.002369 0.009099 -0.001694 0.000000 -0.001203 0.000000
# 3 -0.002827 -0.001694 0.006837 0.000000 0.001015 0.000000
# 4 0.000000 0.000000 0.000000 0.032009 0.000000 0.008088
# 5 -0.000597 -0.001203 0.001015 0.000000 0.029652 0.000000
# 6 0.000000 0.000000 0.000000 0.008088 0.000000 0.044985
#
#
# Mechanical properties :
#
#
# Convention : Reuss Voigt Hill
#
# Bulk Modulus (GPa) = 66.72401 72.34598 69.53499
# Shear Modulus (GPa) = 32.42700 36.26887 34.34793
#
# Velocity S-wave (km/s) = 3.83541 4.05626 3.94738
# Velocity P-wave (km/s) = 7.06279 7.39981 7.23326
#
# Compressibility (1/GPa) = 0.01498711
#
# Stress axis : x y z
#
# Youngs Moduli (GPa) = 77.92748 109.90121 146.25260
#
# Poissons Ratio (x) = 0.26041 0.41352
# Poissons Ratio (y) = 0.18465 0.24776
# Poissons Ratio (z) = 0.22033 0.18618
#
# Static dielectric constant tensor:
#      x y z
#    x 9.366760 0.000000 0.276080 
#    y 0.000000 4.745040 0.000000 
#    z 0.276080 0.000000 4.111020 
# 
# 
# High freq. dielectric constant tensor:
#      x y z
#    x 1.869810 0.000000 0.000950 
#    y 0.000000 1.873250 0.000000 
#    z 0.000950 0.000000 1.888840 
# 
# From -- ./inp_files/30977.got.cif
#   From: 2010.06.25/outbox.cif.g09.slc.cpg/sg15_16_cif.got.tgz:30977.got - 2010.06.28 07:06:18.
