data_PCOD8153278
_publ_section_title
;
Structure prediction by ZEFSAII (Michael W. Deem and Ramdas Pophale) SiO2 
 PCOD8153278
Probable space group: C 2/C
;
_chemical_formula_sum "Si O2"
_cell_formula_units_Z 40
_cell_length_a 15.109201
_cell_length_b 8.921661
_cell_length_c 13.828146
_cell_angle_alpha 90.000000
_cell_angle_beta 62.767529
_cell_angle_gamma 90.000000
_cell_volume 1657.409075
_symmetry_space_group_name_H-M "C 2/C"
_symmetry_group_IT_number 15
_symmetry_cell_setting 'monoclinic'
loop_
_space_group_symop_operation_xyz
x,y,z
-x,y,1/2-z
-x,-y,-z
x,-y,1/2+z
1/2+x,1/2+y,z
1/2-x,1/2+y,1/2-z
1/2-x,1/2-y,-z
1/2+x,1/2-y,1/2+z
loop_
_atom_site_type_symbol
_atom_site_label
_atom_site_fract_x
_atom_site_fract_y
_atom_site_fract_z
Si Si1 0.360629 0.136644 0.976302
Si Si2 0.346905 0.335580 0.672184
Si Si3 0.000000 0.060050 0.250000
Si Si4 0.161800 0.983163 0.520654
Si Si5 0.500000 0.037694 0.750000
Si Si6 0.353768 0.985649 0.669487
O O1 0.331788 0.307377 0.011006
O O2 0.437937 0.146602 0.850426
O O3 0.275888 0.006879 0.000053
O O4 0.413233 0.077410 0.047175
O O5 0.441617 0.349756 0.695397
O O6 0.363217 0.416213 0.560355
O O7 0.331567 0.160024 0.668015
O O8 0.250952 0.401685 0.772585
O O9 0.916442 0.969825 0.355016
O O10 0.422340 0.939650 0.726947
#
# Coordination Sequence:
#
# PCOD8153278 Si02
#       6
#     8   8   4   8   4   8
#     4  11  23  44  72 100 136 181 226 277 339 404
#     4  12  25  45  71 102 138 179 229 281 337 404
#     4  12  25  46  73  98 137 188 225 270 347 412
#     4  11  23  44  72 100 136 181 226 277 339 404
#     4  12  25  46  73  98 137 188 225 270 347 412
#     4  12  25  45  71 102 138 179 229 281 337 404
#
# _framework density 24.134053000000002
#
# number of rings (size 3 to 8) (size 9 to 14) (size 15 to 20)
#    0.000    0.400    4.000    6.000    0.000    0.800 
#    0.000    7.000    0.000    0.000    0.000    0.000 
#    0.000    0.000    0.000    0.000    0.000    0.000 
#
# Total GULP energy -247765.018210 kJ/mol
# GULP energy per Si atom -12388.250910 kJ/mol
# Density = 2.407912 g / cm^3
# Si number density = 24.134053 Si / 1000 Ang^3
#
#
#
# Elastic Constant Matrix: (Units=GPa)
#
#
# Indices 1 2 3 4 5 6 
#
# 1 136.2132 32.5681 56.8922 0.0000 6.1327 0.0000
# 2 32.5681 57.7732 50.2245 0.0000 13.9217 0.0000
# 3 56.8922 50.2245 186.1525 0.0000 12.7843 0.0000
# 4 0.0000 0.0000 0.0000 24.5848 0.0000 7.1058
# 5 6.1327 13.9217 12.7843 0.0000 45.8296 0.0000
# 6 0.0000 0.0000 0.0000 7.1058 0.0000 19.8801
#
#
#
# Elastic Compliance Matrix: (Units=1/GPa)
#
#
# Indices 1 2 3 4 5 6 
#
# 1 0.008925 -0.003567 -0.001792 0.000000 0.000389 0.000000
# 2 -0.003567 0.025359 -0.005358 0.000000 -0.005731 0.000000
# 3 -0.001792 -0.005358 0.007378 0.000000 -0.000191 0.000000
# 4 0.000000 0.000000 0.000000 0.045362 0.000000 -0.016214
# 5 0.000389 -0.005731 -0.000191 0.000000 0.023562 0.000000
# 6 0.000000 0.000000 0.000000 -0.016214 0.000000 0.056097
#
#
# Mechanical properties :
#
#
# Convention : Reuss Voigt Hill
#
# Bulk Modulus (GPa) = 49.43663 73.27871 61.35767
# Shear Modulus (GPa) = 25.65932 34.08918 29.87425
#
# Velocity S-wave (km/s) = 3.26421 3.76239 3.52212
# Velocity P-wave (km/s) = 5.89368 7.02163 6.48223
#
# Compressibility (1/GPa) = 0.02022791
#
# Stress axis : x y z
#
# Youngs Moduli (GPa) = 112.04082 39.43351 135.53155
#
# Poissons Ratio (x) = 0.14067 0.24288
# Poissons Ratio (y) = 0.39968 0.72619
# Poissons Ratio (z) = 0.20078 0.21129
#
# Static dielectric constant tensor:
#      x y z
#    x 4.780810 0.000000 0.087090 
#    y 0.000000 3.763720 0.000000 
#    z 0.087090 0.000000 4.747130 
# 
# 
# High freq. dielectric constant tensor:
#      x y z
#    x 1.979830 0.000000 0.002250 
#    y 0.000000 1.921520 0.000000 
#    z 0.002250 0.000000 1.983330 
# 
# From -- ./inp_files/150627.got.cif
#   From: 2010.06.25/outbox.cif.g09.slc.cpg/sg15_76_cif.got.tgz:150627.got - 2010.06.28 07:06:18.
