data_PCOD8153055
_publ_section_title
;
Structure prediction by ZEFSAII (Michael W. Deem and Ramdas Pophale) SiO2 
 PCOD8153055
Probable space group: C 2/C
;
_chemical_formula_sum "Si O2"
_cell_formula_units_Z 40
_cell_length_a 9.485872
_cell_length_b 15.018105
_cell_length_c 14.635099
_cell_angle_alpha 90.000000
_cell_angle_beta 66.674720
_cell_angle_gamma 90.000000
_cell_volume 1914.517296
_symmetry_space_group_name_H-M "C 2/C"
_symmetry_group_IT_number 15
_symmetry_cell_setting 'monoclinic'
loop_
_space_group_symop_operation_xyz
x,y,z
-x,y,1/2-z
-x,-y,-z
x,-y,1/2+z
1/2+x,1/2+y,z
1/2-x,1/2+y,1/2-z
1/2-x,1/2-y,-z
1/2+x,1/2-y,1/2+z
loop_
_atom_site_type_symbol
_atom_site_label
_atom_site_fract_x
_atom_site_fract_y
_atom_site_fract_z
Si Si1 0.322379 0.011689 0.807866
Si Si2 0.680471 0.619143 0.198990
Si Si3 0.833652 0.812175 0.406105
Si Si4 0.821379 0.504466 0.520238
Si Si5 0.819251 0.802190 0.202926
O O1 0.500000 0.993909 0.750000
O O2 0.281758 0.109751 0.783313
O O3 0.236333 0.935814 0.772721
O O4 0.282571 0.001484 0.923913
O O5 0.500000 0.623438 0.250000
O O6 0.733453 0.575280 0.091326
O O7 0.744334 0.718642 0.172453
O O8 0.750000 0.750000 0.500000
O O9 0.749216 0.905626 0.423207
O O10 0.824161 0.772106 0.307279
O O11 0.013626 0.821763 0.383769
O O12 0.000000 0.500000 0.500000
#
# Coordination Sequence:
#
# PCOD8153055 Si02
#       5
#     8   8   8   8   8
#     4  12  25  45  72  99 140 183 230 287 348 414
#     4  12  26  44  70 104 142 180 232 290 345 411
#     4  11  23  42  69 101 139 181 235 278 344 418
#     4  12  24  43  72 102 137 185 233 284 350 416
#     4  11  25  43  68 101 140 180 227 290 345 406
#
# _framework density 20.892994999999999
#
# number of rings (size 3 to 8) (size 9 to 14) (size 15 to 20)
#    0.000    0.400    4.000    4.200    2.800    5.600 
#    0.000    0.000    0.000    0.000    0.000    0.000 
#    0.000    0.000    0.000    0.000    0.000    0.000 
#
# Total GULP energy -248076.000772 kJ/mol
# GULP energy per Si atom -12403.800039 kJ/mol
# Density = 2.084544 g / cm^3
# Si number density = 20.892995 Si / 1000 Ang^3
#
#
#
# Elastic Constant Matrix: (Units=GPa)
#
#
# Indices 1 2 3 4 5 6 
#
# 1 128.5325 68.3610 41.1066 0.0000 -21.7445 0.0000
# 2 68.3610 124.9046 13.3168 0.0000 -19.5341 0.0000
# 3 41.1066 13.3168 116.7354 0.0000 -7.3935 0.0000
# 4 0.0000 0.0000 0.0000 39.6258 0.0000 -2.9143
# 5 -21.7445 -19.5341 -7.3935 0.0000 40.6873 0.0000
# 6 0.0000 0.0000 0.0000 -2.9143 0.0000 37.9273
#
#
#
# Elastic Compliance Matrix: (Units=1/GPa)
#
#
# Indices 1 2 3 4 5 6 
#
# 1 0.012692 -0.006061 -0.003574 0.000000 0.003224 0.000000
# 2 -0.006061 0.011613 0.000969 0.000000 0.002512 0.000000
# 3 -0.003574 0.000969 0.009735 0.000000 0.000324 0.000000
# 4 0.000000 0.000000 0.000000 0.025379 0.000000 0.001950
# 5 0.003224 0.002512 0.000324 0.000000 0.027566 0.000000
# 6 0.000000 0.000000 0.000000 0.001950 0.000000 0.026516
#
#
# Mechanical properties :
#
#
# Convention : Reuss Voigt Hill
#
# Bulk Modulus (GPa) = 59.85350 68.41570 64.13460
# Shear Modulus (GPa) = 36.65606 40.14061 38.39833
#
# Velocity S-wave (km/s) = 4.19318 4.38796 4.29167
# Velocity P-wave (km/s) = 7.22174 7.64782 7.43783
#
# Compressibility (1/GPa) = 0.01670746
#
# Stress axis : x y z
#
# Youngs Moduli (GPa) = 78.78859 86.10946 102.72380
#
# Poissons Ratio (x) = 0.52194 0.36711
# Poissons Ratio (y) = 0.47756 -0.09951
# Poissons Ratio (z) = 0.28157 -0.08342
#
# Static dielectric constant tensor:
#      x y z
#    x 3.528480 0.000000 -0.394370 
#    y 0.000000 3.836810 0.000000 
#    z -0.394370 0.000000 3.640820 
# 
# 
# High freq. dielectric constant tensor:
#      x y z
#    x 1.829270 0.000000 -0.006530 
#    y 0.000000 1.830360 0.000000 
#    z -0.006530 0.000000 1.833920 
# 
# From -- ./inp_files/133068.got.cif
#   From: 2010.06.25/outbox.cif.g09.slc.cpg/sg15_67_cif.got.tgz:133068.got - 2010.06.28 07:06:18.
