data_PCOD8153217
_publ_section_title
;
Structure prediction by ZEFSAII (Michael W. Deem and Ramdas Pophale) SiO2 
 PCOD8153217
Probable space group: C 2/C
;
_chemical_formula_sum "Si O2"
_cell_formula_units_Z 40
_cell_length_a 12.963461
_cell_length_b 12.634264
_cell_length_c 9.991464
_cell_angle_alpha 90.000000
_cell_angle_beta 109.732358
_cell_angle_gamma 90.000000
_cell_volume 1540.348112
_symmetry_space_group_name_H-M "C 2/C"
_symmetry_group_IT_number 15
_symmetry_cell_setting 'monoclinic'
loop_
_space_group_symop_operation_xyz
x,y,z
-x,y,1/2-z
-x,-y,-z
x,-y,1/2+z
1/2+x,1/2+y,z
1/2-x,1/2+y,1/2-z
1/2-x,1/2-y,-z
1/2+x,1/2-y,1/2+z
loop_
_atom_site_type_symbol
_atom_site_label
_atom_site_fract_x
_atom_site_fract_y
_atom_site_fract_z
Si Si1 0.170448 0.018668 0.529481
Si Si2 0.003895 0.842109 0.097712
Si Si3 0.570488 0.810441 0.147438
Si Si4 0.888504 0.539130 0.275294
Si Si5 0.738770 0.678973 0.364369
O O1 0.292650 0.986986 0.626548
O O2 0.172252 0.074184 0.383315
O O3 0.119061 0.101092 0.614527
O O4 0.097071 0.915679 0.487484
O O5 0.000000 0.810137 0.250000
O O6 0.993933 0.735257 0.007259
O O7 0.500000 0.798828 0.250000
O O8 0.680458 0.742804 0.220423
O O9 0.593946 0.933536 0.127228
O O10 0.854165 0.637714 0.354625
O O11 0.000000 0.571435 0.250000
O O12 0.750000 0.750000 0.500000
#
# Coordination Sequence:
#
# PCOD8153217 Si02
#       5
#     8   8   8   8   8
#     4  11  23  43  75 116 162 212 283 331 405 477
#     4  11  24  42  79 122 161 213 283 348 393 474
#     4  11  23  47  80 117 160 212 272 332 413 482
#     4  11  26  48  78 122 162 210 269 338 408 495
#     4  12  24  47  81 109 160 218 259 325 411 490
#
# _framework density 25.968157000000001
#
# number of rings (size 3 to 8) (size 9 to 14) (size 15 to 20)
#    0.000    0.800    6.000    1.200    2.800    0.800 
#    0.000    7.000    4.400    0.000    0.000    0.000 
#    0.000    0.000    0.000    0.000    0.000    0.000 
#
# Total GULP energy -248056.509564 kJ/mol
# GULP energy per Si atom -12402.825478 kJ/mol
# Density = 2.590905 g / cm^3
# Si number density = 25.968157 Si / 1000 Ang^3
#
#
#
# Elastic Constant Matrix: (Units=GPa)
#
#
# Indices 1 2 3 4 5 6 
#
# 1 170.2246 65.2200 51.4916 0.0000 -17.7760 0.0000
# 2 65.2200 122.2222 60.3062 0.0000 -9.1403 0.0000
# 3 51.4916 60.3062 144.9244 0.0000 -9.4203 0.0000
# 4 0.0000 0.0000 0.0000 41.5373 0.0000 -12.1442
# 5 -17.7760 -9.1403 -9.4203 0.0000 38.4423 0.0000
# 6 0.0000 0.0000 0.0000 -12.1442 0.0000 34.6716
#
#
#
# Elastic Compliance Matrix: (Units=1/GPa)
#
#
# Indices 1 2 3 4 5 6 
#
# 1 0.007794 -0.003380 -0.001200 0.000000 0.002506 0.000000
# 2 -0.003380 0.011838 -0.003703 0.000000 0.000345 0.000000
# 3 -0.001200 -0.003703 0.008916 0.000000 0.000750 0.000000
# 4 0.000000 0.000000 0.000000 0.026821 0.000000 0.009395
# 5 0.002506 0.000345 0.000750 0.000000 0.027438 0.000000
# 6 0.000000 0.000000 0.000000 0.009395 0.000000 0.032133
#
#
# Mechanical properties :
#
#
# Convention : Reuss Voigt Hill
#
# Bulk Modulus (GPa) = 83.44936 87.93408 85.69172
# Shear Modulus (GPa) = 36.90052 40.28713 38.59383
#
# Velocity S-wave (km/s) = 3.77369 3.94306 3.85931
# Velocity P-wave (km/s) = 7.15491 7.39365 7.27526
#
# Compressibility (1/GPa) = 0.01198331
#
# Stress axis : x y z
#
# Youngs Moduli (GPa) = 128.30084 84.47334 112.15648
#
# Poissons Ratio (x) = 0.28548 0.13459
# Poissons Ratio (y) = 0.43360 0.41531
# Poissons Ratio (z) = 0.15397 0.31280
#
# Static dielectric constant tensor:
#      x y z
#    x 4.988680 0.000000 -0.000840 
#    y 0.000000 5.076300 0.000000 
#    z -0.000840 0.000000 4.656860 
# 
# 
# High freq. dielectric constant tensor:
#      x y z
#    x 2.052260 0.000000 0.000170 
#    y 0.000000 2.059080 0.000000 
#    z 0.000170 0.000000 2.025000 
# 
# From -- ./inp_files/30314.got.cif
#   From: 2010.06.25/outbox.cif.g09.slc.cpg/sg15_16_cif.got.tgz:30314.got - 2010.06.28 07:06:18.
