data_PCOD8153205
_publ_section_title
;
Structure prediction by ZEFSAII (Michael W. Deem and Ramdas Pophale) SiO2 
 PCOD8153205
Probable space group: C 2/C
;
_chemical_formula_sum "Si O2"
_cell_formula_units_Z 40
_cell_length_a 12.462915
_cell_length_b 10.238952
_cell_length_c 13.720186
_cell_angle_alpha 90.000000
_cell_angle_beta 106.446876
_cell_angle_gamma 90.000000
_cell_volume 1679.156510
_symmetry_space_group_name_H-M "C 2/C"
_symmetry_group_IT_number 15
_symmetry_cell_setting 'monoclinic'
loop_
_space_group_symop_operation_xyz
x,y,z
-x,y,1/2-z
-x,-y,-z
x,-y,1/2+z
1/2+x,1/2+y,z
1/2-x,1/2+y,1/2-z
1/2-x,1/2-y,-z
1/2+x,1/2-y,1/2+z
loop_
_atom_site_type_symbol
_atom_site_label
_atom_site_fract_x
_atom_site_fract_y
_atom_site_fract_z
Si Si1 0.286978 0.531160 0.885525
Si Si2 0.088146 0.291957 0.359631
Si Si3 0.338015 0.652034 0.563755
Si Si4 0.256243 0.435879 0.673162
Si Si5 0.560582 0.770266 0.572490
O O1 0.162514 0.576504 0.885599
O O2 0.277411 0.429915 0.793842
O O3 0.353717 0.659052 0.873133
O O4 0.355184 0.462189 0.989112
O O5 0.165880 0.166439 0.362804
O O6 0.029083 0.272461 0.449324
O O7 0.000000 0.306183 0.250000
O O8 0.250000 0.750000 0.500000
O O9 0.290873 0.582830 0.649015
O O10 0.450415 0.737606 0.607897
O O11 0.124334 0.405550 0.617763
#
# Coordination Sequence:
#
# PCOD8153205 Si02
#       5
#     8   8   8   8   8
#     4  11  24  46  67 101 139 179 231 288 351 422
#     4  11  23  43  73  98 132 188 230 286 362 412
#     4  12  27  43  70 101 138 184 235 287 355 418
#     4  11  25  44  69 104 141 177 239 291 347 428
#     4  11  24  48  71  96 141 184 233 295 350 418
#
# _framework density 23.821484000000002
#
# number of rings (size 3 to 8) (size 9 to 14) (size 15 to 20)
#    0.000    0.800    4.000    3.000   11.200    2.400 
#    0.000    0.000    0.000    0.000    0.000    0.000 
#    0.000    0.000    0.000    0.000    0.000    0.000 
#
# Total GULP energy -247970.738615 kJ/mol
# GULP energy per Si atom -12398.536931 kJ/mol
# Density = 2.376726 g / cm^3
# Si number density = 23.821484 Si / 1000 Ang^3
#
#
#
# Elastic Constant Matrix: (Units=GPa)
#
#
# Indices 1 2 3 4 5 6 
#
# 1 115.1839 32.0074 4.7396 0.0000 26.5333 0.0000
# 2 32.0074 46.9130 4.7973 0.0000 -9.8786 0.0000
# 3 4.7396 4.7973 92.4767 0.0000 11.3780 0.0000
# 4 0.0000 0.0000 0.0000 38.1275 0.0000 7.4527
# 5 26.5333 -9.8786 11.3780 0.0000 28.0487 0.0000
# 6 0.0000 0.0000 0.0000 7.4527 0.0000 26.5963
#
#
#
# Elastic Compliance Matrix: (Units=1/GPa)
#
#
# Indices 1 2 3 4 5 6 
#
# 1 0.020703 -0.020413 0.003465 0.000000 -0.028179 0.000000
# 2 -0.020413 0.043628 -0.005771 0.000000 0.037017 0.000000
# 3 0.003465 -0.005771 0.012197 0.000000 -0.010258 0.000000
# 4 0.000000 0.000000 0.000000 0.027748 0.000000 -0.007775
# 5 -0.028179 0.037017 -0.010258 0.000000 0.079507 0.000000
# 6 0.000000 0.000000 0.000000 -0.007775 0.000000 0.039778
#
#
# Mechanical properties :
#
#
# Convention : Reuss Voigt Hill
#
# Bulk Modulus (GPa) = 32.16527 37.51801 34.84164
# Shear Modulus (GPa) = 17.89781 32.75645 25.32713
#
# Velocity S-wave (km/s) = 2.74401 3.71223 3.26422
# Velocity P-wave (km/s) = 4.85504 5.84449 5.37259
#
# Compressibility (1/GPa) = 0.03108943
#
# Stress axis : x y z
#
# Youngs Moduli (GPa) = 48.30256 22.92092 81.98403
#
# Poissons Ratio (x) = 0.46789 -0.28407
# Poissons Ratio (y) = 0.98600 0.47317
# Poissons Ratio (z) = -0.16737 0.13229
#
# Static dielectric constant tensor:
#      x y z
#    x 9.450820 0.000000 8.350180 
#    y 0.000000 8.361150 0.000000 
#    z 8.350180 0.000000 18.150370 
# 
# 
# High freq. dielectric constant tensor:
#      x y z
#    x 1.932950 0.000000 0.003340 
#    y 0.000000 1.944620 0.000000 
#    z 0.003340 0.000000 1.947060 
# 
# From -- ./inp_files/141807.got.cif
#   From: 2010.06.25/outbox.cif.g09.slc.cpg/sg15_71_cif.got.tgz:141807.got - 2010.06.28 07:06:18.
