data_PCOD8153040
_publ_section_title
;
Structure prediction by ZEFSAII (Michael W. Deem and Ramdas Pophale) SiO2 
 PCOD8153040
Probable space group: C 2/C
;
_chemical_formula_sum "Si O2"
_cell_formula_units_Z 64
_cell_length_a 9.410439
_cell_length_b 21.954441
_cell_length_c 14.652143
_cell_angle_alpha 90.000000
_cell_angle_beta 97.108872
_cell_angle_gamma 90.000000
_cell_volume 3003.876019
_symmetry_space_group_name_H-M "C 2/C"
_symmetry_group_IT_number 15
_symmetry_cell_setting 'monoclinic'
loop_
_space_group_symop_operation_xyz
x,y,z
-x,y,1/2-z
-x,-y,-z
x,-y,1/2+z
1/2+x,1/2+y,z
1/2-x,1/2+y,1/2-z
1/2-x,1/2-y,-z
1/2+x,1/2-y,1/2+z
loop_
_atom_site_type_symbol
_atom_site_label
_atom_site_fract_x
_atom_site_fract_y
_atom_site_fract_z
Si Si1 0.665704 0.932471 0.777029
Si Si2 0.740433 0.348072 0.554804
Si Si3 0.811331 0.259475 0.104842
Si Si4 0.374014 0.373447 0.666353
Si Si5 0.364597 0.454913 0.295710
Si Si6 0.006810 0.071646 0.509800
Si Si7 0.878858 0.722949 0.910404
Si Si8 0.334405 0.326751 0.251741
O O1 0.500000 0.948715 0.750000
O O2 0.681805 0.879327 0.853231
O O3 0.733844 0.910397 0.687546
O O4 0.750106 0.993784 0.813091
O O5 0.651612 0.399665 0.493805
O O6 0.859021 0.316084 0.501149
O O7 0.626542 0.295997 0.574912
O O8 0.828452 0.196287 0.158912
O O9 0.705094 0.303086 0.150885
O O10 0.964765 0.293291 0.114046
O O11 0.750000 0.250000 0.000000
O O12 0.500000 0.382789 0.750000
O O13 0.415675 0.399591 0.571367
O O14 0.500000 0.483581 0.250000
O O15 0.411750 0.417124 0.389491
O O16 0.298249 0.398676 0.233313
O O17 0.000000 0.000000 0.500000
O O18 0.755069 0.709258 0.829686
O O19 0.500000 0.312250 0.250000
#
# Coordination Sequence:
#
# PCOD8153040 Si02
#       8
#     8   8   8   8   8   8   8   8
#     4  12  26  43  67 102 142 180 229 294 359 418
#     4  11  23  42  68 103 137 179 238 287 351 409
#     4  12  26  42  67 102 143 184 234 284 352 422
#     4  12  23  44  69  99 135 187 237 281 343 421
#     4  11  24  46  72  99 133 185 239 289 341 427
#     4  12  21  41  75 100 130 178 248 290 326 409
#     4  11  25  42  70  98 143 184 227 295 351 424
#     4  11  25  44  72 100 137 184 236 288 355 416
#
# _framework density 21.305807000000001
#
# number of rings (size 3 to 8) (size 9 to 14) (size 15 to 20)
#    0.000    0.500    3.750    5.250    5.250    2.000 
#    0.000    0.625    0.000    0.000    0.000    0.000 
#    0.000    0.000    0.000    0.000    0.000    0.000 
#
# Total GULP energy -396867.903080 kJ/mol
# GULP energy per Si atom -12402.121971 kJ/mol
# Density = 2.125731 g / cm^3
# Si number density = 21.305807 Si / 1000 Ang^3
#
#
#
# Elastic Constant Matrix: (Units=GPa)
#
#
# Indices 1 2 3 4 5 6 
#
# 1 142.5610 51.6001 47.4865 0.0000 -8.9897 0.0000
# 2 51.6001 122.6414 25.7658 0.0000 -6.4650 0.0000
# 3 47.4865 25.7658 109.7872 0.0000 -6.3451 0.0000
# 4 0.0000 0.0000 0.0000 37.0845 0.0000 -1.3269
# 5 -8.9897 -6.4650 -6.3451 0.0000 31.0868 0.0000
# 6 0.0000 0.0000 0.0000 -1.3269 0.0000 25.3680
#
#
#
# Elastic Compliance Matrix: (Units=1/GPa)
#
#
# Indices 1 2 3 4 5 6 
#
# 1 0.009318 -0.003174 -0.003206 0.000000 0.001380 0.000000
# 2 -0.003174 0.009718 -0.000854 0.000000 0.000929 0.000000
# 3 -0.003206 -0.000854 0.010759 0.000000 0.001091 0.000000
# 4 0.000000 0.000000 0.000000 0.027016 0.000000 0.001413
# 5 0.001380 0.000929 0.001091 0.000000 0.032983 0.000000
# 6 0.000000 0.000000 0.000000 0.001413 0.000000 0.039494
#
#
# Mechanical properties :
#
#
# Convention : Reuss Voigt Hill
#
# Bulk Modulus (GPa) = 65.24589 69.41048 67.32819
# Shear Modulus (GPa) = 33.58762 35.38367 34.48565
#
# Velocity S-wave (km/s) = 3.97477 4.07965 4.02755
# Velocity P-wave (km/s) = 7.19410 7.40543 7.30053
#
# Compressibility (1/GPa) = 0.01532664
#
# Stress axis : x y z
#
# Youngs Moduli (GPa) = 107.31508 102.90400 92.94889
#
# Poissons Ratio (x) = 0.32665 0.29797
# Poissons Ratio (y) = 0.34066 0.07938
# Poissons Ratio (z) = 0.34402 0.08788
#
# Static dielectric constant tensor:
#      x y z
#    x 3.904960 0.000000 0.054230 
#    y 0.000000 4.298090 0.000000 
#    z 0.054230 0.000000 5.367040 
# 
# 
# High freq. dielectric constant tensor:
#      x y z
#    x 1.823510 0.000000 -0.008160 
#    y 0.000000 1.851710 0.000000 
#    z -0.008160 0.000000 1.847480 
# 
# From -- ./inp_files/137843.got.cif
#   From: 2010.06.25/outbox.cif.g09.slc.cpg/sg15_69_cif.got.tgz:137843.got - 2010.06.28 07:06:18.
