data_PCOD8153729
_publ_section_title
;
Structure prediction by ZEFSAII (Michael W. Deem and Ramdas Pophale) SiO2 
 PCOD8153729
Probable space group: C 2/C
;
_chemical_formula_sum "Si O2"
_cell_formula_units_Z 48
_cell_length_a 14.351209
_cell_length_b 17.211713
_cell_length_c 13.971166
_cell_angle_alpha 90.000000
_cell_angle_beta 38.297570
_cell_angle_gamma 90.000000
_cell_volume 2138.743947
_symmetry_space_group_name_H-M "C 2/C"
_symmetry_group_IT_number 15
_symmetry_cell_setting 'monoclinic'
loop_
_space_group_symop_operation_xyz
x,y,z
-x,y,1/2-z
-x,-y,-z
x,-y,1/2+z
1/2+x,1/2+y,z
1/2-x,1/2+y,1/2-z
1/2-x,1/2-y,-z
1/2+x,1/2-y,1/2+z
loop_
_atom_site_type_symbol
_atom_site_label
_atom_site_fract_x
_atom_site_fract_y
_atom_site_fract_z
Si Si1 0.682782 0.928722 0.468379
Si Si2 0.466579 0.227661 0.380186
Si Si3 0.796746 0.794970 0.678087
Si Si4 0.489471 0.577154 0.447988
Si Si5 0.500000 0.494645 0.250000
Si Si6 0.500000 0.044471 0.750000
Si Si7 0.815922 0.370808 0.239098
O O1 0.638940 0.847123 0.550992
O O2 0.643559 0.924634 0.386008
O O3 0.595564 0.994677 0.597318
O O4 0.861344 0.940428 0.331570
O O5 0.500000 0.264524 0.250000
O O6 0.617338 0.202393 0.315198
O O7 0.373062 0.292872 0.511737
O O8 0.857341 0.718879 0.685524
O O9 0.853804 0.874449 0.681335
O O10 0.500000 0.500000 0.500000
O O11 0.446952 0.552231 0.375992
O O12 0.361716 0.630553 0.597268
O O13 0.603554 0.099402 0.730740
#
# Coordination Sequence:
#
# PCOD8153729 Si02
#       7
#     8   8   8   8   4   4   8
#     4  11  25  43  72 109 144 185 242 295 358 425
#     4  11  24  44  71 103 145 190 234 298 364 432
#     4  11  26  48  70 105 144 190 241 299 366 419
#     4  12  26  48  75 105 147 191 246 302 353 438
#     4  12  26  45  74 109 140 194 240 294 366 421
#     4  12  24  45  76 105 142 192 242 294 360 421
#     4  11  25  48  70 106 146 187 237 306 358 433
#
# _framework density 22.443079000000001
#
# number of rings (size 3 to 8) (size 9 to 14) (size 15 to 20)
#    0.000    0.667    5.833    1.000    4.667    3.333 
#    7.500    1.667    0.000    0.000    0.000    0.000 
#    0.000    0.000    0.000    0.000    0.000    0.000 
#
# Total GULP energy -297613.348226 kJ/mol
# GULP energy per Si atom -12400.556176 kJ/mol
# Density = 2.239200 g / cm^3
# Si number density = 22.443079 Si / 1000 Ang^3
#
#
#
# Elastic Constant Matrix: (Units=GPa)
#
#
# Indices 1 2 3 4 5 6 
#
# 1 97.9045 49.4381 25.8376 -0.0019 6.4937 0.0010
# 2 49.4381 102.5452 24.7557 0.0001 0.6655 0.0002
# 3 25.8376 24.7557 100.1238 -0.0021 3.1341 0.0013
# 4 -0.0019 0.0001 -0.0021 27.2035 0.0002 -10.5353
# 5 6.4937 0.6655 3.1341 0.0002 48.2360 -0.0002
# 6 0.0010 0.0002 0.0013 -10.5353 -0.0002 29.1574
#
#
#
# Elastic Compliance Matrix: (Units=1/GPa)
#
#
# Indices 1 2 3 4 5 6 
#
# 1 0.014019 -0.006261 -0.002017 0.000001 -0.001670 0.000000
# 2 -0.006261 0.013167 -0.001664 -0.000001 0.000769 0.000000
# 3 -0.002017 -0.001664 0.010933 0.000001 -0.000416 0.000000
# 4 0.000001 -0.000001 0.000001 0.042741 0.000000 0.015443
# 5 -0.001670 0.000769 -0.000416 0.000000 0.020973 0.000000
# 6 0.000000 0.000000 0.000000 0.015443 0.000000 0.039877
#
#
# Mechanical properties :
#
#
# Convention : Reuss Voigt Hill
#
# Bulk Modulus (GPa) = 54.84238 55.62624 55.23431
# Shear Modulus (GPa) = 29.82047 34.28886 32.05466
#
# Velocity S-wave (km/s) = 3.64911 3.91297 3.78334
# Velocity P-wave (km/s) = 6.49953 6.72714 6.61431
#
# Compressibility (1/GPa) = 0.01823407
#
# Stress axis : x y z
#
# Youngs Moduli (GPa) = 71.33398 75.94840 91.46903
#
# Poissons Ratio (x) = 0.47549 0.18453
# Poissons Ratio (y) = 0.44660 0.15220
# Poissons Ratio (z) = 0.14391 0.12638
#
# Static dielectric constant tensor:
#      x y z
#    x 3.953120 0.000000 0.017500 
#    y 0.000000 3.795620 0.000000 
#    z 0.017500 0.000000 4.472450 
# 
# 
# High freq. dielectric constant tensor:
#      x y z
#    x 1.879830 0.000000 -0.000390 
#    y 0.000000 1.875200 0.000000 
#    z -0.000390 0.000000 1.905440 
# 
# From -- ./inp_files/155111.got.cif
#   From: 2010.06.25/outbox.cif.g09.slc.cpg/sg15_78_cif.got.tgz:155111.got - 2010.06.28 07:06:18.
