data_PCOD8153624
_publ_section_title
;
Structure prediction by ZEFSAII (Michael W. Deem and Ramdas Pophale) SiO2 
 PCOD8153624
Probable space group: C 2/C
;
_chemical_formula_sum "Si O2"
_cell_formula_units_Z 40
_cell_length_a 14.981811
_cell_length_b 24.561789
_cell_length_c 8.398265
_cell_angle_alpha 90.000000
_cell_angle_beta 37.480470
_cell_angle_gamma 90.000000
_cell_volume 1880.476981
_symmetry_space_group_name_H-M "C 2/C"
_symmetry_group_IT_number 15
_symmetry_cell_setting 'monoclinic'
loop_
_space_group_symop_operation_xyz
x,y,z
-x,y,1/2-z
-x,-y,-z
x,-y,1/2+z
1/2+x,1/2+y,z
1/2-x,1/2+y,1/2-z
1/2-x,1/2-y,-z
1/2+x,1/2-y,1/2+z
loop_
_atom_site_type_symbol
_atom_site_label
_atom_site_fract_x
_atom_site_fract_y
_atom_site_fract_z
Si Si1 0.399344 0.359168 0.651480
Si Si2 0.216590 0.844959 0.344716
Si Si3 0.841972 0.756524 0.527586
Si Si4 0.331868 0.054442 0.513125
Si Si5 0.151291 0.033484 0.465797
O O1 0.563979 0.343819 0.465726
O O2 0.338923 0.317147 0.605253
O O3 0.398275 0.419472 0.583696
O O4 0.297475 0.359706 0.950620
O O5 0.284716 0.784870 0.242797
O O6 0.327832 0.887579 0.106746
O O7 0.750000 0.750000 0.500000
O O8 0.000000 0.737899 0.250000
O O9 0.500000 0.035971 0.250000
O O10 0.253740 0.059645 0.454421
O O11 0.243707 0.011691 0.744548
O O12 0.000000 0.007470 0.750000
#
# Coordination Sequence:
#
# PCOD8153624 Si02
#       5
#     8   8   8   8   8
#     4  11  24  43  68 100 131 175 225 274 323 400
#     4  11  24  43  68  98 135 172 224 273 331 395
#     4  12  23  43  67  96 133 172 219 272 332 392
#     4  12  26  44  68 102 138 173 219 281 337 388
#     4  12  24  44  71  99 132 178 229 267 330 404
#
# _framework density 21.271198999999999
#
# number of rings (size 3 to 8) (size 9 to 14) (size 15 to 20)
#    0.000    0.400    4.000    5.400    2.800    0.000 
#    0.000    2.000    0.000    0.000    0.000    0.000 
#    0.000    0.000    0.000    0.000    0.000    0.000 
#
# Total GULP energy -248103.547039 kJ/mol
# GULP energy per Si atom -12405.177352 kJ/mol
# Density = 2.122278 g / cm^3
# Si number density = 21.271199 Si / 1000 Ang^3
#
#
#
# Elastic Constant Matrix: (Units=GPa)
#
#
# Indices 1 2 3 4 5 6 
#
# 1 105.7666 5.5671 43.4257 0.0000 2.4751 0.0000
# 2 5.5671 92.2750 38.1392 0.0000 5.2916 0.0000
# 3 43.4257 38.1392 136.1296 0.0000 -5.4870 0.0000
# 4 0.0000 0.0000 0.0000 39.1895 0.0000 -1.1358
# 5 2.4751 5.2916 -5.4870 0.0000 37.5430 0.0000
# 6 0.0000 0.0000 0.0000 -1.1358 0.0000 23.7792
#
#
#
# Elastic Compliance Matrix: (Units=1/GPa)
#
#
# Indices 1 2 3 4 5 6 
#
# 1 0.011018 0.001011 -0.003856 0.000000 -0.001432 0.000000
# 2 0.001011 0.012540 -0.003933 0.000000 -0.002409 0.000000
# 3 -0.003856 -0.003933 0.009768 0.000000 0.002236 0.000000
# 4 0.000000 0.000000 0.000000 0.025552 0.000000 0.001221
# 5 -0.001432 -0.002409 0.002236 0.000000 0.027397 0.000000
# 6 0.000000 0.000000 0.000000 0.001221 0.000000 0.042112
#
#
# Mechanical properties :
#
#
# Convention : Reuss Voigt Hill
#
# Bulk Modulus (GPa) = 50.57979 56.49278 53.53628
# Shear Modulus (GPa) = 33.66257 36.57161 35.11709
#
# Velocity S-wave (km/s) = 3.98243 4.15094 4.06756
# Velocity P-wave (km/s) = 6.70645 7.04200 6.87627
#
# Compressibility (1/GPa) = 0.01977074
#
# Stress axis : x y z
#
# Youngs Moduli (GPa) = 90.75877 79.74561 102.37533
#
# Poissons Ratio (x) = -0.08063 0.39474
# Poissons Ratio (y) = -0.09177 0.40263
# Poissons Ratio (z) = 0.34995 0.31363
#
# Static dielectric constant tensor:
#      x y z
#    x 3.884330 0.000000 0.141850 
#    y 0.000000 3.895850 0.000000 
#    z 0.141850 0.000000 4.082790 
# 
# 
# High freq. dielectric constant tensor:
#      x y z
#    x 1.840610 0.000000 0.010360 
#    y 0.000000 1.840510 0.000000 
#    z 0.010360 0.000000 1.848220 
# 
# From -- ./inp_files/41937.got.cif
#   From: 2010.06.25/outbox.cif.g09.slc.cpg/sg15_21_cif.got.tgz:41937.got - 2010.06.28 07:06:18.
