data_PCOD8153737
_publ_section_title
;
Structure prediction by ZEFSAII (Michael W. Deem and Ramdas Pophale) SiO2 
 PCOD8153737
Probable space group: C 2/C
;
_chemical_formula_sum "Si O2"
_cell_formula_units_Z 36
_cell_length_a 23.172577
_cell_length_b 6.649014
_cell_length_c 10.048425
_cell_angle_alpha 90.000000
_cell_angle_beta 113.317901
_cell_angle_gamma 90.000000
_cell_volume 1421.755519
_symmetry_space_group_name_H-M "C 2/C"
_symmetry_group_IT_number 15
_symmetry_cell_setting 'monoclinic'
loop_
_space_group_symop_operation_xyz
x,y,z
-x,y,1/2-z
-x,-y,-z
x,-y,1/2+z
1/2+x,1/2+y,z
1/2-x,1/2+y,1/2-z
1/2-x,1/2-y,-z
1/2+x,1/2-y,1/2+z
loop_
_atom_site_type_symbol
_atom_site_label
_atom_site_fract_x
_atom_site_fract_y
_atom_site_fract_z
Si Si1 0.322789 0.968866 0.867605
Si Si2 0.677019 0.409857 0.721080
Si Si3 0.602544 0.520822 0.416042
Si Si4 0.605880 0.082916 0.323664
Si Si5 0.000000 0.300342 0.250000
O O1 0.334190 0.202234 0.860378
O O2 0.249333 0.936704 0.821612
O O3 0.348437 0.855466 0.757996
O O4 0.359461 0.928059 0.040026
O O5 0.649723 0.565725 0.584350
O O6 0.636457 0.406462 0.815093
O O7 0.583962 0.286415 0.377805
O O8 0.539177 0.651895 0.383747
O O9 0.547088 0.951914 0.214190
#
# Coordination Sequence:
#
# PCOD8153737 Si02
#       5
#     8   8   8   8   4
#     4  11  24  44  72 105 138 177 231 288 346 402
#     4  11  24  44  72 105 138 177 231 288 346 402
#     4  11  26  46  68 105 137 181 231 282 339 406
#     4  11  26  46  68 105 137 181 231 282 339 406
#     4  12  26  48  70  96 144 192 226 268 344 418
#
# _framework density 25.320809000000001
#
# number of rings (size 3 to 8) (size 9 to 14) (size 15 to 20)
#    0.000    0.889    2.222    3.333    6.222    7.111 
#    0.000    0.000    0.000    0.000    0.000    0.000 
#    0.000    0.000    0.000    0.000    0.000    0.000 
#
# Total GULP energy -223125.646051 kJ/mol
# GULP energy per Si atom -12395.869225 kJ/mol
# Density = 2.526318 g / cm^3
# Si number density = 25.320809 Si / 1000 Ang^3
#
#
#
# Elastic Constant Matrix: (Units=GPa)
#
#
# Indices 1 2 3 4 5 6 
#
# 1 129.5581 45.5003 64.7480 0.0000 30.8038 0.0000
# 2 45.5003 48.9631 19.3983 0.0000 17.6457 0.0000
# 3 64.7480 19.3983 118.9484 0.0000 5.3024 0.0000
# 4 0.0000 0.0000 0.0000 50.0422 0.0000 -1.1287
# 5 30.8038 17.6457 5.3024 0.0000 39.6524 0.0000
# 6 0.0000 0.0000 0.0000 -1.1287 0.0000 40.7084
#
#
#
# Elastic Compliance Matrix: (Units=1/GPa)
#
#
# Indices 1 2 3 4 5 6 
#
# 1 0.016450 -0.009812 -0.007021 0.000000 -0.007474 0.000000
# 2 -0.009812 0.031722 0.000460 0.000000 -0.006556 0.000000
# 3 -0.007021 0.000460 0.011991 0.000000 0.003646 0.000000
# 4 0.000000 0.000000 0.000000 0.019996 0.000000 0.000554
# 5 -0.007474 -0.006556 0.003646 0.000000 0.033455 0.000000
# 6 0.000000 0.000000 0.000000 0.000554 0.000000 0.024580
#
#
# Mechanical properties :
#
#
# Convention : Reuss Voigt Hill
#
# Bulk Modulus (GPa) = 36.47318 61.86252 49.16785
# Shear Modulus (GPa) = 27.76544 37.26881 32.51712
#
# Velocity S-wave (km/s) = 3.31501 3.84065 3.58747
# Velocity P-wave (km/s) = 5.39333 6.64470 6.05145
#
# Compressibility (1/GPa) = 0.02741741
#
# Stress axis : x y z
#
# Youngs Moduli (GPa) = 60.78887 31.52413 83.39308
#
# Poissons Ratio (x) = 0.30930 0.58552
# Poissons Ratio (y) = 0.59644 -0.03835
# Poissons Ratio (z) = 0.42681 -0.01450
#
# Static dielectric constant tensor:
#      x y z
#    x 3.547710 0.000000 0.011260 
#    y 0.000000 5.085520 0.000000 
#    z 0.011260 0.000000 4.506830 
# 
# 
# High freq. dielectric constant tensor:
#      x y z
#    x 1.993990 0.000000 0.013970 
#    y 0.000000 2.056850 0.000000 
#    z 0.013970 0.000000 2.004570 
# 
# From -- ./inp_files/60133.got.cif
#   From: 2010.06.25/outbox.cif.g09.slc.cpg/sg15_31_cif.got.tgz:60133.got - 2010.06.28 07:06:18.
