data_PCOD8153755
_publ_section_title
;
Structure prediction by ZEFSAII (Michael W. Deem and Ramdas Pophale) SiO2 
 PCOD8153755
Probable space group: C 2/C
;
_chemical_formula_sum "Si O2"
_cell_formula_units_Z 36
_cell_length_a 9.091524
_cell_length_b 12.502774
_cell_length_c 13.339704
_cell_angle_alpha 90.000000
_cell_angle_beta 94.398099
_cell_angle_gamma 90.000000
_cell_volume 1511.849319
_symmetry_space_group_name_H-M "C 2/C"
_symmetry_group_IT_number 15
_symmetry_cell_setting 'monoclinic'
loop_
_space_group_symop_operation_xyz
x,y,z
-x,y,1/2-z
-x,-y,-z
x,-y,1/2+z
1/2+x,1/2+y,z
1/2-x,1/2+y,1/2-z
1/2-x,1/2-y,-z
1/2+x,1/2-y,1/2+z
loop_
_atom_site_type_symbol
_atom_site_label
_atom_site_fract_x
_atom_site_fract_y
_atom_site_fract_z
Si Si1 0.000000 0.593980 0.250000
Si Si2 0.889768 0.255265 0.437039
Si Si3 0.791683 0.805520 0.717453
Si Si4 0.890749 0.089736 0.033635
Si Si5 0.112823 0.591860 0.887279
O O1 0.116690 0.672589 0.203307
O O2 0.093478 0.519992 0.330249
O O3 0.750000 0.250000 0.500000
O O4 0.853081 0.190118 0.333515
O O5 0.029599 0.198874 0.498723
O O6 0.949080 0.375670 0.420160
O O7 0.870589 0.897262 0.653426
O O8 0.825650 0.685782 0.680732
O O9 0.729065 0.073068 0.981194
O O10 0.000000 0.000000 0.000000
#
# Coordination Sequence:
#
# PCOD8153755 Si02
#       5
#     4   8   8   8   8
#     4  12  26  44  78 104 146 200 240 310 374 446
#     4  11  24  44  74 102 142 194 240 303 375 442
#     4  11  25  45  71 106 146 188 251 302 375 444
#     4  11  25  44  70 106 144 191 247 306 372 455
#     4  11  24  49  68 104 149 185 246 312 363 444
#
# _framework density 23.811896999999998
#
# number of rings (size 3 to 8) (size 9 to 14) (size 15 to 20)
#    0.000    0.889    2.222    6.000    9.333    0.889 
#    0.000    0.000    0.000    0.000    0.000    0.000 
#    0.000    0.000    0.000    0.000    0.000    0.000 
#
# Total GULP energy -223041.765845 kJ/mol
# GULP energy per Si atom -12391.209214 kJ/mol
# Density = 2.375770 g / cm^3
# Si number density = 23.811897 Si / 1000 Ang^3
#
#
#
# Elastic Constant Matrix: (Units=GPa)
#
#
# Indices 1 2 3 4 5 6 
#
# 1 185.4285 30.2406 58.3275 0.0000 -17.1812 0.0000
# 2 30.2406 43.5119 10.1535 0.0000 0.2305 0.0000
# 3 58.3275 10.1535 128.5985 0.0000 3.4355 0.0000
# 4 0.0000 0.0000 0.0000 20.5497 0.0000 6.2083
# 5 -17.1812 0.2305 3.4355 0.0000 45.7538 0.0000
# 6 0.0000 0.0000 0.0000 6.2083 0.0000 48.0031
#
#
#
# Elastic Compliance Matrix: (Units=1/GPa)
#
#
# Indices 1 2 3 4 5 6 
#
# 1 0.007357 -0.004413 -0.003069 0.000000 0.003016 0.000000
# 2 -0.004413 0.026061 -0.000008 0.000000 -0.001788 0.000000
# 3 -0.003069 -0.000008 0.009218 0.000000 -0.001845 0.000000
# 4 0.000000 0.000000 0.000000 0.050641 0.000000 -0.006549
# 5 0.003016 -0.001788 -0.001845 0.000000 0.023136 0.000000
# 6 0.000000 0.000000 0.000000 -0.006549 0.000000 0.021679
#
#
# Mechanical properties :
#
#
# Convention : Reuss Voigt Hill
#
# Bulk Modulus (GPa) = 36.15957 61.66469 48.91213
# Shear Modulus (GPa) = 30.80861 40.11579 35.46220
#
# Velocity S-wave (km/s) = 3.60089 4.10896 3.86329
# Velocity P-wave (km/s) = 5.70149 6.96162 6.36283
#
# Compressibility (1/GPa) = 0.02765519
#
# Stress axis : x y z
#
# Youngs Moduli (GPa) = 135.91608 38.37183 108.48171
#
# Poissons Ratio (x) = 0.16934 0.33295
# Poissons Ratio (y) = 0.59983 0.00089
# Poissons Ratio (z) = 0.41715 0.00032
#
# Static dielectric constant tensor:
#      x y z
#    x 4.651200 0.000000 -0.002840 
#    y 0.000000 4.283600 0.000000 
#    z -0.002840 0.000000 4.434030 
# 
# 
# High freq. dielectric constant tensor:
#      x y z
#    x 1.969210 0.000000 0.001770 
#    y 0.000000 1.929640 0.000000 
#    z 0.001770 0.000000 1.939880 
# 
# From -- ./inp_files/132727.got.cif
#   From: 2010.06.25/outbox.cif.g09.slc.cpg/sg15_67_cif.got.tgz:132727.got - 2010.06.28 07:06:18.
