data_PCOD8153472
_publ_section_title
;
Structure prediction by ZEFSAII (Michael W. Deem and Ramdas Pophale) SiO2 
 PCOD8153472
Probable space group: C 2/C
;
_chemical_formula_sum "Si O2"
_cell_formula_units_Z 44
_cell_length_a 30.618296
_cell_length_b 7.938635
_cell_length_c 9.562358
_cell_angle_alpha 90.000000
_cell_angle_beta 129.118541
_cell_angle_gamma 90.000000
_cell_volume 1803.288832
_symmetry_space_group_name_H-M "C 2/C"
_symmetry_group_IT_number 15
_symmetry_cell_setting 'monoclinic'
loop_
_space_group_symop_operation_xyz
x,y,z
-x,y,1/2-z
-x,-y,-z
x,-y,1/2+z
1/2+x,1/2+y,z
1/2-x,1/2+y,1/2-z
1/2-x,1/2-y,-z
1/2+x,1/2-y,1/2+z
loop_
_atom_site_type_symbol
_atom_site_label
_atom_site_fract_x
_atom_site_fract_y
_atom_site_fract_z
Si Si1 0.663914 0.472679 0.954987
Si Si2 0.398992 0.387686 0.936153
Si Si3 0.451031 0.124867 0.854588
Si Si4 0.346443 0.903784 0.985304
Si Si5 0.778233 0.569391 0.083470
Si Si6 0.500000 0.393804 0.750000
O O1 0.630273 0.499112 0.743394
O O2 0.647061 0.295795 0.987111
O O3 0.646100 0.623619 0.026167
O O4 0.730279 0.461421 0.062059
O O5 0.415953 0.200159 0.916811
O O6 0.452314 0.485487 0.098149
O O7 0.407737 0.027668 0.661226
O O8 0.479562 0.282957 0.837713
O O9 0.500000 0.000000 0.000000
O O10 0.296235 0.983684 0.975330
O O11 0.332980 0.933469 0.795030
O O12 0.750000 0.750000 0.000000
#
# Coordination Sequence:
#
# PCOD8153472 Si02
#       6
#     8   8   8   8   8   4
#     4  11  24  46  73 104 140 187 247 299 369 439
#     4  11  23  47  75 103 141 193 247 304 361 460
#     4  11  28  46  74 109 154 194 246 316 377 438
#     4  11  25  48  69 106 146 189 247 304 370 449
#     4  12  26  44  74 105 147 191 242 303 379 443
#     4  12  24  50  70 106 144 190 264 290 376 448
#
# _framework density 24.399864999999998
#
# number of rings (size 3 to 8) (size 9 to 14) (size 15 to 20)
#    0.000    0.727    3.636    4.364    2.545    5.091 
#    3.273    0.000    0.000    0.000    0.000    0.000 
#    0.000    0.000    0.000    0.000    0.000    0.000 
#
# Total GULP energy -272780.260691 kJ/mol
# GULP energy per Si atom -12399.102759 kJ/mol
# Density = 2.434433 g / cm^3
# Si number density = 24.399865 Si / 1000 Ang^3
#
#
#
# Elastic Constant Matrix: (Units=GPa)
#
#
# Indices 1 2 3 4 5 6 
#
# 1 65.5901 17.9089 12.0257 0.0000 0.5948 0.0000
# 2 17.9089 56.2735 40.0105 0.0000 7.0158 0.0000
# 3 12.0257 40.0105 163.4353 0.0000 9.9877 0.0000
# 4 0.0000 0.0000 0.0000 35.7670 0.0000 4.0834
# 5 0.5948 7.0158 9.9877 0.0000 42.0734 0.0000
# 6 0.0000 0.0000 0.0000 4.0834 0.0000 33.7927
#
#
#
# Elastic Compliance Matrix: (Units=1/GPa)
#
#
# Indices 1 2 3 4 5 6 
#
# 1 0.016716 -0.005447 0.000063 0.000000 0.000657 0.000000
# 2 -0.005447 0.023526 -0.005199 0.000000 -0.002612 0.000000
# 3 0.000063 -0.005199 0.007442 0.000000 -0.000901 0.000000
# 4 0.000000 0.000000 0.000000 0.028350 0.000000 -0.003426
# 5 0.000657 -0.002612 -0.000901 0.000000 0.024408 0.000000
# 6 0.000000 0.000000 0.000000 -0.003426 0.000000 0.030006
#
#
# Mechanical properties :
#
#
# Convention : Reuss Voigt Hill
#
# Bulk Modulus (GPa) = 37.70923 47.24325 42.47624
# Shear Modulus (GPa) = 31.16203 36.68354 33.92279
#
# Velocity S-wave (km/s) = 3.57759 3.88162 3.73270
# Velocity P-wave (km/s) = 5.70559 6.28438 6.00196
#
# Compressibility (1/GPa) = 0.02651871
#
# Stress axis : x y z
#
# Youngs Moduli (GPa) = 59.82358 42.50645 134.37676
#
# Poissons Ratio (x) = 0.23152 -0.00850
# Poissons Ratio (y) = 0.32584 0.69862
# Poissons Ratio (z) = -0.00379 0.22099
#
# Static dielectric constant tensor:
#      x y z
#    x 4.787030 0.000000 0.230370 
#    y 0.000000 4.488190 0.000000 
#    z 0.230370 0.000000 4.963480 
# 
# 
# High freq. dielectric constant tensor:
#      x y z
#    x 1.980130 0.000000 0.006300 
#    y 0.000000 1.951430 0.000000 
#    z 0.006300 0.000000 1.990780 
# 
# From -- ./inp_files/68668.got.cif
#   From: 2010.06.25/outbox.cif.g09.slc.cpg/sg15_35_cif.got.tgz:68668.got - 2010.06.28 07:06:18.
