data_PCOD8153308
_publ_section_title
;
Structure prediction by ZEFSAII (Michael W. Deem and Ramdas Pophale) SiO2 
 PCOD8153308
Probable space group: C 2/C
;
_chemical_formula_sum "Si O2"
_cell_formula_units_Z 36
_cell_length_a 17.642062
_cell_length_b 6.682516
_cell_length_c 15.300836
_cell_angle_alpha 90.000000
_cell_angle_beta 60.468681
_cell_angle_gamma 90.000000
_cell_volume 1569.520132
_symmetry_space_group_name_H-M "C 2/C"
_symmetry_group_IT_number 15
_symmetry_cell_setting 'monoclinic'
loop_
_space_group_symop_operation_xyz
x,y,z
-x,y,1/2-z
-x,-y,-z
x,-y,1/2+z
1/2+x,1/2+y,z
1/2-x,1/2+y,1/2-z
1/2-x,1/2-y,-z
1/2+x,1/2-y,1/2+z
loop_
_atom_site_type_symbol
_atom_site_label
_atom_site_fract_x
_atom_site_fract_y
_atom_site_fract_z
Si Si1 0.066311 0.424672 0.534648
Si Si2 0.708879 0.639701 0.442262
Si Si3 0.169441 0.883979 0.234571
Si Si4 0.793325 0.720593 0.106046
Si Si5 0.000000 0.717715 0.250000
O O1 0.106139 0.202389 0.492747
O O2 0.147584 0.573322 0.483406
O O3 0.000000 0.500000 0.500000
O O4 0.023595 0.427019 0.655158
O O5 0.750000 0.750000 0.500000
O O6 0.761235 0.710843 0.327453
O O7 0.727153 0.404447 0.447390
O O8 0.154371 0.840177 0.345903
O O9 0.080095 0.860648 0.231272
O O10 0.207963 0.104158 0.190308
#
# Coordination Sequence:
#
# PCOD8153308 Si02
#       5
#     8   8   8   8   4
#     4  11  25  45  72 107 149 189 241 306 366 429
#     4  11  24  47  69 104 144 183 246 296 355 441
#     4  11  23  44  75 102 146 189 245 297 363 436
#     4  11  24  45  76 106 140 201 235 297 374 432
#     4  12  24  50  68 112 150 188 252 312 352 436
#
# _framework density 22.936945999999999
#
# number of rings (size 3 to 8) (size 9 to 14) (size 15 to 20)
#    0.000    0.889    6.667    0.000    0.000    4.444 
#    0.000    2.222    0.000    0.000    0.000    0.000 
#    0.000    0.000    0.000    0.000    0.000    0.000 
#
# Total GULP energy -223102.235354 kJ/mol
# GULP energy per Si atom -12394.568631 kJ/mol
# Density = 2.288474 g / cm^3
# Si number density = 22.936946 Si / 1000 Ang^3
#
#
#
# Elastic Constant Matrix: (Units=GPa)
#
#
# Indices 1 2 3 4 5 6 
#
# 1 140.8899 45.2029 48.3630 0.0000 -0.3918 -0.0002
# 2 45.2029 164.3812 58.4030 -0.0003 0.2281 0.0000
# 3 48.3630 58.4030 137.4420 0.0000 -2.5014 -0.0001
# 4 0.0000 -0.0003 0.0000 37.6989 0.0000 0.9259
# 5 -0.3918 0.2281 -2.5014 0.0000 27.9834 -0.0001
# 6 -0.0002 0.0000 -0.0001 0.9259 -0.0001 30.7993
#
#
#
# Elastic Compliance Matrix: (Units=1/GPa)
#
#
# Indices 1 2 3 4 5 6 
#
# 1 0.008367 -0.001477 -0.002318 0.000000 -0.000078 0.000000
# 2 -0.001477 0.007429 -0.002643 0.000000 -0.000317 0.000000
# 3 -0.002318 -0.002643 0.009229 0.000000 0.000814 0.000000
# 4 0.000000 0.000000 0.000000 0.026546 0.000000 -0.000798
# 5 -0.000078 -0.000317 0.000814 0.000000 0.035810 0.000000
# 6 0.000000 0.000000 0.000000 -0.000798 0.000000 0.032492
#
#
# Mechanical properties :
#
#
# Convention : Reuss Voigt Hill
#
# Bulk Modulus (GPa) = 82.30757 82.96119 82.63438
# Shear Modulus (GPa) = 36.55005 38.67927 37.61466
#
# Velocity S-wave (km/s) = 3.99620 4.11095 4.05398
# Velocity P-wave (km/s) = 7.56670 7.66688 7.61695
#
# Compressibility (1/GPa) = 0.01214955
#
# Stress axis : x y z
#
# Youngs Moduli (GPa) = 119.51509 134.60705 108.35130
#
# Poissons Ratio (x) = 0.19884 0.25115
# Poissons Ratio (y) = 0.17655 0.28635
# Poissons Ratio (z) = 0.27703 0.35574
#
# Static dielectric constant tensor:
#      x y z
#    x 4.252180 0.000000 -0.029720 
#    y 0.000000 4.573910 0.000000 
#    z -0.029720 0.000000 5.046540 
# 
# 
# High freq. dielectric constant tensor:
#      x y z
#    x 1.902970 0.000000 0.013080 
#    y 0.000000 1.897440 0.000000 
#    z 0.013080 0.000000 1.918840 
# 
# From -- ./inp_files/212580.got.cif
#   From: 2010.06.25/outbox.cif.g09.slc.cpg/sg15_107_cif.got.tgz:212580.got - 2010.06.28 07:06:18.
