data_PCOD8153809
_publ_section_title
;
Structure prediction by ZEFSAII (Michael W. Deem and Ramdas Pophale) SiO2 
 PCOD8153809
Probable space group: C 2/C
;
_chemical_formula_sum "Si O2"
_cell_formula_units_Z 48
_cell_length_a 14.512456
_cell_length_b 13.187035
_cell_length_c 13.141402
_cell_angle_alpha 90.000000
_cell_angle_beta 60.764396
_cell_angle_gamma 90.000000
_cell_volume 2194.594648
_symmetry_space_group_name_H-M "C 2/C"
_symmetry_group_IT_number 15
_symmetry_cell_setting 'monoclinic'
loop_
_space_group_symop_operation_xyz
x,y,z
-x,y,1/2-z
-x,-y,-z
x,-y,1/2+z
1/2+x,1/2+y,z
1/2-x,1/2+y,1/2-z
1/2-x,1/2-y,-z
1/2+x,1/2-y,1/2+z
loop_
_atom_site_type_symbol
_atom_site_label
_atom_site_fract_x
_atom_site_fract_y
_atom_site_fract_z
Si Si1 0.639514 0.797618 0.794023
Si Si2 0.660785 0.819986 0.258209
Si Si3 0.069984 0.997615 0.061419
Si Si4 0.944656 0.598759 0.487920
Si Si5 0.690840 0.975667 0.629144
Si Si6 0.500000 0.333576 0.250000
Si Si7 0.000000 0.834175 0.750000
O O1 0.723130 0.730042 0.811124
O O2 0.536265 0.818588 0.918609
O O3 0.690477 0.902649 0.727847
O O4 0.602825 0.734450 0.715575
O O5 0.636938 0.854863 0.386646
O O6 0.580645 0.734353 0.267746
O O7 0.651528 0.913851 0.185746
O O8 0.060507 0.097333 0.135373
O O9 0.025758 0.899108 0.138866
O O10 0.191903 0.983016 0.974045
O O11 0.000000 0.000000 0.000000
O O12 0.885659 0.568087 0.416096
O O13 0.000000 0.500000 0.500000
#
# Coordination Sequence:
#
# PCOD8153809 Si02
#       7
#     8   8   8   8   8   4   4
#     4  12  26  45  74 107 142 191 245 293 360 434
#     4  12  28  46  74 107 145 190 246 295 366 428
#     4  11  26  46  71 102 148 187 237 303 364 422
#     4  12  26  47  75 103 150 190 236 304 362 426
#     4  12  26  47  72 107 144 189 242 300 356 435
#     4  11  24  45  70 104 140 185 242 291 354 436
#     4  11  28  47  70 108 144 187 246 299 360 438
#
# _framework density 21.871919999999999
#
# number of rings (size 3 to 8) (size 9 to 14) (size 15 to 20)
#    0.000    0.333    3.333    4.000    9.333    4.667 
#    0.000    0.000    0.000    0.000    0.000    0.000 
#    0.000    0.000    0.000    0.000    0.000    0.000 
#
# Total GULP energy -297704.993616 kJ/mol
# GULP energy per Si atom -12404.374734 kJ/mol
# Density = 2.182214 g / cm^3
# Si number density = 21.871920 Si / 1000 Ang^3
#
#
#
# Elastic Constant Matrix: (Units=GPa)
#
#
# Indices 1 2 3 4 5 6 
#
# 1 113.6421 39.6978 38.7986 0.0000 -10.3976 0.0000
# 2 39.6978 117.5518 35.2109 0.0000 -5.7517 0.0000
# 3 38.7986 35.2109 113.6431 0.0000 -13.2819 0.0000
# 4 0.0000 0.0000 0.0000 9.7391 0.0000 -2.2272
# 5 -10.3976 -5.7517 -13.2819 0.0000 38.2491 0.0000
# 6 0.0000 0.0000 0.0000 -2.2272 0.0000 50.7611
#
#
#
# Elastic Compliance Matrix: (Units=1/GPa)
#
#
# Indices 1 2 3 4 5 6 
#
# 1 0.010822 -0.002784 -0.002645 0.000000 0.001605 0.000000
# 2 -0.002784 0.010100 -0.002178 0.000000 0.000006 0.000000
# 3 -0.002645 -0.002178 0.010689 0.000000 0.002665 0.000000
# 4 0.000000 0.000000 0.000000 0.103720 0.000000 0.004551
# 5 0.001605 0.000006 0.002665 0.000000 0.027507 0.000000
# 6 0.000000 0.000000 0.000000 0.004551 0.000000 0.019900
#
#
# Mechanical properties :
#
#
# Convention : Reuss Voigt Hill
#
# Bulk Modulus (GPa) = 60.98671 63.58352 62.28511
# Shear Modulus (GPa) = 24.58021 35.15850 29.86935
#
# Velocity S-wave (km/s) = 3.35599 4.01368 3.69948
# Velocity P-wave (km/s) = 6.55446 7.11431 6.84012
#
# Compressibility (1/GPa) = 0.01639702
#
# Stress axis : x y z
#
# Youngs Moduli (GPa) = 92.40665 99.01240 93.55669
#
# Poissons Ratio (x) = 0.27564 0.24741
# Poissons Ratio (y) = 0.25725 0.20378
# Poissons Ratio (z) = 0.24437 0.21567
#
# Static dielectric constant tensor:
#      x y z
#    x 4.338380 0.000000 -0.051790 
#    y 0.000000 4.380940 0.000000 
#    z -0.051790 0.000000 4.166820 
# 
# 
# High freq. dielectric constant tensor:
#      x y z
#    x 1.868720 0.000000 -0.002510 
#    y 0.000000 1.885460 0.000000 
#    z -0.002510 0.000000 1.865750 
# 
# From -- ./inp_files/152520.got.cif
#   From: 2010.06.25/outbox.cif.g09.slc.cpg/sg15_77_cif.got.tgz:152520.got - 2010.06.28 07:06:18.
