data_PCOD8153479
_publ_section_title
;
Structure prediction by ZEFSAII (Michael W. Deem and Ramdas Pophale) SiO2 
 PCOD8153479
Probable space group: C 2/C
;
_chemical_formula_sum "Si O2"
_cell_formula_units_Z 32
_cell_length_a 21.402370
_cell_length_b 4.864376
_cell_length_c 13.957869
_cell_angle_alpha 90.000000
_cell_angle_beta 54.398615
_cell_angle_gamma 90.000000
_cell_volume 1181.530602
_symmetry_space_group_name_H-M "C 2/C"
_symmetry_group_IT_number 15
_symmetry_cell_setting 'monoclinic'
loop_
_space_group_symop_operation_xyz
x,y,z
-x,y,1/2-z
-x,-y,-z
x,-y,1/2+z
1/2+x,1/2+y,z
1/2-x,1/2+y,1/2-z
1/2-x,1/2-y,-z
1/2+x,1/2-y,1/2+z
loop_
_atom_site_type_symbol
_atom_site_label
_atom_site_fract_x
_atom_site_fract_y
_atom_site_fract_z
Si Si1 0.038519 0.016582 0.813101
Si Si2 0.325645 0.278084 0.064997
Si Si3 0.412177 0.775879 0.053605
Si Si4 0.303325 0.465858 0.395009
O O1 0.056779 0.757709 0.866255
O O2 0.000000 0.906026 0.750000
O O3 0.120518 0.171665 0.719086
O O4 0.979992 0.219250 0.917697
O O5 0.337408 0.579513 0.100831
O O6 0.390658 0.091514 0.055653
O O7 0.242354 0.129033 0.149671
O O8 0.335171 0.305397 0.941363
O O9 0.250000 0.250000 0.500000
#
# Coordination Sequence:
#
# PCOD8153479 Si02
#       4
#     8   8   8   8
#     4  11  24  49  73 113 150 204 248 314 380 451
#     4  11  23  49  71 106 148 191 253 307 373 439
#     4  11  26  49  73 110 150 197 255 312 369 460
#     4  11  23  47  78 108 151 196 247 317 378 454
#
# _framework density 27.083514000000001
#
# number of rings (size 3 to 8) (size 9 to 14) (size 15 to 20)
#    0.000    1.000    5.000    0.000    0.000    6.000 
#   31.500    0.000    0.000    0.000    0.000    0.000 
#    0.000    0.000    0.000    0.000    0.000    0.000 
#
# Total GULP energy -198228.907738 kJ/mol
# GULP energy per Si atom -12389.306734 kJ/mol
# Density = 2.702187 g / cm^3
# Si number density = 27.083514 Si / 1000 Ang^3
#
#
#
# Elastic Constant Matrix: (Units=GPa)
#
#
# Indices 1 2 3 4 5 6 
#
# 1 138.6223 17.5861 62.1624 -0.0103 8.1457 -0.0075
# 2 17.5861 83.3583 10.7883 -0.0162 0.9261 -0.0222
# 3 62.1624 10.7883 126.1744 0.0008 -2.0581 -0.0023
# 4 -0.0103 -0.0162 0.0008 9.8860 0.0004 4.3607
# 5 8.1457 0.9261 -2.0581 0.0004 49.6955 -0.0022
# 6 -0.0075 -0.0222 -0.0023 4.3607 -0.0022 51.9904
#
#
#
# Elastic Compliance Matrix: (Units=1/GPa)
#
#
# Indices 1 2 3 4 5 6 
#
# 1 0.009566 -0.001401 -0.004621 0.000008 -0.001733 0.000000
# 2 -0.001401 0.012339 -0.000365 0.000017 -0.000015 0.000004
# 3 -0.004621 -0.000365 0.010253 -0.000006 0.001189 0.000000
# 4 0.000008 0.000017 -0.000006 0.105039 -0.000003 -0.008810
# 5 -0.001733 -0.000015 0.001189 -0.000003 0.020456 0.000001
# 6 0.000000 0.000004 0.000000 -0.008810 0.000001 0.019973
#
#
# Mechanical properties :
#
#
# Convention : Reuss Voigt Hill
#
# Bulk Modulus (GPa) = 51.58998 58.80317 55.19658
# Shear Modulus (GPa) = 25.39852 39.48893 32.44373
#
# Velocity S-wave (km/s) = 3.06565 3.82258 3.46484
# Velocity P-wave (km/s) = 5.62324 6.42197 6.03583
#
# Compressibility (1/GPa) = 0.01938361
#
# Stress axis : x y z
#
# Youngs Moduli (GPa) = 104.54012 81.04147 97.53328
#
# Poissons Ratio (x) = 0.11352 0.45073
# Poissons Ratio (y) = 0.14643 0.03562
# Poissons Ratio (z) = 0.48311 0.02960
#
# Static dielectric constant tensor:
#      x y z
#    x 5.682710 -0.000020 -0.109700 
#    y -0.000020 4.384930 0.000020 
#    z -0.109700 0.000020 4.940660 
# 
# 
# High freq. dielectric constant tensor:
#      x y z
#    x 2.127060 0.000000 -0.002270 
#    y 0.000000 2.056850 0.000000 
#    z -0.002270 0.000000 2.075100 
# 
# From -- ./inp_files/170377.got.cif
#   From: 2010.06.25/outbox.cif.g09.slc.cpg/sg15_86_cif.got.tgz:170377.got - 2010.06.28 07:06:18.
