data_PCOD8153980
_publ_section_title
;
Structure prediction by ZEFSAII (Michael W. Deem and Ramdas Pophale) SiO2 
 PCOD8153980
Probable space group: C 2/C
;
_chemical_formula_sum "Si O2"
_cell_formula_units_Z 40
_cell_length_a 17.759666
_cell_length_b 8.536891
_cell_length_c 10.854171
_cell_angle_alpha 90.000000
_cell_angle_beta 99.052890
_cell_angle_gamma 90.000000
_cell_volume 1625.127467
_symmetry_space_group_name_H-M "C 2/C"
_symmetry_group_IT_number 15
_symmetry_cell_setting 'monoclinic'
loop_
_space_group_symop_operation_xyz
x,y,z
-x,y,1/2-z
-x,-y,-z
x,-y,1/2+z
1/2+x,1/2+y,z
1/2-x,1/2+y,1/2-z
1/2-x,1/2-y,-z
1/2+x,1/2-y,1/2+z
loop_
_atom_site_type_symbol
_atom_site_label
_atom_site_fract_x
_atom_site_fract_y
_atom_site_fract_z
Si Si1 0.868698 0.799716 0.487194
Si Si2 0.710209 0.900315 0.341357
Si Si3 0.932211 0.919341 0.136058
Si Si4 0.010757 0.622780 0.111382
Si Si5 0.283848 0.254839 0.143246
O O1 0.790927 0.884471 0.431096
O O2 0.856417 0.678345 0.595864
O O3 0.905420 0.703567 0.382305
O O4 0.928368 0.932890 0.544502
O O5 0.714599 0.809287 0.213175
O O6 0.688049 0.080666 0.313313
O O7 0.849768 0.886910 0.177638
O O8 0.000000 0.949719 0.250000
O O9 0.948904 0.758027 0.067457
O O10 0.000000 0.558583 0.250000
O O11 0.000000 0.500000 0.000000
O O12 0.250000 0.250000 0.000000
#
# Coordination Sequence:
#
# PCOD8153980 Si02
#       5
#     8   8   8   8   8
#     4  11  24  47  75 106 145 196 244 312 369 445
#     4  11  25  45  76 108 148 191 251 306 370 439
#     4  11  24  48  74 109 151 194 251 308 377 450
#     4  11  25  47  70 104 149 194 247 306 373 449
#     4  12  25  48  76 111 150 196 249 306 374 442
#
# _framework density 24.613454999999998
#
# number of rings (size 3 to 8) (size 9 to 14) (size 15 to 20)
#    0.000    0.800    2.000    5.400    2.800    0.800 
#   14.400    2.000    0.000    0.000    0.000    0.000 
#    0.000    0.000    0.000    0.000    0.000    0.000 
#
# Total GULP energy -247970.204128 kJ/mol
# GULP energy per Si atom -12398.510206 kJ/mol
# Density = 2.455743 g / cm^3
# Si number density = 24.613455 Si / 1000 Ang^3
#
#
#
# Elastic Constant Matrix: (Units=GPa)
#
#
# Indices 1 2 3 4 5 6 
#
# 1 80.2485 11.8704 40.0262 0.0000 -3.5751 0.0000
# 2 11.8704 133.0238 70.5273 0.0000 2.1625 0.0000
# 3 40.0262 70.5273 175.6531 0.0000 -12.7675 0.0000
# 4 0.0000 0.0000 0.0000 44.2081 0.0000 -1.6460
# 5 -3.5751 2.1625 -12.7675 0.0000 47.6698 0.0000
# 6 0.0000 0.0000 0.0000 -1.6460 0.0000 43.2639
#
#
#
# Elastic Compliance Matrix: (Units=1/GPa)
#
#
# Indices 1 2 3 4 5 6 
#
# 1 0.014093 0.000557 -0.003427 0.000000 0.000114 0.000000
# 2 0.000557 0.009677 -0.004122 0.000000 -0.001501 0.000000
# 3 -0.003427 -0.004122 0.008285 0.000000 0.002149 0.000000
# 4 0.000000 0.000000 0.000000 0.022652 0.000000 0.000862
# 5 0.000114 -0.001501 0.002149 0.000000 0.021630 0.000000
# 6 0.000000 0.000000 0.000000 0.000862 0.000000 0.023147
#
#
# Mechanical properties :
#
#
# Convention : Reuss Voigt Hill
#
# Bulk Modulus (GPa) = 55.33067 70.41925 62.87496
# Shear Modulus (GPa) = 41.84394 44.79513 43.31953
#
# Velocity S-wave (km/s) = 4.12763 4.27071 4.19978
# Velocity P-wave (km/s) = 6.72645 7.27948 7.00842
#
# Compressibility (1/GPa) = 0.01807316
#
# Stress axis : x y z
#
# Youngs Moduli (GPa) = 70.95619 103.33342 120.69857
#
# Poissons Ratio (x) = -0.05761 0.41363
# Poissons Ratio (y) = -0.03956 0.49749
# Poissons Ratio (z) = 0.24317 0.42592
#
# Static dielectric constant tensor:
#      x y z
#    x 4.543910 0.000000 -0.388000 
#    y 0.000000 4.604050 0.000000 
#    z -0.388000 0.000000 4.344640 
# 
# 
# High freq. dielectric constant tensor:
#      x y z
#    x 1.982690 0.000000 -0.016960 
#    y 0.000000 1.981370 0.000000 
#    z -0.016960 0.000000 1.980900 
# 
# From -- ./inp_files/102767.got.cif
#   From: 2010.06.25/outbox.cif.g09.slc.cpg/sg15_52_cif.got.tgz:102767.got - 2010.06.28 07:06:18.
