data_PCOD8153145
_publ_section_title
;
Structure prediction by ZEFSAII (Michael W. Deem and Ramdas Pophale) SiO2 
 PCOD8153145
Probable space group: C 2/C
;
_chemical_formula_sum "Si O2"
_cell_formula_units_Z 36
_cell_length_a 22.501547
_cell_length_b 15.495469
_cell_length_c 13.985052
_cell_angle_alpha 90.000000
_cell_angle_beta 159.241301
_cell_angle_gamma 90.000000
_cell_volume 1728.284972
_symmetry_space_group_name_H-M "C 2/C"
_symmetry_group_IT_number 15
_symmetry_cell_setting 'monoclinic'
loop_
_space_group_symop_operation_xyz
x,y,z
-x,y,1/2-z
-x,-y,-z
x,-y,1/2+z
1/2+x,1/2+y,z
1/2-x,1/2+y,1/2-z
1/2-x,1/2-y,-z
1/2+x,1/2-y,1/2+z
loop_
_atom_site_type_symbol
_atom_site_label
_atom_site_fract_x
_atom_site_fract_y
_atom_site_fract_z
Si Si1 0.192265 0.268703 0.305168
Si Si2 0.500000 0.366388 0.750000
Si Si3 0.648599 0.512769 0.850177
Si Si4 0.591190 0.911309 0.623262
Si Si5 0.689836 0.415966 0.726115
O O1 0.250000 0.250000 0.500000
O O2 0.352725 0.304972 0.485178
O O3 0.136158 0.177547 0.180660
O O4 0.032263 0.330796 0.049748
O O5 0.614922 0.422230 0.852102
O O6 0.730066 0.485159 0.871065
O O7 0.466866 0.553227 0.570320
O O8 0.760719 0.583804 0.074613
O O9 0.652415 0.909838 0.606174
O O10 0.500000 0.000000 0.500000
#
# Coordination Sequence:
#
# PCOD8153145 Si02
#       5
#     8   4   8   8   8
#     4  12  24  39  67  97 128 171 221 274 326 390
#     4  12  20  44  60  90 130 166 214 270 324 382
#     4  11  23  43  68  93 134 177 214 270 331 392
#     4  12  23  43  70  99 130 174 224 272 321 403
#     4  11  24  42  67  98 133 173 218 272 333 392
#
# _framework density 20.829898
#
# number of rings (size 3 to 8) (size 9 to 14) (size 15 to 20)
#    0.000    0.444    6.667    1.333    0.000    3.556 
#    0.000    0.000    0.000    0.000    0.000    0.000 
#    0.000    0.000    0.000    0.000    0.000    0.000 
#
# Total GULP energy -223040.728856 kJ/mol
# GULP energy per Si atom -12391.151603 kJ/mol
# Density = 2.078249 g / cm^3
# Si number density = 20.829898 Si / 1000 Ang^3
#
#
#
# Elastic Constant Matrix: (Units=GPa)
#
#
# Indices 1 2 3 4 5 6 
#
# 1 74.0442 10.3051 23.5621 0.0000 8.6325 0.0000
# 2 10.3051 88.8829 15.9284 0.0000 2.8831 0.0000
# 3 23.5621 15.9284 73.8922 0.0000 1.8223 0.0000
# 4 0.0000 0.0000 0.0000 36.0142 0.0000 14.7493
# 5 8.6325 2.8831 1.8223 0.0000 33.1860 0.0000
# 6 0.0000 0.0000 0.0000 14.7493 0.0000 22.1643
#
#
#
# Elastic Compliance Matrix: (Units=1/GPa)
#
#
# Indices 1 2 3 4 5 6 
#
# 1 0.015546 -0.000843 -0.004684 0.000000 -0.003714 0.000000
# 2 -0.000843 0.011774 -0.002253 0.000000 -0.000680 0.000000
# 3 -0.004684 -0.002253 0.015499 0.000000 0.000563 0.000000
# 4 0.000000 0.000000 0.000000 0.038169 0.000000 -0.025400
# 5 -0.003714 -0.000680 0.000563 0.000000 0.031127 0.000000
# 6 0.000000 0.000000 0.000000 -0.025400 0.000000 0.062020
#
#
# Mechanical properties :
#
#
# Convention : Reuss Voigt Hill
#
# Bulk Modulus (GPa) = 36.68319 37.37896 37.03108
# Shear Modulus (GPa) = 25.15333 30.74114 27.94724
#
# Velocity S-wave (km/s) = 3.47877 3.84581 3.66688
# Velocity P-wave (km/s) = 5.81247 6.14037 5.97867
#
# Compressibility (1/GPa) = 0.02726044
#
# Stress axis : x y z
#
# Youngs Moduli (GPa) = 64.32446 84.93155 64.52230
#
# Poissons Ratio (x) = 0.07156 0.30222
# Poissons Ratio (y) = 0.05420 0.14535
# Poissons Ratio (z) = 0.30130 0.19132
#
# Static dielectric constant tensor:
#      x y z
#    x 3.942020 0.000000 -0.329210 
#    y 0.000000 3.529360 0.000000 
#    z -0.329210 0.000000 5.055940 
# 
# 
# High freq. dielectric constant tensor:
#      x y z
#    x 1.812860 0.000000 0.013260 
#    y 0.000000 1.826020 0.000000 
#    z 0.013260 0.000000 1.821460 
# 
# From -- ./inp_files/57124.got.cif
#   From: 2010.06.25/outbox.cif.g09.slc.cpg/sg15_29_cif.got.tgz:57124.got - 2010.06.28 07:06:18.
