data_PCOD8153859
_publ_section_title
;
Structure prediction by ZEFSAII (Michael W. Deem and Ramdas Pophale) SiO2 
 PCOD8153859
Probable space group: C 2/C
;
_chemical_formula_sum "Si O2"
_cell_formula_units_Z 60
_cell_length_a 25.313178
_cell_length_b 21.708577
_cell_length_c 13.695215
_cell_angle_alpha 90.000000
_cell_angle_beta 160.030981
_cell_angle_gamma 90.000000
_cell_volume 2570.116620
_symmetry_space_group_name_H-M "C 2/C"
_symmetry_group_IT_number 15
_symmetry_cell_setting 'monoclinic'
loop_
_space_group_symop_operation_xyz
x,y,z
-x,y,1/2-z
-x,-y,-z
x,-y,1/2+z
1/2+x,1/2+y,z
1/2-x,1/2+y,1/2-z
1/2-x,1/2-y,-z
1/2+x,1/2-y,1/2+z
loop_
_atom_site_type_symbol
_atom_site_label
_atom_site_fract_x
_atom_site_fract_y
_atom_site_fract_z
Si Si1 0.375536 0.287787 0.341996
Si Si2 0.500000 0.434254 0.750000
Si Si3 0.591719 0.820172 0.731294
Si Si4 0.236678 0.504889 0.675420
Si Si5 0.823283 0.369364 0.971699
Si Si6 0.801485 0.739675 0.780948
Si Si7 0.320600 0.651371 0.082557
Si Si8 0.968434 0.541413 0.351512
O O1 0.395751 0.215858 0.349704
O O2 0.315315 0.292547 0.347103
O O3 0.532379 0.325057 0.601478
O O4 0.259371 0.323385 0.069680
O O5 0.406845 0.473780 0.506296
O O6 0.627890 0.396094 0.911988
O O7 0.479620 0.780291 0.609197
O O8 0.530567 0.888676 0.607702
O O9 0.231983 0.431171 0.677931
O O10 0.190876 0.524581 0.484020
O O11 0.110660 0.535266 0.525954
O O12 0.000000 0.355698 0.250000
O O13 0.717974 0.313001 0.751288
O O14 0.798794 0.377955 0.046382
O O15 0.760237 0.711241 0.604057
O O16 0.000000 0.500000 0.500000
#
# Coordination Sequence:
#
# PCOD8153859 Si02
#       8
#     8   4   8   8   8   8   8   8
#     4  11  24  46  67 115 146 190 235 316 382 450
#     4  12  26  50  76 110 148 200 254 324 380 470
#     4  11  26  44  75 108 152 188 249 300 385 458
#     4  11  28  49  73 107 150 201 260 309 382 452
#     4  12  27  48  72 108 151 195 259 318 374 461
#     4  12  25  42  77 106 146 191 238 313 376 453
#     4  12  25  46  79 109 144 195 252 308 391 450
#     4  11  26  48  77 108 147 207 257 308 373 472
#
# _framework density 23.345243
#
# number of rings (size 3 to 8) (size 9 to 14) (size 15 to 20)
#    0.000    0.533    4.000    3.200   11.200    0.533 
#    4.800    0.000    0.000    0.000    0.000    0.000 
#    0.000    0.000    0.000    0.000    0.000    0.000 
#
# Total GULP energy -371988.452679 kJ/mol
# GULP energy per Si atom -12399.615089 kJ/mol
# Density = 2.329211 g / cm^3
# Si number density = 23.345243 Si / 1000 Ang^3
#
#
#
# Elastic Constant Matrix: (Units=GPa)
#
#
# Indices 1 2 3 4 5 6 
#
# 1 115.8003 15.5671 34.3789 0.0000 5.0330 0.0000
# 2 15.5671 141.9999 39.3558 0.0000 -6.8975 0.0000
# 3 34.3789 39.3558 114.6836 0.0000 -10.2862 0.0000
# 4 0.0000 0.0000 0.0000 22.9408 0.0000 3.3460
# 5 5.0330 -6.8975 -10.2862 0.0000 37.0107 0.0000
# 6 0.0000 0.0000 0.0000 3.3460 0.0000 30.5845
#
#
#
# Elastic Compliance Matrix: (Units=1/GPa)
#
#
# Indices 1 2 3 4 5 6 
#
# 1 0.009661 -0.000341 -0.002977 0.000000 -0.002205 0.000000
# 2 -0.000341 0.007814 -0.002507 0.000000 0.000806 0.000000
# 3 -0.002977 -0.002507 0.010734 0.000000 0.002921 0.000000
# 4 0.000000 0.000000 0.000000 0.044297 0.000000 -0.004846
# 5 -0.002205 0.000806 0.002921 0.000000 0.028281 0.000000
# 6 0.000000 0.000000 0.000000 -0.004846 0.000000 0.033226
#
#
# Mechanical properties :
#
#
# Convention : Reuss Voigt Hill
#
# Bulk Modulus (GPa) = 60.38902 61.23193 60.81048
# Shear Modulus (GPa) = 33.07254 36.98601 35.02928
#
# Velocity S-wave (km/s) = 3.76795 3.98465 3.87782
# Velocity P-wave (km/s) = 6.69731 6.88881 6.79373
#
# Compressibility (1/GPa) = 0.01655930
#
# Stress axis : x y z
#
# Youngs Moduli (GPa) = 103.50917 127.98235 93.15992
#
# Poissons Ratio (x) = 0.04367 0.27731
# Poissons Ratio (y) = 0.03532 0.23353
# Poissons Ratio (z) = 0.30812 0.32083
#
# Static dielectric constant tensor:
#      x y z
#    x 4.342540 0.000000 0.163140 
#    y 0.000000 4.174140 0.000000 
#    z 0.163140 0.000000 4.303390 
# 
# 
# High freq. dielectric constant tensor:
#      x y z
#    x 1.925530 0.000000 0.002880 
#    y 0.000000 1.925510 0.000000 
#    z 0.002880 0.000000 1.927550 
# 
# From -- ./inp_files/179117.got.cif
#   From: 2010.06.25/outbox.cif.g09.slc.cpg/sg15_90_cif.got.tgz:179117.got - 2010.06.28 07:06:18.
