data_PCOD8153350
_publ_section_title
;
Structure prediction by ZEFSAII (Michael W. Deem and Ramdas Pophale) SiO2 
 PCOD8153350
Probable space group: C 2/C
;
_chemical_formula_sum "Si O2"
_cell_formula_units_Z 52
_cell_length_a 8.759362
_cell_length_b 23.944039
_cell_length_c 17.130145
_cell_angle_alpha 90.000000
_cell_angle_beta 137.958382
_cell_angle_gamma 90.000000
_cell_volume 2405.979471
_symmetry_space_group_name_H-M "C 2/C"
_symmetry_group_IT_number 15
_symmetry_cell_setting 'monoclinic'
loop_
_space_group_symop_operation_xyz
x,y,z
-x,y,1/2-z
-x,-y,-z
x,-y,1/2+z
1/2+x,1/2+y,z
1/2-x,1/2+y,1/2-z
1/2-x,1/2-y,-z
1/2+x,1/2-y,1/2+z
loop_
_atom_site_type_symbol
_atom_site_label
_atom_site_fract_x
_atom_site_fract_y
_atom_site_fract_z
Si Si1 0.387130 0.792057 0.290218
Si Si2 0.966563 0.492368 0.397509
Si Si3 0.000000 0.058282 0.750000
Si Si4 0.962691 0.611451 0.145216
Si Si5 0.999336 0.866788 0.102196
Si Si6 0.089240 0.169763 0.198521
Si Si7 0.735493 0.115588 0.950763
O O1 0.500000 0.784678 0.250000
O O2 0.122436 0.811862 0.184318
O O3 0.390411 0.731471 0.334138
O O4 0.540880 0.837794 0.393762
O O5 0.699243 0.479104 0.287846
O O6 0.042469 0.546619 0.379174
O O7 0.000000 0.500000 0.500000
O O8 0.128585 0.443627 0.429093
O O9 0.924800 0.094451 0.646547
O O10 0.171715 0.642957 0.186469
O O11 0.000000 0.617433 0.250000
O O12 0.734081 0.644442 0.032823
O O13 0.182385 0.890354 0.108225
O O14 0.000000 0.178497 0.250000
O O15 0.946075 0.128979 0.087988
#
# Coordination Sequence:
#
# PCOD8153350 Si02
#       7
#     8   8   4   8   8   8   8
#     4   9  21  43  72  99 130 179 231 284 343 413
#     4  12  27  43  68 101 140 182 227 286 347 411
#     4  12  26  44  68 104 136 172 240 290 334 416
#     4  12  27  44  64 102 140 185 228 280 347 412
#     4  11  24  46  68 101 136 178 235 283 347 413
#     4  11  24  43  69 100 136 181 230 284 342 409
#     4  11  23  45  71  97 138 184 229 280 347 423
#
# _framework density 21.612819999999999
#
# number of rings (size 3 to 8) (size 9 to 14) (size 15 to 20)
#    0.000    0.923    4.615    1.385    5.385    1.231 
#    1.385    0.000    0.000    0.000    0.000    0.000 
#    0.000    0.000    0.000    0.000    0.000    0.000 
#
# Total GULP energy -322238.360533 kJ/mol
# GULP energy per Si atom -12393.783097 kJ/mol
# Density = 2.156363 g / cm^3
# Si number density = 21.612820 Si / 1000 Ang^3
#
#
#
# Elastic Constant Matrix: (Units=GPa)
#
#
# Indices 1 2 3 4 5 6 
#
# 1 63.4868 39.1482 38.4797 -0.0001 13.9962 0.0000
# 2 39.1482 104.9373 26.2720 -0.0001 28.1646 0.0000
# 3 38.4797 26.2720 122.6149 -0.0005 25.4835 0.0001
# 4 -0.0001 -0.0001 -0.0005 25.0609 -0.0001 25.4643
# 5 13.9962 28.1646 25.4835 -0.0001 45.8508 0.0000
# 6 0.0000 0.0000 0.0001 25.4643 0.0000 17.4335
#
#
#
# Elastic Compliance Matrix: (Units=1/GPa)
#
#
# Indices 1 2 3 4 5 6 
#
# 1 0.023945 -0.007617 -0.006033 0.000000 0.000722 0.000000
# 2 -0.007617 0.013970 0.000788 0.000000 -0.006695 0.000000
# 3 -0.006033 0.000788 0.010851 -0.000001 -0.004674 0.000001
# 4 0.000000 0.000000 -0.000001 -0.082415 0.000000 0.120379
# 5 0.000722 -0.006695 -0.004674 0.000000 0.028299 0.000000
# 6 0.000000 0.000000 0.000001 0.120379 0.000000 -0.118472
#
#
# Mechanical properties :
#
#
# Convention : Reuss Voigt Hill
#
# Bulk Modulus (GPa) = 43.39347 55.42652 49.41000
# Shear Modulus (GPa) = -55.29953 30.14498 -12.57727
#
# Velocity S-wave (km/s) = -5.06379 3.73872 -2.41495
# Velocity P-wave (km/s) = 3.75074 6.65870 3.89038
#
# Compressibility (1/GPa) = 0.02304494
#
# Stress axis : x y z
#
# Youngs Moduli (GPa) = 41.76203 71.57995 92.15477
#
# Poissons Ratio (x) = 0.54519 0.55595
# Poissons Ratio (y) = 0.31808 -0.07264
# Poissons Ratio (z) = 0.25194 -0.05642
#
# Static dielectric constant tensor:
#      x y z
#    x 3.938760 0.000000 0.059610 
#    y 0.000000 3.684070 0.000000 
#    z 0.059610 0.000000 4.020540 
# 
# 
# High freq. dielectric constant tensor:
#      x y z
#    x 1.853030 0.000000 0.004990 
#    y 0.000000 1.842850 0.000000 
#    z 0.004990 0.000000 1.859640 
# 
# From -- ./inp_files/193771.got.cif
#   From: 2010.06.25/outbox.cif.g09.slc.cpg/sg15_97_cif.got.tgz:193771.got - 2010.06.28 07:06:18.
