data_PCOD8153750
_publ_section_title
;
Structure prediction by ZEFSAII (Michael W. Deem and Ramdas Pophale) SiO2 
 PCOD8153750
Probable space group: C 2/C
;
_chemical_formula_sum "Si O2"
_cell_formula_units_Z 52
_cell_length_a 25.663141
_cell_length_b 7.929549
_cell_length_c 12.217186
_cell_angle_alpha 90.000000
_cell_angle_beta 98.654170
_cell_angle_gamma 90.000000
_cell_volume 2457.856289
_symmetry_space_group_name_H-M "C 2/C"
_symmetry_group_IT_number 15
_symmetry_cell_setting 'monoclinic'
loop_
_space_group_symop_operation_xyz
x,y,z
-x,y,1/2-z
-x,-y,-z
x,-y,1/2+z
1/2+x,1/2+y,z
1/2-x,1/2+y,1/2-z
1/2-x,1/2-y,-z
1/2+x,1/2-y,1/2+z
loop_
_atom_site_type_symbol
_atom_site_label
_atom_site_fract_x
_atom_site_fract_y
_atom_site_fract_z
Si Si1 0.500000 0.446428 0.250000
Si Si2 0.937860 0.606424 0.598499
Si Si3 0.691950 0.231459 0.675996
Si Si4 0.079022 0.210393 0.199663
Si Si5 0.321953 0.908799 0.976569
Si Si6 0.231108 0.093210 0.622842
Si Si7 0.982224 0.267733 0.531146
O O1 0.554133 0.541478 0.240152
O O2 0.514952 0.354620 0.366133
O O3 0.945514 0.644413 0.729853
O O4 0.875993 0.595000 0.559240
O O5 0.972594 0.444799 0.585219
O O6 0.964120 0.745592 0.524965
O O7 0.642075 0.285735 0.734437
O O8 0.739809 0.155625 0.759568
O O9 0.708635 0.404280 0.622364
O O10 0.675029 0.079853 0.591757
O O11 0.065892 0.232037 0.067350
O O12 0.315452 0.731979 0.908529
O O13 0.271378 0.917821 0.036598
#
# Coordination Sequence:
#
# PCOD8153750 Si02
#       7
#     4   8   8   8   8   8   8
#     4  12  28  44  68 104 140 178 226 288 344 416
#     4  11  24  44  73  96 136 182 232 279 348 414
#     4  12  24  45  69 102 134 185 224 285 342 410
#     4  12  25  46  69 100 142 177 228 285 346 412
#     4  11  24  46  69  99 138 180 231 283 342 407
#     4  11  25  44  70  99 139 178 231 283 343 401
#     4  11  26  45  70 102 136 180 227 280 347 419
#
# _framework density 21.156647
#
# number of rings (size 3 to 8) (size 9 to 14) (size 15 to 20)
#    0.000    0.615    6.154    0.923    6.462    0.000 
#    2.769    0.000    0.000    0.000    0.000    0.000 
#    0.000    0.000    0.000    0.000    0.000    0.000 
#
# Total GULP energy -322176.305687 kJ/mol
# GULP energy per Si atom -12391.396373 kJ/mol
# Density = 2.110849 g / cm^3
# Si number density = 21.156647 Si / 1000 Ang^3
#
#
#
# Elastic Constant Matrix: (Units=GPa)
#
#
# Indices 1 2 3 4 5 6 
#
# 1 84.3032 22.9329 15.8246 0.0000 -8.4170 0.0000
# 2 22.9329 105.0168 39.7041 0.0000 -2.1825 0.0000
# 3 15.8246 39.7041 102.0617 0.0000 -4.0423 0.0000
# 4 0.0000 0.0000 0.0000 32.8325 0.0000 -2.2707
# 5 -8.4170 -2.1825 -4.0423 0.0000 24.4078 0.0000
# 6 0.0000 0.0000 0.0000 -2.2707 0.0000 19.1442
#
#
#
# Elastic Compliance Matrix: (Units=1/GPa)
#
#
# Indices 1 2 3 4 5 6 
#
# 1 0.013110 -0.002427 -0.000924 0.000000 0.004151 0.000000
# 2 -0.002427 0.011616 -0.004162 0.000000 -0.000488 0.000000
# 3 -0.000924 -0.004162 0.011609 0.000000 0.001232 0.000000
# 4 0.000000 0.000000 0.000000 0.030710 0.000000 0.003643
# 5 0.004151 -0.000488 0.001232 0.000000 0.042562 0.000000
# 6 0.000000 0.000000 0.000000 0.003643 0.000000 0.052667
#
#
# Mechanical properties :
#
#
# Convention : Reuss Voigt Hill
#
# Bulk Modulus (GPa) = 46.92905 49.81166 48.37035
# Shear Modulus (GPa) = 27.11456 29.47157 28.29307
#
# Velocity S-wave (km/s) = 3.58384 3.73636 3.66090
# Velocity P-wave (km/s) = 6.27336 6.49686 6.38609
#
# Compressibility (1/GPa) = 0.02130876
#
# Stress axis : x y z
#
# Youngs Moduli (GPa) = 76.27689 86.09086 86.13980
#
# Poissons Ratio (x) = 0.20897 0.07960
# Poissons Ratio (y) = 0.18515 0.35849
# Poissons Ratio (z) = 0.07048 0.35828
#
# Static dielectric constant tensor:
#      x y z
#    x 3.923930 0.000000 -0.145990 
#    y 0.000000 4.088700 0.000000 
#    z -0.145990 0.000000 4.170160 
# 
# 
# High freq. dielectric constant tensor:
#      x y z
#    x 1.837810 0.000000 -0.002010 
#    y 0.000000 1.834780 0.000000 
#    z -0.002010 0.000000 1.838990 
# 
# From -- ./inp_files/121570.got.cif
#   From: 2010.06.25/outbox.cif.g09.slc.cpg/sg15_61_cif.got.tgz:121570.got - 2010.06.28 07:06:18.
