data_PCOD8153676
_publ_section_title
;
Structure prediction by ZEFSAII (Michael W. Deem and Ramdas Pophale) SiO2 
 PCOD8153676
Probable space group: C 2/C
;
_chemical_formula_sum "Si O2"
_cell_formula_units_Z 44
_cell_length_a 13.262929
_cell_length_b 26.856259
_cell_length_c 5.234791
_cell_angle_alpha 90.000000
_cell_angle_beta 98.480168
_cell_angle_gamma 90.000000
_cell_volume 1844.208441
_symmetry_space_group_name_H-M "C 2/C"
_symmetry_group_IT_number 15
_symmetry_cell_setting 'monoclinic'
loop_
_space_group_symop_operation_xyz
x,y,z
-x,y,1/2-z
-x,-y,-z
x,-y,1/2+z
1/2+x,1/2+y,z
1/2-x,1/2+y,1/2-z
1/2-x,1/2-y,-z
1/2+x,1/2-y,1/2+z
loop_
_atom_site_type_symbol
_atom_site_label
_atom_site_fract_x
_atom_site_fract_y
_atom_site_fract_z
Si Si1 0.299199 0.407513 0.748097
Si Si2 0.796674 0.157020 0.762845
Si Si3 0.000000 0.787533 0.250000
Si Si4 0.910042 0.299956 0.407707
Si Si5 0.500000 0.880269 0.750000
Si Si6 0.500000 0.466170 0.750000
Si Si7 0.610768 0.030611 0.129799
O O1 0.267799 0.370716 0.510517
O O2 0.409299 0.427648 0.729112
O O3 0.229623 0.456927 0.704984
O O4 0.294299 0.380103 0.020296
O O5 0.708236 0.200219 0.724489
O O6 0.910002 0.179933 0.840952
O O7 0.059054 0.754289 0.479810
O O8 0.000000 0.315968 0.250000
O O9 0.910659 0.344631 0.613345
O O10 0.446038 0.916546 0.935098
O O11 0.500000 0.500000 0.500000
O O12 0.579983 0.006334 0.391440
#
# Coordination Sequence:
#
# PCOD8153676 Si02
#       7
#     8   8   4   8   4   4   8
#     4  12  25  46  71 103 142 191 239 294 362 422
#     4  12  26  48  75 104 146 188 242 295 361 442
#     4  11  28  47  74 112 136 190 244 297 368 435
#     4  11  26  46  75 103 150 188 237 303 363 441
#     4  11  24  44  64 105 138 191 230 286 366 413
#     4  12  24  43  70 103 146 189 244 305 358 414
#     4  12  25  42  68 100 139 182 237 288 341 421
#
# _framework density 23.858474000000001
#
# number of rings (size 3 to 8) (size 9 to 14) (size 15 to 20)
#    0.000    0.364    1.818    6.545    7.636    0.727 
#    0.000    0.000    0.000    0.000    0.000    0.000 
#    0.000    0.000    0.000    0.000    0.000    0.000 
#
# Total GULP energy -272692.841300 kJ/mol
# GULP energy per Si atom -12395.129150 kJ/mol
# Density = 2.380417 g / cm^3
# Si number density = 23.858474 Si / 1000 Ang^3
#
#
#
# Elastic Constant Matrix: (Units=GPa)
#
#
# Indices 1 2 3 4 5 6 
#
# 1 140.3302 14.3635 13.3751 0.0000 4.6869 0.0000
# 2 14.3635 85.6826 39.7783 0.0000 -0.5572 0.0000
# 3 13.3751 39.7783 115.9681 0.0000 -3.3350 0.0000
# 4 0.0000 0.0000 0.0000 21.4976 0.0000 -4.7152
# 5 4.6869 -0.5572 -3.3350 0.0000 32.0412 0.0000
# 6 0.0000 0.0000 0.0000 -4.7152 0.0000 41.6844
#
#
#
# Elastic Compliance Matrix: (Units=1/GPa)
#
#
# Indices 1 2 3 4 5 6 
#
# 1 0.007316 -0.000984 -0.000539 0.000000 -0.001143 0.000000
# 2 -0.000984 0.014016 -0.004697 0.000000 -0.000101 0.000000
# 3 -0.000539 -0.004697 0.010327 0.000000 0.001072 0.000000
# 4 0.000000 0.000000 0.000000 0.047700 0.000000 0.005396
# 5 -0.001143 -0.000101 0.001072 0.000000 0.031487 0.000000
# 6 0.000000 0.000000 0.000000 0.005396 0.000000 0.024600
#
#
# Mechanical properties :
#
#
# Convention : Reuss Voigt Hill
#
# Bulk Modulus (GPa) = 52.03042 53.00162 52.51602
# Shear Modulus (GPa) = 32.40588 37.34223 34.87405
#
# Velocity S-wave (km/s) = 3.68945 3.96050 3.82737
# Velocity P-wave (km/s) = 6.32492 6.57094 6.44911
#
# Compressibility (1/GPa) = 0.01921953
#
# Stress axis : x y z
#
# Youngs Moduli (GPa) = 136.68080 71.34799 96.83130
#
# Poissons Ratio (x) = 0.07017 0.05223
# Poissons Ratio (y) = 0.13443 0.45482
# Poissons Ratio (z) = 0.07372 0.33513
#
# Static dielectric constant tensor:
#      x y z
#    x 4.535630 0.000000 0.080060 
#    y 0.000000 4.264670 0.000000 
#    z 0.080060 0.000000 4.272110 
# 
# 
# High freq. dielectric constant tensor:
#      x y z
#    x 1.981230 0.000000 0.000830 
#    y 0.000000 1.951010 0.000000 
#    z 0.000830 0.000000 1.939200 
# 
# From -- ./inp_files/7649.got.cif
#   From: 2010.06.25/outbox.cif.g09.slc.cpg/sg15_4_cif.got.tgz:7649.got - 2010.06.28 07:06:18.
