data_PCOD8153762
_publ_section_title
;
Structure prediction by ZEFSAII (Michael W. Deem and Ramdas Pophale) SiO2 
 PCOD8153762
Probable space group: C 2/C
;
_chemical_formula_sum "Si O2"
_cell_formula_units_Z 36
_cell_length_a 8.432178
_cell_length_b 14.906674
_cell_length_c 18.149693
_cell_angle_alpha 90.000000
_cell_angle_beta 136.689408
_cell_angle_gamma 90.000000
_cell_volume 1564.890981
_symmetry_space_group_name_H-M "C 2/C"
_symmetry_group_IT_number 15
_symmetry_cell_setting 'monoclinic'
loop_
_space_group_symop_operation_xyz
x,y,z
-x,y,1/2-z
-x,-y,-z
x,-y,1/2+z
1/2+x,1/2+y,z
1/2-x,1/2+y,1/2-z
1/2-x,1/2-y,-z
1/2+x,1/2-y,1/2+z
loop_
_atom_site_type_symbol
_atom_site_label
_atom_site_fract_x
_atom_site_fract_y
_atom_site_fract_z
Si Si1 0.821622 0.513588 0.587408
Si Si2 0.252239 0.847940 0.466576
Si Si3 0.000000 0.106059 0.250000
Si Si4 0.688096 0.836692 0.524889
Si Si5 0.823709 0.036703 0.803324
O O1 0.851326 0.415034 0.562682
O O2 0.719453 0.576834 0.488561
O O3 0.656399 0.509372 0.603266
O O4 0.061586 0.560851 0.693542
O O5 0.250000 0.750000 0.500000
O O6 0.415358 0.846930 0.449514
O O7 0.999458 0.879644 0.352190
O O8 0.186493 0.169338 0.353315
O O9 0.117131 0.046836 0.227316
O O10 0.750000 0.750000 0.500000
#
# Coordination Sequence:
#
# PCOD8153762 Si02
#       5
#     8   8   4   8   8
#     4  11  24  48  73 105 150 198 247 312 380 452
#     4  12  25  44  74 112 146 197 254 310 375 456
#     4  12  24  46  74 102 146 196 248 306 380 450
#     4  12  27  46  74 108 151 196 251 314 380 453
#     4  11  24  44  75 105 145 199 247 306 378 453
#
# _framework density 23.004798999999998
#
# number of rings (size 3 to 8) (size 9 to 14) (size 15 to 20)
#    0.000    0.444    4.444    4.000    3.111    3.556 
#    0.000    2.222    0.000    0.000    0.000    0.000 
#    0.000    0.000    0.000    0.000    0.000    0.000 
#
# Total GULP energy -223223.816684 kJ/mol
# GULP energy per Si atom -12401.323149 kJ/mol
# Density = 2.295244 g / cm^3
# Si number density = 23.004799 Si / 1000 Ang^3
#
#
#
# Elastic Constant Matrix: (Units=GPa)
#
#
# Indices 1 2 3 4 5 6 
#
# 1 170.0618 65.2174 34.2644 0.0000 -22.8522 0.0000
# 2 65.2174 166.3638 53.9745 0.0000 -11.6097 0.0000
# 3 34.2644 53.9745 126.4196 0.0000 -12.9791 0.0000
# 4 0.0000 0.0000 0.0000 40.8333 0.0000 -13.4816
# 5 -22.8522 -11.6097 -12.9791 0.0000 39.1066 0.0000
# 6 0.0000 0.0000 0.0000 -13.4816 0.0000 44.6128
#
#
#
# Elastic Compliance Matrix: (Units=1/GPa)
#
#
# Indices 1 2 3 4 5 6 
#
# 1 0.007405 -0.002470 -0.000604 0.000000 0.003393 0.000000
# 2 -0.002470 0.007849 -0.002682 0.000000 -0.000003 0.000000
# 3 -0.000604 -0.002682 0.009422 0.000000 0.001978 0.000000
# 4 0.000000 0.000000 0.000000 0.027204 0.000000 0.008221
# 5 0.003393 -0.000003 0.001978 0.000000 0.028210 0.000000
# 6 0.000000 0.000000 0.000000 0.008221 0.000000 0.024899
#
#
# Mechanical properties :
#
#
# Convention : Reuss Voigt Hill
#
# Bulk Modulus (GPa) = 75.96522 85.52863 80.74692
# Shear Modulus (GPa) = 41.35996 45.53646 43.44821
#
# Velocity S-wave (km/s) = 4.24475 4.45391 4.35058
# Velocity P-wave (km/s) = 7.55758 7.98179 7.77258
#
# Compressibility (1/GPa) = 0.01316392
#
# Stress axis : x y z
#
# Youngs Moduli (GPa) = 135.03994 127.40175 106.13417
#
# Poissons Ratio (x) = 0.31470 0.06411
# Poissons Ratio (y) = 0.33357 0.28466
# Poissons Ratio (z) = 0.08157 0.34170
#
# Static dielectric constant tensor:
#      x y z
#    x 4.746430 0.000000 0.445570 
#    y 0.000000 4.003510 0.000000 
#    z 0.445570 0.000000 5.287350 
# 
# 
# High freq. dielectric constant tensor:
#      x y z
#    x 1.935170 0.000000 0.000830 
#    y 0.000000 1.883250 0.000000 
#    z 0.000830 0.000000 1.926410 
# 
# From -- ./inp_files/132726.got.cif
#   From: 2010.06.25/outbox.cif.g09.slc.cpg/sg15_67_cif.got.tgz:132726.got - 2010.06.28 07:06:18.
