data_PCOD8153407
_publ_section_title
;
Structure prediction by ZEFSAII (Michael W. Deem and Ramdas Pophale) SiO2 
 PCOD8153407
Probable space group: C 2/C
;
_chemical_formula_sum "Si O2"
_cell_formula_units_Z 48
_cell_length_a 18.546610
_cell_length_b 9.075090
_cell_length_c 23.570383
_cell_angle_alpha 90.000000
_cell_angle_beta 146.403119
_cell_angle_gamma 90.000000
_cell_volume 2195.225087
_symmetry_space_group_name_H-M "C 2/C"
_symmetry_group_IT_number 15
_symmetry_cell_setting 'monoclinic'
loop_
_space_group_symop_operation_xyz
x,y,z
-x,y,1/2-z
-x,-y,-z
x,-y,1/2+z
1/2+x,1/2+y,z
1/2-x,1/2+y,1/2-z
1/2-x,1/2-y,-z
1/2+x,1/2-y,1/2+z
loop_
_atom_site_type_symbol
_atom_site_label
_atom_site_fract_x
_atom_site_fract_y
_atom_site_fract_z
Si Si1 0.231099 0.276027 0.385720
Si Si2 0.723296 0.045561 0.447788
Si Si3 0.559356 0.989471 0.197402
Si Si4 0.241618 0.219907 0.143392
Si Si5 0.145906 0.041690 0.851243
Si Si6 0.500887 0.855420 0.463157
O O1 0.264788 0.376184 0.462563
O O2 0.136141 0.367021 0.282901
O O3 0.363270 0.230056 0.440495
O O4 0.154467 0.133079 0.356078
O O5 0.566709 0.050611 0.351986
O O6 0.771872 0.141131 0.426381
O O7 0.794748 0.103900 0.550974
O O8 0.515440 0.911373 0.111360
O O9 0.655133 0.129886 0.250166
O O10 0.282523 0.388008 0.156380
O O11 0.107277 0.234755 0.089825
O O12 0.000000 0.097412 0.750000
O O13 0.500000 0.000000 0.500000
#
# Coordination Sequence:
#
# PCOD8153407 Si02
#       6
#     8   8   8   8   8   8
#     4  11  24  43  71  99 134 180 226 283 347 408
#     4  11  23  46  69 102 138 174 231 298 337 401
#     4  11  25  46  72  97 142 177 231 288 343 406
#     4  11  25  44  69  98 137 185 224 279 352 407
#     4  12  23  39  70 102 132 176 235 280 343 405
#     4  12  26  46  66 102 144 181 226 282 346 414
#
# _framework density 21.865639000000002
#
# number of rings (size 3 to 8) (size 9 to 14) (size 15 to 20)
#    0.000    0.667    3.333    5.000    4.667    4.000 
#    0.000    0.000    0.000    0.000    0.000    0.000 
#    0.000    0.000    0.000    0.000    0.000    0.000 
#
# Total GULP energy -297587.814927 kJ/mol
# GULP energy per Si atom -12399.492289 kJ/mol
# Density = 2.181587 g / cm^3
# Si number density = 21.865639 Si / 1000 Ang^3
#
#
#
# Elastic Constant Matrix: (Units=GPa)
#
#
# Indices 1 2 3 4 5 6 
#
# 1 81.6538 10.2387 29.3018 0.0000 15.0115 0.0000
# 2 10.2387 67.6408 11.8438 0.0000 3.6496 0.0000
# 3 29.3018 11.8438 110.7272 -0.0001 10.8892 -0.0001
# 4 0.0000 0.0000 -0.0001 25.5800 0.0000 4.8319
# 5 15.0115 3.6496 10.8892 0.0000 40.0040 0.0000
# 6 0.0000 0.0000 -0.0001 4.8319 0.0000 49.8981
#
#
#
# Elastic Compliance Matrix: (Units=1/GPa)
#
#
# Indices 1 2 3 4 5 6 
#
# 1 0.014385 -0.001375 -0.003228 0.000000 -0.004394 0.000000
# 2 -0.001375 0.015234 -0.001212 0.000000 -0.000544 0.000000
# 3 -0.003228 -0.001212 0.010157 0.000000 -0.001443 0.000000
# 4 0.000000 0.000000 0.000000 0.039821 0.000000 -0.003856
# 5 -0.004394 -0.000544 -0.001443 0.000000 0.027089 0.000000
# 6 0.000000 0.000000 0.000000 -0.003856 0.000000 0.020414
#
#
# Mechanical properties :
#
#
# Convention : Reuss Voigt Hill
#
# Bulk Modulus (GPa) = 35.52881 40.31004 37.91942
# Shear Modulus (GPa) = 33.75818 37.00558 35.38188
#
# Velocity S-wave (km/s) = 3.93350 4.11835 4.02699
# Velocity P-wave (km/s) = 6.07568 6.41013 6.24514
#
# Compressibility (1/GPa) = 0.02814617
#
# Stress axis : x y z
#
# Youngs Moduli (GPa) = 69.51532 65.64386 98.45553
#
# Poissons Ratio (x) = 0.09028 0.31777
# Poissons Ratio (y) = 0.09560 0.11933
# Poissons Ratio (z) = 0.22437 0.07956
#
# Static dielectric constant tensor:
#      x y z
#    x 4.284410 0.000000 -0.039750 
#    y 0.000000 4.338000 0.000000 
#    z -0.039750 0.000000 4.054920 
# 
# 
# High freq. dielectric constant tensor:
#      x y z
#    x 1.855840 0.000000 0.005870 
#    y 0.000000 1.878330 0.000000 
#    z 0.005870 0.000000 1.863090 
# 
# From -- ./inp_files/300545.got.cif
#   From: 2010.06.25/outbox.cif.g09.slc.cpg/sg15_151_cif.got.tgz:300545.got - 2010.06.28 07:06:18.
