data_PCOD8153443
_publ_section_title
;
Structure prediction by ZEFSAII (Michael W. Deem and Ramdas Pophale) SiO2 
 PCOD8153443
Probable space group: C 2/C
;
_chemical_formula_sum "Si O2"
_cell_formula_units_Z 44
_cell_length_a 9.063041
_cell_length_b 16.541185
_cell_length_c 14.599907
_cell_angle_alpha 90.000000
_cell_angle_beta 130.053359
_cell_angle_gamma 90.000000
_cell_volume 1675.347574
_symmetry_space_group_name_H-M "C 2/C"
_symmetry_group_IT_number 15
_symmetry_cell_setting 'monoclinic'
loop_
_space_group_symop_operation_xyz
x,y,z
-x,y,1/2-z
-x,-y,-z
x,-y,1/2+z
1/2+x,1/2+y,z
1/2-x,1/2+y,1/2-z
1/2-x,1/2-y,-z
1/2+x,1/2-y,1/2+z
loop_
_atom_site_type_symbol
_atom_site_label
_atom_site_fract_x
_atom_site_fract_y
_atom_site_fract_z
Si Si1 0.500000 0.755602 0.750000
Si Si2 0.362522 0.309330 0.616894
Si Si3 0.534068 0.944171 0.163784
Si Si4 0.767819 0.115903 0.592719
Si Si5 0.596404 0.529351 0.445208
Si Si6 0.105014 0.618718 0.161368
O O1 0.382320 0.699503 0.633514
O O2 0.351894 0.812218 0.746912
O O3 0.500000 0.266066 0.750000
O O4 0.250000 0.250000 0.500000
O O5 0.489998 0.381423 0.618395
O O6 0.202587 0.361168 0.604766
O O7 0.500000 0.904497 0.250000
O O8 0.660103 0.887493 0.148263
O O9 0.654758 0.029190 0.220136
O O10 0.325050 0.956496 0.039233
O O11 0.623754 0.117484 0.449798
O O12 0.921695 0.042262 0.637733
O O13 0.500000 0.500000 0.500000
#
# Coordination Sequence:
#
# PCOD8153443 Si02
#       6
#     4   8   8   8   8   8
#     4  12  28  40  82 104 148 200 262 322 388 476
#     4  12  30  49  78 113 164 207 260 328 402 475
#     4  11  23  46  78 101 149 203 258 318 402 462
#     4  11  25  47  72 108 149 193 257 326 385 461
#     4  11  26  45  76 112 148 197 264 322 388 473
#     4  11  24  50  67 106 148 203 256 319 392 469
#
# _framework density 26.263207000000001
#
# number of rings (size 3 to 8) (size 9 to 14) (size 15 to 20)
#    0.000    0.727    4.545    1.636   11.455    0.727 
#    0.000    0.000    0.000    0.000    0.000    0.000 
#    0.000    0.000    0.000    0.000    0.000    0.000 
#
# Total GULP energy -272589.189787 kJ/mol
# GULP energy per Si atom -12390.417718 kJ/mol
# Density = 2.620343 g / cm^3
# Si number density = 26.263207 Si / 1000 Ang^3
#
#
#
# Elastic Constant Matrix: (Units=GPa)
#
#
# Indices 1 2 3 4 5 6 
#
# 1 108.4535 22.2398 6.2473 0.0000 -35.0654 0.0000
# 2 22.2398 119.5036 27.7469 0.0000 -17.0369 0.0000
# 3 6.2473 27.7469 97.8224 0.0000 -20.9305 0.0000
# 4 0.0000 0.0000 0.0000 47.5774 0.0000 -7.6806
# 5 -35.0654 -17.0369 -20.9305 0.0000 41.0888 0.0000
# 6 0.0000 0.0000 0.0000 -7.6806 0.0000 34.1859
#
#
#
# Elastic Compliance Matrix: (Units=1/GPa)
#
#
# Indices 1 2 3 4 5 6 
#
# 1 0.013156 -0.001244 0.002025 0.000000 0.011743 0.000000
# 2 -0.001244 0.009354 -0.002212 0.000000 0.001690 0.000000
# 3 0.002025 -0.002212 0.012227 0.000000 0.007040 0.000000
# 4 0.000000 0.000000 0.000000 0.021809 0.000000 0.004900
# 5 0.011743 0.001690 0.007040 0.000000 0.038645 0.000000
# 6 0.000000 0.000000 0.000000 0.004900 0.000000 0.030353
#
#
# Mechanical properties :
#
#
# Convention : Reuss Voigt Hill
#
# Bulk Modulus (GPa) = 31.37336 48.69419 40.03377
# Shear Modulus (GPa) = 35.96299 42.54014 39.25157
#
# Velocity S-wave (km/s) = 3.70446 4.02899 3.87013
# Velocity P-wave (km/s) = 5.50173 6.34230 5.93691
#
# Compressibility (1/GPa) = 0.03187418
#
# Stress axis : x y z
#
# Youngs Moduli (GPa) = 76.01203 106.90538 81.78639
#
# Poissons Ratio (x) = 0.13304 -0.16565
# Poissons Ratio (y) = 0.09459 0.18093
# Poissons Ratio (z) = -0.15395 0.23650
#
# Static dielectric constant tensor:
#      x y z
#    x 5.196580 0.000000 -0.245580 
#    y 0.000000 5.020810 0.000000 
#    z -0.245580 0.000000 4.923770 
# 
# 
# High freq. dielectric constant tensor:
#      x y z
#    x 2.055540 0.000000 0.000090 
#    y 0.000000 2.052700 0.000000 
#    z 0.000090 0.000000 2.053380 
# 
# From -- ./inp_files/134973.got.cif
#   From: 2010.06.25/outbox.cif.g09.slc.cpg/sg15_68_cif.got.tgz:134973.got - 2010.06.28 07:06:18.
