data_PCOD8153552
_publ_section_title
;
Structure prediction by ZEFSAII (Michael W. Deem and Ramdas Pophale) SiO2 
 PCOD8153552
Probable space group: C 2/C
;
_chemical_formula_sum "Si O2"
_cell_formula_units_Z 44
_cell_length_a 9.109043
_cell_length_b 15.362257
_cell_length_c 15.461031
_cell_angle_alpha 90.000000
_cell_angle_beta 62.220930
_cell_angle_gamma 90.000000
_cell_volume 1914.200529
_symmetry_space_group_name_H-M "C 2/C"
_symmetry_group_IT_number 15
_symmetry_cell_setting 'monoclinic'
loop_
_space_group_symop_operation_xyz
x,y,z
-x,y,1/2-z
-x,-y,-z
x,-y,1/2+z
1/2+x,1/2+y,z
1/2-x,1/2+y,1/2-z
1/2-x,1/2-y,-z
1/2+x,1/2-y,1/2+z
loop_
_atom_site_type_symbol
_atom_site_label
_atom_site_fract_x
_atom_site_fract_y
_atom_site_fract_z
Si Si1 0.863692 0.018090 0.900579
Si Si2 0.227568 0.039997 0.764001
Si Si3 0.364096 0.853294 0.526060
Si Si4 0.000000 0.589640 0.250000
Si Si5 0.839304 0.294144 0.341616
Si Si6 0.319113 0.844616 0.958555
O O1 0.803895 0.062621 0.827496
O O2 0.059579 0.997893 0.848481
O O3 0.770482 0.928435 0.941809
O O4 0.827929 0.085320 0.988754
O O5 0.269037 0.126549 0.805264
O O6 0.377287 0.971103 0.728122
O O7 0.301172 0.778762 0.609518
O O8 0.397720 0.821926 0.420328
O O9 0.541300 0.880574 0.514088
O O10 0.109221 0.651779 0.158282
O O11 0.000000 0.253994 0.250000
O O12 0.250000 0.750000 0.000000
#
# Coordination Sequence:
#
# PCOD8153552 Si02
#       6
#     8   8   8   4   8   8
#     4  11  25  46  72 100 149 184 238 295 365 424
#     4  11  24  45  72 107 136 190 235 298 353 435
#     4  11  25  44  68 102 139 188 235 295 356 427
#     4  12  26  44  74 100 140 186 244 292 358 428
#     4  11  24  41  71  99 140 181 238 292 355 423
#     4  12  27  45  70 103 145 188 240 300 362 427
#
# _framework density 22.986097000000001
#
# number of rings (size 3 to 8) (size 9 to 14) (size 15 to 20)
#    0.000    0.727    2.727    3.818    2.545   10.182 
#    0.000    0.000    0.000    0.000    0.000    0.000 
#    0.000    0.000    0.000    0.000    0.000    0.000 
#
# Total GULP energy -272877.320292 kJ/mol
# GULP energy per Si atom -12403.514559 kJ/mol
# Density = 2.293378 g / cm^3
# Si number density = 22.986097 Si / 1000 Ang^3
#
#
#
# Elastic Constant Matrix: (Units=GPa)
#
#
# Indices 1 2 3 4 5 6 
#
# 1 70.3780 -1.5955 20.4492 0.0000 -15.3301 0.0000
# 2 -1.5955 104.6046 44.6961 0.0000 -6.8907 0.0000
# 3 20.4492 44.6961 162.5162 0.0000 -15.7698 0.0000
# 4 0.0000 0.0000 0.0000 30.5026 0.0000 6.2528
# 5 -15.3301 -6.8907 -15.7698 0.0000 27.9152 0.0000
# 6 0.0000 0.0000 0.0000 6.2528 0.0000 20.4661
#
#
#
# Elastic Compliance Matrix: (Units=1/GPa)
#
#
# Indices 1 2 3 4 5 6 
#
# 1 0.016593 0.001534 -0.001681 0.000000 0.008541 0.000000
# 2 0.001534 0.011004 -0.003041 0.000000 0.001841 0.000000
# 3 -0.001681 -0.003041 0.007447 0.000000 0.002533 0.000000
# 4 0.000000 0.000000 0.000000 0.034975 0.000000 -0.010685
# 5 0.008541 0.001841 0.002533 0.000000 0.042399 0.000000
# 6 0.000000 0.000000 0.000000 -0.010685 0.000000 0.052126
#
#
# Mechanical properties :
#
#
# Convention : Reuss Voigt Hill
#
# Bulk Modulus (GPa) = 34.88221 51.62204 43.25213
# Shear Modulus (GPa) = 27.70489 34.04006 30.87248
#
# Velocity S-wave (km/s) = 3.47549 3.85242 3.66880
# Velocity P-wave (km/s) = 5.59586 6.50345 6.06665
#
# Compressibility (1/GPa) = 0.02866791
#
# Stress axis : x y z
#
# Youngs Moduli (GPa) = 60.26758 90.87838 134.28560
#
# Poissons Ratio (x) = -0.13940 0.22572
# Poissons Ratio (y) = -0.09245 0.40832
# Poissons Ratio (z) = 0.10130 0.27633
#
# Static dielectric constant tensor:
#      x y z
#    x 4.242820 0.000000 -0.229620 
#    y 0.000000 3.956840 0.000000 
#    z -0.229620 0.000000 4.534610 
# 
# 
# High freq. dielectric constant tensor:
#      x y z
#    x 1.913630 0.000000 -0.010810 
#    y 0.000000 1.896960 0.000000 
#    z -0.010810 0.000000 1.933400 
# 
# From -- ./inp_files/134762.got.cif
#   From: 2010.06.25/outbox.cif.g09.slc.cpg/sg15_68_cif.got.tgz:134762.got - 2010.06.28 07:06:18.
