data_PCOD8153469
_publ_section_title
;
Structure prediction by ZEFSAII (Michael W. Deem and Ramdas Pophale) SiO2 
 PCOD8153469
Probable space group: C 2/C
;
_chemical_formula_sum "Si O2"
_cell_formula_units_Z 40
_cell_length_a 26.883863
_cell_length_b 7.322856
_cell_length_c 14.291094
_cell_angle_alpha 90.000000
_cell_angle_beta 36.989794
_cell_angle_gamma 90.000000
_cell_volume 1692.770137
_symmetry_space_group_name_H-M "C 2/C"
_symmetry_group_IT_number 15
_symmetry_cell_setting 'monoclinic'
loop_
_space_group_symop_operation_xyz
x,y,z
-x,y,1/2-z
-x,-y,-z
x,-y,1/2+z
1/2+x,1/2+y,z
1/2-x,1/2+y,1/2-z
1/2-x,1/2-y,-z
1/2+x,1/2-y,1/2+z
loop_
_atom_site_type_symbol
_atom_site_label
_atom_site_fract_x
_atom_site_fract_y
_atom_site_fract_z
Si Si1 0.000140 0.876295 0.907702
Si Si2 0.325100 0.464989 0.924052
Si Si3 0.241160 0.371920 0.873458
Si Si4 0.118697 0.149851 0.491174
Si Si5 0.062128 0.533469 0.573985
O O1 0.092246 0.859050 0.731019
O O2 0.963284 0.668412 0.974011
O O3 0.937983 0.969693 0.927589
O O4 0.000000 0.000000 0.000000
O O5 0.274140 0.508973 0.905844
O O6 0.345759 0.646057 0.955009
O O7 0.269935 0.331596 0.070766
O O8 0.306744 0.360876 0.692514
O O9 0.157317 0.451607 0.959619
O O10 0.057101 0.318123 0.558117
O O11 0.000000 0.587154 0.750000
#
# Coordination Sequence:
#
# PCOD8153469 Si02
#       5
#     8   8   8   8   8
#     4  12  24  47  73 102 146 192 238 300 374 431
#     4  11  23  47  74 100 148 193 237 306 369 429
#     4  11  24  45  74 105 145 191 243 305 368 429
#     4  12  25  45  75 106 143 194 247 300 363 442
#     4  12  25  45  73 104 145 189 239 303 366 434
#
# _framework density 23.629905000000001
#
# number of rings (size 3 to 8) (size 9 to 14) (size 15 to 20)
#    0.000    0.400    6.000    3.000    0.000    1.600 
#    0.000    4.000    0.000    0.000    0.000    0.000 
#    0.000    0.000    0.000    0.000    0.000    0.000 
#
# Total GULP energy -247901.012807 kJ/mol
# GULP energy per Si atom -12395.050640 kJ/mol
# Density = 2.357612 g / cm^3
# Si number density = 23.629905 Si / 1000 Ang^3
#
#
#
# Elastic Constant Matrix: (Units=GPa)
#
#
# Indices 1 2 3 4 5 6 
#
# 1 107.8341 30.1397 36.0434 0.0008 4.5676 -0.0001
# 2 30.1397 103.9088 0.0347 -0.0010 7.0191 -0.0002
# 3 36.0434 0.0347 73.3401 0.0000 -5.9619 0.0000
# 4 0.0008 -0.0010 0.0000 30.5033 -0.0001 -3.2297
# 5 4.5676 7.0191 -5.9619 -0.0001 36.8130 0.0001
# 6 -0.0001 -0.0002 0.0000 -3.2297 0.0001 42.5293
#
#
#
# Elastic Compliance Matrix: (Units=1/GPa)
#
#
# Indices 1 2 3 4 5 6 
#
# 1 0.012414 -0.003471 -0.006253 0.000000 -0.001891 0.000000
# 2 -0.003471 0.010722 0.001590 0.000000 -0.001356 0.000000
# 3 -0.006253 0.001590 0.016969 0.000000 0.003221 0.000000
# 4 0.000000 0.000000 0.000000 0.033049 0.000000 0.002510
# 5 -0.001891 -0.001356 0.003221 0.000000 0.028179 0.000000
# 6 0.000000 0.000000 0.000000 0.002510 0.000000 0.023704
#
#
# Mechanical properties :
#
#
# Convention : Reuss Voigt Hill
#
# Bulk Modulus (GPa) = 41.94986 46.39097 44.17041
# Shear Modulus (GPa) = 33.50101 36.56012 35.03057
#
# Velocity S-wave (km/s) = 3.76937 3.93771 3.85446
# Velocity P-wave (km/s) = 6.06099 6.35209 6.20825
#
# Compressibility (1/GPa) = 0.02383798
#
# Stress axis : x y z
#
# Youngs Moduli (GPa) = 80.55586 93.26913 58.93038
#
# Poissons Ratio (x) = 0.32373 0.36849
# Poissons Ratio (y) = 0.27960 -0.09373
# Poissons Ratio (z) = 0.50371 -0.14834
#
# Static dielectric constant tensor:
#      x y z
#    x 4.589200 0.000000 -0.149910 
#    y 0.000000 4.373600 0.000000 
#    z -0.149910 0.000000 4.250360 
# 
# 
# High freq. dielectric constant tensor:
#      x y z
#    x 1.940510 0.000000 -0.011970 
#    y 0.000000 1.923330 0.000000 
#    z -0.011970 0.000000 1.945480 
# 
# From -- ./inp_files/176055.got.cif
#   From: 2010.06.25/outbox.cif.g09.slc.cpg/sg15_89_cif.got.tgz:176055.got - 2010.06.28 07:06:18.
