data_PCOD8153839
_publ_section_title
;
Structure prediction by ZEFSAII (Michael W. Deem and Ramdas Pophale) SiO2 
 PCOD8153839
Probable space group: C 2/C
;
_chemical_formula_sum "Si O2"
_cell_formula_units_Z 48
_cell_length_a 28.668509
_cell_length_b 8.354641
_cell_length_c 14.260322
_cell_angle_alpha 90.000000
_cell_angle_beta 142.471072
_cell_angle_gamma 90.000000
_cell_volume 2080.630540
_symmetry_space_group_name_H-M "C 2/C"
_symmetry_group_IT_number 15
_symmetry_cell_setting 'monoclinic'
loop_
_space_group_symop_operation_xyz
x,y,z
-x,y,1/2-z
-x,-y,-z
x,-y,1/2+z
1/2+x,1/2+y,z
1/2-x,1/2+y,1/2-z
1/2-x,1/2-y,-z
1/2+x,1/2-y,1/2+z
loop_
_atom_site_type_symbol
_atom_site_label
_atom_site_fract_x
_atom_site_fract_y
_atom_site_fract_z
Si Si1 0.994454 0.253644 0.845108
Si Si2 0.667497 0.241371 0.160347
Si Si3 0.991068 0.118802 0.130565
Si Si4 0.252747 0.539908 0.152467
Si Si5 0.107927 0.737950 0.682563
Si Si6 0.342691 0.911161 0.664651
O O1 0.907518 0.282891 0.738825
O O2 0.000000 0.328525 0.750000
O O3 0.021491 0.070026 0.886734
O O4 0.058018 0.329837 0.015305
O O5 0.711341 0.410181 0.219410
O O6 0.684547 0.131244 0.097360
O O7 0.694107 0.148363 0.296611
O O8 0.578062 0.282182 0.025248
O O9 0.000000 0.185404 0.250000
O O10 0.063083 0.140164 0.177748
O O11 0.314357 0.673958 0.222610
O O12 0.223429 0.434128 0.017997
O O13 0.122019 0.585664 0.768972
#
# Coordination Sequence:
#
# PCOD8153839 Si02
#       6
#     8   8   8   8   8   8
#     4  11  25  43  74 104 142 186 243 296 356 432
#     4  12  26  48  72 103 146 190 237 299 364 433
#     4  11  24  45  74 104 138 190 241 294 358 429
#     4  12  28  46  74 106 147 190 240 298 365 433
#     4  12  24  49  71 105 146 186 241 298 362 430
#     4  12  27  44  72 107 142 191 236 301 357 434
#
# _framework density 23.069931
#
# number of rings (size 3 to 8) (size 9 to 14) (size 15 to 20)
#    0.000    0.333    3.333    5.000    4.667    2.000 
#    0.000    0.000    0.000    0.000    0.000    0.000 
#    0.000    0.000    0.000    0.000    0.000    0.000 
#
# Total GULP energy -297647.199187 kJ/mol
# GULP energy per Si atom -12401.966633 kJ/mol
# Density = 2.301742 g / cm^3
# Si number density = 23.069931 Si / 1000 Ang^3
#
#
#
# Elastic Constant Matrix: (Units=GPa)
#
#
# Indices 1 2 3 4 5 6 
#
# 1 116.3065 19.1798 32.2547 0.0000 -2.7865 0.0000
# 2 19.1798 68.6786 21.2303 0.0000 2.7838 0.0000
# 3 32.2547 21.2303 101.2807 0.0000 -5.4280 0.0000
# 4 0.0000 0.0000 0.0000 31.5096 0.0000 -3.7676
# 5 -2.7865 2.7838 -5.4280 0.0000 40.0935 0.0000
# 6 0.0000 0.0000 0.0000 -3.7676 0.0000 34.3556
#
#
#
# Elastic Compliance Matrix: (Units=1/GPa)
#
#
# Indices 1 2 3 4 5 6 
#
# 1 0.009657 -0.001894 -0.002655 0.000000 0.000443 0.000000
# 2 -0.001894 0.016035 -0.002845 0.000000 -0.001630 0.000000
# 3 -0.002655 -0.002845 0.011399 0.000000 0.001556 0.000000
# 4 0.000000 0.000000 0.000000 0.032158 0.000000 0.003527
# 5 0.000443 -0.001630 0.001556 0.000000 0.025296 0.000000
# 6 0.000000 0.000000 0.000000 0.003527 0.000000 0.029494
#
#
# Mechanical properties :
#
#
# Convention : Reuss Voigt Hill
#
# Bulk Modulus (GPa) = 44.83788 47.95504 46.39646
# Shear Modulus (GPa) = 34.18507 35.43180 34.80844
#
# Velocity S-wave (km/s) = 3.85359 3.92324 3.88857
# Velocity P-wave (km/s) = 6.26722 6.43073 6.34950
#
# Compressibility (1/GPa) = 0.02230257
#
# Stress axis : x y z
#
# Youngs Moduli (GPa) = 103.54984 62.36262 87.72836
#
# Poissons Ratio (x) = 0.11813 0.23289
# Poissons Ratio (y) = 0.19615 0.24962
# Poissons Ratio (z) = 0.27489 0.17744
#
# Static dielectric constant tensor:
#      x y z
#    x 4.083530 0.000000 -0.300220 
#    y 0.000000 4.080100 0.000000 
#    z -0.300220 0.000000 4.381350 
# 
# 
# High freq. dielectric constant tensor:
#      x y z
#    x 1.916720 0.000000 -0.009760 
#    y 0.000000 1.918430 0.000000 
#    z -0.009760 0.000000 1.915770 
# 
# From -- ./inp_files/176974.got.cif
#   From: 2010.06.25/outbox.cif.g09.slc.cpg/sg15_89_cif.got.tgz:176974.got - 2010.06.28 07:06:18.
