data_PCOD8153770
_publ_section_title
;
Structure prediction by ZEFSAII (Michael W. Deem and Ramdas Pophale) SiO2 
 PCOD8153770
Probable space group: C 2/C
;
_chemical_formula_sum "Si O2"
_cell_formula_units_Z 36
_cell_length_a 6.526026
_cell_length_b 24.955576
_cell_length_c 11.636822
_cell_angle_alpha 90.000000
_cell_angle_beta 118.470913
_cell_angle_gamma 90.000000
_cell_volume 1665.976728
_symmetry_space_group_name_H-M "C 2/C"
_symmetry_group_IT_number 15
_symmetry_cell_setting 'monoclinic'
loop_
_space_group_symop_operation_xyz
x,y,z
-x,y,1/2-z
-x,-y,-z
x,-y,1/2+z
1/2+x,1/2+y,z
1/2-x,1/2+y,1/2-z
1/2-x,1/2-y,-z
1/2+x,1/2-y,1/2+z
loop_
_atom_site_type_symbol
_atom_site_label
_atom_site_fract_x
_atom_site_fract_y
_atom_site_fract_z
Si Si1 0.109281 0.718832 0.059246
Si Si2 0.626383 0.004197 0.909230
Si Si3 0.489246 0.585898 0.475678
Si Si4 0.887159 0.818395 0.107997
Si Si5 0.500000 0.640817 0.250000
O O1 0.275867 0.677561 0.168186
O O2 0.004050 0.760189 0.122843
O O3 0.250000 0.750000 0.000000
O O4 0.891242 0.686074 0.948525
O O5 0.500000 0.997495 0.750000
O O6 0.805761 0.956107 0.973515
O O7 0.752253 0.061953 0.936872
O O8 0.500000 0.000000 0.000000
O O9 0.461305 0.643629 0.525090
O O10 0.438938 0.598545 0.331083
O O11 0.000000 0.845075 0.250000
#
# Coordination Sequence:
#
# PCOD8153770 Si02
#       5
#     8   8   8   8   4
#     4  11  24  45  66 102 141 188 231 288 343 427
#     4  11  27  49  74 102 141 183 240 308 366 434
#     4  11  27  44  71 106 133 183 238 291 360 430
#     4  11  26  42  67 100 141 181 230 283 349 422
#     4  12  24  46  74 104 144 184 246 286 364 430
#
# _framework density 21.608944000000001
#
# number of rings (size 3 to 8) (size 9 to 14) (size 15 to 20)
#    0.000    0.889    2.222    2.667   12.444    1.778 
#    2.000    0.000    0.000    0.000    0.000    0.000 
#    0.000    0.000    0.000    0.000    0.000    0.000 
#
# Total GULP energy -223094.331858 kJ/mol
# GULP energy per Si atom -12394.129548 kJ/mol
# Density = 2.155976 g / cm^3
# Si number density = 21.608944 Si / 1000 Ang^3
#
#
#
# Elastic Constant Matrix: (Units=GPa)
#
#
# Indices 1 2 3 4 5 6 
#
# 1 140.6603 44.4460 58.0250 0.0000 5.2495 0.0000
# 2 44.4460 87.8078 20.8807 0.0000 6.3024 0.0000
# 3 58.0250 20.8807 135.8354 0.0000 -5.2195 0.0000
# 4 0.0000 0.0000 0.0000 42.4781 0.0000 0.9142
# 5 5.2495 6.3024 -5.2195 0.0000 42.8850 0.0000
# 6 0.0000 0.0000 0.0000 0.9142 0.0000 20.5610
#
#
#
# Elastic Compliance Matrix: (Units=1/GPa)
#
#
# Indices 1 2 3 4 5 6 
#
# 1 0.009953 -0.004090 -0.003664 0.000000 -0.001063 0.000000
# 2 -0.004090 0.013669 -0.000414 0.000000 -0.001559 0.000000
# 3 -0.003664 -0.000414 0.009052 0.000000 0.001611 0.000000
# 4 0.000000 0.000000 0.000000 0.023564 0.000000 -0.001048
# 5 -0.001063 -0.001559 0.001611 0.000000 0.023873 0.000000
# 6 0.000000 0.000000 0.000000 -0.001048 0.000000 0.048682
#
#
# Mechanical properties :
#
#
# Convention : Reuss Voigt Hill
#
# Bulk Modulus (GPa) = 61.20420 67.88964 64.54692
# Shear Modulus (GPa) = 33.20580 37.24827 35.22704
#
# Velocity S-wave (km/s) = 3.92429 4.15630 4.04196
# Velocity P-wave (km/s) = 6.99417 7.38368 7.19156
#
# Compressibility (1/GPa) = 0.01633875
#
# Stress axis : x y z
#
# Youngs Moduli (GPa) = 100.47448 73.15721 110.46830
#
# Poissons Ratio (x) = 0.29924 0.40471
# Poissons Ratio (y) = 0.41097 0.04572
# Poissons Ratio (z) = 0.36810 0.03028
#
# Static dielectric constant tensor:
#      x y z
#    x 3.998540 0.000000 0.234650 
#    y 0.000000 4.034850 0.000000 
#    z 0.234650 0.000000 4.039080 
# 
# 
# High freq. dielectric constant tensor:
#      x y z
#    x 1.861930 0.000000 -0.003700 
#    y 0.000000 1.859800 0.000000 
#    z -0.003700 0.000000 1.856640 
# 
# From -- ./inp_files/72715.got.cif
#   From: 2010.06.25/outbox.cif.g09.slc.cpg/sg15_37_cif.got.tgz:72715.got - 2010.06.28 07:06:18.
