data_PCOD8153981
_publ_section_title
;
Structure prediction by ZEFSAII (Michael W. Deem and Ramdas Pophale) SiO2 
 PCOD8153981
Probable space group: C 2/C
;
_chemical_formula_sum "Si O2"
_cell_formula_units_Z 36
_cell_length_a 17.843052
_cell_length_b 7.446810
_cell_length_c 13.596771
_cell_angle_alpha 90.000000
_cell_angle_beta 52.286405
_cell_angle_gamma 90.000000
_cell_volume 1429.205665
_symmetry_space_group_name_H-M "C 2/C"
_symmetry_group_IT_number 15
_symmetry_cell_setting 'monoclinic'
loop_
_space_group_symop_operation_xyz
x,y,z
-x,y,1/2-z
-x,-y,-z
x,-y,1/2+z
1/2+x,1/2+y,z
1/2-x,1/2+y,1/2-z
1/2-x,1/2-y,-z
1/2+x,1/2-y,1/2+z
loop_
_atom_site_type_symbol
_atom_site_label
_atom_site_fract_x
_atom_site_fract_y
_atom_site_fract_z
Si Si1 0.157612 0.565873 0.988803
Si Si2 0.212623 0.367167 0.656529
Si Si3 0.365205 0.335242 0.995128
Si Si4 0.462708 0.782169 0.599592
Si Si5 0.500000 0.476943 0.250000
O O1 0.156184 0.652163 0.098910
O O2 0.052893 0.585019 0.025550
O O3 0.233553 0.678610 0.864639
O O4 0.185768 0.357477 0.977494
O O5 0.287567 0.526974 0.596813
O O6 0.134527 0.397464 0.804861
O O7 0.450662 0.320164 0.005872
O O8 0.411309 0.399432 0.855283
O O9 0.469417 0.639100 0.681299
#
# Coordination Sequence:
#
# PCOD8153981 Si02
#       5
#     8   8   8   8   4
#     4  11  24  50  70 110 148 200 248 304 387 438
#     4  11  24  47  75 107 154 188 254 317 367 441
#     4  12  28  46  78 111 143 203 255 302 380 454
#     4  12  25  50  77 107 155 201 244 318 379 448
#     4  12  24  48  78 102 152 196 248 310 370 450
#
# _framework density 25.188815999999999
#
# number of rings (size 3 to 8) (size 9 to 14) (size 15 to 20)
#    0.000    0.444    4.444    3.333    6.222    0.000 
#    0.000    0.000    0.000    0.000    0.000    0.000 
#    0.000    0.000    0.000    0.000    0.000    0.000 
#
# Total GULP energy -223286.639079 kJ/mol
# GULP energy per Si atom -12404.813282 kJ/mol
# Density = 2.513149 g / cm^3
# Si number density = 25.188816 Si / 1000 Ang^3
#
#
#
# Elastic Constant Matrix: (Units=GPa)
#
#
# Indices 1 2 3 4 5 6 
#
# 1 61.9338 0.7761 -10.5168 -0.0009 -13.2273 0.0010
# 2 0.7761 142.6171 23.1764 -0.0002 -25.6540 0.0007
# 3 -10.5168 23.1764 86.2623 -0.0010 -25.9524 0.0010
# 4 -0.0009 -0.0002 -0.0010 19.2358 0.0005 -11.9899
# 5 -13.2273 -25.6540 -25.9524 0.0005 45.1871 -0.0005
# 6 0.0010 0.0007 0.0010 -11.9899 -0.0005 44.3836
#
#
#
# Elastic Compliance Matrix: (Units=1/GPa)
#
#
# Indices 1 2 3 4 5 6 
#
# 1 0.018762 0.000678 0.004683 0.000001 0.008566 0.000000
# 2 0.000678 0.007895 -0.000762 0.000000 0.004243 0.000000
# 3 0.004683 -0.000762 0.015293 0.000001 0.009721 0.000000
# 4 0.000001 0.000000 0.000001 0.062512 0.000000 0.016887
# 5 0.008566 0.004243 0.009721 0.000000 0.032630 0.000000
# 6 0.000000 0.000000 0.000000 0.016887 0.000000 0.027093
#
#
# Mechanical properties :
#
#
# Convention : Reuss Voigt Hill
#
# Bulk Modulus (GPa) = 19.55138 35.29830 27.42484
# Shear Modulus (GPa) = 29.06336 40.25315 34.65826
#
# Velocity S-wave (km/s) = 3.40048 4.00191 3.71339
# Velocity P-wave (km/s) = 4.81627 5.94959 5.41267
#
# Compressibility (1/GPa) = 0.05114729
#
# Stress axis : x y z
#
# Youngs Moduli (GPa) = 53.29794 126.65960 65.39005
#
# Poissons Ratio (x) = -0.08586 -0.30619
# Poissons Ratio (y) = -0.03613 0.04983
# Poissons Ratio (z) = -0.24957 0.09652
#
# Static dielectric constant tensor:
#      x y z
#    x 4.641320 0.000000 -0.034530 
#    y 0.000000 4.438690 0.000000 
#    z -0.034530 0.000000 4.668190 
# 
# 
# High freq. dielectric constant tensor:
#      x y z
#    x 2.017600 0.000000 -0.000670 
#    y 0.000000 2.010670 0.000000 
#    z -0.000670 0.000000 2.000480 
# 
# From -- ./inp_files/159049.got.cif
#   From: 2010.06.25/outbox.cif.g09.slc.cpg/sg15_80_cif.got.tgz:159049.got - 2010.06.28 07:06:18.
