data_PCOD8153961
_publ_section_title
;
Structure prediction by ZEFSAII (Michael W. Deem and Ramdas Pophale) SiO2 
 PCOD8153961
Probable space group: C 2/C
;
_chemical_formula_sum "Si O2"
_cell_formula_units_Z 60
_cell_length_a 25.214718
_cell_length_b 6.462066
_cell_length_c 17.208678
_cell_angle_alpha 90.000000
_cell_angle_beta 79.183156
_cell_angle_gamma 90.000000
_cell_volume 2754.147184
_symmetry_space_group_name_H-M "C 2/C"
_symmetry_group_IT_number 15
_symmetry_cell_setting 'monoclinic'
loop_
_space_group_symop_operation_xyz
x,y,z
-x,y,1/2-z
-x,-y,-z
x,-y,1/2+z
1/2+x,1/2+y,z
1/2-x,1/2+y,1/2-z
1/2-x,1/2-y,-z
1/2+x,1/2-y,1/2+z
loop_
_atom_site_type_symbol
_atom_site_label
_atom_site_fract_x
_atom_site_fract_y
_atom_site_fract_z
Si Si1 0.670642 0.280759 0.066473
Si Si2 0.500000 0.627321 0.750000
Si Si3 0.269346 0.945570 0.542460
Si Si4 0.363333 0.129840 0.127668
Si Si5 0.539758 0.139108 0.939957
Si Si6 0.593257 0.473763 0.484103
Si Si7 0.401873 0.898126 0.781317
Si Si8 0.455132 0.263798 0.858311
O O1 0.719216 0.419309 0.087576
O O2 0.644679 0.405420 0.002714
O O3 0.625939 0.236422 0.143817
O O4 0.693572 0.066520 0.028805
O O5 0.453278 0.777933 0.730721
O O6 0.469888 0.487434 0.821225
O O7 0.250000 0.750000 0.500000
O O8 0.303357 0.884468 0.609314
O O9 0.360057 0.087126 0.221146
O O10 0.400570 0.951129 0.080998
O O11 0.388582 0.353560 0.098965
O O12 0.512337 0.152035 0.861786
O O13 0.545021 0.367024 0.976820
O O14 0.500000 0.000000 0.000000
O O15 0.575231 0.301372 0.551870
O O16 0.419326 0.123030 0.810481
#
# Coordination Sequence:
#
# PCOD8153961 Si02
#       8
#     8   4   8   8   8   8   8   8
#     4  11  24  47  72 100 136 181 236 293 356 422
#     4  12  24  42  66  96 146 188 232 270 346 422
#     4  11  24  48  76  99 127 182 243 299 356 420
#     4  12  25  44  68 103 140 178 238 299 348 418
#     4  12  24  38  66 102 138 177 239 282 334 412
#     4  12  23  43  72 103 135 189 240 288 344 414
#     4  12  27  45  66 105 150 184 228 290 361 426
#     4  12  25  42  67 100 141 196 229 279 346 419
#
# _framework density 21.785328
#
# number of rings (size 3 to 8) (size 9 to 14) (size 15 to 20)
#    0.000    0.267    5.333    4.800    1.867    0.000 
#    2.400    0.000    0.000    0.000    0.000    0.000 
#    0.000    0.000    0.000    0.000    0.000    0.000 
#
# Total GULP energy -371998.106467 kJ/mol
# GULP energy per Si atom -12399.936882 kJ/mol
# Density = 2.173574 g / cm^3
# Si number density = 21.785328 Si / 1000 Ang^3
#
#
#
# Elastic Constant Matrix: (Units=GPa)
#
#
# Indices 1 2 3 4 5 6 
#
# 1 106.3207 45.8194 35.9875 0.0000 22.2610 0.0000
# 2 45.8194 120.2105 45.2977 0.0000 11.3674 0.0000
# 3 35.9875 45.2977 95.1799 0.0000 21.4304 0.0000
# 4 0.0000 0.0000 0.0000 33.8932 0.0000 3.6140
# 5 22.2610 11.3674 21.4304 0.0000 43.0738 0.0000
# 6 0.0000 0.0000 0.0000 3.6140 0.0000 46.9291
#
#
#
# Elastic Compliance Matrix: (Units=1/GPa)
#
#
# Indices 1 2 3 4 5 6 
#
# 1 0.012598 -0.003610 -0.002020 0.000000 -0.004553 0.000000
# 2 -0.003610 0.011175 -0.004177 0.000000 0.000995 0.000000
# 3 -0.002020 -0.004177 0.014387 0.000000 -0.005011 0.000000
# 4 0.000000 0.000000 0.000000 0.029749 0.000000 -0.002291
# 5 -0.004553 0.000995 -0.005011 0.000000 0.027800 0.000000
# 6 0.000000 0.000000 0.000000 -0.002291 0.000000 0.021485
#
#
# Mechanical properties :
#
#
# Convention : Reuss Voigt Hill
#
# Bulk Modulus (GPa) = 53.92415 63.99115 58.95765
# Shear Modulus (GPa) = 34.96740 37.75299 36.36019
#
# Velocity S-wave (km/s) = 4.01070 4.16739 4.08980
# Velocity P-wave (km/s) = 6.80102 7.25214 7.03020
#
# Compressibility (1/GPa) = 0.01854457
#
# Stress axis : x y z
#
# Youngs Moduli (GPa) = 79.37480 89.48702 69.50916
#
# Poissons Ratio (x) = 0.32307 0.14042
# Poissons Ratio (y) = 0.28656 0.29036
# Poissons Ratio (z) = 0.16035 0.37381
#
# Static dielectric constant tensor:
#      x y z
#    x 4.149190 0.000000 0.238550 
#    y 0.000000 4.125390 0.000000 
#    z 0.238550 0.000000 3.761310 
# 
# 
# High freq. dielectric constant tensor:
#      x y z
#    x 1.859250 0.000000 0.012680 
#    y 0.000000 1.874770 0.000000 
#    z 0.012680 0.000000 1.839970 
# 
# From -- ./inp_files/221270.got.cif
#   From: 2010.06.25/outbox.cif.g09.slc.cpg/sg15_111_cif.got.tgz:221270.got - 2010.06.28 07:06:18.
