data_PCOD8153940
_publ_section_title
;
Structure prediction by ZEFSAII (Michael W. Deem and Ramdas Pophale) SiO2 
 PCOD8153940
Probable space group: C 2/C
;
_chemical_formula_sum "Si O2"
_cell_formula_units_Z 48
_cell_length_a 14.737961
_cell_length_b 11.386355
_cell_length_c 25.151563
_cell_angle_alpha 90.000000
_cell_angle_beta 148.946805
_cell_angle_gamma 90.000000
_cell_volume 2177.192295
_symmetry_space_group_name_H-M "C 2/C"
_symmetry_group_IT_number 15
_symmetry_cell_setting 'monoclinic'
loop_
_space_group_symop_operation_xyz
x,y,z
-x,y,1/2-z
-x,-y,-z
x,-y,1/2+z
1/2+x,1/2+y,z
1/2-x,1/2+y,1/2-z
1/2-x,1/2-y,-z
1/2+x,1/2-y,1/2+z
loop_
_atom_site_type_symbol
_atom_site_label
_atom_site_fract_x
_atom_site_fract_y
_atom_site_fract_z
Si Si1 0.681118 0.251294 0.272012
Si Si2 0.500000 0.120252 0.750000
Si Si3 0.308075 0.551515 0.406781
Si Si4 0.506889 0.763496 0.368579
Si Si5 0.000000 0.950883 0.250000
Si Si6 0.158513 0.634196 0.436529
Si Si7 0.228942 0.925431 0.944767
O O1 0.794751 0.179028 0.371911
O O2 0.588111 0.367436 0.249209
O O3 0.538059 0.158374 0.180310
O O4 0.804691 0.283325 0.283965
O O5 0.456976 0.193143 0.674360
O O6 0.335296 0.041447 0.685866
O O7 0.500000 0.500000 0.500000
O O8 0.275311 0.572084 0.451552
O O9 0.624679 0.823342 0.474621
O O10 0.561472 0.624661 0.394944
O O11 0.848684 0.038212 0.151813
O O12 0.250000 0.750000 0.500000
O O13 0.165064 0.541828 0.486877
#
# Coordination Sequence:
#
# PCOD8153940 Si02
#       7
#     8   4   8   8   4   8   8
#     4  12  24  45  70 109 139 187 237 304 353 433
#     4  12  24  50  68 106 144 193 245 302 348 452
#     4  12  24  42  74 102 141 187 239 296 362 421
#     4  11  27  45  72 100 150 186 242 288 369 426
#     4  12  24  46  74 100 152 179 241 302 362 422
#     4  12  22  44  72 100 142 180 236 297 352 425
#     4  11  24  47  69 103 142 192 232 300 349 439
#
# _framework density 22.046744
#
# number of rings (size 3 to 8) (size 9 to 14) (size 15 to 20)
#    0.000    0.333    6.667    1.500    4.667    3.333 
#    0.000    0.000    0.000    0.000    0.000    0.000 
#    0.000    0.000    0.000    0.000    0.000    0.000 
#
# Total GULP energy -297315.576935 kJ/mol
# GULP energy per Si atom -12388.149039 kJ/mol
# Density = 2.199656 g / cm^3
# Si number density = 22.046744 Si / 1000 Ang^3
#
#
#
# Elastic Constant Matrix: (Units=GPa)
#
#
# Indices 1 2 3 4 5 6 
#
# 1 83.1643 14.9062 45.7805 0.0000 16.5278 0.0000
# 2 14.9062 103.6383 47.2974 0.0000 -0.4121 0.0000
# 3 45.7805 47.2974 137.0747 -0.0001 2.5947 0.0000
# 4 0.0000 0.0000 -0.0001 34.1537 0.0000 -3.6360
# 5 16.5278 -0.4121 2.5947 0.0000 43.1012 0.0000
# 6 0.0000 0.0000 0.0000 -3.6360 0.0000 23.7864
#
#
#
# Elastic Compliance Matrix: (Units=1/GPa)
#
#
# Indices 1 2 3 4 5 6 
#
# 1 0.016084 0.000076 -0.005287 0.000000 -0.005848 0.000000
# 2 0.000076 0.011458 -0.003985 0.000000 0.000320 0.000000
# 3 -0.005287 -0.003985 0.010410 0.000000 0.001363 0.000000
# 4 0.000000 0.000000 0.000000 0.029764 0.000000 0.004550
# 5 -0.005848 0.000320 0.001363 0.000000 0.025365 0.000000
# 6 0.000000 0.000000 0.000000 0.004550 0.000000 0.042736
#
#
# Mechanical properties :
#
#
# Convention : Reuss Voigt Hill
#
# Bulk Modulus (GPa) = 51.12495 59.98282 55.55389
# Shear Modulus (GPa) = 31.10831 34.60115 32.85473
#
# Velocity S-wave (km/s) = 3.76042 3.96592 3.86454
# Velocity P-wave (km/s) = 6.48799 6.94532 6.72055
#
# Compressibility (1/GPa) = 0.01955992
#
# Stress axis : x y z
#
# Youngs Moduli (GPa) = 62.17533 87.27594 96.05761
#
# Poissons Ratio (x) = -0.00667 0.50788
# Poissons Ratio (y) = -0.00475 0.38280
# Poissons Ratio (z) = 0.32874 0.34780
#
# Static dielectric constant tensor:
#      x y z
#    x 3.761320 0.000000 -0.065450 
#    y 0.000000 4.162760 0.000000 
#    z -0.065450 0.000000 4.134190 
# 
# 
# High freq. dielectric constant tensor:
#      x y z
#    x 1.837660 0.000000 -0.006640 
#    y 0.000000 1.884480 0.000000 
#    z -0.006640 0.000000 1.886830 
# 
# From -- ./inp_files/152490.got.cif
#   From: 2010.06.25/outbox.cif.g09.slc.cpg/sg15_77_cif.got.tgz:152490.got - 2010.06.28 07:06:18.
