data_PCOD8153787
_publ_section_title
;
Structure prediction by ZEFSAII (Michael W. Deem and Ramdas Pophale) SiO2 
 PCOD8153787
Probable space group: C 2/C
;
_chemical_formula_sum "Si O2"
_cell_formula_units_Z 36
_cell_length_a 8.902000
_cell_length_b 10.824723
_cell_length_c 18.556543
_cell_angle_alpha 90.000000
_cell_angle_beta 113.462094
_cell_angle_gamma 90.000000
_cell_volume 1640.302922
_symmetry_space_group_name_H-M "C 2/C"
_symmetry_group_IT_number 15
_symmetry_cell_setting 'monoclinic'
loop_
_space_group_symop_operation_xyz
x,y,z
-x,y,1/2-z
-x,-y,-z
x,-y,1/2+z
1/2+x,1/2+y,z
1/2-x,1/2+y,1/2-z
1/2-x,1/2-y,-z
1/2+x,1/2-y,1/2+z
loop_
_atom_site_type_symbol
_atom_site_label
_atom_site_fract_x
_atom_site_fract_y
_atom_site_fract_z
Si Si1 0.306678 0.284761 0.346615
Si Si2 0.500000 0.210150 0.250000
Si Si3 0.865102 0.135458 0.533784
Si Si4 0.737841 0.452843 0.632197
Si Si5 0.925659 0.054614 0.161686
O O1 0.375784 0.283200 0.277967
O O2 0.452776 0.307045 0.431917
O O3 0.202415 0.411122 0.331048
O O4 0.200206 0.166159 0.347595
O O5 0.604857 0.132247 0.327581
O O6 0.750000 0.250000 0.500000
O O7 0.826285 0.040932 0.462015
O O8 0.836394 0.059326 0.603225
O O9 0.581907 0.398952 0.646174
O O10 0.000000 0.002154 0.250000
#
# Coordination Sequence:
#
# PCOD8153787 Si02
#       5
#     8   4   8   8   8
#     4  11  25  44  70  99 135 182 223 283 338 401
#     4  12  24  42  70 102 132 180 230 274 346 404
#     4  11  25  45  69 102 140 180 225 284 339 403
#     4  11  26  44  68 103 138 175 230 280 338 406
#     4  11  24  45  69 100 137 179 228 282 336 400
#
# _framework density 21.947165999999999
#
# number of rings (size 3 to 8) (size 9 to 14) (size 15 to 20)
#    0.000    0.889    4.444    2.667    7.778    4.444 
#    4.000    0.000    0.000    0.000    0.000    0.000 
#    0.000    0.000    0.000    0.000    0.000    0.000 
#
# Total GULP energy -223028.892700 kJ/mol
# GULP energy per Si atom -12390.494039 kJ/mol
# Density = 2.189721 g / cm^3
# Si number density = 21.947166 Si / 1000 Ang^3
#
#
#
# Elastic Constant Matrix: (Units=GPa)
#
#
# Indices 1 2 3 4 5 6 
#
# 1 62.2758 48.1973 30.6916 0.0000 -11.0874 0.0000
# 2 48.1973 127.6021 60.7257 0.0000 -9.5532 0.0000
# 3 30.6916 60.7257 174.0697 0.0000 -6.9970 0.0000
# 4 0.0000 0.0000 0.0000 30.8386 0.0000 -5.2869
# 5 -11.0874 -9.5532 -6.9970 0.0000 34.0718 0.0000
# 6 0.0000 0.0000 0.0000 -5.2869 0.0000 33.3139
#
#
#
# Elastic Compliance Matrix: (Units=1/GPa)
#
#
# Indices 1 2 3 4 5 6 
#
# 1 0.023789 -0.008030 -0.001182 0.000000 0.005247 0.000000
# 2 -0.008030 0.012242 -0.002845 0.000000 0.000235 0.000000
# 3 -0.001182 -0.002845 0.006956 0.000000 0.000246 0.000000
# 4 0.000000 0.000000 0.000000 0.033334 0.000000 0.005290
# 5 0.005247 0.000235 0.000246 0.000000 0.031174 0.000000
# 6 0.000000 0.000000 0.000000 0.005290 0.000000 0.030857
#
#
# Mechanical properties :
#
#
# Convention : Reuss Voigt Hill
#
# Bulk Modulus (GPa) = 52.99035 71.46409 62.22722
# Shear Modulus (GPa) = 29.62848 34.60040 32.11444
#
# Velocity S-wave (km/s) = 3.67821 3.97486 3.82941
# Velocity P-wave (km/s) = 6.49891 7.32793 6.92584
#
# Compressibility (1/GPa) = 0.01887136
#
# Stress axis : x y z
#
# Youngs Moduli (GPa) = 42.03599 81.68845 143.76580
#
# Poissons Ratio (x) = 0.65597 0.16995
# Poissons Ratio (y) = 0.33755 0.40906
# Poissons Ratio (z) = 0.04969 0.23243
#
# Static dielectric constant tensor:
#      x y z
#    x 3.958110 0.000000 -0.165960 
#    y 0.000000 4.121380 0.000000 
#    z -0.165960 0.000000 4.717460 
# 
# 
# High freq. dielectric constant tensor:
#      x y z
#    x 1.844950 0.000000 0.004500 
#    y 0.000000 1.872100 0.000000 
#    z 0.004500 0.000000 1.882930 
# 
# From -- ./inp_files/187601.got.cif
#   From: 2010.06.25/outbox.cif.g09.slc.cpg/sg15_94_cif.got.tgz:187601.got - 2010.06.28 07:06:18.
