data_PCOD8153543
_publ_section_title
;
Structure prediction by ZEFSAII (Michael W. Deem and Ramdas Pophale) SiO2 
 PCOD8153543
Probable space group: C 2/C
;
_chemical_formula_sum "Si O2"
_cell_formula_units_Z 36
_cell_length_a 6.969919
_cell_length_b 20.667556
_cell_length_c 12.334239
_cell_angle_alpha 90.000000
_cell_angle_beta 72.406202
_cell_angle_gamma 90.000000
_cell_volume 1693.650930
_symmetry_space_group_name_H-M "C 2/C"
_symmetry_group_IT_number 15
_symmetry_cell_setting 'monoclinic'
loop_
_space_group_symop_operation_xyz
x,y,z
-x,y,1/2-z
-x,-y,-z
x,-y,1/2+z
1/2+x,1/2+y,z
1/2-x,1/2+y,1/2-z
1/2-x,1/2-y,-z
1/2+x,1/2-y,1/2+z
loop_
_atom_site_type_symbol
_atom_site_label
_atom_site_fract_x
_atom_site_fract_y
_atom_site_fract_z
Si Si1 0.407943 0.946090 0.879107
Si Si2 0.191374 0.579350 0.523349
Si Si3 0.400733 0.658711 0.027507
Si Si4 0.294891 0.275890 0.329753
Si Si5 0.000000 0.648149 0.750000
O O1 0.500000 0.968735 0.750000
O O2 0.260441 0.886698 0.887596
O O3 0.271553 0.004290 0.951693
O O4 0.590207 0.921553 0.923174
O O5 0.384094 0.625878 0.488535
O O6 0.034002 0.605812 0.637631
O O7 0.372469 0.727483 0.092505
O O8 0.357150 0.669514 0.907646
O O9 0.500000 0.242047 0.250000
O O10 0.195769 0.308905 0.241822
#
# Coordination Sequence:
#
# PCOD8153543 Si02
#       5
#     8   8   8   8   4
#     4  11  24  43  67  99 137 170 218 278 333 396
#     4  11  24  43  69  98 130 177 221 273 337 397
#     4  11  24  42  65  99 131 173 225 274 328 402
#     4  11  24  41  67  96 134 177 223 276 331 391
#     4  12  22  44  70  94 130 180 222 274 336 402
#
# _framework density 21.255855
#
# number of rings (size 3 to 8) (size 9 to 14) (size 15 to 20)
#    0.000    0.889    5.556    1.333    0.000    5.333 
#    0.000    0.000    0.000    0.000    0.000    0.000 
#    0.000    0.000    0.000    0.000    0.000    0.000 
#
# Total GULP energy -223168.861073 kJ/mol
# GULP energy per Si atom -12398.270060 kJ/mol
# Density = 2.120748 g / cm^3
# Si number density = 21.255855 Si / 1000 Ang^3
#
#
#
# Elastic Constant Matrix: (Units=GPa)
#
#
# Indices 1 2 3 4 5 6 
#
# 1 118.0217 55.6940 48.3109 0.0000 3.9423 0.0000
# 2 55.6940 86.3521 19.9758 0.0000 4.1864 0.0000
# 3 48.3109 19.9758 104.3821 0.0000 8.7059 0.0000
# 4 0.0000 0.0000 0.0000 138.2458 0.0000 -17.2390
# 5 3.9423 4.1864 8.7059 0.0000 33.3183 0.0000
# 6 0.0000 0.0000 0.0000 -17.2390 0.0000 44.8229
#
#
#
# Elastic Compliance Matrix: (Units=1/GPa)
#
#
# Indices 1 2 3 4 5 6 
#
# 1 0.014399 -0.008124 -0.005165 0.000000 0.000667 0.000000
# 2 -0.008124 0.016729 0.000668 0.000000 -0.001315 0.000000
# 3 -0.005165 0.000668 0.012062 0.000000 -0.002624 0.000000
# 4 0.000000 0.000000 0.000000 0.007598 0.000000 0.002922
# 5 0.000667 -0.001315 -0.002624 0.000000 0.030786 0.000000
# 6 0.000000 0.000000 0.000000 0.002922 0.000000 0.023434
#
#
# Mechanical properties :
#
#
# Convention : Reuss Voigt Hill
#
# Bulk Modulus (GPa) = 55.71632 61.85748 58.78690
# Shear Modulus (GPa) = 36.70209 55.59574 46.14892
#
# Velocity S-wave (km/s) = 4.15984 5.11979 4.66458
# Velocity P-wave (km/s) = 7.02435 8.00714 7.53179
#
# Compressibility (1/GPa) = 0.01794806
#
# Stress axis : x y z
#
# Youngs Moduli (GPa) = 69.45038 59.77466 82.90711
#
# Poissons Ratio (x) = 0.48562 0.42822
# Poissons Ratio (y) = 0.56423 -0.05540
# Poissons Ratio (z) = 0.35871 -0.03994
#
# Static dielectric constant tensor:
#      x y z
#    x 3.647870 0.000000 0.043660 
#    y 0.000000 3.837400 0.000000 
#    z 0.043660 0.000000 3.783640 
# 
# 
# High freq. dielectric constant tensor:
#      x y z
#    x 1.828250 0.000000 0.001770 
#    y 0.000000 1.839500 0.000000 
#    z 0.001770 0.000000 1.838350 
# 
# From -- ./inp_files/72438.got.cif
#   From: 2010.06.25/outbox.cif.g09.slc.cpg/sg15_37_cif.got.tgz:72438.got - 2010.06.28 07:06:18.
