data_PCOD8153341
_publ_section_title
;
Structure prediction by ZEFSAII (Michael W. Deem and Ramdas Pophale) SiO2 
 PCOD8153341
Probable space group: C 2/C
;
_chemical_formula_sum "Si O2"
_cell_formula_units_Z 40
_cell_length_a 12.966227
_cell_length_b 11.895298
_cell_length_c 21.349742
_cell_angle_alpha 90.000000
_cell_angle_beta 143.844852
_cell_angle_gamma 90.000000
_cell_volume 1942.738261
_symmetry_space_group_name_H-M "C 2/C"
_symmetry_group_IT_number 15
_symmetry_cell_setting 'monoclinic'
loop_
_space_group_symop_operation_xyz
x,y,z
-x,y,1/2-z
-x,-y,-z
x,-y,1/2+z
1/2+x,1/2+y,z
1/2-x,1/2+y,1/2-z
1/2-x,1/2-y,-z
1/2+x,1/2-y,1/2+z
loop_
_atom_site_type_symbol
_atom_site_label
_atom_site_fract_x
_atom_site_fract_y
_atom_site_fract_z
Si Si1 0.609418 0.170673 0.901970
Si Si2 0.702326 0.520334 0.608224
Si Si3 0.245979 0.764158 0.196579
Si Si4 0.992741 0.372359 0.014744
Si Si5 0.822513 0.274473 0.695051
O O1 0.698731 0.080580 0.900572
O O2 0.457160 0.247546 0.795681
O O3 0.750000 0.250000 0.000000
O O4 0.528161 0.109798 0.921747
O O5 0.500000 0.500000 0.500000
O O6 0.712322 0.602354 0.672706
O O7 0.798443 0.404127 0.666324
O O8 0.162438 0.692819 0.098364
O O9 0.165830 0.729645 0.223915
O O10 0.000000 0.500000 0.000000
O O11 0.169879 0.301740 0.090284
O O12 0.000000 0.230720 0.750000
#
# Coordination Sequence:
#
# PCOD8153341 Si02
#       5
#     8   8   8   8   8
#     4  11  23  45  70 104 130 181 236 277 343 412
#     4  12  23  45  72  99 136 183 230 288 343 415
#     4  11  24  44  69  97 140 176 232 285 339 408
#     4  11  26  46  65 101 143 177 230 287 342 415
#     4  11  26  44  68 101 137 184 231 280 356 410
#
# _framework density 20.589494999999999
#
# number of rings (size 3 to 8) (size 9 to 14) (size 15 to 20)
#    0.000    0.800    4.000    3.000    8.400    2.400 
#    3.600    0.000    0.000    0.000    0.000    0.000 
#    0.000    0.000    0.000    0.000    0.000    0.000 
#
# Total GULP energy -247858.488565 kJ/mol
# GULP energy per Si atom -12392.924428 kJ/mol
# Density = 2.054263 g / cm^3
# Si number density = 20.589495 Si / 1000 Ang^3
#
#
#
# Elastic Constant Matrix: (Units=GPa)
#
#
# Indices 1 2 3 4 5 6 
#
# 1 157.2308 52.9649 64.0703 0.0000 6.4385 0.0000
# 2 52.9649 157.2362 59.6977 0.0000 2.7084 0.0000
# 3 64.0703 59.6977 155.6490 0.0001 12.4304 0.0000
# 4 0.0000 0.0000 0.0001 39.2831 0.0000 -4.7689
# 5 6.4385 2.7084 12.4304 0.0000 36.2455 0.0000
# 6 0.0000 0.0000 0.0000 -4.7689 0.0000 29.3628
#
#
#
# Elastic Compliance Matrix: (Units=1/GPa)
#
#
# Indices 1 2 3 4 5 6 
#
# 1 0.008015 -0.001700 -0.002615 0.000000 -0.000400 0.000000
# 2 -0.001700 0.007811 -0.002338 0.000000 0.000520 0.000000
# 3 -0.002615 -0.002338 0.008582 0.000000 -0.002304 0.000000
# 4 0.000000 0.000000 0.000000 0.025968 0.000000 0.004218
# 5 -0.000400 0.000520 -0.002304 0.000000 0.028412 0.000000
# 6 0.000000 0.000000 0.000000 0.004218 0.000000 0.034742
#
#
# Mechanical properties :
#
#
# Convention : Reuss Voigt Hill
#
# Bulk Modulus (GPa) = 90.07377 91.50910 90.79143
# Shear Modulus (GPa) = 38.30368 40.53714 39.42041
#
# Velocity S-wave (km/s) = 4.31786 4.44196 4.38035
# Velocity P-wave (km/s) = 8.28860 8.41719 8.35314
#
# Compressibility (1/GPa) = 0.01110201
#
# Stress axis : x y z
#
# Youngs Moduli (GPa) = 124.76940 128.02367 116.52582
#
# Poissons Ratio (x) = 0.21764 0.30474
# Poissons Ratio (y) = 0.21210 0.27239
# Poissons Ratio (z) = 0.32630 0.29927
#
# Static dielectric constant tensor:
#      x y z
#    x 2.379060 0.000000 0.943920 
#    y 0.000000 3.830590 0.000000 
#    z 0.943920 0.000000 3.772430 
# 
# 
# High freq. dielectric constant tensor:
#      x y z
#    x 1.815040 0.000000 0.000880 
#    y 0.000000 1.805240 0.000000 
#    z 0.000880 0.000000 1.828660 
# 
# From -- ./inp_files/237375.got.cif
#   From: 2010.06.25/outbox.cif.g09.slc.cpg/sg15_119_cif.got.tgz:237375.got - 2010.06.28 07:06:18.
