data_PCOD8153869
_publ_section_title
;
Structure prediction by ZEFSAII (Michael W. Deem and Ramdas Pophale) SiO2 
 PCOD8153869
Probable space group: C 2/C
;
_chemical_formula_sum "Si O2"
_cell_formula_units_Z 40
_cell_length_a 9.474865
_cell_length_b 10.121161
_cell_length_c 33.346860
_cell_angle_alpha 90.000000
_cell_angle_beta 144.272042
_cell_angle_gamma 90.000000
_cell_volume 1867.345185
_symmetry_space_group_name_H-M "C 2/C"
_symmetry_group_IT_number 15
_symmetry_cell_setting 'monoclinic'
loop_
_space_group_symop_operation_xyz
x,y,z
-x,y,1/2-z
-x,-y,-z
x,-y,1/2+z
1/2+x,1/2+y,z
1/2-x,1/2+y,1/2-z
1/2-x,1/2-y,-z
1/2+x,1/2-y,1/2+z
loop_
_atom_site_type_symbol
_atom_site_label
_atom_site_fract_x
_atom_site_fract_y
_atom_site_fract_z
Si Si1 0.732519 0.279644 0.777445
Si Si2 0.836079 0.599855 0.072481
Si Si3 0.526920 0.464836 0.208488
Si Si4 0.389663 0.924167 0.937615
Si Si5 0.690189 0.692058 0.529957
O O1 0.500000 0.237455 0.750000
O O2 0.663903 0.397405 0.731086
O O3 0.939255 0.337270 0.853196
O O4 0.818648 0.154958 0.772475
O O5 0.831081 0.440023 0.075009
O O6 0.883735 0.628671 0.036414
O O7 0.596728 0.665997 0.034513
O O8 0.500000 0.447191 0.250000
O O9 0.271336 0.476242 0.126479
O O10 0.238075 0.800260 0.919951
O O11 0.500000 0.000000 0.000000
O O12 0.750000 0.750000 0.500000
#
# Coordination Sequence:
#
# PCOD8153869 Si02
#       5
#     8   8   8   8   8
#     4  11  25  48  71 100 140 191 237 288 358 425
#     4  11  24  46  69 103 145 182 235 296 351 433
#     4  11  26  48  70 103 144 185 238 293 353 430
#     4  12  23  45  73 100 143 186 230 292 357 415
#     4  11  25  43  70 108 141 184 236 293 362 422
#
# _framework density 21.420786
#
# number of rings (size 3 to 8) (size 9 to 14) (size 15 to 20)
#    0.000    0.800    6.000    1.800    2.800    0.800 
#    3.600    0.000    0.000    0.000    0.000    0.000 
#    0.000    0.000    0.000    0.000    0.000    0.000 
#
# Total GULP energy -247908.072539 kJ/mol
# GULP energy per Si atom -12395.403627 kJ/mol
# Density = 2.137203 g / cm^3
# Si number density = 21.420786 Si / 1000 Ang^3
#
#
#
# Elastic Constant Matrix: (Units=GPa)
#
#
# Indices 1 2 3 4 5 6 
#
# 1 168.5622 92.2904 66.5661 0.0000 -1.5888 0.0000
# 2 92.2904 154.6934 47.6761 0.0000 -7.8503 0.0000
# 3 66.5661 47.6761 127.0190 0.0000 -4.4370 0.0000
# 4 0.0000 0.0000 0.0000 27.9518 0.0000 2.7802
# 5 -1.5888 -7.8503 -4.4370 0.0000 32.7614 0.0000
# 6 0.0000 0.0000 0.0000 2.7802 0.0000 50.5604
#
#
#
# Elastic Compliance Matrix: (Units=1/GPa)
#
#
# Indices 1 2 3 4 5 6 
#
# 1 0.009988 -0.004967 -0.003411 0.000000 -0.001168 0.000000
# 2 -0.004967 0.009843 -0.001023 0.000000 0.001979 0.000000
# 3 -0.003411 -0.001023 0.010077 0.000000 0.000954 0.000000
# 4 0.000000 0.000000 0.000000 0.035973 0.000000 -0.001978
# 5 -0.001168 0.001979 0.000954 0.000000 0.031071 0.000000
# 6 0.000000 0.000000 0.000000 -0.001978 0.000000 0.019887
#
#
# Mechanical properties :
#
#
# Convention : Reuss Voigt Hill
#
# Bulk Modulus (GPa) = 90.02350 95.92666 92.97508
# Shear Modulus (GPa) = 35.88291 38.50417 37.19354
#
# Velocity S-wave (km/s) = 4.09729 4.24431 4.17145
# Velocity P-wave (km/s) = 8.03126 8.30049 8.16699
#
# Compressibility (1/GPa) = 0.01110821
#
# Stress axis : x y z
#
# Youngs Moduli (GPa) = 100.12122 101.59274 99.23139
#
# Poissons Ratio (x) = 0.50460 0.33846
# Poissons Ratio (y) = 0.49729 0.10147
# Poissons Ratio (z) = 0.34149 0.10388
#
# Static dielectric constant tensor:
#      x y z
#    x 3.917110 0.000000 0.079830 
#    y 0.000000 4.505520 0.000000 
#    z 0.079830 0.000000 3.775220 
# 
# 
# High freq. dielectric constant tensor:
#      x y z
#    x 1.850410 0.000000 0.002030 
#    y 0.000000 1.856540 0.000000 
#    z 0.002030 0.000000 1.837780 
# 
# From -- ./inp_files/307350.got.cif
#   From: 2010.06.25/outbox.cif.g09.slc.cpg/sg15_154_cif.got.tgz:307350.got - 2010.06.28 07:06:18.
