data_PCOD8153871
_publ_section_title
;
Structure prediction by ZEFSAII (Michael W. Deem and Ramdas Pophale) SiO2 
 PCOD8153871
Probable space group: C 2/C
;
_chemical_formula_sum "Si O2"
_cell_formula_units_Z 52
_cell_length_a 14.559739
_cell_length_b 13.674395
_cell_length_c 13.794846
_cell_angle_alpha 90.000000
_cell_angle_beta 115.411578
_cell_angle_gamma 90.000000
_cell_volume 2480.766355
_symmetry_space_group_name_H-M "C 2/C"
_symmetry_group_IT_number 15
_symmetry_cell_setting 'monoclinic'
loop_
_space_group_symop_operation_xyz
x,y,z
-x,y,1/2-z
-x,-y,-z
x,-y,1/2+z
1/2+x,1/2+y,z
1/2-x,1/2+y,1/2-z
1/2-x,1/2-y,-z
1/2+x,1/2-y,1/2+z
loop_
_atom_site_type_symbol
_atom_site_label
_atom_site_fract_x
_atom_site_fract_y
_atom_site_fract_z
Si Si1 0.500000 0.108395 0.250000
Si Si2 0.593242 0.990343 0.969681
Si Si3 0.851775 0.746004 0.302183
Si Si4 0.742167 0.155109 0.061831
Si Si5 0.298852 0.200981 0.928829
Si Si6 0.472279 0.353172 0.010540
Si Si7 0.557905 0.530040 0.375647
O O1 0.438267 0.038500 0.152043
O O2 0.425263 0.174807 0.277688
O O3 0.673643 0.911750 0.045124
O O4 0.500000 0.000000 0.000000
O O5 0.645029 0.095135 0.981193
O O6 0.776123 0.684192 0.335231
O O7 0.780372 0.802762 0.195010
O O8 0.918621 0.820754 0.396403
O O9 0.840692 0.088577 0.100493
O O10 0.750000 0.250000 0.000000
O O11 0.250000 0.250000 0.000000
O O12 0.402342 0.260380 0.954631
O O13 0.417465 0.425321 0.063101
O O14 0.487215 0.408135 0.915911
O O15 0.500000 0.509451 0.250000
#
# Coordination Sequence:
#
# PCOD8153871 Si02
#       7
#     4   8   8   8   8   8   8
#     4  12  24  46  76 102 140 184 232 298 358 416
#     4  12  26  46  73 106 141 181 237 297 353 426
#     4  12  24  46  75 101 142 187 233 291 353 421
#     4  12  26  49  69 101 144 185 233 289 351 425
#     4  12  24  42  74 105 137 185 241 289 355 417
#     4  11  24  46  69 106 141 184 236 293 347 424
#     4  11  26  44  71 101 145 185 232 288 357 419
#
# _framework density 20.961265000000001
#
# number of rings (size 3 to 8) (size 9 to 14) (size 15 to 20)
#    0.000    0.308    6.154    1.846    5.385    1.231 
#    1.385    0.000    0.000    0.000    0.000    0.000 
#    0.000    0.000    0.000    0.000    0.000    0.000 
#
# Total GULP energy -322541.490166 kJ/mol
# GULP energy per Si atom -12405.441929 kJ/mol
# Density = 2.091356 g / cm^3
# Si number density = 20.961265 Si / 1000 Ang^3
#
#
#
# Elastic Constant Matrix: (Units=GPa)
#
#
# Indices 1 2 3 4 5 6 
#
# 1 96.9627 33.6940 16.1228 0.0000 -13.7744 0.0000
# 2 33.6940 105.8140 22.8761 0.0000 -3.7327 0.0000
# 3 16.1228 22.8761 103.6598 0.0000 -5.6196 0.0000
# 4 0.0000 0.0000 0.0000 16.6590 0.0000 2.2943
# 5 -13.7744 -3.7327 -5.6196 0.0000 41.9287 0.0000
# 6 0.0000 0.0000 0.0000 2.2943 0.0000 52.1969
#
#
#
# Elastic Compliance Matrix: (Units=1/GPa)
#
#
# Indices 1 2 3 4 5 6 
#
# 1 0.012212 -0.003564 -0.000919 0.000000 0.003571 0.000000
# 2 -0.003564 0.010979 -0.001893 0.000000 -0.000447 0.000000
# 3 -0.000919 -0.001893 0.010257 0.000000 0.000904 0.000000
# 4 0.000000 0.000000 0.000000 0.060393 0.000000 -0.002655
# 5 0.003571 -0.000447 0.000904 0.000000 0.025105 0.000000
# 6 0.000000 0.000000 0.000000 -0.002655 0.000000 0.019275
#
#
# Mechanical properties :
#
#
# Convention : Reuss Voigt Hill
#
# Bulk Modulus (GPa) = 48.31977 50.20249 49.26113
# Shear Modulus (GPa) = 31.67152 37.73982 34.70567
#
# Velocity S-wave (km/s) = 3.89132 4.24778 4.07345
# Velocity P-wave (km/s) = 6.57965 6.93255 6.75840
#
# Compressibility (1/GPa) = 0.02069546
#
# Stress axis : x y z
#
# Youngs Moduli (GPa) = 81.88759 91.08459 97.49775
#
# Poissons Ratio (x) = 0.32461 0.08963
# Poissons Ratio (y) = 0.29184 0.18454
# Poissons Ratio (z) = 0.07528 0.17240
#
# Static dielectric constant tensor:
#      x y z
#    x 3.972120 0.000000 -0.085910 
#    y 0.000000 4.072800 0.000000 
#    z -0.085910 0.000000 3.927030 
# 
# 
# High freq. dielectric constant tensor:
#      x y z
#    x 1.836620 0.000000 -0.004680 
#    y 0.000000 1.832240 0.000000 
#    z -0.004680 0.000000 1.827480 
# 
# From -- ./inp_files/152671.got.cif
#   From: 2010.06.25/outbox.cif.g09.slc.cpg/sg15_77_cif.got.tgz:152671.got - 2010.06.28 07:06:18.
