data_PCOD8153811
_publ_section_title
;
Structure prediction by ZEFSAII (Michael W. Deem and Ramdas Pophale) SiO2 
 PCOD8153811
Probable space group: C 2/C
;
_chemical_formula_sum "Si O2"
_cell_formula_units_Z 52
_cell_length_a 6.585072
_cell_length_b 26.527853
_cell_length_c 17.564040
_cell_angle_alpha 90.000000
_cell_angle_beta 125.104999
_cell_angle_gamma 90.000000
_cell_volume 2510.112573
_symmetry_space_group_name_H-M "C 2/C"
_symmetry_group_IT_number 15
_symmetry_cell_setting 'monoclinic'
loop_
_space_group_symop_operation_xyz
x,y,z
-x,y,1/2-z
-x,-y,-z
x,-y,1/2+z
1/2+x,1/2+y,z
1/2-x,1/2+y,1/2-z
1/2-x,1/2-y,-z
1/2+x,1/2-y,1/2+z
loop_
_atom_site_type_symbol
_atom_site_label
_atom_site_fract_x
_atom_site_fract_y
_atom_site_fract_z
Si Si1 0.085907 0.072263 0.578300
Si Si2 0.327264 0.156000 0.012711
Si Si3 0.278531 0.194309 0.832301
Si Si4 0.249265 0.192452 0.153201
Si Si5 0.500000 0.870960 0.250000
Si Si6 0.621181 0.381010 0.855682
Si Si7 0.269409 0.522872 0.041889
O O1 0.266011 0.093691 0.682340
O O2 0.241807 0.057647 0.536490
O O3 0.871199 0.112172 0.515905
O O4 0.967240 0.021296 0.583214
O O5 0.291655 0.197604 0.071344
O O6 0.594856 0.133279 0.081469
O O7 0.312798 0.180343 0.927129
O O8 0.337469 0.253374 0.833545
O O9 0.460265 0.163509 0.816125
O O10 0.000000 0.181130 0.750000
O O11 0.500000 0.174701 0.250000
O O12 0.034122 0.151149 0.116742
O O13 0.500000 0.367640 0.750000
O O14 0.620012 0.440914 0.869200
O O15 0.000000 0.500000 0.000000
#
# Coordination Sequence:
#
# PCOD8153811 Si02
#       7
#     8   8   8   8   4   8   8
#     4  11  25  44  70  99 136 182 229 296 348 420
#     4  12  23  46  71 101 145 184 232 289 361 417
#     4  11  26  44  72 102 141 187 234 294 355 426
#     4  11  25  45  70 102 141 183 242 289 351 427
#     4  12  26  46  70 104 144 178 244 290 358 422
#     4  12  25  42  69 101 138 184 228 292 351 419
#     4  11  24  45  70  98 137 181 236 289 357 421
#
# _framework density 20.716201000000002
#
# number of rings (size 3 to 8) (size 9 to 14) (size 15 to 20)
#    0.000    0.615    6.154    1.385    1.077    1.846 
#    1.385    0.000    0.000    0.000    0.000    0.000 
#    0.000    0.000    0.000    0.000    0.000    0.000 
#
# Total GULP energy -322433.670358 kJ/mol
# GULP energy per Si atom -12401.295014 kJ/mol
# Density = 2.066905 g / cm^3
# Si number density = 20.716201 Si / 1000 Ang^3
#
#
#
# Elastic Constant Matrix: (Units=GPa)
#
#
# Indices 1 2 3 4 5 6 
#
# 1 113.9959 45.8814 54.9855 0.0000 2.1091 0.0000
# 2 45.8814 104.0391 39.8372 0.0000 9.6970 0.0000
# 3 54.9855 39.8372 136.0886 0.0000 2.4192 0.0000
# 4 0.0000 0.0000 0.0000 60.6095 0.0000 13.6920
# 5 2.1091 9.6970 2.4192 0.0000 41.5908 0.0000
# 6 0.0000 0.0000 0.0000 13.6920 0.0000 43.2881
#
#
#
# Elastic Compliance Matrix: (Units=1/GPa)
#
#
# Indices 1 2 3 4 5 6 
#
# 1 0.012180 -0.003979 -0.003766 0.000000 0.000529 0.000000
# 2 -0.003979 0.012358 -0.001964 0.000000 -0.002565 0.000000
# 3 -0.003766 -0.001964 0.009443 0.000000 0.000100 0.000000
# 4 0.000000 0.000000 0.000000 0.017769 0.000000 -0.005620
# 5 0.000529 -0.002565 0.000100 0.000000 0.024609 0.000000
# 6 0.000000 0.000000 0.000000 -0.005620 0.000000 0.024879
#
#
# Mechanical properties :
#
#
# Convention : Reuss Voigt Hill
#
# Bulk Modulus (GPa) = 68.66815 70.61463 69.64139
# Shear Modulus (GPa) = 39.83737 43.32566 41.58151
#
# Velocity S-wave (km/s) = 4.38997 4.57813 4.48504
# Velocity P-wave (km/s) = 7.67560 7.88076 7.77886
#
# Compressibility (1/GPa) = 0.01456279
#
# Stress axis : x y z
#
# Youngs Moduli (GPa) = 82.09897 80.92146 105.89824
#
# Poissons Ratio (x) = 0.32197 0.39882
# Poissons Ratio (y) = 0.32666 0.20801
# Poissons Ratio (z) = 0.30919 0.15895
#
# Static dielectric constant tensor:
#      x y z
#    x 3.905450 0.000000 0.009180 
#    y 0.000000 3.871870 0.000000 
#    z 0.009180 0.000000 3.868900 
# 
# 
# High freq. dielectric constant tensor:
#      x y z
#    x 1.820750 0.000000 -0.001360 
#    y 0.000000 1.820730 0.000000 
#    z -0.001360 0.000000 1.815920 
# 
# From -- ./inp_files/186300.got.cif
#   From: 2010.06.25/outbox.cif.g09.slc.cpg/sg15_94_cif.got.tgz:186300.got - 2010.06.28 07:06:18.
