data_PCOD8153416
_publ_section_title
;
Structure prediction by ZEFSAII (Michael W. Deem and Ramdas Pophale) SiO2 
 PCOD8153416
Probable space group: C 2/C
;
_chemical_formula_sum "Si O2"
_cell_formula_units_Z 48
_cell_length_a 26.962842
_cell_length_b 5.153253
_cell_length_c 16.851338
_cell_angle_alpha 90.000000
_cell_angle_beta 116.158825
_cell_angle_gamma 90.000000
_cell_volume 2101.611677
_symmetry_space_group_name_H-M "C 2/C"
_symmetry_group_IT_number 15
_symmetry_cell_setting 'monoclinic'
loop_
_space_group_symop_operation_xyz
x,y,z
-x,y,1/2-z
-x,-y,-z
x,-y,1/2+z
1/2+x,1/2+y,z
1/2-x,1/2+y,1/2-z
1/2-x,1/2-y,-z
1/2+x,1/2-y,1/2+z
loop_
_atom_site_type_symbol
_atom_site_label
_atom_site_fract_x
_atom_site_fract_y
_atom_site_fract_z
Si Si1 0.680977 0.286731 0.135903
Si Si2 0.502705 0.750983 0.056239
Si Si3 0.114326 0.884172 0.706850
Si Si4 0.365661 0.681331 0.636348
Si Si5 0.706018 0.008017 0.311711
Si Si6 0.389957 0.183782 0.556562
O O1 0.641764 0.505348 0.146283
O O2 0.705659 0.101249 0.220452
O O3 0.732989 0.406696 0.125786
O O4 0.644208 0.123264 0.047940
O O5 0.559435 0.769609 0.145285
O O6 0.452907 0.741311 0.083342
O O7 0.500000 0.500000 0.000000
O O8 0.500000 0.000000 0.000000
O O9 0.157685 0.705158 0.785295
O O10 0.098186 0.109103 0.759243
O O11 0.306056 0.767705 0.631468
O O12 0.360244 0.430765 0.576321
O O13 0.392454 0.923507 0.609988
#
# Coordination Sequence:
#
# PCOD8153416 Si02
#       6
#     8   8   8   8   8   8
#     4  11  24  40  80 101 143 185 248 297 347 427
#     4  12  26  46  76 108 137 180 242 302 349 416
#     4  11  24  49  70 104 145 188 238 295 355 424
#     4  11  27  48  67 104 150 185 233 284 366 435
#     4  11  23  46  70 109 137 192 237 293 361 423
#     4  12  26  48  70 108 140 188 236 294 361 421
#
# _framework density 22.839615999999999
#
# number of rings (size 3 to 8) (size 9 to 14) (size 15 to 20)
#    0.000    0.667    5.000    2.000    4.667    2.000 
#    3.000    0.000    0.000    0.000    0.000    0.000 
#    0.000    0.000    0.000    0.000    0.000    0.000 
#
# Total GULP energy -297609.222033 kJ/mol
# GULP energy per Si atom -12400.384251 kJ/mol
# Density = 2.278763 g / cm^3
# Si number density = 22.839616 Si / 1000 Ang^3
#
#
#
# Elastic Constant Matrix: (Units=GPa)
#
#
# Indices 1 2 3 4 5 6 
#
# 1 110.0743 34.3756 58.5583 0.0005 7.8090 -0.0001
# 2 34.3756 129.0087 34.4581 0.0006 -8.4372 -0.0005
# 3 58.5583 34.4581 78.9375 0.0002 9.3788 -0.0001
# 4 0.0005 0.0006 0.0002 48.2083 -0.0001 -15.5113
# 5 7.8090 -8.4372 9.3788 -0.0001 41.3222 0.0000
# 6 -0.0001 -0.0005 -0.0001 -15.5113 0.0000 40.0526
#
#
#
# Elastic Compliance Matrix: (Units=1/GPa)
#
#
# Indices 1 2 3 4 5 6 
#
# 1 0.015182 -0.001252 -0.010631 0.000000 -0.000712 0.000000
# 2 -0.001252 0.009189 -0.003426 0.000000 0.002890 0.000000
# 3 -0.010631 -0.003426 0.022501 0.000000 -0.003797 0.000000
# 4 0.000000 0.000000 0.000000 0.023696 0.000000 0.009177
# 5 -0.000712 0.002890 -0.003797 0.000000 0.025787 0.000000
# 6 0.000000 0.000000 0.000000 0.009177 0.000000 0.028521
#
#
# Mechanical properties :
#
#
# Convention : Reuss Voigt Hill
#
# Bulk Modulus (GPa) = 61.52309 63.64495 62.58402
# Shear Modulus (GPa) = 31.07265 38.62519 34.84892
#
# Velocity S-wave (km/s) = 3.69246 4.11682 3.91040
# Velocity P-wave (km/s) = 6.72120 7.10803 6.91732
#
# Compressibility (1/GPa) = 0.01625406
#
# Stress axis : x y z
#
# Youngs Moduli (GPa) = 65.86696 108.82411 44.44150
#
# Poissons Ratio (x) = 0.13629 0.47247
# Poissons Ratio (y) = 0.08249 0.15224
# Poissons Ratio (z) = 0.70025 0.37280
#
# Static dielectric constant tensor:
#      x y z
#    x 4.253670 0.000000 -0.191500 
#    y 0.000000 4.237310 0.000000 
#    z -0.191500 0.000000 4.082870 
# 
# 
# High freq. dielectric constant tensor:
#      x y z
#    x 1.907900 0.000000 -0.016210 
#    y 0.000000 1.910430 0.000000 
#    z -0.016210 0.000000 1.892660 
# 
# From -- ./inp_files/221002.got.cif
#   From: 2010.06.25/outbox.cif.g09.slc.cpg/sg15_111_cif.got.tgz:221002.got - 2010.06.28 07:06:18.
