data_PCOD8153634
_publ_section_title
;
Structure prediction by ZEFSAII (Michael W. Deem and Ramdas Pophale) SiO2 
 PCOD8153634
Probable space group: C 2/C
;
_chemical_formula_sum "Si O2"
_cell_formula_units_Z 56
_cell_length_a 10.503804
_cell_length_b 9.467595
_cell_length_c 30.435040
_cell_angle_alpha 90.000000
_cell_angle_beta 53.984684
_cell_angle_gamma 90.000000
_cell_volume 2448.124115
_symmetry_space_group_name_H-M "C 2/C"
_symmetry_group_IT_number 15
_symmetry_cell_setting 'monoclinic'
loop_
_space_group_symop_operation_xyz
x,y,z
-x,y,1/2-z
-x,-y,-z
x,-y,1/2+z
1/2+x,1/2+y,z
1/2-x,1/2+y,1/2-z
1/2-x,1/2-y,-z
1/2+x,1/2-y,1/2+z
loop_
_atom_site_type_symbol
_atom_site_label
_atom_site_fract_x
_atom_site_fract_y
_atom_site_fract_z
Si Si1 0.147602 0.592301 0.982030
Si Si2 0.086452 0.258232 0.189163
Si Si3 0.630925 0.461635 0.350474
Si Si4 0.344723 0.460660 0.356090
Si Si5 0.880563 0.710161 0.650115
Si Si6 0.528416 0.624905 0.961026
Si Si7 0.311780 0.128928 0.957013
O O1 0.261418 0.591072 0.917384
O O2 0.222883 0.521469 0.011162
O O3 0.000000 0.500000 0.000000
O O4 0.092101 0.749113 0.005144
O O5 0.205688 0.379027 0.181273
O O6 0.000000 0.199770 0.250000
O O7 0.953236 0.321169 0.183365
O O8 0.178871 0.128520 0.147268
O O9 0.532039 0.431097 0.325688
O O10 0.664497 0.627556 0.347732
O O11 0.512646 0.417086 0.413677
O O12 0.279397 0.377411 0.326780
O O13 0.003903 0.652658 0.588761
O O14 0.716376 0.652727 0.930799
O O15 0.500000 0.500000 0.000000
O O16 0.250000 0.250000 0.000000
#
# Coordination Sequence:
#
# PCOD8153634 Si02
#       7
#     8   8   8   8   8   8   8
#     4  12  22  36  64  98 142 192 224 263 333 408
#     4  11  26  50  73  96 129 174 230 296 358 408
#     4  11  25  43  67 101 139 177 228 281 338 414
#     4  11  24  45  69 102 140 177 228 281 337 407
#     4  11  24  43  69  97 137 180 223 282 344 402
#     4  12  24  39  62 100 145 185 229 277 326 403
#     4  12  21  37  62  91 139 186 225 268 325 394
#
# _framework density 22.874656999999999
#
# number of rings (size 3 to 8) (size 9 to 14) (size 15 to 20)
#    0.000    0.571    4.286    5.143    0.000    6.857 
#    0.000    0.714    0.000    0.000    0.000    0.000 
#    0.000    0.000    0.000    0.000    0.000    0.000 
#
# Total GULP energy -347120.698615 kJ/mol
# GULP energy per Si atom -12397.167808 kJ/mol
# Density = 2.282259 g / cm^3
# Si number density = 22.874657 Si / 1000 Ang^3
#
#
#
# Elastic Constant Matrix: (Units=GPa)
#
#
# Indices 1 2 3 4 5 6 
#
# 1 169.3107 73.2312 22.3045 0.0000 25.7280 0.0000
# 2 73.2312 146.2977 21.0279 0.0000 3.1484 0.0000
# 3 22.3045 21.0279 52.8925 0.0000 7.3764 0.0000
# 4 0.0000 0.0000 0.0000 13.4543 0.0000 -0.7057
# 5 25.7280 3.1484 7.3764 0.0000 22.8650 0.0000
# 6 0.0000 0.0000 0.0000 -0.7057 0.0000 47.2670
#
#
#
# Elastic Compliance Matrix: (Units=1/GPa)
#
#
# Indices 1 2 3 4 5 6 
#
# 1 0.009376 -0.004360 -0.000872 0.000000 -0.009668 0.000000
# 2 -0.004360 0.009277 -0.002467 0.000000 0.004424 0.000000
# 3 -0.000872 -0.002467 0.021016 0.000000 -0.005459 0.000000
# 4 0.000000 0.000000 0.000000 0.074384 0.000000 0.001110
# 5 -0.009668 0.004424 -0.005459 0.000000 0.055766 0.000000
# 6 0.000000 0.000000 0.000000 0.001110 0.000000 0.021173
#
#
# Mechanical properties :
#
#
# Convention : Reuss Voigt Hill
#
# Bulk Modulus (GPa) = 41.20014 66.84756 54.02385
# Shear Modulus (GPa) = 23.31216 33.51306 28.41261
#
# Velocity S-wave (km/s) = 3.19584 3.83178 3.52817
# Velocity P-wave (km/s) = 5.62745 6.99025 6.34554
#
# Compressibility (1/GPa) = 0.02427176
#
# Stress axis : x y z
#
# Youngs Moduli (GPa) = 106.65322 107.79200 47.58282
#
# Poissons Ratio (x) = 0.46997 0.04150
# Poissons Ratio (y) = 0.46500 0.11737
# Poissons Ratio (z) = 0.09302 0.26588
#
# Static dielectric constant tensor:
#      x y z
#    x 5.441020 0.000000 0.238130 
#    y 0.000000 4.280220 0.000000 
#    z 0.238130 0.000000 3.845740 
# 
# 
# High freq. dielectric constant tensor:
#      x y z
#    x 1.937380 0.000000 0.012790 
#    y 0.000000 1.901670 0.000000 
#    z 0.012790 0.000000 1.874170 
# 
# From -- ./inp_files/310235.got.cif
#   From: 2010.06.25/outbox.cif.g09.slc.cpg/sg15_156_cif.got.tgz:310235.got - 2010.06.28 07:06:18.
