data_PCOD8153351
_publ_section_title
;
Structure prediction by ZEFSAII (Michael W. Deem and Ramdas Pophale) SiO2 
 PCOD8153351
Probable space group: C 2/C
;
_chemical_formula_sum "Si O2"
_cell_formula_units_Z 64
_cell_length_a 23.096569
_cell_length_b 11.765615
_cell_length_c 12.180412
_cell_angle_alpha 90.000000
_cell_angle_beta 112.338659
_cell_angle_gamma 90.000000
_cell_volume 3061.568436
_symmetry_space_group_name_H-M "C 2/C"
_symmetry_group_IT_number 15
_symmetry_cell_setting 'monoclinic'
loop_
_space_group_symop_operation_xyz
x,y,z
-x,y,1/2-z
-x,-y,-z
x,-y,1/2+z
1/2+x,1/2+y,z
1/2-x,1/2+y,1/2-z
1/2-x,1/2-y,-z
1/2+x,1/2-y,1/2+z
loop_
_atom_site_type_symbol
_atom_site_label
_atom_site_fract_x
_atom_site_fract_y
_atom_site_fract_z
Si Si1 0.355880 0.386169 0.805610
Si Si2 0.214692 0.865693 0.967266
Si Si3 0.218519 0.721617 0.595388
Si Si4 0.830180 0.139662 0.825839
Si Si5 0.562954 0.990028 0.228848
Si Si6 0.664958 0.002756 0.476727
Si Si7 0.526859 0.254038 0.654632
Si Si8 0.085906 0.335948 0.565862
O O1 0.329946 0.350780 0.668847
O O2 0.314337 0.333038 0.875240
O O3 0.357025 0.521731 0.802430
O O4 0.427738 0.346085 0.868452
O O5 0.250000 0.750000 0.000000
O O6 0.174617 0.879396 0.047625
O O7 0.262934 0.970895 0.994637
O O8 0.250000 0.750000 0.500000
O O9 0.266599 0.671863 0.718749
O O10 0.166374 0.622736 0.542319
O O11 0.877809 0.242601 0.835817
O O12 0.500000 0.010684 0.250000
O O13 0.568556 0.858794 0.200495
O O14 0.626079 0.024088 0.337862
O O15 0.554901 0.068807 0.118194
O O16 0.633742 0.899453 0.519636
O O17 0.500000 0.300868 0.750000
O O18 0.468245 0.229047 0.536056
#
# Coordination Sequence:
#
# PCOD8153351 Si02
#       8
#     8   8   8   8   8   8   8   8
#     4  12  26  45  70 100 137 182 228 282 344 405
#     4  12  22  42  69  99 131 174 224 276 341 404
#     4  12  26  45  67 104 143 178 219 284 349 413
#     4  12  27  45  67 101 139 178 229 278 333 421
#     4  11  24  41  66 101 131 170 222 279 334 394
#     4  12  23  40  71  99 131 172 216 285 337 394
#     4  11  23  45  71  99 132 177 234 284 331 400
#     4  12  24  43  67  96 135 174 225 272 335 392
#
# _framework density 20.904318
#
# number of rings (size 3 to 8) (size 9 to 14) (size 15 to 20)
#    0.000    0.250    6.250    4.125    3.500    0.500 
#    0.000    0.625    0.000    0.000    0.000    0.000 
#    0.000    0.000    0.000    0.000    0.000    0.000 
#
# Total GULP energy -396872.560781 kJ/mol
# GULP energy per Si atom -12402.267524 kJ/mol
# Density = 2.085674 g / cm^3
# Si number density = 20.904318 Si / 1000 Ang^3
#
#
#
# Elastic Constant Matrix: (Units=GPa)
#
#
# Indices 1 2 3 4 5 6 
#
# 1 78.9130 37.7040 12.5557 0.0000 1.6138 0.0000
# 2 37.7040 77.8474 23.2491 0.0000 -5.3910 0.0000
# 3 12.5557 23.2491 71.8900 0.0000 8.5321 0.0000
# 4 0.0000 0.0000 0.0000 23.3842 0.0000 -8.3951
# 5 1.6138 -5.3910 8.5321 0.0000 40.3400 0.0000
# 6 0.0000 0.0000 0.0000 -8.3951 0.0000 65.3724
#
#
#
# Elastic Compliance Matrix: (Units=1/GPa)
#
#
# Indices 1 2 3 4 5 6 
#
# 1 0.016610 -0.008148 -0.000059 0.000000 -0.001741 0.000000
# 2 -0.008148 0.018565 -0.005041 0.000000 0.003873 0.000000
# 3 -0.000059 -0.005041 0.016033 0.000000 -0.004062 0.000000
# 4 0.000000 0.000000 0.000000 0.044831 0.000000 0.005757
# 5 -0.001741 0.003873 -0.004062 0.000000 0.026236 0.000000
# 6 0.000000 0.000000 0.000000 0.005757 0.000000 0.016036
#
#
# Mechanical properties :
#
#
# Convention : Reuss Voigt Hill
#
# Bulk Modulus (GPa) = 40.46487 41.74088 41.10288
# Shear Modulus (GPa) = 28.89433 36.16210 32.52822
#
# Velocity S-wave (km/s) = 3.72185 4.16370 3.94896
# Velocity P-wave (km/s) = 6.15376 6.56705 6.36376
#
# Compressibility (1/GPa) = 0.02471279
#
# Stress axis : x y z
#
# Youngs Moduli (GPa) = 60.20433 53.86361 62.37204
#
# Poissons Ratio (x) = 0.43886 0.00371
# Poissons Ratio (y) = 0.49052 0.31440
# Poissons Ratio (z) = 0.00358 0.27151
#
# Static dielectric constant tensor:
#      x y z
#    x 4.404100 0.000000 -0.035750 
#    y 0.000000 4.006890 0.000000 
#    z -0.035750 0.000000 3.781450 
# 
# 
# High freq. dielectric constant tensor:
#      x y z
#    x 1.811850 0.000000 0.004190 
#    y 0.000000 1.824640 0.000000 
#    z 0.004190 0.000000 1.829030 
# 
# From -- ./inp_files/118029.got.cif
#   From: 2010.06.25/outbox.cif.g09.slc.cpg/sg15_60_cif.got.tgz:118029.got - 2010.06.28 07:06:18.
