data_PCOD8153092
_publ_section_title
;
Structure prediction by ZEFSAII (Michael W. Deem and Ramdas Pophale) SiO2 
 PCOD8153092
Probable space group: C 2/C
;
_chemical_formula_sum "Si O2"
_cell_formula_units_Z 48
_cell_length_a 25.124532
_cell_length_b 9.732850
_cell_length_c 13.707686
_cell_angle_alpha 90.000000
_cell_angle_beta 140.483067
_cell_angle_gamma 90.000000
_cell_volume 2132.889410
_symmetry_space_group_name_H-M "C 2/C"
_symmetry_group_IT_number 15
_symmetry_cell_setting 'monoclinic'
loop_
_space_group_symop_operation_xyz
x,y,z
-x,y,1/2-z
-x,-y,-z
x,-y,1/2+z
1/2+x,1/2+y,z
1/2-x,1/2+y,1/2-z
1/2-x,1/2-y,-z
1/2+x,1/2-y,1/2+z
loop_
_atom_site_type_symbol
_atom_site_label
_atom_site_fract_x
_atom_site_fract_y
_atom_site_fract_z
Si Si1 0.591651 0.870974 0.753268
Si Si2 0.143097 0.186310 0.261729
Si Si3 0.452077 0.253173 0.509869
Si Si4 0.756924 0.537716 0.569890
Si Si5 0.000000 0.590243 0.750000
Si Si6 0.500000 0.652250 0.750000
Si Si7 0.636170 0.516564 0.069202
O O1 0.559433 0.850145 0.597186
O O2 0.568514 0.741334 0.787525
O O3 0.690978 0.904008 0.893069
O O4 0.548929 0.004201 0.738894
O O5 0.179013 0.337459 0.325989
O O6 0.184383 0.075350 0.392010
O O7 0.161449 0.137128 0.178413
O O8 0.045033 0.185648 0.143370
O O9 0.436430 0.180796 0.593524
O O10 0.384595 0.375044 0.403630
O O11 0.716328 0.501506 0.615271
O O12 0.448741 0.556371 0.605772
#
# Coordination Sequence:
#
# PCOD8153092 Si02
#       7
#     8   8   8   8   4   4   8
#     4  11  26  44  74 103 143 179 245 294 349 417
#     4  11  25  48  68 101 145 186 239 287 358 429
#     4  12  24  47  75 101 136 198 234 290 353 434
#     4  11  27  45  69 105 144 184 230 304 356 416
#     4  11  23  42  72 102 137 183 244 286 346 429
#     4  11  25  48  72 112 131 189 240 292 342 441
#     4  12  27  43  75 102 144 185 234 286 366 427
#
# _framework density 22.504683
#
# number of rings (size 3 to 8) (size 9 to 14) (size 15 to 20)
#    0.000    0.667    3.333    3.500    7.000    2.000 
#    0.000    0.000    0.000    0.000    0.000    0.000 
#    0.000    0.000    0.000    0.000    0.000    0.000 
#
# Total GULP energy -297689.444150 kJ/mol
# GULP energy per Si atom -12403.726840 kJ/mol
# Density = 2.245346 g / cm^3
# Si number density = 22.504683 Si / 1000 Ang^3
#
#
#
# Elastic Constant Matrix: (Units=GPa)
#
#
# Indices 1 2 3 4 5 6 
#
# 1 132.8406 42.2117 37.0398 0.0000 1.1115 0.0000
# 2 42.2117 70.7233 23.2857 0.0000 -3.5726 0.0000
# 3 37.0398 23.2857 82.0826 0.0000 -12.7018 0.0000
# 4 0.0000 0.0000 0.0000 28.8642 0.0000 -18.8933
# 5 1.1115 -3.5726 -12.7018 0.0000 48.8365 0.0000
# 6 0.0000 0.0000 0.0000 -18.8933 0.0000 20.0776
#
#
#
# Elastic Compliance Matrix: (Units=1/GPa)
#
#
# Indices 1 2 3 4 5 6 
#
# 1 0.010055 -0.004971 -0.003354 0.000000 -0.001465 0.000000
# 2 -0.004971 0.018054 -0.002768 0.000000 0.000714 0.000000
# 3 -0.003354 -0.002768 0.015068 0.000000 0.003793 0.000000
# 4 0.000000 0.000000 0.000000 0.090208 0.000000 0.084887
# 5 -0.001465 0.000714 0.003793 0.000000 0.021549 0.000000
# 6 0.000000 0.000000 0.000000 0.084887 0.000000 0.129686
#
#
# Mechanical properties :
#
#
# Convention : Reuss Voigt Hill
#
# Bulk Modulus (GPa) = 47.63781 54.52456 51.08118
# Shear Modulus (GPa) = 15.93357 31.76296 23.84826
#
# Velocity S-wave (km/s) = 2.66373 3.76093 3.25884
# Velocity P-wave (km/s) = 5.53846 6.56811 6.07514
#
# Compressibility (1/GPa) = 0.02099173
#
# Stress axis : x y z
#
# Youngs Moduli (GPa) = 99.45504 55.38923 66.36411
#
# Poissons Ratio (x) = 0.27534 0.22256
# Poissons Ratio (y) = 0.49440 0.18370
# Poissons Ratio (z) = 0.33354 0.15332
#
# Static dielectric constant tensor:
#      x y z
#    x 4.194190 0.000000 -0.152500 
#    y 0.000000 4.149300 0.000000 
#    z -0.152500 0.000000 3.989830 
# 
# 
# High freq. dielectric constant tensor:
#      x y z
#    x 1.902190 0.000000 -0.007770 
#    y 0.000000 1.896050 0.000000 
#    z -0.007770 0.000000 1.879240 
# 
# From -- ./inp_files/176936.got.cif
#   From: 2010.06.25/outbox.cif.g09.slc.cpg/sg15_89_cif.got.tgz:176936.got - 2010.06.28 07:06:18.
