data_PCOD8153542
_publ_section_title
;
Structure prediction by ZEFSAII (Michael W. Deem and Ramdas Pophale) SiO2 
 PCOD8153542
Probable space group: C 2/C
;
_chemical_formula_sum "Si O2"
_cell_formula_units_Z 48
_cell_length_a 19.230272
_cell_length_b 17.245963
_cell_length_c 14.642494
_cell_angle_alpha 90.000000
_cell_angle_beta 150.963295
_cell_angle_gamma 90.000000
_cell_volume 2357.006079
_symmetry_space_group_name_H-M "C 2/C"
_symmetry_group_IT_number 15
_symmetry_cell_setting 'monoclinic'
loop_
_space_group_symop_operation_xyz
x,y,z
-x,y,1/2-z
-x,-y,-z
x,-y,1/2+z
1/2+x,1/2+y,z
1/2-x,1/2+y,1/2-z
1/2-x,1/2-y,-z
1/2+x,1/2-y,1/2+z
loop_
_atom_site_type_symbol
_atom_site_label
_atom_site_fract_x
_atom_site_fract_y
_atom_site_fract_z
Si Si1 0.944373 0.994987 0.286577
Si Si2 0.024096 0.258266 0.082710
Si Si3 0.189411 0.289968 0.519048
Si Si4 0.905010 0.103399 0.908781
Si Si5 0.897907 0.573550 0.863305
Si Si6 0.849178 0.544886 0.600684
O O1 0.000000 0.974794 0.250000
O O2 0.007891 0.076151 0.399356
O O3 0.980230 0.931575 0.404825
O O4 0.774556 0.990307 0.077660
O O5 0.186847 0.227216 0.263908
O O6 0.013738 0.345152 0.027691
O O7 0.963112 0.259611 0.117410
O O8 0.922005 0.196011 0.914739
O O9 0.250000 0.250000 0.500000
O O10 0.163634 0.379605 0.475840
O O11 0.738540 0.077210 0.725641
O O12 0.831513 0.565431 0.686400
O O13 0.000000 0.500000 0.000000
O O14 0.000000 0.503722 0.750000
#
# Coordination Sequence:
#
# PCOD8153542 Si02
#       6
#     8   8   8   8   8   8
#     4  11  24  41  67  94 132 175 217 271 326 396
#     4  12  23  38  63  92 133 169 213 270 327 396
#     4  12  21  34  58  96 130 165 202 267 340 392
#     4  11  24  43  66  99 131 174 222 270 330 394
#     4  12  25  41  63  97 136 177 215 271 332 390
#     4  12  21  37  60  93 132 167 208 266 329 392
#
# _framework density 20.364816999999999
#
# number of rings (size 3 to 8) (size 9 to 14) (size 15 to 20)
#    0.000    0.333    8.333    1.500    0.000    0.000 
#    0.000    0.000    0.000    5.000    0.000    0.000 
#    0.000    0.000    0.000    0.000    0.000    0.000 
#
# Total GULP energy -297399.917752 kJ/mol
# GULP energy per Si atom -12391.663240 kJ/mol
# Density = 2.031847 g / cm^3
# Si number density = 20.364817 Si / 1000 Ang^3
#
#
#
# Elastic Constant Matrix: (Units=GPa)
#
#
# Indices 1 2 3 4 5 6 
#
# 1 109.9413 31.8742 29.3519 0.0000 3.8376 0.0000
# 2 31.8742 115.7843 41.2708 0.0000 -6.5272 0.0000
# 3 29.3519 41.2708 101.8951 0.0000 20.6530 0.0000
# 4 0.0000 0.0000 0.0000 30.0058 0.0000 -1.0054
# 5 3.8376 -6.5272 20.6530 0.0000 30.6108 0.0000
# 6 0.0000 0.0000 0.0000 -1.0054 0.0000 22.5443
#
#
#
# Elastic Compliance Matrix: (Units=1/GPa)
#
#
# Indices 1 2 3 4 5 6 
#
# 1 0.010265 -0.002128 -0.002018 0.000000 -0.000379 0.000000
# 2 -0.002128 0.011469 -0.005308 0.000000 0.006294 0.000000
# 3 -0.002018 -0.005308 0.014739 0.000000 -0.010823 0.000000
# 4 0.000000 0.000000 0.000000 0.033377 0.000000 0.001489
# 5 -0.000379 0.006294 -0.010823 0.000000 0.041360 0.000000
# 6 0.000000 0.000000 0.000000 0.001489 0.000000 0.044423
#
#
# Mechanical properties :
#
#
# Convention : Reuss Voigt Hill
#
# Bulk Modulus (GPa) = 56.93211 59.17940 58.05575
# Shear Modulus (GPa) = 27.71662 31.64044 29.67853
#
# Velocity S-wave (km/s) = 3.69318 3.94595 3.82166
# Velocity P-wave (km/s) = 6.79727 7.06282 6.93132
#
# Compressibility (1/GPa) = 0.01756478
#
# Stress axis : x y z
#
# Youngs Moduli (GPa) = 97.42133 87.18841 67.84628
#
# Poissons Ratio (x) = 0.18551 0.13693
# Poissons Ratio (y) = 0.20728 0.36015
# Poissons Ratio (z) = 0.19662 0.46282
#
# Static dielectric constant tensor:
#      x y z
#    x 3.805850 0.000000 0.526510 
#    y 0.000000 3.563260 0.000000 
#    z 0.526510 0.000000 4.216600 
# 
# 
# High freq. dielectric constant tensor:
#      x y z
#    x 1.790310 0.000000 0.030870 
#    y 0.000000 1.773370 0.000000 
#    z 0.030870 0.000000 1.794610 
# 
# From -- ./inp_files/40957.got.cif
#   From: 2010.06.25/outbox.cif.g09.slc.cpg/sg15_21_cif.got.tgz:40957.got - 2010.06.28 07:06:18.
