data_PCOD8153723
_publ_section_title
;
Structure prediction by ZEFSAII (Michael W. Deem and Ramdas Pophale) SiO2 
 PCOD8153723
Probable space group: C 2/C
;
_chemical_formula_sum "Si O2"
_cell_formula_units_Z 40
_cell_length_a 16.952399
_cell_length_b 22.357950
_cell_length_c 7.876704
_cell_angle_alpha 90.000000
_cell_angle_beta 143.674112
_cell_angle_gamma 90.000000
_cell_volume 1768.504020
_symmetry_space_group_name_H-M "C 2/C"
_symmetry_group_IT_number 15
_symmetry_cell_setting 'monoclinic'
loop_
_space_group_symop_operation_xyz
x,y,z
-x,y,1/2-z
-x,-y,-z
x,-y,1/2+z
1/2+x,1/2+y,z
1/2-x,1/2+y,1/2-z
1/2-x,1/2-y,-z
1/2+x,1/2-y,1/2+z
loop_
_atom_site_type_symbol
_atom_site_label
_atom_site_fract_x
_atom_site_fract_y
_atom_site_fract_z
Si Si1 0.755824 0.537806 0.165681
Si Si2 0.000000 0.595017 0.750000
Si Si3 0.000000 0.888950 0.250000
Si Si4 0.935560 0.192306 0.328930
Si Si5 0.365966 0.823172 0.275504
Si Si6 0.650404 0.073757 0.527080
O O1 0.871919 0.555084 0.496341
O O2 0.765582 0.465092 0.186336
O O3 0.619740 0.565800 0.996071
O O4 0.771246 0.565307 0.008997
O O5 0.971293 0.635110 0.862942
O O6 0.986167 0.848373 0.397329
O O7 0.940538 0.259782 0.409851
O O8 0.000000 0.187091 0.250000
O O9 0.778812 0.177534 0.062080
O O10 0.347233 0.855238 0.425551
O O11 0.500000 0.049763 0.250000
#
# Coordination Sequence:
#
# PCOD8153723 Si02
#       6
#     8   4   4   8   8   8
#     4  12  26  44  69 103 140 184 236 292 350 424
#     4  12  20  44  69  97 138 180 232 290 346 410
#     4  12  28  46  71 109 146 188 236 282 362 434
#     4  11  25  47  70 104 146 187 231 293 358 424
#     4  11  24  44  71 100 138 185 236 292 351 417
#     4  12  24  43  71  99 135 184 242 296 345 414
#
# _framework density 22.617986999999999
#
# number of rings (size 3 to 8) (size 9 to 14) (size 15 to 20)
#    0.000    0.400    6.000    3.000    1.400    0.800 
#    1.800    4.000    0.000    0.000    0.000    0.000 
#    0.000    0.000    0.000    0.000    0.000    0.000 
#
# Total GULP energy -247863.613119 kJ/mol
# GULP energy per Si atom -12393.180656 kJ/mol
# Density = 2.256651 g / cm^3
# Si number density = 22.617987 Si / 1000 Ang^3
#
#
#
# Elastic Constant Matrix: (Units=GPa)
#
#
# Indices 1 2 3 4 5 6 
#
# 1 97.4746 34.1170 17.2884 0.0000 -11.4273 0.0000
# 2 34.1170 110.7100 39.6723 0.0000 -4.3455 0.0000
# 3 17.2884 39.6723 97.5603 0.0000 7.0899 0.0000
# 4 0.0000 0.0000 0.0000 -38.8834 0.0000 14.9513
# 5 -11.4273 -4.3455 7.0899 0.0000 36.2037 0.0000
# 6 0.0000 0.0000 0.0000 14.9513 0.0000 12.1013
#
#
#
# Elastic Compliance Matrix: (Units=1/GPa)
#
#
# Indices 1 2 3 4 5 6 
#
# 1 0.011984 -0.003155 -0.001104 0.000000 0.003620 0.000000
# 2 -0.003155 0.011570 -0.004235 0.000000 0.001222 0.000000
# 3 -0.001104 -0.004235 0.012406 0.000000 -0.003286 0.000000
# 4 0.000000 0.000000 0.000000 -0.017435 0.000000 0.021541
# 5 0.003620 0.001222 -0.003286 0.000000 0.029554 0.000000
# 6 0.000000 0.000000 0.000000 0.021541 0.000000 0.056021
#
#
# Mechanical properties :
#
#
# Convention : Reuss Voigt Hill
#
# Bulk Modulus (GPa) = 52.70580 54.21113 53.45846
# Shear Modulus (GPa) = 39.24250 16.19547 27.71898
#
# Velocity S-wave (km/s) = 4.16987 2.67880 3.50455
# Velocity P-wave (km/s) = 6.82180 5.79553 6.32950
#
# Compressibility (1/GPa) = 0.01897325
#
# Stress axis : x y z
#
# Youngs Moduli (GPa) = 83.44746 86.42713 80.60323
#
# Poissons Ratio (x) = 0.27271 0.08895
# Poissons Ratio (y) = 0.26331 0.34133
# Poissons Ratio (z) = 0.09208 0.36599
#
# Static dielectric constant tensor:
#      x y z
#    x 4.143640 0.000000 0.042840 
#    y 0.000000 4.424320 0.000000 
#    z 0.042840 0.000000 3.940230 
# 
# 
# High freq. dielectric constant tensor:
#      x y z
#    x 1.892780 0.000000 0.001540 
#    y 0.000000 1.905210 0.000000 
#    z 0.001540 0.000000 1.882960 
# 
# From -- ./inp_files/30238.got.cif
#   From: 2010.06.25/outbox.cif.g09.slc.cpg/sg15_16_cif.got.tgz:30238.got - 2010.06.28 07:06:18.
