data_PCOD8153654
_publ_section_title
;
Structure prediction by ZEFSAII (Michael W. Deem and Ramdas Pophale) SiO2 
 PCOD8153654
Probable space group: C 2/C
;
_chemical_formula_sum "Si O2"
_cell_formula_units_Z 36
_cell_length_a 6.665332
_cell_length_b 20.314968
_cell_length_c 14.480970
_cell_angle_alpha 90.000000
_cell_angle_beta 119.767998
_cell_angle_gamma 90.000000
_cell_volume 1702.067468
_symmetry_space_group_name_H-M "C 2/C"
_symmetry_group_IT_number 15
_symmetry_cell_setting 'monoclinic'
loop_
_space_group_symop_operation_xyz
x,y,z
-x,y,1/2-z
-x,-y,-z
x,-y,1/2+z
1/2+x,1/2+y,z
1/2-x,1/2+y,1/2-z
1/2-x,1/2-y,-z
1/2+x,1/2-y,1/2+z
loop_
_atom_site_type_symbol
_atom_site_label
_atom_site_fract_x
_atom_site_fract_y
_atom_site_fract_z
Si Si1 0.254578 0.087259 0.333719
Si Si2 0.692860 0.446422 0.022054
Si Si3 0.453178 0.791633 0.635412
Si Si4 0.000000 0.498635 0.250000
Si Si5 0.422554 0.704555 0.981793
O O1 0.265672 0.044735 0.431323
O O2 0.447084 0.143690 0.393971
O O3 0.308236 0.043011 0.256390
O O4 0.000000 0.116337 0.250000
O O5 0.607985 0.372247 0.013636
O O6 0.894675 0.454777 0.143435
O O7 0.500000 0.500000 0.000000
O O8 0.500000 0.804800 0.750000
O O9 0.593139 0.728058 0.628686
O O10 0.182487 0.778382 0.568674
O O11 0.250000 0.750000 0.000000
#
# Coordination Sequence:
#
# PCOD8153654 Si02
#       5
#     8   8   8   4   8
#     4  12  23  45  74  99 139 190 237 296 359 428
#     4  12  25  47  69 100 145 184 239 295 358 439
#     4  11  24  43  73 100 134 182 241 286 352 436
#     4  12  26  42  68 104 136 188 228 292 372 420
#     4  11  25  46  68 101 140 183 230 296 361 417
#
# _framework density 21.150746999999999
#
# number of rings (size 3 to 8) (size 9 to 14) (size 15 to 20)
#    0.000    0.444    5.556    3.333    0.000    1.778 
#    4.000    0.000    0.000    0.000    0.000    0.000 
#    0.000    0.000    0.000    0.000    0.000    0.000 
#
# Total GULP energy -223033.599176 kJ/mol
# GULP energy per Si atom -12390.755510 kJ/mol
# Density = 2.110261 g / cm^3
# Si number density = 21.150747 Si / 1000 Ang^3
#
#
#
# Elastic Constant Matrix: (Units=GPa)
#
#
# Indices 1 2 3 4 5 6 
#
# 1 143.6010 63.2521 50.4069 0.0000 -7.1004 0.0000
# 2 63.2521 128.9179 21.4894 0.0000 -12.1251 0.0000
# 3 50.4069 21.4894 99.1458 0.0000 -12.8975 0.0000
# 4 0.0000 0.0000 0.0000 31.3902 0.0000 -0.9568
# 5 -7.1004 -12.1251 -12.8975 0.0000 42.0824 0.0000
# 6 0.0000 0.0000 0.0000 -0.9568 0.0000 48.7452
#
#
#
# Elastic Compliance Matrix: (Units=1/GPa)
#
#
# Indices 1 2 3 4 5 6 
#
# 1 0.010455 -0.004470 -0.004463 0.000000 -0.000891 0.000000
# 2 -0.004470 0.010100 0.000379 0.000000 0.002272 0.000000
# 3 -0.004463 0.000379 0.012695 0.000000 0.003247 0.000000
# 4 0.000000 0.000000 0.000000 0.031876 0.000000 0.000626
# 5 -0.000891 0.002272 0.003247 0.000000 0.025262 0.000000
# 6 0.000000 0.000000 0.000000 0.000626 0.000000 0.020527
#
#
# Mechanical properties :
#
#
# Convention : Reuss Voigt Hill
#
# Bulk Modulus (GPa) = 61.94355 71.32906 66.63631
# Shear Modulus (GPa) = 37.48013 40.21132 38.84572
#
# Velocity S-wave (km/s) = 4.21414 4.36498 4.29022
# Velocity P-wave (km/s) = 7.28209 7.69424 7.49100
#
# Compressibility (1/GPa) = 0.01614373
#
# Stress axis : x y z
#
# Youngs Moduli (GPa) = 95.64980 99.00644 78.76929
#
# Poissons Ratio (x) = 0.44251 0.35151
# Poissons Ratio (y) = 0.42751 -0.02983
# Poissons Ratio (z) = 0.42684 -0.03750
#
# Static dielectric constant tensor:
#      x y z
#    x 4.170040 0.000000 -0.016280 
#    y 0.000000 3.036000 0.000000 
#    z -0.016280 0.000000 3.545560 
# 
# 
# High freq. dielectric constant tensor:
#      x y z
#    x 1.854330 0.000000 -0.012590 
#    y 0.000000 1.823120 0.000000 
#    z -0.012590 0.000000 1.832410 
# 
# From -- ./inp_files/129234.got.cif
#   From: 2010.06.25/outbox.cif.g09.slc.cpg/sg15_65_cif.got.tgz:129234.got - 2010.06.28 07:06:18.
