data_PCOD8153128
_publ_section_title
;
Structure prediction by ZEFSAII (Michael W. Deem and Ramdas Pophale) SiO2 
 PCOD8153128
Probable space group: C 2/C
;
_chemical_formula_sum "Si O2"
_cell_formula_units_Z 52
_cell_length_a 16.188496
_cell_length_b 12.948479
_cell_length_c 13.066568
_cell_angle_alpha 90.000000
_cell_angle_beta 56.181953
_cell_angle_gamma 90.000000
_cell_volume 2275.558959
_symmetry_space_group_name_H-M "C 2/C"
_symmetry_group_IT_number 15
_symmetry_cell_setting 'monoclinic'
loop_
_space_group_symop_operation_xyz
x,y,z
-x,y,1/2-z
-x,-y,-z
x,-y,1/2+z
1/2+x,1/2+y,z
1/2-x,1/2+y,1/2-z
1/2-x,1/2-y,-z
1/2+x,1/2-y,1/2+z
loop_
_atom_site_type_symbol
_atom_site_label
_atom_site_fract_x
_atom_site_fract_y
_atom_site_fract_z
Si Si1 0.313917 0.369863 0.111587
Si Si2 0.224743 0.842444 0.734995
Si Si3 0.256784 0.563067 0.851026
Si Si4 0.000000 0.520424 0.250000
Si Si5 0.288481 0.071429 0.398028
Si Si6 0.448874 0.092051 0.593643
Si Si7 0.001076 0.802233 0.870897
O O1 0.259651 0.258376 0.148526
O O2 0.341778 0.400009 0.211450
O O3 0.238889 0.456287 0.120886
O O4 0.088599 0.126406 0.027194
O O5 0.269107 0.846965 0.820172
O O6 0.106178 0.851886 0.827369
O O7 0.262002 0.939759 0.642210
O O8 0.158428 0.621402 0.876513
O O9 0.276978 0.596302 0.954576
O O10 0.904476 0.585124 0.357240
O O11 0.939474 0.449776 0.213949
O O12 0.514152 0.195842 0.554921
O O13 0.500000 0.000000 0.500000
O O14 0.000000 0.786450 0.750000
#
# Coordination Sequence:
#
# PCOD8153128 Si02
#       7
#     8   8   8   4   8   8   8
#     4  11  25  45  66 103 133 182 227 282 339 405
#     4  11  24  45  68 101 140 179 229 286 331 408
#     4  11  23  43  66  98 141 178 220 283 338 401
#     4  12  20  38  64 104 128 178 224 274 344 390
#     4  11  25  41  70 100 141 183 225 285 342 405
#     4  12  22  39  66 101 135 172 228 282 335 396
#     4  12  26  43  71  99 134 180 231 281 339 406
#
# _framework density 22.851527999999998
#
# number of rings (size 3 to 8) (size 9 to 14) (size 15 to 20)
#    0.000    0.615    6.923    1.846    0.000    4.308 
#    0.000    2.308    0.000    0.000    0.000    0.000 
#    0.000    0.000    0.000    0.000    0.000    0.000 
#
# Total GULP energy -322151.425276 kJ/mol
# GULP energy per Si atom -12390.439434 kJ/mol
# Density = 2.279952 g / cm^3
# Si number density = 22.851528 Si / 1000 Ang^3
#
#
#
# Elastic Constant Matrix: (Units=GPa)
#
#
# Indices 1 2 3 4 5 6 
#
# 1 107.0926 17.1218 38.2673 0.0000 -9.4902 0.0000
# 2 17.1218 55.8486 20.5291 0.0000 -3.1803 0.0000
# 3 38.2673 20.5291 130.4276 0.0000 6.0872 0.0000
# 4 0.0000 0.0000 0.0000 24.1034 0.0000 3.6918
# 5 -9.4902 -3.1803 6.0872 0.0000 43.4749 0.0000
# 6 0.0000 0.0000 0.0000 3.6918 0.0000 23.0345
#
#
#
# Elastic Compliance Matrix: (Units=1/GPa)
#
#
# Indices 1 2 3 4 5 6 
#
# 1 0.010989 -0.002108 -0.003017 0.000000 0.002667 0.000000
# 2 -0.002108 0.019554 -0.002521 0.000000 0.001323 0.000000
# 3 -0.003017 -0.002521 0.009047 0.000000 -0.002110 0.000000
# 4 0.000000 0.000000 0.000000 0.042532 0.000000 -0.006817
# 5 0.002667 0.001323 -0.002110 0.000000 0.023976 0.000000
# 6 0.000000 0.000000 0.000000 -0.006817 0.000000 0.044506
#
#
# Mechanical properties :
#
#
# Convention : Reuss Voigt Hill
#
# Bulk Modulus (GPa) = 41.15478 49.46726 45.31102
# Shear Modulus (GPa) = 28.73634 32.61927 30.67781
#
# Velocity S-wave (km/s) = 3.55001 3.78225 3.66797
# Velocity P-wave (km/s) = 5.90357 6.38499 6.14899
#
# Compressibility (1/GPa) = 0.02429852
#
# Stress axis : x y z
#
# Youngs Moduli (GPa) = 90.99916 51.14071 110.52794
#
# Poissons Ratio (x) = 0.10781 0.33345
# Poissons Ratio (y) = 0.19184 0.27864
# Poissons Ratio (z) = 0.27453 0.12892
#
# Static dielectric constant tensor:
#      x y z
#    x 3.966750 0.000000 0.002260 
#    y 0.000000 4.039450 0.000000 
#    z 0.002260 0.000000 4.452830 
# 
# 
# High freq. dielectric constant tensor:
#      x y z
#    x 1.885530 0.000000 0.005550 
#    y 0.000000 1.886150 0.000000 
#    z 0.005550 0.000000 1.916790 
# 
# From -- ./inp_files/153370.got.cif
#   From: 2010.06.25/outbox.cif.g09.slc.cpg/sg15_77_cif.got.tgz:153370.got - 2010.06.28 07:06:18.
