data_PCOD8153855
_publ_section_title
;
Structure prediction by ZEFSAII (Michael W. Deem and Ramdas Pophale) SiO2 
 PCOD8153855
Probable space group: C 2/C
;
_chemical_formula_sum "Si O2"
_cell_formula_units_Z 44
_cell_length_a 25.088828
_cell_length_b 6.658869
_cell_length_c 12.508805
_cell_angle_alpha 90.000000
_cell_angle_beta 84.663756
_cell_angle_gamma 90.000000
_cell_volume 2080.704345
_symmetry_space_group_name_H-M "C 2/C"
_symmetry_group_IT_number 15
_symmetry_cell_setting 'monoclinic'
loop_
_space_group_symop_operation_xyz
x,y,z
-x,y,1/2-z
-x,-y,-z
x,-y,1/2+z
1/2+x,1/2+y,z
1/2-x,1/2+y,1/2-z
1/2-x,1/2-y,-z
1/2+x,1/2-y,1/2+z
loop_
_atom_site_type_symbol
_atom_site_label
_atom_site_fract_x
_atom_site_fract_y
_atom_site_fract_z
Si Si1 0.372789 0.987862 0.816240
Si Si2 0.540080 0.150085 0.049954
Si Si3 0.821770 0.098093 0.746034
Si Si4 0.500000 0.416211 0.250000
Si Si5 0.772938 0.751898 0.878871
Si Si6 0.410670 0.672535 0.161981
O O1 0.317289 0.080468 0.865017
O O2 0.398677 0.108119 0.712825
O O3 0.413213 0.986221 0.908359
O O4 0.363532 0.759537 0.782813
O O5 0.509887 0.276358 0.145933
O O6 0.564082 0.305974 0.959585
O O7 0.500000 0.000000 0.000000
O O8 0.774271 0.208804 0.694782
O O9 0.797876 0.969347 0.848684
O O10 0.854894 0.949721 0.661699
O O11 0.449533 0.557693 0.236421
O O12 0.750000 0.750000 0.000000
#
# Coordination Sequence:
#
# PCOD8153855 Si02
#       6
#     8   8   8   4   8   8
#     4  11  25  47  65 102 142 177 233 285 336 415
#     4  12  26  44  74 101 137 186 228 284 349 408
#     4  11  24  46  65 102 139 177 231 285 337 414
#     4  12  24  48  68 102 140 176 234 290 336 418
#     4  11  26  41  73  98 137 181 228 282 345 407
#     4  11  26  43  71  98 137 182 227 284 349 402
#
# _framework density 21.146685000000002
#
# number of rings (size 3 to 8) (size 9 to 14) (size 15 to 20)
#    0.000    0.727    3.636    2.727    5.091    0.727 
#    0.000    0.000    0.000    0.000    0.000    0.000 
#    0.000    0.000    0.000    0.000    0.000    0.000 
#
# Total GULP energy -272957.323969 kJ/mol
# GULP energy per Si atom -12407.151090 kJ/mol
# Density = 2.109855 g / cm^3
# Si number density = 21.146685 Si / 1000 Ang^3
#
#
#
# Elastic Constant Matrix: (Units=GPa)
#
#
# Indices 1 2 3 4 5 6 
#
# 1 114.7737 48.8992 41.9965 0.0000 6.0282 0.0000
# 2 48.8992 135.2425 66.2437 0.0000 -6.0836 0.0000
# 3 41.9965 66.2437 146.7599 0.0000 -22.5385 0.0000
# 4 0.0000 0.0000 0.0000 29.6852 0.0000 6.4151
# 5 6.0282 -6.0836 -22.5385 0.0000 40.0552 0.0000
# 6 0.0000 0.0000 0.0000 6.4151 0.0000 49.9524
#
#
#
# Elastic Compliance Matrix: (Units=1/GPa)
#
#
# Indices 1 2 3 4 5 6 
#
# 1 0.011022 -0.003000 -0.002325 0.000000 -0.003423 0.000000
# 2 -0.003000 0.010351 -0.003834 0.000000 -0.000134 0.000000
# 3 -0.002325 -0.003834 0.010042 0.000000 0.005418 0.000000
# 4 0.000000 0.000000 0.000000 0.034648 0.000000 -0.004450
# 5 -0.003423 -0.000134 0.005418 0.000000 0.028509 0.000000
# 6 0.000000 0.000000 0.000000 -0.004450 0.000000 0.020590
#
#
# Mechanical properties :
#
#
# Convention : Reuss Voigt Hill
#
# Bulk Modulus (GPa) = 76.36376 79.00609 77.68493
# Shear Modulus (GPa) = 36.27214 39.91435 38.09325
#
# Velocity S-wave (km/s) = 4.14607 4.34925 4.24887
# Velocity P-wave (km/s) = 7.68828 7.91602 7.80298
#
# Compressibility (1/GPa) = 0.01309522
#
# Stress axis : x y z
#
# Youngs Moduli (GPa) = 90.73082 96.61052 99.58125
#
# Poissons Ratio (x) = 0.28983 0.23157
# Poissons Ratio (y) = 0.27219 0.38181
# Poissons Ratio (z) = 0.21099 0.37042
#
# Static dielectric constant tensor:
#      x y z
#    x 4.030100 0.000000 -0.086050 
#    y 0.000000 3.931580 0.000000 
#    z -0.086050 0.000000 3.821680 
# 
# 
# High freq. dielectric constant tensor:
#      x y z
#    x 1.852510 0.000000 -0.006550 
#    y 0.000000 1.842130 0.000000 
#    z -0.006550 0.000000 1.822870 
# 
# From -- ./inp_files/170817.got.cif
#   From: 2010.06.25/outbox.cif.g09.slc.cpg/sg15_86_cif.got.tgz:170817.got - 2010.06.28 07:06:18.
