data_PCOD8153974
_publ_section_title
;
Structure prediction by ZEFSAII (Michael W. Deem and Ramdas Pophale) SiO2 
 PCOD8153974
Probable space group: C 2/C
;
_chemical_formula_sum "Si O2"
_cell_formula_units_Z 40
_cell_length_a 15.337675
_cell_length_b 11.079055
_cell_length_c 17.524215
_cell_angle_alpha 90.000000
_cell_angle_beta 142.222595
_cell_angle_gamma 90.000000
_cell_volume 1824.208838
_symmetry_space_group_name_H-M "C 2/C"
_symmetry_group_IT_number 15
_symmetry_cell_setting 'monoclinic'
loop_
_space_group_symop_operation_xyz
x,y,z
-x,y,1/2-z
-x,-y,-z
x,-y,1/2+z
1/2+x,1/2+y,z
1/2-x,1/2+y,1/2-z
1/2-x,1/2-y,-z
1/2+x,1/2-y,1/2+z
loop_
_atom_site_type_symbol
_atom_site_label
_atom_site_fract_x
_atom_site_fract_y
_atom_site_fract_z
Si Si1 0.142565 0.577846 0.307721
Si Si2 0.421542 0.749323 0.119276
Si Si3 0.110914 0.980650 0.414161
Si Si4 0.579528 0.069262 0.621061
Si Si5 0.835967 0.145519 0.701314
O O1 0.273745 0.513824 0.439870
O O2 0.138277 0.532824 0.218356
O O3 0.161596 0.720014 0.328866
O O4 0.000000 0.534351 0.250000
O O5 0.500000 0.798878 0.250000
O O6 0.467056 0.610142 0.141636
O O7 0.477091 0.831502 0.088414
O O8 0.250000 0.750000 0.000000
O O9 0.186415 0.946044 0.385677
O O10 0.987535 0.882974 0.346117
O O11 0.713489 0.138258 0.678757
O O12 0.500000 0.000000 0.500000
#
# Coordination Sequence:
#
# PCOD8153974 Si02
#       5
#     8   8   8   8   8
#     4  12  25  46  73 102 142 191 233 285 365 428
#     4  12  25  48  77 104 145 192 241 295 364 433
#     4  11  24  47  75 101 142 189 238 286 362 433
#     4  12  29  44  70 106 145 183 239 298 350 419
#     4  11  25  45  71 105 141 182 235 297 351 420
#
# _framework density 21.927315
#
# number of rings (size 3 to 8) (size 9 to 14) (size 15 to 20)
#    0.000    0.400    4.000    6.000    5.600    2.400 
#    0.000    0.000    0.000    0.000    0.000    0.000 
#    0.000    0.000    0.000    0.000    0.000    0.000 
#
# Total GULP energy -248068.071072 kJ/mol
# GULP energy per Si atom -12403.403554 kJ/mol
# Density = 2.187741 g / cm^3
# Si number density = 21.927315 Si / 1000 Ang^3
#
#
#
# Elastic Constant Matrix: (Units=GPa)
#
#
# Indices 1 2 3 4 5 6 
#
# 1 145.6560 47.6792 63.4442 0.0000 9.0780 0.0000
# 2 47.6792 125.0739 25.9086 0.0000 -14.1101 0.0000
# 3 63.4442 25.9086 172.0814 0.0000 -12.7225 0.0000
# 4 0.0000 0.0000 0.0000 33.1492 0.0000 -4.9405
# 5 9.0780 -14.1101 -12.7225 0.0000 38.6211 0.0000
# 6 0.0000 0.0000 0.0000 -4.9405 0.0000 34.6520
#
#
#
# Elastic Compliance Matrix: (Units=1/GPa)
#
#
# Indices 1 2 3 4 5 6 
#
# 1 0.009827 -0.003570 -0.003436 0.000000 -0.004746 0.000000
# 2 -0.003570 0.009827 0.000168 0.000000 0.004485 0.000000
# 3 -0.003436 0.000168 0.007295 0.000000 0.003272 0.000000
# 4 0.000000 0.000000 0.000000 0.030822 0.000000 0.004394
# 5 -0.004746 0.004485 0.003272 0.000000 0.029724 0.000000
# 6 0.000000 0.000000 0.000000 0.004394 0.000000 0.029485
#
#
# Mechanical properties :
#
#
# Convention : Reuss Voigt Hill
#
# Bulk Modulus (GPa) = 75.34254 79.65281 77.49767
# Shear Modulus (GPa) = 37.01528 41.66975 39.34252
#
# Velocity S-wave (km/s) = 4.11309 4.36404 4.24042
# Velocity P-wave (km/s) = 7.54927 7.86116 7.70679
#
# Compressibility (1/GPa) = 0.01327271
#
# Stress axis : x y z
#
# Youngs Moduli (GPa) = 101.76538 101.75907 137.08458
#
# Poissons Ratio (x) = 0.36323 0.47107
# Poissons Ratio (y) = 0.36325 -0.02303
# Poissons Ratio (z) = 0.34970 -0.01710
#
# Static dielectric constant tensor:
#      x y z
#    x 3.997310 0.000000 0.107930 
#    y 0.000000 4.199940 0.000000 
#    z 0.107930 0.000000 4.049110 
# 
# 
# High freq. dielectric constant tensor:
#      x y z
#    x 1.852090 0.000000 0.005010 
#    y 0.000000 1.883350 0.000000 
#    z 0.005010 0.000000 1.874940 
# 
# From -- ./inp_files/204254.got.cif
#   From: 2010.06.25/outbox.cif.g09.slc.cpg/sg15_103_cif.got.tgz:204254.got - 2010.06.28 07:06:18.
