data_PCOD8153712
_publ_section_title
;
Structure prediction by ZEFSAII (Michael W. Deem and Ramdas Pophale) SiO2 
 PCOD8153712
Probable space group: C 2/C
;
_chemical_formula_sum "Si O2"
_cell_formula_units_Z 60
_cell_length_a 18.029463
_cell_length_b 22.052001
_cell_length_c 11.572577
_cell_angle_alpha 90.000000
_cell_angle_beta 33.326562
_cell_angle_gamma 90.000000
_cell_volume 2527.886785
_symmetry_space_group_name_H-M "C 2/C"
_symmetry_group_IT_number 15
_symmetry_cell_setting 'monoclinic'
loop_
_space_group_symop_operation_xyz
x,y,z
-x,y,1/2-z
-x,-y,-z
x,-y,1/2+z
1/2+x,1/2+y,z
1/2-x,1/2+y,1/2-z
1/2-x,1/2-y,-z
1/2+x,1/2-y,1/2+z
loop_
_atom_site_type_symbol
_atom_site_label
_atom_site_fract_x
_atom_site_fract_y
_atom_site_fract_z
Si Si1 0.000000 0.357317 0.750000
Si Si2 0.781747 0.933945 0.039548
Si Si3 0.996469 0.064433 0.444136
Si Si4 0.094772 0.132603 0.524260
Si Si5 0.852548 0.737399 0.607424
Si Si6 0.447736 0.761232 0.442707
Si Si7 0.652703 0.061262 0.229078
Si Si8 0.989401 0.395672 0.138920
O O1 0.085769 0.317957 0.546336
O O2 0.106660 0.398865 0.679372
O O3 0.669600 0.880448 0.178676
O O4 0.695905 0.995266 0.131276
O O5 0.887775 0.928602 0.800322
O O6 0.850972 0.929471 0.073940
O O7 0.014882 0.119106 0.509660
O O8 0.000000 0.000000 0.500000
O O9 0.133720 0.202692 0.488906
O O10 0.225634 0.091526 0.359837
O O11 0.000000 0.110687 0.750000
O O12 0.937703 0.751240 0.611717
O O13 0.693510 0.727835 0.842968
O O14 0.500000 0.737038 0.250000
O O15 0.423545 0.833792 0.470739
O O16 0.536259 0.058439 0.477857
O O17 0.000000 0.428244 0.250000
#
# Coordination Sequence:
#
# PCOD8153712 Si02
#       8
#     4   8   8   8   8   8   8   8
#     4  12  28  46  74 110 152 186 260 300 380 446
#     4  11  26  44  74 102 149 187 240 302 366 431
#     4  11  24  47  69 106 140 188 242 300 360 453
#     4  12  25  43  74 103 143 192 241 299 374 432
#     4  12  25  49  74 108 147 195 245 319 366 444
#     4  11  26  48  75 103 148 193 248 306 372 441
#     4  12  25  47  69 108 143 194 240 301 369 438
#     4  11  24  44  70 101 143 188 237 293 362 437
#
# _framework density 23.735240000000001
#
# number of rings (size 3 to 8) (size 9 to 14) (size 15 to 20)
#    0.000    0.533    4.667    2.400    4.667    4.267 
#    2.400    0.000    0.000    0.000    0.000    0.000 
#    0.000    0.000    0.000    0.000    0.000    0.000 
#
# Total GULP energy -372062.658938 kJ/mol
# GULP energy per Si atom -12402.088631 kJ/mol
# Density = 2.368122 g / cm^3
# Si number density = 23.735240 Si / 1000 Ang^3
#
#
#
# Elastic Constant Matrix: (Units=GPa)
#
#
# Indices 1 2 3 4 5 6 
#
# 1 157.5636 9.7517 64.8728 0.0020 -5.8504 -0.0012
# 2 9.7517 55.3301 14.0956 0.0012 -1.1599 -0.0007
# 3 64.8728 14.0956 128.0084 0.0014 -8.0048 0.0006
# 4 0.0020 0.0012 0.0014 10.1725 -0.0019 -19.7351
# 5 -5.8504 -1.1599 -8.0048 -0.0019 43.8581 0.0003
# 6 -0.0012 -0.0007 0.0006 -19.7351 0.0003 26.8296
#
#
#
# Elastic Compliance Matrix: (Units=1/GPa)
#
#
# Indices 1 2 3 4 5 6 
#
# 1 0.008033 -0.000388 -0.004008 0.000000 0.000330 0.000001
# 2 -0.000388 0.018614 -0.001847 0.000002 0.000103 0.000002
# 3 -0.004008 -0.001847 0.010125 0.000002 0.001265 0.000001
# 4 0.000000 0.000002 0.000002 -0.230201 -0.000008 -0.169329
# 5 0.000330 0.000103 0.001265 -0.000008 0.023078 -0.000006
# 6 0.000001 0.000002 0.000001 -0.169329 -0.000006 -0.087281
#
#
# Mechanical properties :
#
#
# Convention : Reuss Voigt Hill
#
# Bulk Modulus (GPa) = 41.17210 57.59358 49.38284
# Shear Modulus (GPa) = -21.09250 32.98419 5.94585
#
# Velocity S-wave (km/s) = -2.98427 3.73187 1.58446
# Velocity P-wave (km/s) = 2.34725 6.54881 4.91917
#
# Compressibility (1/GPa) = 0.02428829
#
# Stress axis : x y z
#
# Youngs Moduli (GPa) = 124.48741 53.72212 98.76134
#
# Poissons Ratio (x) = 0.02084 0.39580
# Poissons Ratio (y) = 0.04829 0.18238
# Poissons Ratio (z) = 0.49890 0.09921
#
# Static dielectric constant tensor:
#      x y z
#    x 4.447110 0.000000 -0.083060 
#    y 0.000000 4.184230 0.000000 
#    z -0.083060 0.000000 4.421700 
# 
# 
# High freq. dielectric constant tensor:
#      x y z
#    x 1.955360 0.000000 -0.002100 
#    y 0.000000 1.934710 0.000000 
#    z -0.002100 0.000000 1.953820 
# 
# From -- ./inp_files/108416.got.cif
#   From: 2010.06.25/outbox.cif.g09.slc.cpg/sg15_55_cif.got.tgz:108416.got - 2010.06.28 07:06:18.
