data_PCOD8153130
_publ_section_title
;
Structure prediction by ZEFSAII (Michael W. Deem and Ramdas Pophale) SiO2 
 PCOD8153130
Probable space group: C 2/C
;
_chemical_formula_sum "Si O2"
_cell_formula_units_Z 56
_cell_length_a 9.460867
_cell_length_b 21.109102
_cell_length_c 12.953106
_cell_angle_alpha 90.000000
_cell_angle_beta 88.715981
_cell_angle_gamma 90.000000
_cell_volume 2586.220498
_symmetry_space_group_name_H-M "C 2/C"
_symmetry_group_IT_number 15
_symmetry_cell_setting 'monoclinic'
loop_
_space_group_symop_operation_xyz
x,y,z
-x,y,1/2-z
-x,-y,-z
x,-y,1/2+z
1/2+x,1/2+y,z
1/2-x,1/2+y,1/2-z
1/2-x,1/2-y,-z
1/2+x,1/2-y,1/2+z
loop_
_atom_site_type_symbol
_atom_site_label
_atom_site_fract_x
_atom_site_fract_y
_atom_site_fract_z
Si Si1 0.283788 0.867048 0.829896
Si Si2 0.544726 0.641603 0.499729
Si Si3 0.115464 0.964196 0.162930
Si Si4 0.015376 0.573601 0.023752
Si Si5 0.716175 0.403946 0.600929
Si Si6 0.126707 0.223970 0.672373
Si Si7 0.359299 0.877684 0.184557
O O1 0.401131 0.916170 0.870277
O O2 0.233825 0.888226 0.719607
O O3 0.351257 0.798116 0.821064
O O4 0.148845 0.870287 0.904347
O O5 0.554512 0.587522 0.585998
O O6 0.388565 0.644598 0.454275
O O7 0.580101 0.707735 0.555762
O O8 0.256106 0.936135 0.217183
O O9 0.000000 0.982432 0.250000
O O10 0.154354 0.025178 0.094421
O O11 0.860801 0.603239 0.036409
O O12 0.000000 0.500000 0.000000
O O13 0.099142 0.612621 0.935483
O O14 0.272729 0.187765 0.699259
O O15 0.000000 0.202271 0.750000
O O16 0.500000 0.877372 0.250000
#
# Coordination Sequence:
#
# PCOD8153130 Si02
#       7
#     8   8   8   8   8   8   8
#     4  12  25  49  67  98 139 185 225 285 355 397
#     4  11  23  44  69  98 132 177 231 280 337 407
#     4  11  23  43  67 100 139 181 220 286 343 407
#     4  12  25  44  67 103 141 178 225 279 350 417
#     4  12  26  40  69 102 137 180 226 280 339 424
#     4  11  25  49  71  97 135 179 235 290 343 406
#     4  11  25  42  70 103 132 180 226 290 337 403
#
# _framework density 21.653219
#
# number of rings (size 3 to 8) (size 9 to 14) (size 15 to 20)
#    0.000    0.571    4.286    5.143    6.000    1.143 
#    0.000    1.429    0.000    0.000    0.000    0.000 
#    0.000    0.000    0.000    0.000    0.000    0.000 
#
# Total GULP energy -347312.199280 kJ/mol
# GULP energy per Si atom -12404.007117 kJ/mol
# Density = 2.160394 g / cm^3
# Si number density = 21.653219 Si / 1000 Ang^3
#
#
#
# Elastic Constant Matrix: (Units=GPa)
#
#
# Indices 1 2 3 4 5 6 
#
# 1 163.2465 16.2671 45.2643 0.0000 7.4646 0.0000
# 2 16.2671 58.5857 15.9057 0.0000 3.9081 0.0000
# 3 45.2643 15.9057 72.8006 0.0000 12.0357 0.0000
# 4 0.0000 0.0000 0.0000 -8.9447 0.0000 32.3249
# 5 7.4646 3.9081 12.0357 0.0000 54.8589 0.0000
# 6 0.0000 0.0000 0.0000 32.3249 0.0000 -56.4742
#
#
#
# Elastic Compliance Matrix: (Units=1/GPa)
#
#
# Indices 1 2 3 4 5 6 
#
# 1 0.007442 -0.000862 -0.004443 0.000000 0.000023 0.000000
# 2 -0.000862 0.018255 -0.003380 0.000000 -0.000442 0.000000
# 3 -0.004443 -0.003380 0.017741 0.000000 -0.003047 0.000000
# 4 0.000000 0.000000 0.000000 0.104629 0.000000 0.059888
# 5 0.000023 -0.000442 -0.003047 0.000000 0.018925 0.000000
# 6 0.000000 0.000000 0.000000 0.059888 0.000000 0.016572
#
#
# Mechanical properties :
#
#
# Convention : Reuss Voigt Hill
#
# Bulk Modulus (GPa) = 38.35874 49.94522 44.15198
# Shear Modulus (GPa) = 23.85239 12.36773 18.11006
#
# Velocity S-wave (km/s) = 3.32258 2.39251 2.89514
# Velocity P-wave (km/s) = 5.69850 5.54511 5.62233
#
# Compressibility (1/GPa) = 0.02606968
#
# Stress axis : x y z
#
# Youngs Moduli (GPa) = 134.36446 54.77853 56.36751
#
# Poissons Ratio (x) = 0.04721 0.25044
# Poissons Ratio (y) = 0.11580 0.19050
# Poissons Ratio (z) = 0.59698 0.18513
#
# Static dielectric constant tensor:
#      x y z
#    x 4.246130 0.000000 -0.070540 
#    y 0.000000 3.910610 0.000000 
#    z -0.070540 0.000000 4.043830 
# 
# 
# High freq. dielectric constant tensor:
#      x y z
#    x 1.872710 0.000000 -0.009430 
#    y 0.000000 1.841490 0.000000 
#    z -0.009430 0.000000 1.854430 
# 
# From -- ./inp_files/136442.got.cif
#   From: 2010.06.25/outbox.cif.g09.slc.cpg/sg15_69_cif.got.tgz:136442.got - 2010.06.28 07:06:18.
