data_PCOD8153697
_publ_section_title
;
Structure prediction by ZEFSAII (Michael W. Deem and Ramdas Pophale) SiO2 
 PCOD8153697
Probable space group: C 2/C
;
_chemical_formula_sum "Si O2"
_cell_formula_units_Z 36
_cell_length_a 14.598215
_cell_length_b 8.807493
_cell_length_c 22.117425
_cell_angle_alpha 90.000000
_cell_angle_beta 144.010384
_cell_angle_gamma 90.000000
_cell_volume 1671.078902
_symmetry_space_group_name_H-M "C 2/C"
_symmetry_group_IT_number 15
_symmetry_cell_setting 'monoclinic'
loop_
_space_group_symop_operation_xyz
x,y,z
-x,y,1/2-z
-x,-y,-z
x,-y,1/2+z
1/2+x,1/2+y,z
1/2-x,1/2+y,1/2-z
1/2-x,1/2-y,-z
1/2+x,1/2-y,1/2+z
loop_
_atom_site_type_symbol
_atom_site_label
_atom_site_fract_x
_atom_site_fract_y
_atom_site_fract_z
Si Si1 0.220476 0.809277 0.549767
Si Si2 0.129097 0.250346 0.617533
Si Si3 0.632651 0.523692 0.205997
Si Si4 0.000000 0.139424 0.750000
Si Si5 0.660065 0.656811 0.502690
O O1 0.250000 0.750000 0.500000
O O2 0.350582 0.747866 0.664671
O O3 0.056850 0.739850 0.483764
O O4 0.228056 0.990056 0.550931
O O5 0.206768 0.400129 0.687248
O O6 0.186471 0.244156 0.579392
O O7 0.182186 0.106411 0.685559
O O8 0.527727 0.462166 0.205487
O O9 0.522415 0.644744 0.112558
O O10 0.750000 0.750000 0.500000
#
# Coordination Sequence:
#
# PCOD8153697 Si02
#       5
#     8   8   8   4   8
#     4  11  24  44  69 101 137 181 228 285 341 410
#     4  11  26  44  71  99 141 180 231 283 347 409
#     4  11  25  45  67 102 137 181 234 284 342 414
#     4  12  24  44  72  98 138 182 236 278 346 410
#     4  11  25  46  69 102 143 177 233 288 342 405
#
# _framework density 21.54297
#
# number of rings (size 3 to 8) (size 9 to 14) (size 15 to 20)
#    0.000    0.889    4.444    4.000    6.222    4.444 
#    0.000    0.000    0.000    0.000    0.000    0.000 
#    0.000    0.000    0.000    0.000    0.000    0.000 
#
# Total GULP energy -223238.026063 kJ/mol
# GULP energy per Si atom -12402.112559 kJ/mol
# Density = 2.149394 g / cm^3
# Si number density = 21.542970 Si / 1000 Ang^3
#
#
#
# Elastic Constant Matrix: (Units=GPa)
#
#
# Indices 1 2 3 4 5 6 
#
# 1 131.1577 45.2656 48.2040 0.0000 -16.5985 0.0000
# 2 45.2656 71.4800 67.0263 0.0000 20.5992 0.0000
# 3 48.2040 67.0263 144.6101 0.0000 8.0470 0.0000
# 4 0.0000 0.0000 0.0000 44.1887 0.0000 4.2060
# 5 -16.5985 20.5992 8.0470 0.0000 45.6132 0.0000
# 6 0.0000 0.0000 0.0000 4.2060 0.0000 34.3903
#
#
#
# Elastic Compliance Matrix: (Units=1/GPa)
#
#
# Indices 1 2 3 4 5 6 
#
# 1 0.012460 -0.011004 0.000422 0.000000 0.009429 0.000000
# 2 -0.011004 0.039032 -0.013351 0.000000 -0.019276 0.000000
# 3 0.000422 -0.013351 0.012743 0.000000 0.003935 0.000000
# 4 0.000000 0.000000 0.000000 0.022897 0.000000 -0.002800
# 5 0.009429 -0.019276 0.003935 0.000000 0.033366 0.000000
# 6 0.000000 0.000000 0.000000 -0.002800 0.000000 0.029420
#
#
# Mechanical properties :
#
#
# Convention : Reuss Voigt Hill
#
# Bulk Modulus (GPa) = 61.08303 74.24884 67.66593
# Shear Modulus (GPa) = 24.60152 37.28858 30.94505
#
# Velocity S-wave (km/s) = 3.38298 4.16491 3.79414
# Velocity P-wave (km/s) = 6.60870 7.59401 7.11842
#
# Compressibility (1/GPa) = 0.01637116
#
# Stress axis : x y z
#
# Youngs Moduli (GPa) = 80.25567 25.62018 78.47140
#
# Poissons Ratio (x) = 0.28191 -0.03311
# Poissons Ratio (y) = 0.88309 1.04764
# Poissons Ratio (z) = -0.03386 0.34204
#
# Static dielectric constant tensor:
#      x y z
#    x 3.692380 0.000000 -0.315230 
#    y 0.000000 3.573260 0.000000 
#    z -0.315230 0.000000 3.978560 
# 
# 
# High freq. dielectric constant tensor:
#      x y z
#    x 1.853270 0.000000 -0.012860 
#    y 0.000000 1.841160 0.000000 
#    z -0.012860 0.000000 1.863720 
# 
# From -- ./inp_files/150132.got.cif
#   From: 2010.06.25/outbox.cif.g09.slc.cpg/sg15_76_cif.got.tgz:150132.got - 2010.06.28 07:06:18.
