data_PCOD8153852
_publ_section_title
;
Structure prediction by ZEFSAII (Michael W. Deem and Ramdas Pophale) SiO2 
 PCOD8153852
Probable space group: C 2/C
;
_chemical_formula_sum "Si O2"
_cell_formula_units_Z 40
_cell_length_a 14.105165
_cell_length_b 14.475378
_cell_length_c 18.219831
_cell_angle_alpha 90.000000
_cell_angle_beta 149.081283
_cell_angle_gamma 90.000000
_cell_volume 1911.457859
_symmetry_space_group_name_H-M "C 2/C"
_symmetry_group_IT_number 15
_symmetry_cell_setting 'monoclinic'
loop_
_space_group_symop_operation_xyz
x,y,z
-x,y,1/2-z
-x,-y,-z
x,-y,1/2+z
1/2+x,1/2+y,z
1/2-x,1/2+y,1/2-z
1/2-x,1/2-y,-z
1/2+x,1/2-y,1/2+z
loop_
_atom_site_type_symbol
_atom_site_label
_atom_site_fract_x
_atom_site_fract_y
_atom_site_fract_z
Si Si1 0.890324 0.797837 0.867321
Si Si2 0.366523 0.613933 0.599698
Si Si3 0.805568 0.059669 0.970961
Si Si4 0.522129 0.855602 0.187880
Si Si5 0.524806 0.218215 0.419736
O O1 0.677967 0.826266 0.717027
O O2 0.008695 0.881219 0.913093
O O3 0.927812 0.703597 0.848391
O O4 0.941594 0.775677 0.984270
O O5 0.500000 0.569732 0.750000
O O6 0.354946 0.546110 0.521655
O O7 0.457270 0.710289 0.635361
O O8 0.166450 0.633805 0.502562
O O9 0.677262 0.094271 0.954744
O O10 0.685679 0.069243 0.815527
O O11 0.500000 0.795501 0.250000
#
# Coordination Sequence:
#
# PCOD8153852 Si02
#       5
#     8   8   8   8   8
#     4  12  20  43  67  99 128 176 222 273 320 396
#     4  11  24  46  62  95 133 180 221 269 337 399
#     4   9  22  39  67  92 133 171 216 272 330 383
#     4   8  20  39  62  97 134 170 215 260 338 397
#     4  11  25  41  69  92 135 176 221 270 335 396
#
# _framework density 20.926435999999999
#
# number of rings (size 3 to 8) (size 9 to 14) (size 15 to 20)
#    1.200    0.400    4.000    0.600    0.000    6.400 
#    3.600    2.000    0.000    0.000    0.000    0.000 
#    0.000    0.000    0.000    0.000    0.000    0.000 
#
# Total GULP energy -247807.565716 kJ/mol
# GULP energy per Si atom -12390.378286 kJ/mol
# Density = 2.087881 g / cm^3
# Si number density = 20.926436 Si / 1000 Ang^3
#
#
#
# Elastic Constant Matrix: (Units=GPa)
#
#
# Indices 1 2 3 4 5 6 
#
# 1 71.4026 33.3023 56.0419 0.0026 18.6015 0.0007
# 2 33.3023 80.0161 46.6590 0.0038 18.2297 0.0015
# 3 56.0419 46.6590 124.6334 0.0051 37.9666 0.0034
# 4 0.0026 0.0038 0.0051 24.2306 0.0035 -0.5282
# 5 18.6015 18.2297 37.9666 0.0035 48.9550 0.0016
# 6 0.0007 0.0015 0.0034 -0.5282 0.0016 19.5071
#
#
#
# Elastic Compliance Matrix: (Units=1/GPa)
#
#
# Indices 1 2 3 4 5 6 
#
# 1 0.022851 -0.004472 -0.008462 0.000000 -0.000454 0.000001
# 2 -0.004472 0.016974 -0.003844 -0.000001 -0.001640 0.000000
# 3 -0.008462 -0.003844 0.015518 -0.000001 -0.007388 -0.000002
# 4 0.000000 -0.000001 -0.000001 0.041295 -0.000002 0.001118
# 5 -0.000454 -0.001640 -0.007388 -0.000002 0.026940 -0.000001
# 6 0.000001 0.000000 -0.000002 0.001118 -0.000001 0.051294
#
#
# Mechanical properties :
#
#
# Convention : Reuss Voigt Hill
#
# Bulk Modulus (GPa) = 45.90034 60.89540 53.39787
# Shear Modulus (GPa) = 23.18122 27.87513 25.52817
#
# Velocity S-wave (km/s) = 3.33190 3.65369 3.49650
# Velocity P-wave (km/s) = 6.06496 6.85290 6.47093
#
# Compressibility (1/GPa) = 0.02178633
#
# Stress axis : x y z
#
# Youngs Moduli (GPa) = 43.76106 58.91355 64.43973
#
# Poissons Ratio (x) = 0.26349 0.54531
# Poissons Ratio (y) = 0.19572 0.24770
# Poissons Ratio (z) = 0.37032 0.22645
#
# Static dielectric constant tensor:
#      x y z
#    x 3.790170 0.000000 0.292930 
#    y 0.000000 3.295110 0.000000 
#    z 0.292930 0.000000 3.864000 
# 
# 
# High freq. dielectric constant tensor:
#      x y z
#    x 1.821280 0.000000 0.018630 
#    y 0.000000 1.783540 0.000000 
#    z 0.018630 0.000000 1.825620 
# 
# From -- ./inp_files/205835.got.cif
#   From: 2010.06.25/outbox.cif.g09.slc.cpg/sg15_103_cif.got.tgz:205835.got - 2010.06.28 07:06:18.
