data_PCOD8153594
_publ_section_title
;
Structure prediction by ZEFSAII (Michael W. Deem and Ramdas Pophale) SiO2 
 PCOD8153594
Probable space group: C 2/C
;
_chemical_formula_sum "Si O2"
_cell_formula_units_Z 48
_cell_length_a 14.351791
_cell_length_b 15.307113
_cell_length_c 10.495392
_cell_angle_alpha 90.000000
_cell_angle_beta 111.072119
_cell_angle_gamma 90.000000
_cell_volume 2151.491111
_symmetry_space_group_name_H-M "C 2/C"
_symmetry_group_IT_number 15
_symmetry_cell_setting 'monoclinic'
loop_
_space_group_symop_operation_xyz
x,y,z
-x,y,1/2-z
-x,-y,-z
x,-y,1/2+z
1/2+x,1/2+y,z
1/2-x,1/2+y,1/2-z
1/2-x,1/2-y,-z
1/2+x,1/2-y,1/2+z
loop_
_atom_site_type_symbol
_atom_site_label
_atom_site_fract_x
_atom_site_fract_y
_atom_site_fract_z
Si Si1 0.919390 0.098462 0.325118
Si Si2 0.955213 0.624785 0.411849
Si Si3 0.526001 0.680649 0.624967
Si Si4 0.577982 0.946945 0.189666
Si Si5 0.303545 0.426730 0.360254
Si Si6 0.745058 0.340295 0.923573
O O1 0.830236 0.162887 0.234259
O O2 0.000000 0.086560 0.250000
O O3 0.966195 0.139757 0.475883
O O4 0.869493 0.007351 0.343468
O O5 0.991676 0.715917 0.372401
O O6 0.927620 0.552238 0.292505
O O7 0.857644 0.635888 0.448925
O O8 0.047180 0.584387 0.535100
O O9 0.500000 0.638988 0.750000
O O10 0.642948 0.661767 0.661955
O O11 0.500000 0.902088 0.250000
O O12 0.691663 0.919164 0.256483
O O13 0.298791 0.420192 0.511518
O O14 0.750000 0.250000 0.000000
#
# Coordination Sequence:
#
# PCOD8153594 Si02
#       6
#     8   8   8   8   8   8
#     4  12  26  47  75 106 143 194 240 295 364 429
#     4  11  24  45  67 101 141 184 238 293 361 432
#     4  12  28  47  72 104 149 189 241 302 362 425
#     4  11  24  42  71  99 137 185 235 296 360 433
#     4  12  25  43  73 104 143 182 241 297 353 427
#     4  12  24  45  74 108 142 186 248 297 352 441
#
# _framework density 22.310108
#
# number of rings (size 3 to 8) (size 9 to 14) (size 15 to 20)
#    0.000    0.333    6.667    1.500    4.667    0.667 
#    0.000    1.667    0.000    0.000    0.000    0.000 
#    0.000    0.000    0.000    0.000    0.000    0.000 
#
# Total GULP energy -297397.606911 kJ/mol
# GULP energy per Si atom -12391.566955 kJ/mol
# Density = 2.225933 g / cm^3
# Si number density = 22.310108 Si / 1000 Ang^3
#
#
#
# Elastic Constant Matrix: (Units=GPa)
#
#
# Indices 1 2 3 4 5 6 
#
# 1 124.5076 27.4415 64.9354 0.0000 17.6756 0.0000
# 2 27.4415 88.6100 39.6924 0.0000 14.5998 0.0000
# 3 64.9354 39.6924 142.4490 0.0000 11.0156 0.0000
# 4 0.0000 0.0000 0.0000 28.7548 0.0000 -3.1836
# 5 17.6756 14.5998 11.0156 0.0000 46.8226 0.0000
# 6 0.0000 0.0000 0.0000 -3.1836 0.0000 28.2435
#
#
#
# Elastic Compliance Matrix: (Units=1/GPa)
#
#
# Indices 1 2 3 4 5 6 
#
# 1 0.011000 -0.000910 -0.004544 0.000000 -0.002800 0.000000
# 2 -0.000910 0.013470 -0.003097 0.000000 -0.003128 0.000000
# 3 -0.004544 -0.003097 0.009928 0.000000 0.000345 0.000000
# 4 0.000000 0.000000 0.000000 0.035216 0.000000 0.003970
# 5 -0.002800 -0.003128 0.000345 0.000000 0.023308 0.000000
# 6 0.000000 0.000000 0.000000 0.003970 0.000000 0.035854
#
#
# Mechanical properties :
#
#
# Convention : Reuss Voigt Hill
#
# Bulk Modulus (GPa) = 57.81716 68.85614 63.33665
# Shear Modulus (GPa) = 32.97254 35.66400 34.31827
#
# Velocity S-wave (km/s) = 3.84854 4.00253 3.92629
# Velocity P-wave (km/s) = 6.76165 7.23122 7.00037
#
# Compressibility (1/GPa) = 0.01729590
#
# Stress axis : x y z
#
# Youngs Moduli (GPa) = 90.91298 74.24106 100.72842
#
# Poissons Ratio (x) = 0.06753 0.45773
# Poissons Ratio (y) = 0.08270 0.31192
# Poissons Ratio (z) = 0.41313 0.22990
#
# Static dielectric constant tensor:
#      x y z
#    x 4.409490 0.000000 -0.085850 
#    y 0.000000 4.131830 0.000000 
#    z -0.085850 0.000000 4.187520 
# 
# 
# High freq. dielectric constant tensor:
#      x y z
#    x 1.895490 0.000000 0.002450 
#    y 0.000000 1.877230 0.000000 
#    z 0.002450 0.000000 1.881210 
# 
# From -- ./inp_files/96538.got.cif
#   From: 2010.06.25/outbox.cif.g09.slc.cpg/sg15_49_cif.got.tgz:96538.got - 2010.06.28 07:06:18.
