data_PCOD8153021
_publ_section_title
;
Structure prediction by ZEFSAII (Michael W. Deem and Ramdas Pophale) SiO2 
 PCOD8153021
Probable space group: C 2/C
;
_chemical_formula_sum "Si O2"
_cell_formula_units_Z 60
_cell_length_a 25.078851
_cell_length_b 8.823081
_cell_length_c 13.331160
_cell_angle_alpha 90.000000
_cell_angle_beta 100.604987
_cell_angle_gamma 90.000000
_cell_volume 2899.437290
_symmetry_space_group_name_H-M "C 2/C"
_symmetry_group_IT_number 15
_symmetry_cell_setting 'monoclinic'
loop_
_space_group_symop_operation_xyz
x,y,z
-x,y,1/2-z
-x,-y,-z
x,-y,1/2+z
1/2+x,1/2+y,z
1/2-x,1/2+y,1/2-z
1/2-x,1/2-y,-z
1/2+x,1/2-y,1/2+z
loop_
_atom_site_type_symbol
_atom_site_label
_atom_site_fract_x
_atom_site_fract_y
_atom_site_fract_z
Si Si1 0.000000 0.717477 0.750000
Si Si2 0.546378 0.088981 0.573442
Si Si3 0.106080 0.135622 0.026897
Si Si4 0.322752 0.414997 0.754006
Si Si5 0.353383 0.905657 0.958021
Si Si6 0.098188 0.147096 0.395199
Si Si7 0.214803 0.748527 0.235680
Si Si8 0.693901 0.178611 0.446336
O O1 0.029670 0.605842 0.682909
O O2 0.042882 0.828514 0.816383
O O3 0.554321 0.255066 0.526402
O O4 0.500000 0.000000 0.500000
O O5 0.603435 0.001556 0.590968
O O6 0.135171 0.108317 0.142330
O O7 0.145534 0.210833 0.959704
O O8 0.085660 0.976846 0.976039
O O9 0.353982 0.410296 0.659941
O O10 0.278525 0.281304 0.741643
O O11 0.291017 0.572456 0.752115
O O12 0.318730 0.801733 0.872586
O O13 0.385339 0.804482 0.048550
O O14 0.312694 0.015065 0.004403
O O15 0.193265 0.659274 0.326053
O O16 0.750000 0.250000 0.500000
#
# Coordination Sequence:
#
# PCOD8153021 Si02
#       8
#     4   8   8   8   8   8   8   8
#     4  12  26  46  76  98 136 178 232 292 360 402
#     4  11  25  48  72 103 133 177 228 294 348 414
#     4  11  24  45  68 100 142 177 231 287 344 413
#     4  12  26  42  69 103 143 185 230 284 341 416
#     4  11  27  42  72 101 138 182 232 286 345 423
#     4  12  26  48  69 103 136 184 236 290 351 416
#     4  12  26  42  68 104 140 185 232 279 345 411
#     4  11  23  42  66  98 140 184 225 275 340 409
#
# _framework density 20.693671999999999
#
# number of rings (size 3 to 8) (size 9 to 14) (size 15 to 20)
#    0.000    0.533    6.667    0.800    5.600    1.067 
#    2.400    0.000    0.000    0.000    0.000    0.000 
#    0.000    0.000    0.000    0.000    0.000    0.000 
#
# Total GULP energy -372223.067874 kJ/mol
# GULP energy per Si atom -12407.435596 kJ/mol
# Density = 2.064657 g / cm^3
# Si number density = 20.693672 Si / 1000 Ang^3
#
#
#
# Elastic Constant Matrix: (Units=GPa)
#
#
# Indices 1 2 3 4 5 6 
#
# 1 107.0193 57.6758 48.5176 0.0000 -3.1340 0.0000
# 2 57.6758 127.6280 39.5551 0.0000 4.3613 0.0000
# 3 48.5176 39.5551 99.8810 0.0000 4.5107 0.0000
# 4 0.0000 0.0000 0.0000 36.5152 0.0000 4.3596
# 5 -3.1340 4.3613 4.5107 0.0000 33.4356 0.0000
# 6 0.0000 0.0000 0.0000 4.3596 0.0000 37.0097
#
#
#
# Elastic Compliance Matrix: (Units=1/GPa)
#
#
# Indices 1 2 3 4 5 6 
#
# 1 0.014477 -0.005035 -0.005160 0.000000 0.002710 0.000000
# 2 -0.005035 0.010699 -0.001717 0.000000 -0.001636 0.000000
# 3 -0.005160 -0.001717 0.013291 0.000000 -0.002053 0.000000
# 4 0.000000 0.000000 0.000000 0.027777 0.000000 -0.003272
# 5 0.002710 -0.001636 -0.002053 0.000000 0.030653 0.000000
# 6 0.000000 0.000000 0.000000 -0.003272 0.000000 0.027405
#
#
# Mechanical properties :
#
#
# Convention : Reuss Voigt Hill
#
# Bulk Modulus (GPa) = 68.30102 69.55837 68.92970
# Shear Modulus (GPa) = 32.67818 33.97742 33.32780
#
# Velocity S-wave (km/s) = 3.97815 4.05646 4.01750
# Velocity P-wave (km/s) = 7.36059 7.45829 7.40960
#
# Compressibility (1/GPa) = 0.01464107
#
# Stress axis : x y z
#
# Youngs Moduli (GPa) = 69.07690 93.46790 75.23704
#
# Poissons Ratio (x) = 0.47064 0.38825
# Poissons Ratio (y) = 0.34783 0.12920
# Poissons Ratio (z) = 0.35646 0.16050
#
# Static dielectric constant tensor:
#      x y z
#    x 4.596270 0.000000 -0.656240 
#    y 0.000000 3.755910 0.000000 
#    z -0.656240 0.000000 4.129290 
# 
# 
# High freq. dielectric constant tensor:
#      x y z
#    x 1.817480 0.000000 -0.007580 
#    y 0.000000 1.817100 0.000000 
#    z -0.007580 0.000000 1.818850 
# 
# From -- ./inp_files/172450.got.cif
#   From: 2010.06.25/outbox.cif.g09.slc.cpg/sg15_87_cif.got.tgz:172450.got - 2010.06.28 07:06:18.
