data_PCOD8153413
_publ_section_title
;
Structure prediction by ZEFSAII (Michael W. Deem and Ramdas Pophale) SiO2 
 PCOD8153413
Probable space group: C 2/C
;
_chemical_formula_sum "Si O2"
_cell_formula_units_Z 60
_cell_length_a 24.518236
_cell_length_b 17.534719
_cell_length_c 12.086994
_cell_angle_alpha 90.000000
_cell_angle_beta 32.801151
_cell_angle_gamma 90.000000
_cell_volume 2815.044687
_symmetry_space_group_name_H-M "C 2/C"
_symmetry_group_IT_number 15
_symmetry_cell_setting 'monoclinic'
loop_
_space_group_symop_operation_xyz
x,y,z
-x,y,1/2-z
-x,-y,-z
x,-y,1/2+z
1/2+x,1/2+y,z
1/2-x,1/2+y,1/2-z
1/2-x,1/2-y,-z
1/2+x,1/2-y,1/2+z
loop_
_atom_site_type_symbol
_atom_site_label
_atom_site_fract_x
_atom_site_fract_y
_atom_site_fract_z
Si Si1 0.821751 0.100081 0.636711
Si Si2 0.522110 0.307108 0.083889
Si Si3 0.800541 0.169028 0.896715
Si Si4 0.691586 0.435061 0.763992
Si Si5 0.334067 0.908668 0.709061
Si Si6 0.500000 0.298311 0.750000
Si Si7 0.533115 0.812161 0.387441
Si Si8 0.806236 0.565894 0.849681
O O1 0.765126 0.136320 0.838935
O O2 0.745399 0.106872 0.665707
O O3 0.919960 0.148244 0.444714
O O4 0.853173 0.012568 0.607214
O O5 0.500000 0.290807 0.250000
O O6 0.421117 0.332596 0.193726
O O7 0.608089 0.369877 0.919737
O O8 0.554340 0.228382 0.969164
O O9 0.750000 0.250000 0.000000
O O10 0.764901 0.115087 0.055330
O O11 0.796656 0.414006 0.646302
O O12 0.719524 0.449604 0.588489
O O13 0.420850 0.846371 0.573424
O O14 0.364999 0.990431 0.707350
O O15 0.448932 0.246418 0.743095
O O16 0.611208 0.879779 0.237298
#
# Coordination Sequence:
#
# PCOD8153413 Si02
#       8
#     8   8   8   8   8   4   8   8
#     4  11  26  44  69 101 138 177 225 280 345 411
#     4  12  26  41  69 105 131 179 223 279 342 405
#     4  12  23  45  71  97 140 175 220 276 341 409
#     4  11  25  44  68 101 136 176 229 280 343 406
#     4  11  23  46  69  96 138 184 224 282 346 403
#     4  12  24  44  68 102 134 182 216 288 356 398
#     4  12  26  44  68  99 137 179 235 278 339 413
#     4  11  26  44  70  99 135 183 232 283 335 408
#
# _framework density 21.314049000000001
#
# number of rings (size 3 to 8) (size 9 to 14) (size 15 to 20)
#    0.000    0.533    5.333    2.000    2.800    3.733 
#    0.000    0.000    0.000    0.000    0.000    0.000 
#    0.000    0.000    0.000    0.000    0.000    0.000 
#
# Total GULP energy -372106.176352 kJ/mol
# GULP energy per Si atom -12403.539212 kJ/mol
# Density = 2.126554 g / cm^3
# Si number density = 21.314049 Si / 1000 Ang^3
#
#
#
# Elastic Constant Matrix: (Units=GPa)
#
#
# Indices 1 2 3 4 5 6 
#
# 1 107.4147 54.7341 35.4545 0.0000 16.5349 0.0000
# 2 54.7341 124.5794 32.7120 0.0000 -7.5276 0.0000
# 3 35.4545 32.7120 70.8072 0.0000 6.3785 0.0000
# 4 0.0000 0.0000 0.0000 28.9342 0.0000 -0.8607
# 5 16.5349 -7.5276 6.3785 0.0000 41.5992 0.0000
# 6 0.0000 0.0000 0.0000 -0.8607 0.0000 41.0796
#
#
#
# Elastic Compliance Matrix: (Units=1/GPa)
#
#
# Indices 1 2 3 4 5 6 
#
# 1 0.014494 -0.005668 -0.004084 0.000000 -0.006161 0.000000
# 2 -0.005668 0.011580 -0.002944 0.000000 0.004800 0.000000
# 3 -0.004084 -0.002944 0.017674 0.000000 -0.001619 0.000000
# 4 0.000000 0.000000 0.000000 0.034583 0.000000 0.000725
# 5 -0.006161 0.004800 -0.001619 0.000000 0.027604 0.000000
# 6 0.000000 0.000000 0.000000 0.000725 0.000000 0.024358
#
#
# Mechanical properties :
#
#
# Convention : Reuss Voigt Hill
#
# Bulk Modulus (GPa) = 54.47837 60.95584 57.71710
# Shear Modulus (GPa) = 30.90138 34.31600 32.60869
#
# Velocity S-wave (km/s) = 3.81177 4.01686 3.91566
# Velocity P-wave (km/s) = 6.70732 7.08340 6.89792
#
# Compressibility (1/GPa) = 0.01835591
#
# Stress axis : x y z
#
# Youngs Moduli (GPa) = 68.99306 86.35310 56.58047
#
# Poissons Ratio (x) = 0.48944 0.23108
# Poissons Ratio (y) = 0.39105 0.16659
# Poissons Ratio (z) = 0.28177 0.25425
#
# Static dielectric constant tensor:
#      x y z
#    x 3.979290 0.000000 0.290750 
#    y 0.000000 4.071770 0.000000 
#    z 0.290750 0.000000 3.845640 
# 
# 
# High freq. dielectric constant tensor:
#      x y z
#    x 1.842850 0.000000 0.017520 
#    y 0.000000 1.850110 0.000000 
#    z 0.017520 0.000000 1.836370 
# 
# From -- ./inp_files/123991.got.cif
#   From: 2010.06.25/outbox.cif.g09.slc.cpg/sg15_62_cif.got.tgz:123991.got - 2010.06.28 07:06:18.
