data_PCOD8153006
_publ_section_title
;
Structure prediction by ZEFSAII (Michael W. Deem and Ramdas Pophale) SiO2 
 PCOD8153006
Probable space group: C 2/C
;
_chemical_formula_sum "Si O2"
_cell_formula_units_Z 56
_cell_length_a 20.070621
_cell_length_b 21.566240
_cell_length_c 12.207141
_cell_angle_alpha 90.000000
_cell_angle_beta 27.870891
_cell_angle_gamma 90.000000
_cell_volume 2470.090954
_symmetry_space_group_name_H-M "C 2/C"
_symmetry_group_IT_number 15
_symmetry_cell_setting 'monoclinic'
loop_
_space_group_symop_operation_xyz
x,y,z
-x,y,1/2-z
-x,-y,-z
x,-y,1/2+z
1/2+x,1/2+y,z
1/2-x,1/2+y,1/2-z
1/2-x,1/2-y,-z
1/2+x,1/2-y,1/2+z
loop_
_atom_site_type_symbol
_atom_site_label
_atom_site_fract_x
_atom_site_fract_y
_atom_site_fract_z
Si Si1 0.371568 0.925969 0.625450
Si Si2 0.391724 0.495768 0.006909
Si Si3 0.965711 0.097134 0.567224
Si Si4 0.000000 0.710068 0.250000
Si Si5 0.173537 0.399223 0.573799
Si Si6 0.000000 0.495162 0.250000
Si Si7 0.113437 0.702141 0.490894
Si Si8 0.924047 0.769166 0.583504
O O1 0.417335 0.904809 0.681163
O O2 0.315618 0.863224 0.648810
O O3 0.495677 0.953418 0.366921
O O4 0.261934 0.981828 0.810379
O O5 0.500000 0.496870 0.750000
O O6 0.422891 0.546354 0.055401
O O7 0.394012 0.427206 0.057667
O O8 0.047050 0.160271 0.425093
O O9 0.844062 0.104459 0.838170
O O10 0.865247 0.664770 0.430447
O O11 0.978838 0.755331 0.382495
O O12 0.138163 0.460156 0.552320
O O13 0.250486 0.742587 0.334455
O O14 0.018071 0.728953 0.530394
O O15 0.000000 0.691558 0.750000
#
# Coordination Sequence:
#
# PCOD8153006 Si02
#       8
#     8   8   8   4   8   4   8   8
#     4  12  22  43  69  98 135 188 232 293 360 428
#     4  11  23  42  67 101 135 177 228 293 360 425
#     4  11  24  40  68 101 135 178 232 289 359 426
#     4  11  26  42  70 106 144 179 246 302 358 427
#     4  11  23  42  65 103 139 181 234 295 360 429
#     4  11  24  42  64  96 140 183 236 288 358 433
#     4  12  27  49  73 102 144 194 243 296 358 432
#     4  12  27  47  73 106 143 190 242 301 361 427
#
# _framework density 22.671230999999999
#
# number of rings (size 3 to 8) (size 9 to 14) (size 15 to 20)
#    0.000    0.571    6.429    1.714    3.000    1.714 
#    0.000    1.429    0.000    0.000    0.000    0.000 
#    0.000    0.000    0.000    0.000    0.000    0.000 
#
# Total GULP energy -346963.717255 kJ/mol
# GULP energy per Si atom -12391.561331 kJ/mol
# Density = 2.261963 g / cm^3
# Si number density = 22.671231 Si / 1000 Ang^3
#
#
#
# Elastic Constant Matrix: (Units=GPa)
#
#
# Indices 1 2 3 4 5 6 
#
# 1 100.0194 38.8450 36.2554 0.0018 1.4811 -0.0020
# 2 38.8450 108.0370 24.2078 -0.0071 5.0628 -0.0002
# 3 36.2554 24.2078 87.1351 -0.0101 1.7039 0.0006
# 4 0.0018 -0.0071 -0.0101 18.4173 -0.0014 2.3870
# 5 1.4811 5.0628 1.7039 -0.0014 42.1278 0.0023
# 6 -0.0020 -0.0002 0.0006 2.3870 0.0023 37.4563
#
#
#
# Elastic Compliance Matrix: (Units=1/GPa)
#
#
# Indices 1 2 3 4 5 6 
#
# 1 0.013028 -0.003708 -0.004394 -0.000005 0.000165 0.000001
# 2 -0.003708 0.010975 -0.001484 0.000004 -0.001129 0.000000
# 3 -0.004394 -0.001484 0.013721 0.000007 -0.000222 -0.000001
# 4 -0.000005 0.000004 0.000007 0.054749 0.000001 -0.003489
# 5 0.000165 -0.001129 -0.000222 0.000001 0.023876 -0.000002
# 6 0.000001 0.000000 -0.000001 -0.003489 -0.000002 0.026920
#
#
# Mechanical properties :
#
#
# Convention : Reuss Voigt Hill
#
# Bulk Modulus (GPa) = 53.90068 54.86756 54.38412
# Shear Modulus (GPa) = 29.65155 32.65919 31.15537
#
# Velocity S-wave (km/s) = 3.62040 3.79958 3.71108
# Velocity P-wave (km/s) = 6.42674 6.59569 6.51176
#
# Compressibility (1/GPa) = 0.01855264
#
# Stress axis : x y z
#
# Youngs Moduli (GPa) = 76.75601 91.11951 72.87877
#
# Poissons Ratio (x) = 0.33783 0.32023
# Poissons Ratio (y) = 0.28458 0.10817
# Poissons Ratio (z) = 0.33727 0.13524
#
# Static dielectric constant tensor:
#      x y z
#    x 4.141870 -0.000010 0.005200 
#    y -0.000010 4.150050 0.000010 
#    z 0.005200 0.000010 3.850770 
# 
# 
# High freq. dielectric constant tensor:
#      x y z
#    x 1.891750 0.000000 0.005050 
#    y 0.000000 1.896770 0.000000 
#    z 0.005050 0.000000 1.888870 
# 
# From -- ./inp_files/114727.got.cif
#   From: 2010.06.25/outbox.cif.g09.slc.cpg/sg15_58_cif.got.tgz:114727.got - 2010.06.28 07:06:18.
