data_PCOD8153933
_publ_section_title
;
Structure prediction by ZEFSAII (Michael W. Deem and Ramdas Pophale) SiO2 
 PCOD8153933
Probable space group: C 2/C
;
_chemical_formula_sum "Si O2"
_cell_formula_units_Z 60
_cell_length_a 11.470097
_cell_length_b 18.477115
_cell_length_c 26.053553
_cell_angle_alpha 90.000000
_cell_angle_beta 149.337319
_cell_angle_gamma 90.000000
_cell_volume 2815.941965
_symmetry_space_group_name_H-M "C 2/C"
_symmetry_group_IT_number 15
_symmetry_cell_setting 'monoclinic'
loop_
_space_group_symop_operation_xyz
x,y,z
-x,y,1/2-z
-x,-y,-z
x,-y,1/2+z
1/2+x,1/2+y,z
1/2-x,1/2+y,1/2-z
1/2-x,1/2-y,-z
1/2+x,1/2-y,1/2+z
loop_
_atom_site_type_symbol
_atom_site_label
_atom_site_fract_x
_atom_site_fract_y
_atom_site_fract_z
Si Si1 0.560815 0.386421 0.554546
Si Si2 0.453366 0.732603 0.540141
Si Si3 0.000000 0.522257 0.250000
Si Si4 0.423755 0.883526 0.966883
Si Si5 0.392698 0.690402 0.082799
Si Si6 0.457684 0.065565 0.637635
Si Si7 0.235579 0.480786 0.145165
Si Si8 0.113006 0.293532 0.239208
O O1 0.580355 0.333927 0.512249
O O2 0.787172 0.434430 0.644720
O O3 0.575200 0.339362 0.611590
O O4 0.322763 0.433308 0.464713
O O5 0.250000 0.750000 0.500000
O O6 0.529837 0.804462 0.538993
O O7 0.622335 0.708981 0.649296
O O8 0.923611 0.472478 0.268406
O O9 0.277810 0.873220 0.963784
O O10 0.279978 0.934222 0.874228
O O11 0.652736 0.927284 0.068285
O O12 0.523791 0.717624 0.183104
O O13 0.250000 0.750000 0.000000
O O14 0.569208 0.027444 0.630933
O O15 0.545518 0.147995 0.670719
O O16 0.500000 0.459594 0.250000
O O17 0.000000 0.313205 0.250000
#
# Coordination Sequence:
#
# PCOD8153933 Si02
#       8
#     8   8   4   8   8   8   8   8
#     4  12  26  49  70 104 141 185 243 287 359 417
#     4  12  28  45  70 105 145 178 234 309 345 413
#     4  12  30  42  72 104 138 188 238 290 342 414
#     4  11  24  47  66 102 135 182 226 286 355 415
#     4  12  21  44  76 100 134 179 234 289 343 433
#     4  12  24  49  71  96 142 189 234 288 349 431
#     4  11  28  43  70 101 140 182 230 286 356 424
#     4  12  22  43  74 102 127 187 241 276 356 421
#
# _framework density 21.307257
#
# number of rings (size 3 to 8) (size 9 to 14) (size 15 to 20)
#    0.000    0.267    7.333    0.400    9.333    0.000 
#    1.200    0.000    0.000    0.000    0.000    0.000 
#    0.000    0.000    0.000    0.000    0.000    0.000 
#
# Total GULP energy -371800.906943 kJ/mol
# GULP energy per Si atom -12393.363565 kJ/mol
# Density = 2.125876 g / cm^3
# Si number density = 21.307257 Si / 1000 Ang^3
#
#
#
# Elastic Constant Matrix: (Units=GPa)
#
#
# Indices 1 2 3 4 5 6 
#
# 1 120.8170 27.7541 35.0008 -0.0003 7.4436 -0.0001
# 2 27.7541 79.6382 42.1455 -0.0004 -4.2995 -0.0002
# 3 35.0008 42.1455 138.8342 -0.0008 11.5575 -0.0004
# 4 -0.0003 -0.0004 -0.0008 30.0258 -0.0002 -18.7297
# 5 7.4436 -4.2995 11.5575 -0.0002 34.0736 0.0000
# 6 -0.0001 -0.0002 -0.0004 -18.7297 0.0000 39.9525
#
#
#
# Elastic Compliance Matrix: (Units=1/GPa)
#
#
# Indices 1 2 3 4 5 6 
#
# 1 0.009409 -0.002634 -0.001414 0.000000 -0.001908 0.000000
# 2 -0.002634 0.016121 -0.004576 0.000000 0.004162 0.000000
# 3 -0.001414 -0.004576 0.009231 0.000000 -0.003400 0.000000
# 4 0.000000 0.000000 0.000000 0.047069 0.000000 0.022066
# 5 -0.001908 0.004162 -0.003400 0.000000 0.031443 0.000000
# 6 0.000000 0.000000 0.000000 0.022066 0.000000 0.035374
#
#
# Mechanical properties :
#
#
# Convention : Reuss Voigt Hill
#
# Bulk Modulus (GPa) = 57.09721 61.01001 59.05361
# Shear Modulus (GPa) = 29.11468 36.43631 32.77549
#
# Velocity S-wave (km/s) = 3.70052 4.13975 3.92628
# Velocity P-wave (km/s) = 6.71668 7.17953 6.95196
#
# Compressibility (1/GPa) = 0.01751399
#
# Stress axis : x y z
#
# Youngs Moduli (GPa) = 106.27921 62.02987 108.32521
#
# Poissons Ratio (x) = 0.16339 0.15313
# Poissons Ratio (y) = 0.27994 0.49573
# Poissons Ratio (z) = 0.15024 0.28387
#
# Static dielectric constant tensor:
#      x y z
#    x 4.587760 -0.000020 -0.240140 
#    y -0.000020 4.338860 0.000000 
#    z -0.240140 0.000000 3.811040 
# 
# 
# High freq. dielectric constant tensor:
#      x y z
#    x 1.838630 0.000000 -0.013220 
#    y 0.000000 1.843570 0.000000 
#    z -0.013220 0.000000 1.844680 
# 
# From -- ./inp_files/293565.got.cif
#   From: 2010.06.25/outbox.cif.g09.slc.cpg/sg15_147_cif.got.tgz:293565.got - 2010.06.28 07:06:18.
