data_PCOD8153573
_publ_section_title
;
Structure prediction by ZEFSAII (Michael W. Deem and Ramdas Pophale) SiO2 
 PCOD8153573
Probable space group: C 2/C
;
_chemical_formula_sum "Si O2"
_cell_formula_units_Z 40
_cell_length_a 20.338655
_cell_length_b 6.733412
_cell_length_c 21.930064
_cell_angle_alpha 90.000000
_cell_angle_beta 37.118039
_cell_angle_gamma 90.000000
_cell_volume 1812.362785
_symmetry_space_group_name_H-M "C 2/C"
_symmetry_group_IT_number 15
_symmetry_cell_setting 'monoclinic'
loop_
_space_group_symop_operation_xyz
x,y,z
-x,y,1/2-z
-x,-y,-z
x,-y,1/2+z
1/2+x,1/2+y,z
1/2-x,1/2+y,1/2-z
1/2-x,1/2-y,-z
1/2+x,1/2-y,1/2+z
loop_
_atom_site_type_symbol
_atom_site_label
_atom_site_fract_x
_atom_site_fract_y
_atom_site_fract_z
Si Si1 0.375985 0.800755 0.120996
Si Si2 0.992470 0.627003 0.411645
Si Si3 0.373755 0.283673 0.832690
Si Si4 0.703554 0.033198 0.029545
Si Si5 0.356685 0.528111 0.726789
O O1 0.376496 0.580426 0.148193
O O2 0.255504 0.855565 0.189941
O O3 0.419991 0.956390 0.138580
O O4 0.450064 0.788321 0.006721
O O5 0.897555 0.526442 0.442254
O O6 0.047982 0.809064 0.333431
O O7 0.500000 0.316975 0.750000
O O8 0.347933 0.355740 0.783986
O O9 0.338394 0.054416 0.873843
O O10 0.306706 0.409727 0.930967
O O11 0.750000 0.250000 0.000000
#
# Coordination Sequence:
#
# PCOD8153573 Si02
#       5
#     8   8   8   8   8
#     4  11  24  42  67 103 139 185 235 286 347 420
#     4  11  24  45  68 101 141 184 238 288 353 421
#     4  11  25  45  68 101 136 180 234 288 349 412
#     4  11  25  45  70 100 136 181 233 289 348 415
#     4  12  23  43  71 100 142 184 231 291 351 416
#
# _framework density 22.070636
#
# number of rings (size 3 to 8) (size 9 to 14) (size 15 to 20)
#    0.000    0.800    4.000    3.000    0.000    7.200 
#    0.000    0.000    0.000    0.000    0.000    0.000 
#    0.000    0.000    0.000    0.000    0.000    0.000 
#
# Total GULP energy -247996.038716 kJ/mol
# GULP energy per Si atom -12399.801936 kJ/mol
# Density = 2.202040 g / cm^3
# Si number density = 22.070636 Si / 1000 Ang^3
#
#
#
# Elastic Constant Matrix: (Units=GPa)
#
#
# Indices 1 2 3 4 5 6 
#
# 1 55.6014 38.9315 43.5807 0.0036 -13.4922 -0.0065
# 2 38.9315 106.0059 52.7219 -0.0228 -6.6448 0.0165
# 3 43.5807 52.7219 108.4965 0.0002 -17.7789 -0.0005
# 4 0.0036 -0.0228 0.0002 58.2471 -0.0071 -0.9003
# 5 -13.4922 -6.6448 -17.7789 -0.0071 38.5826 0.0065
# 6 -0.0065 0.0165 -0.0005 -0.9003 0.0065 36.0205
#
#
#
# Elastic Compliance Matrix: (Units=1/GPa)
#
#
# Indices 1 2 3 4 5 6 
#
# 1 0.030414 -0.006861 -0.007932 -0.000004 0.005799 0.000007
# 2 -0.006861 0.014005 -0.004378 0.000006 -0.002005 -0.000007
# 3 -0.007932 -0.004378 0.015092 -0.000001 0.003427 0.000000
# 4 -0.000004 0.000006 -0.000001 0.017175 0.000002 0.000429
# 5 0.005799 -0.002005 0.003427 0.000002 0.029180 -0.000003
# 6 0.000007 -0.000007 0.000000 0.000429 -0.000003 0.027773
#
#
# Mechanical properties :
#
#
# Convention : Reuss Voigt Hill
#
# Bulk Modulus (GPa) = 47.24132 60.06356 53.65244
# Shear Modulus (GPa) = 27.92720 35.56134 31.74427
#
# Velocity S-wave (km/s) = 3.56104 4.01839 3.79661
# Velocity P-wave (km/s) = 6.19347 6.98594 6.60161
#
# Compressibility (1/GPa) = 0.02116791
#
# Stress axis : x y z
#
# Youngs Moduli (GPa) = 32.87993 71.40328 66.26015
#
# Poissons Ratio (x) = 0.48990 0.52560
# Poissons Ratio (y) = 0.22559 0.29009
# Poissons Ratio (z) = 0.26081 0.31260
#
# Static dielectric constant tensor:
#      x y z
#    x 4.107600 -0.000390 -0.059860 
#    y -0.000390 4.663140 0.000140 
#    z -0.059860 0.000140 4.407150 
# 
# 
# High freq. dielectric constant tensor:
#      x y z
#    x 1.860840 0.000000 -0.009730 
#    y 0.000000 1.875280 0.000000 
#    z -0.009730 0.000000 1.888960 
# 
# From -- ./inp_files/278787.got.cif
#   From: 2010.06.25/outbox.cif.g09.slc.cpg/sg15_140_cif.got.tgz:278787.got - 2010.06.28 07:06:18.
