data_PCOD8153551
_publ_section_title
;
Structure prediction by ZEFSAII (Michael W. Deem and Ramdas Pophale) SiO2 
 PCOD8153551
Probable space group: C 2/C
;
_chemical_formula_sum "Si O2"
_cell_formula_units_Z 48
_cell_length_a 21.046169
_cell_length_b 18.708607
_cell_length_c 15.666327
_cell_angle_alpha 90.000000
_cell_angle_beta 158.399154
_cell_angle_gamma 90.000000
_cell_volume 2270.872093
_symmetry_space_group_name_H-M "C 2/C"
_symmetry_group_IT_number 15
_symmetry_cell_setting 'monoclinic'
loop_
_space_group_symop_operation_xyz
x,y,z
-x,y,1/2-z
-x,-y,-z
x,-y,1/2+z
1/2+x,1/2+y,z
1/2-x,1/2+y,1/2-z
1/2-x,1/2-y,-z
1/2+x,1/2-y,1/2+z
loop_
_atom_site_type_symbol
_atom_site_label
_atom_site_fract_x
_atom_site_fract_y
_atom_site_fract_z
Si Si1 0.089044 0.117176 0.450259
Si Si2 0.404268 0.389302 0.892240
Si Si3 0.697341 0.020237 0.254216
Si Si4 0.746871 0.150956 0.603055
Si Si5 0.909589 0.642627 0.265963
Si Si6 0.682677 0.767476 0.175794
O O1 0.208189 0.184819 0.621689
O O2 0.000000 0.135254 0.250000
O O3 0.945973 0.102501 0.344420
O O4 0.203769 0.046711 0.582981
O O5 0.280650 0.453895 0.768368
O O6 0.306907 0.314165 0.783501
O O7 0.577896 0.394171 0.166947
O O8 0.710191 0.085989 0.335788
O O9 0.500000 0.000000 0.000000
O O10 0.583777 0.106847 0.440674
O O11 0.711480 0.173205 0.461218
O O12 0.763290 0.223486 0.680905
O O13 0.982262 0.704590 0.420397
#
# Coordination Sequence:
#
# PCOD8153551 Si02
#       6
#     8   8   8   8   8   8
#     4  11  26  46  65  97 131 175 235 280 325 404
#     4  11  24  41  71  93 131 181 220 281 341 390
#     4  12  24  43  66  95 136 178 223 272 345 397
#     4   8  19  39  59  99 131 164 212 269 329 401
#     4   9  19  38  63  96 134 167 207 274 328 405
#     4   9  20  41  67  92 133 168 221 277 333 389
#
# _framework density 21.137253999999999
#
# number of rings (size 3 to 8) (size 9 to 14) (size 15 to 20)
#    1.000    1.000    1.667    0.500    7.000    1.333 
#    6.000    0.000    0.000    0.000    0.000    0.000 
#    0.000    0.000    0.000    0.000    0.000    0.000 
#
# Total GULP energy -297333.564319 kJ/mol
# GULP energy per Si atom -12388.898513 kJ/mol
# Density = 2.108914 g / cm^3
# Si number density = 21.137254 Si / 1000 Ang^3
#
#
#
# Elastic Constant Matrix: (Units=GPa)
#
#
# Indices 1 2 3 4 5 6 
#
# 1 94.5137 15.4123 66.5919 0.0000 -11.5827 0.0000
# 2 15.4123 68.6889 32.3184 0.0000 -4.1321 0.0000
# 3 66.5919 32.3184 111.0516 0.0000 -17.0228 0.0000
# 4 0.0000 0.0000 0.0000 17.4075 0.0000 22.5149
# 5 -11.5827 -4.1321 -17.0228 0.0000 41.5989 0.0000
# 6 0.0000 0.0000 0.0000 22.5149 0.0000 26.6811
#
#
#
# Elastic Compliance Matrix: (Units=1/GPa)
#
#
# Indices 1 2 3 4 5 6 
#
# 1 0.018426 0.001224 -0.011310 0.000000 0.000624 0.000000
# 2 0.001224 0.016954 -0.005716 0.000000 -0.000314 0.000000
# 3 -0.011310 -0.005716 0.018010 0.000001 0.003653 -0.000001
# 4 0.000000 0.000000 0.000001 -0.628251 0.000001 0.530150
# 5 0.000624 -0.000314 0.003653 0.000001 0.025677 -0.000001
# 6 0.000000 0.000000 -0.000001 0.530150 -0.000001 -0.409887
#
#
# Mechanical properties :
#
#
# Convention : Reuss Voigt Hill
#
# Bulk Modulus (GPa) = 45.89898 55.87770 50.88834
# Shear Modulus (GPa) = -5.43357 27.79959 11.18301
#
# Velocity S-wave (km/s) = -1.60505 3.63049 2.30264
# Velocity P-wave (km/s) = 4.28100 6.63830 5.58543
#
# Compressibility (1/GPa) = 0.02178698
#
# Stress axis : x y z
#
# Youngs Moduli (GPa) = 54.27178 58.98175 55.52391
#
# Poissons Ratio (x) = -0.07222 0.62796
# Poissons Ratio (y) = -0.06645 0.31740
# Poissons Ratio (z) = 0.61380 0.33717
#
# Static dielectric constant tensor:
#      x y z
#    x 3.905680 0.000000 0.224230 
#    y 0.000000 3.592990 0.000000 
#    z 0.224230 0.000000 3.818660 
# 
# 
# High freq. dielectric constant tensor:
#      x y z
#    x 1.825630 0.000000 0.016550 
#    y 0.000000 1.812250 0.000000 
#    z 0.016550 0.000000 1.823630 
# 
# From -- ./inp_files/219989.got.cif
#   From: 2010.06.25/outbox.cif.g09.slc.cpg/sg15_110_cif.got.tgz:219989.got - 2010.06.28 07:06:18.
