data_PCOD8153067
_publ_section_title
;
Structure prediction by ZEFSAII (Michael W. Deem and Ramdas Pophale) SiO2 
 PCOD8153067
Probable space group: C 2/C
;
_chemical_formula_sum "Si O2"
_cell_formula_units_Z 40
_cell_length_a 17.201719
_cell_length_b 24.785638
_cell_length_c 10.067589
_cell_angle_alpha 90.000000
_cell_angle_beta 29.211343
_cell_angle_gamma 90.000000
_cell_volume 2094.817250
_symmetry_space_group_name_H-M "C 2/C"
_symmetry_group_IT_number 15
_symmetry_cell_setting 'monoclinic'
loop_
_space_group_symop_operation_xyz
x,y,z
-x,y,1/2-z
-x,-y,-z
x,-y,1/2+z
1/2+x,1/2+y,z
1/2-x,1/2+y,1/2-z
1/2-x,1/2-y,-z
1/2+x,1/2-y,1/2+z
loop_
_atom_site_type_symbol
_atom_site_label
_atom_site_fract_x
_atom_site_fract_y
_atom_site_fract_z
Si Si1 0.613457 0.294925 0.208653
Si Si2 0.890340 0.791884 0.788882
Si Si3 0.679759 0.888829 0.491476
Si Si4 0.677849 0.405151 0.510222
Si Si5 0.106279 0.503782 0.711581
O O1 0.500000 0.297487 0.250000
O O2 0.495471 0.281929 0.503571
O O3 0.750000 0.250000 0.000000
O O4 0.704218 0.351354 0.095592
O O5 0.818163 0.852073 0.903210
O O6 0.000000 0.780467 0.750000
O O7 0.750000 0.750000 0.000000
O O8 0.500000 0.865258 0.750000
O O9 0.681548 0.946231 0.562341
O O10 0.737540 0.893331 0.254785
O O11 0.500000 0.424502 0.750000
O O12 0.755261 0.453383 0.475928
O O13 0.000000 0.525682 0.750000
O O14 0.000000 0.500000 0.000000
#
# Coordination Sequence:
#
# PCOD8153067 Si02
#       5
#     8   8   8   8   8
#     4  12  26  43  69 102 130 172 227 271 329 394
#     4  11  24  44  66  94 133 171 215 268 334 388
#     4  11  23  45  69  94 138 176 215 275 332 393
#     4  11  23  45  68  96 137 172 218 281 329 389
#     4  11  23  42  69  99 131 177 226 266 333 397
#
# _framework density 19.094743999999999
#
# number of rings (size 3 to 8) (size 9 to 14) (size 15 to 20)
#    0.000    0.800    8.000    1.800    2.800    4.000 
#    0.000    0.000    0.000    0.000    0.000    0.000 
#    0.000    0.000    0.000    0.000    0.000    0.000 
#
# Total GULP energy -248018.050309 kJ/mol
# GULP energy per Si atom -12400.902515 kJ/mol
# Density = 1.905128 g / cm^3
# Si number density = 19.094744 Si / 1000 Ang^3
#
#
#
# Elastic Constant Matrix: (Units=GPa)
#
#
# Indices 1 2 3 4 5 6 
#
# 1 149.3799 71.2281 62.9115 -0.0003 -9.7932 -0.0019
# 2 71.2281 136.1421 58.5003 -0.0003 -20.8761 0.0003
# 3 62.9115 58.5003 167.8502 -0.0010 3.0733 -0.0011
# 4 -0.0003 -0.0003 -0.0010 40.1124 0.0004 -12.8975
# 5 -9.7932 -20.8761 3.0733 0.0004 43.1398 0.0013
# 6 -0.0019 0.0003 -0.0011 -12.8975 0.0013 55.9335
#
#
#
# Elastic Compliance Matrix: (Units=1/GPa)
#
#
# Indices 1 2 3 4 5 6 
#
# 1 0.009548 -0.003992 -0.002194 0.000000 0.000392 0.000000
# 2 -0.003992 0.011232 -0.002505 0.000000 0.004707 0.000000
# 3 -0.002194 -0.002505 0.007694 0.000000 -0.002258 0.000000
# 4 0.000000 0.000000 0.000000 0.026926 0.000000 0.006209
# 5 0.000392 0.004707 -0.002258 0.000000 0.025708 -0.000001
# 6 0.000000 0.000000 0.000000 0.006209 -0.000001 0.019310
#
#
# Mechanical properties :
#
#
# Convention : Reuss Voigt Hill
#
# Bulk Modulus (GPa) = 90.15584 93.18356 91.66970
# Shear Modulus (GPa) = 41.15277 45.21931 43.18604
#
# Velocity S-wave (km/s) = 4.64744 4.87165 4.76086
# Velocity P-wave (km/s) = 8.72443 8.97499 8.85060
#
# Compressibility (1/GPa) = 0.01109191
#
# Stress axis : x y z
#
# Youngs Moduli (GPa) = 104.73597 89.03094 129.96499
#
# Poissons Ratio (x) = 0.35544 0.28519
# Poissons Ratio (y) = 0.41814 0.32550
# Poissons Ratio (z) = 0.22983 0.22298
#
# Static dielectric constant tensor:
#      x y z
#    x 3.690550 0.000010 0.021010 
#    y 0.000010 3.251130 0.000000 
#    z 0.021010 0.000000 3.797770 
# 
# 
# High freq. dielectric constant tensor:
#      x y z
#    x 1.749020 0.000000 -0.001680 
#    y 0.000000 1.749690 0.000000 
#    z -0.001680 0.000000 1.766450 
# 
# From -- ./inp_files/51655.got.cif
#   From: 2010.06.25/outbox.cif.g09.slc.cpg/sg15_26_cif.got.tgz:51655.got - 2010.06.28 07:06:18.
