data_PCOD8153725
_publ_section_title
;
Structure prediction by ZEFSAII (Michael W. Deem and Ramdas Pophale) SiO2 
 PCOD8153725
Probable space group: C 2/C
;
_chemical_formula_sum "Si O2"
_cell_formula_units_Z 40
_cell_length_a 17.034233
_cell_length_b 8.800239
_cell_length_c 14.494395
_cell_angle_alpha 90.000000
_cell_angle_beta 120.926288
_cell_angle_gamma 90.000000
_cell_volume 1863.880078
_symmetry_space_group_name_H-M "C 2/C"
_symmetry_group_IT_number 15
_symmetry_cell_setting 'monoclinic'
loop_
_space_group_symop_operation_xyz
x,y,z
-x,y,1/2-z
-x,-y,-z
x,-y,1/2+z
1/2+x,1/2+y,z
1/2-x,1/2+y,1/2-z
1/2-x,1/2-y,-z
1/2+x,1/2-y,1/2+z
loop_
_atom_site_type_symbol
_atom_site_label
_atom_site_fract_x
_atom_site_fract_y
_atom_site_fract_z
Si Si1 0.624821 0.177312 0.675403
Si Si2 0.028494 0.826854 0.012206
Si Si3 0.735302 0.668191 0.587559
Si Si4 0.937765 0.642137 0.298851
Si Si5 0.754887 0.307217 0.604658
O O1 0.526400 0.259498 0.608700
O O2 0.686610 0.236803 0.797701
O O3 0.676238 0.219557 0.612210
O O4 0.603698 0.999778 0.670387
O O5 0.134992 0.792430 0.062925
O O6 0.003609 0.745014 0.094627
O O7 0.000000 0.000000 0.000000
O O8 0.750000 0.750000 0.500000
O O9 0.743182 0.487733 0.592008
O O10 0.852168 0.737957 0.208052
O O11 0.000000 0.589092 0.250000
O O12 0.750000 0.250000 0.500000
#
# Coordination Sequence:
#
# PCOD8153725 Si02
#       5
#     8   8   8   8   8
#     4  11  25  47  71  99 141 185 231 290 354 418
#     4  12  25  46  70 102 141 183 237 294 355 413
#     4  11  27  44  69 104 141 186 235 288 353 419
#     4  11  26  45  70 104 141 187 240 289 353 427
#     4  11  24  44  71 101 139 185 234 287 354 421
#
# _framework density 21.460608000000001
#
# number of rings (size 3 to 8) (size 9 to 14) (size 15 to 20)
#    0.000    0.800    4.000    1.800    8.400    1.600 
#    0.000    0.000    0.000    0.000    0.000    0.000 
#    0.000    0.000    0.000    0.000    0.000    0.000 
#
# Total GULP energy -247982.393154 kJ/mol
# GULP energy per Si atom -12399.119658 kJ/mol
# Density = 2.141176 g / cm^3
# Si number density = 21.460608 Si / 1000 Ang^3
#
#
#
# Elastic Constant Matrix: (Units=GPa)
#
#
# Indices 1 2 3 4 5 6 
#
# 1 92.1816 46.9345 63.2922 0.0000 -1.4874 0.0000
# 2 46.9345 103.5120 74.9536 0.0000 -8.9602 0.0000
# 3 63.2922 74.9536 198.6332 0.0000 12.2259 0.0000
# 4 0.0000 0.0000 0.0000 42.6721 0.0000 -3.2090
# 5 -1.4874 -8.9602 12.2259 0.0000 51.5177 0.0000
# 6 0.0000 0.0000 0.0000 -3.2090 0.0000 36.7979
#
#
#
# Elastic Compliance Matrix: (Units=1/GPa)
#
#
# Indices 1 2 3 4 5 6 
#
# 1 0.015404 -0.004650 -0.003178 0.000000 0.000390 0.000000
# 2 -0.004650 0.015370 -0.004541 0.000000 0.003617 0.000000
# 3 -0.003178 -0.004541 0.007931 0.000000 -0.002764 0.000000
# 4 0.000000 0.000000 0.000000 0.023589 0.000000 0.002057
# 5 0.000390 0.003617 -0.002764 0.000000 0.020707 0.000000
# 6 0.000000 0.000000 0.000000 0.002057 0.000000 0.027355
#
#
# Mechanical properties :
#
#
# Convention : Reuss Voigt Hill
#
# Bulk Modulus (GPa) = 71.59288 84.96529 78.27908
# Shear Modulus (GPa) = 35.77879 40.14063 37.95971
#
# Velocity S-wave (km/s) = 4.08755 4.32954 4.21028
# Velocity P-wave (km/s) = 7.46391 8.04180 7.75824
#
# Compressibility (1/GPa) = 0.01396787
#
# Stress axis : x y z
#
# Youngs Moduli (GPa) = 64.91988 65.06141 126.09462
#
# Poissons Ratio (x) = 0.30251 0.40069
# Poissons Ratio (y) = 0.30185 0.57259
# Poissons Ratio (z) = 0.20630 0.29544
#
# Static dielectric constant tensor:
#      x y z
#    x 3.907670 0.000000 0.266730 
#    y 0.000000 2.409310 0.000000 
#    z 0.266730 0.000000 4.456450 
# 
# 
# High freq. dielectric constant tensor:
#      x y z
#    x 1.846390 0.000000 0.015380 
#    y 0.000000 1.835240 0.000000 
#    z 0.015380 0.000000 1.868340 
# 
# From -- ./inp_files/159495.got.cif
#   From: 2010.06.25/outbox.cif.g09.slc.cpg/sg15_80_cif.got.tgz:159495.got - 2010.06.28 07:06:18.
