data_PCOD8153584
_publ_section_title
;
Structure prediction by ZEFSAII (Michael W. Deem and Ramdas Pophale) SiO2 
 PCOD8153584
Probable space group: C 2/C
;
_chemical_formula_sum "Si O2"
_cell_formula_units_Z 52
_cell_length_a 9.000968
_cell_length_b 16.337158
_cell_length_c 18.658614
_cell_angle_alpha 90.000000
_cell_angle_beta 58.651212
_cell_angle_gamma 90.000000
_cell_volume 2343.209869
_symmetry_space_group_name_H-M "C 2/C"
_symmetry_group_IT_number 15
_symmetry_cell_setting 'monoclinic'
loop_
_space_group_symop_operation_xyz
x,y,z
-x,y,1/2-z
-x,-y,-z
x,-y,1/2+z
1/2+x,1/2+y,z
1/2-x,1/2+y,1/2-z
1/2-x,1/2-y,-z
1/2+x,1/2-y,1/2+z
loop_
_atom_site_type_symbol
_atom_site_label
_atom_site_fract_x
_atom_site_fract_y
_atom_site_fract_z
Si Si1 0.000000 0.753737 0.750000
Si Si2 0.901537 0.580781 0.501466
Si Si3 0.134506 0.569894 0.158132
Si Si4 0.286201 0.159249 0.012482
Si Si5 0.019736 0.072761 0.666253
Si Si6 0.053157 0.109970 0.335054
Si Si7 0.225855 0.610344 0.636356
O O1 0.120586 0.816251 0.766648
O O2 0.885521 0.693098 0.827197
O O3 0.904719 0.590267 0.414635
O O4 0.712393 0.579455 0.585161
O O5 0.000000 0.500000 0.500000
O O6 0.016642 0.653758 0.506815
O O7 0.325431 0.608676 0.124983
O O8 0.127562 0.473527 0.179189
O O9 0.000000 0.609288 0.250000
O O10 0.240879 0.100894 0.956612
O O11 0.250000 0.250000 0.000000
O O12 0.149615 0.130177 0.105292
O O13 0.000000 0.114652 0.750000
O O14 0.899372 0.120539 0.639821
O O15 0.945282 0.981190 0.697662
#
# Coordination Sequence:
#
# PCOD8153584 Si02
#       7
#     4   8   8   8   8   8   8
#     4  12  24  42  70 104 132 180 230 276 348 426
#     4  12  25  43  71 106 135 176 243 278 332 418
#     4  11  25  43  72 103 137 179 231 289 335 396
#     4  12  25  43  69  95 140 180 217 284 351 403
#     4  11  25  43  72 103 137 179 231 289 335 396
#     4  11  24  42  69  98 138 176 231 275 346 406
#     4  11  24  42  69  98 138 176 231 275 346 406
#
# _framework density 22.191780000000001
#
# number of rings (size 3 to 8) (size 9 to 14) (size 15 to 20)
#    0.000    0.615    6.154    0.923    8.615    2.462 
#    0.000    6.923    0.000    0.000    0.000    0.000 
#    0.000    0.000    0.000    0.000    0.000    0.000 
#
# Total GULP energy -322132.818126 kJ/mol
# GULP energy per Si atom -12389.723774 kJ/mol
# Density = 2.214127 g / cm^3
# Si number density = 22.191780 Si / 1000 Ang^3
#
#
#
# Elastic Constant Matrix: (Units=GPa)
#
#
# Indices 1 2 3 4 5 6 
#
# 1 164.8366 36.9158 65.2580 0.0000 27.4426 0.0000
# 2 36.9158 91.6192 6.3402 0.0000 5.8035 0.0000
# 3 65.2580 6.3402 138.8155 0.0000 16.7500 0.0000
# 4 0.0000 0.0000 0.0000 15.5399 0.0000 3.0232
# 5 27.4426 5.8035 16.7500 0.0000 43.1470 0.0000
# 6 0.0000 0.0000 0.0000 3.0232 0.0000 30.7809
#
#
#
# Elastic Compliance Matrix: (Units=1/GPa)
#
#
# Indices 1 2 3 4 5 6 
#
# 1 0.008781 -0.003053 -0.003530 0.000000 -0.003804 0.000000
# 2 -0.003053 0.012085 0.000887 0.000000 -0.000028 0.000000
# 3 -0.003530 0.000887 0.008987 0.000000 -0.001363 0.000000
# 4 0.000000 0.000000 0.000000 0.065604 0.000000 -0.006443
# 5 -0.003804 -0.000028 -0.001363 0.000000 0.026129 0.000000
# 6 0.000000 0.000000 0.000000 -0.006443 0.000000 0.033121
#
#
# Mechanical properties :
#
#
# Convention : Reuss Voigt Hill
#
# Bulk Modulus (GPa) = 54.16641 68.03325 61.09983
# Shear Modulus (GPa) = 29.02720 37.01073 33.01896
#
# Velocity S-wave (km/s) = 3.62057 4.08826 3.86150
# Velocity P-wave (km/s) = 6.47606 7.28071 6.89014
#
# Compressibility (1/GPa) = 0.01846162
#
# Stress axis : x y z
#
# Youngs Moduli (GPa) = 113.88284 82.74555 111.27103
#
# Poissons Ratio (x) = 0.25261 0.39273
# Poissons Ratio (y) = 0.34767 -0.09865
# Poissons Ratio (z) = 0.40195 -0.07336
#
# Static dielectric constant tensor:
#      x y z
#    x -0.077040 0.000000 -0.301120 
#    y 0.000000 2.379800 0.000000 
#    z -0.301120 0.000000 5.024290 
# 
# 
# High freq. dielectric constant tensor:
#      x y z
#    x 1.879100 0.000000 0.011820 
#    y 0.000000 1.858740 0.000000 
#    z 0.011820 0.000000 1.882210 
# 
# From -- ./inp_files/190857.got.cif
#   From: 2010.06.25/outbox.cif.g09.slc.cpg/sg15_96_cif.got.tgz:190857.got - 2010.06.28 07:06:18.
