data_PCOD8153868
_publ_section_title
;
Structure prediction by ZEFSAII (Michael W. Deem and Ramdas Pophale) SiO2 
 PCOD8153868
Probable space group: C 2/C
;
_chemical_formula_sum "Si O2"
_cell_formula_units_Z 40
_cell_length_a 10.098373
_cell_length_b 9.476921
_cell_length_c 29.945488
_cell_angle_alpha 90.000000
_cell_angle_beta 139.837109
_cell_angle_gamma 90.000000
_cell_volume 1848.352379
_symmetry_space_group_name_H-M "C 2/C"
_symmetry_group_IT_number 15
_symmetry_cell_setting 'monoclinic'
loop_
_space_group_symop_operation_xyz
x,y,z
-x,y,1/2-z
-x,-y,-z
x,-y,1/2+z
1/2+x,1/2+y,z
1/2-x,1/2+y,1/2-z
1/2-x,1/2-y,-z
1/2+x,1/2-y,1/2+z
loop_
_atom_site_type_symbol
_atom_site_label
_atom_site_fract_x
_atom_site_fract_y
_atom_site_fract_z
Si Si1 0.238124 0.604959 0.969211
Si Si2 0.528870 0.394927 0.707581
Si Si3 0.560901 0.369603 0.071858
Si Si4 0.567229 0.067542 0.063013
Si Si5 0.806873 0.597886 0.723438
O O1 0.271038 0.617137 0.924767
O O2 0.013856 0.534625 0.918334
O O3 0.250000 0.750000 0.000000
O O4 0.409456 0.501283 0.034045
O O5 0.500000 0.451781 0.750000
O O6 0.311740 0.408942 0.626531
O O7 0.697657 0.491298 0.728067
O O8 0.611504 0.234661 0.728567
O O9 0.450984 0.218757 0.035702
O O10 0.661571 0.351824 0.146101
O O11 0.500000 0.000000 0.000000
O O12 0.000000 0.518795 0.750000
#
# Coordination Sequence:
#
# PCOD8153868 Si02
#       5
#     8   8   8   8   8
#     4  11  25  43  70 107 140 181 238 292 361 433
#     4  11  26  48  70 104 140 189 243 293 356 432
#     4  11  24  46  69 102 144 187 230 296 362 425
#     4  12  23  45  73 101 145 184 235 296 357 422
#     4  11  25  48  71  99 144 187 239 297 355 427
#
# _framework density 21.640896000000001
#
# number of rings (size 3 to 8) (size 9 to 14) (size 15 to 20)
#    0.000    0.800    6.000    1.800    2.800    0.800 
#    3.600    0.000    0.000    0.000    0.000    0.000 
#    0.000    0.000    0.000    0.000    0.000    0.000 
#
# Total GULP energy -247912.487540 kJ/mol
# GULP energy per Si atom -12395.624377 kJ/mol
# Density = 2.159164 g / cm^3
# Si number density = 21.640896 Si / 1000 Ang^3
#
#
#
# Elastic Constant Matrix: (Units=GPa)
#
#
# Indices 1 2 3 4 5 6 
#
# 1 146.5425 86.9477 27.8282 0.0000 6.8567 0.0000
# 2 86.9477 163.0293 47.8933 0.0000 11.7937 0.0000
# 3 27.8282 47.8933 102.9967 0.0000 8.5581 0.0000
# 4 0.0000 0.0000 0.0000 30.9752 0.0000 5.8418
# 5 6.8567 11.7937 8.5581 0.0000 30.3526 0.0000
# 6 0.0000 0.0000 0.0000 5.8418 0.0000 49.3500
#
#
#
# Elastic Compliance Matrix: (Units=1/GPa)
#
#
# Indices 1 2 3 4 5 6 
#
# 1 0.009989 -0.005244 -0.000248 0.000000 -0.000149 0.000000
# 2 -0.005244 0.009963 -0.003064 0.000000 -0.001822 0.000000
# 3 -0.000248 -0.003064 0.011364 0.000000 -0.001957 0.000000
# 4 0.000000 0.000000 0.000000 0.033021 0.000000 -0.003909
# 5 -0.000149 -0.001822 -0.001957 0.000000 0.034240 0.000000
# 6 0.000000 0.000000 0.000000 -0.003909 0.000000 0.020726
#
#
# Mechanical properties :
#
#
# Convention : Reuss Voigt Hill
#
# Bulk Modulus (GPa) = 70.40870 81.98967 76.19918
# Shear Modulus (GPa) = 35.42332 38.79551 37.10942
#
# Velocity S-wave (km/s) = 4.05021 4.23862 4.14548
# Velocity P-wave (km/s) = 7.38092 7.86913 7.62893
#
# Compressibility (1/GPa) = 0.01420279
#
# Stress axis : x y z
#
# Youngs Moduli (GPa) = 100.10581 100.37503 87.99983
#
# Poissons Ratio (x) = 0.52636 0.02184
# Poissons Ratio (y) = 0.52495 0.26966
# Poissons Ratio (z) = 0.02485 0.30758
#
# Static dielectric constant tensor:
#      x y z
#    x 4.682370 0.000000 0.082310 
#    y 0.000000 4.229240 0.000000 
#    z 0.082310 0.000000 3.791050 
# 
# 
# High freq. dielectric constant tensor:
#      x y z
#    x 1.864790 0.000000 -0.005990 
#    y 0.000000 1.859820 0.000000 
#    z -0.005990 0.000000 1.845850 
# 
# From -- ./inp_files/310138.got.cif
#   From: 2010.06.25/outbox.cif.g09.slc.cpg/sg15_156_cif.got.tgz:310138.got - 2010.06.28 07:06:18.
