data_PCOD8153540
_publ_section_title
;
Structure prediction by ZEFSAII (Michael W. Deem and Ramdas Pophale) SiO2 
 PCOD8153540
Probable space group: C 2/C
;
_chemical_formula_sum "Si O2"
_cell_formula_units_Z 44
_cell_length_a 27.944990
_cell_length_b 12.925312
_cell_length_c 16.520458
_cell_angle_alpha 90.000000
_cell_angle_beta 158.838388
_cell_angle_gamma 90.000000
_cell_volume 2154.140768
_symmetry_space_group_name_H-M "C 2/C"
_symmetry_group_IT_number 15
_symmetry_cell_setting 'monoclinic'
loop_
_space_group_symop_operation_xyz
x,y,z
-x,y,1/2-z
-x,-y,-z
x,-y,1/2+z
1/2+x,1/2+y,z
1/2-x,1/2+y,1/2-z
1/2-x,1/2-y,-z
1/2+x,1/2-y,1/2+z
loop_
_atom_site_type_symbol
_atom_site_label
_atom_site_fract_x
_atom_site_fract_y
_atom_site_fract_z
Si Si1 0.344362 0.485852 0.264109
Si Si2 0.500000 0.743211 0.750000
Si Si3 0.699834 0.355993 0.458658
Si Si4 0.862288 0.637728 0.490445
Si Si5 0.629072 0.984189 0.652101
Si Si6 0.267627 0.158997 0.783416
O O1 0.500000 0.500000 0.500000
O O2 0.294169 0.442559 0.099780
O O3 0.332238 0.406648 0.319095
O O4 0.254793 0.588449 0.138328
O O5 0.444643 0.668305 0.733093
O O6 0.393004 0.816805 0.538561
O O7 0.750000 0.250000 0.500000
O O8 0.782805 0.397801 0.665325
O O9 0.906199 0.555317 0.492689
O O10 0.805145 0.738909 0.359174
O O11 0.000000 0.667301 0.750000
O O12 0.500000 0.000000 0.500000
O O13 0.697146 0.095728 0.743228
#
# Coordination Sequence:
#
# PCOD8153540 Si02
#       6
#     8   4   8   8   8   8
#     4  11  25  43  68 100 137 176 228 277 339 398
#     4  12  22  42  70  94 134 170 234 272 334 388
#     4  12  23  42  69  99 128 176 226 277 326 398
#     4  11  24  45  66  97 137 181 219 278 344 398
#     4  11  24  41  66  99 129 173 229 271 338 391
#     4  11  25  43  67  99 134 178 220 284 331 406
#
# _framework density 20.425777
#
# number of rings (size 3 to 8) (size 9 to 14) (size 15 to 20)
#    0.000    0.727    3.636    3.273    7.636    2.909 
#    0.000    2.727    0.000    0.000    0.000    0.000 
#    0.000    0.000    0.000    0.000    0.000    0.000 
#
# Total GULP energy -272762.160929 kJ/mol
# GULP energy per Si atom -12398.280042 kJ/mol
# Density = 2.037929 g / cm^3
# Si number density = 20.425777 Si / 1000 Ang^3
#
#
#
# Elastic Constant Matrix: (Units=GPa)
#
#
# Indices 1 2 3 4 5 6 
#
# 1 130.2473 37.8474 41.0969 0.0000 25.8906 0.0000
# 2 37.8474 99.9573 46.7294 0.0000 7.6984 0.0000
# 3 41.0969 46.7294 129.4078 0.0000 11.3197 0.0000
# 4 0.0000 0.0000 0.0000 30.6788 0.0000 -4.3512
# 5 25.8906 7.6984 11.3197 0.0000 44.1903 0.0000
# 6 0.0000 0.0000 0.0000 -4.3512 0.0000 49.3099
#
#
#
# Elastic Compliance Matrix: (Units=1/GPa)
#
#
# Indices 1 2 3 4 5 6 
#
# 1 0.009971 -0.002547 -0.001815 0.000000 -0.004933 0.000000
# 2 -0.002547 0.012730 -0.003810 0.000000 0.000250 0.000000
# 3 -0.001815 -0.003810 0.009747 0.000000 -0.000769 0.000000
# 4 0.000000 0.000000 0.000000 0.033009 0.000000 0.002913
# 5 -0.004933 0.000250 -0.000769 0.000000 0.025673 0.000000
# 6 0.000000 0.000000 0.000000 0.002913 0.000000 0.020537
#
#
# Mechanical properties :
#
#
# Convention : Reuss Voigt Hill
#
# Bulk Modulus (GPa) = 62.09550 67.88442 64.98996
# Shear Modulus (GPa) = 37.48665 40.43171 38.95918
#
# Velocity S-wave (km/s) = 4.28864 4.45392 4.37206
# Velocity P-wave (km/s) = 7.41551 7.73025 7.57452
#
# Compressibility (1/GPa) = 0.01610423
#
# Stress axis : x y z
#
# Youngs Moduli (GPa) = 100.28854 78.55153 102.59366
#
# Poissons Ratio (x) = 0.20006 0.18625
# Poissons Ratio (y) = 0.25541 0.39089
# Poissons Ratio (z) = 0.18207 0.29929
#
# Static dielectric constant tensor:
#      x y z
#    x 3.954030 0.000000 0.332490 
#    y 0.000000 2.535020 0.000000 
#    z 0.332490 0.000000 3.395140 
# 
# 
# High freq. dielectric constant tensor:
#      x y z
#    x 1.820570 0.000000 0.006740 
#    y 0.000000 1.806920 0.000000 
#    z 0.006740 0.000000 1.794000 
# 
# From -- ./inp_files/142221.got.cif
#   From: 2010.06.25/outbox.cif.g09.slc.cpg/sg15_72_cif.got.tgz:142221.got - 2010.06.28 07:06:18.
