data_PCOD8153415
_publ_section_title
;
Structure prediction by ZEFSAII (Michael W. Deem and Ramdas Pophale) SiO2 
 PCOD8153415
Probable space group: C 2/C
;
_chemical_formula_sum "Si O2"
_cell_formula_units_Z 48
_cell_length_a 10.827964
_cell_length_b 8.646238
_cell_length_c 26.306027
_cell_angle_alpha 90.000000
_cell_angle_beta 119.719464
_cell_angle_gamma 90.000000
_cell_volume 2138.851571
_symmetry_space_group_name_H-M "C 2/C"
_symmetry_group_IT_number 15
_symmetry_cell_setting 'monoclinic'
loop_
_space_group_symop_operation_xyz
x,y,z
-x,y,1/2-z
-x,-y,-z
x,-y,1/2+z
1/2+x,1/2+y,z
1/2-x,1/2+y,1/2-z
1/2-x,1/2-y,-z
1/2+x,1/2-y,1/2+z
loop_
_atom_site_type_symbol
_atom_site_label
_atom_site_fract_x
_atom_site_fract_y
_atom_site_fract_z
Si Si1 0.923400 0.068895 0.620976
Si Si2 0.103177 0.083555 0.559130
Si Si3 0.631884 0.068160 0.057572
Si Si4 0.136964 0.510276 0.676751
Si Si5 0.333494 0.634114 0.291342
Si Si6 0.846707 0.607136 0.150775
O O1 0.026381 0.120002 0.596896
O O2 0.871043 0.210947 0.645132
O O3 0.010216 0.943441 0.672457
O O4 0.781303 0.996963 0.567658
O O5 0.145158 0.251313 0.547688
O O6 0.239774 0.971464 0.588642
O O7 0.000000 0.000000 0.500000
O O8 0.613890 0.023019 0.112856
O O9 0.500000 0.000000 0.000000
O O10 0.269370 0.404419 0.722730
O O11 0.997863 0.472080 0.680086
O O12 0.164698 0.686623 0.695675
O O13 0.220773 0.566738 0.308648
#
# Coordination Sequence:
#
# PCOD8153415 Si02
#       6
#     8   8   8   8   8   8
#     4  11  24  47  73 100 142 183 231 292 346 416
#     4  11  26  43  72 101 138 188 235 281 346 417
#     4  12  27  45  72 104 142 189 233 284 357 416
#     4  12  25  46  73 102 143 183 234 295 348 420
#     4  11  26  45  71 104 138 183 235 288 361 416
#     4  11  23  46  70 103 137 179 234 290 356 415
#
# _framework density 22.441951
#
# number of rings (size 3 to 8) (size 9 to 14) (size 15 to 20)
#    0.000    0.667    3.333    3.500    7.000    2.667 
#    3.000    0.000    0.000    0.000    0.000    0.000 
#    0.000    0.000    0.000    0.000    0.000    0.000 
#
# Total GULP energy -297587.933884 kJ/mol
# GULP energy per Si atom -12399.497245 kJ/mol
# Density = 2.239087 g / cm^3
# Si number density = 22.441951 Si / 1000 Ang^3
#
#
#
# Elastic Constant Matrix: (Units=GPa)
#
#
# Indices 1 2 3 4 5 6 
#
# 1 84.0752 30.3276 19.5521 0.0000 30.1815 0.0000
# 2 30.3276 109.9307 52.9536 0.0000 1.0485 0.0000
# 3 19.5521 52.9536 143.9071 0.0000 30.3424 0.0000
# 4 0.0000 0.0000 0.0000 40.0801 0.0000 10.5726
# 5 30.1815 1.0485 30.3424 0.0000 34.1853 0.0000
# 6 0.0000 0.0000 0.0000 10.5726 0.0000 40.7681
#
#
#
# Elastic Compliance Matrix: (Units=1/GPa)
#
#
# Indices 1 2 3 4 5 6 
#
# 1 0.022363 -0.008408 0.005123 0.000000 -0.024033 0.000000
# 2 -0.008408 0.014687 -0.007052 0.000000 0.013232 0.000000
# 3 0.005123 -0.007052 0.012002 0.000000 -0.014959 0.000000
# 4 0.000000 0.000000 0.000000 0.026782 0.000000 -0.006946
# 5 -0.024033 0.013232 -0.014959 0.000000 0.063342 0.000000
# 6 0.000000 0.000000 0.000000 -0.006946 0.000000 0.026330
#
#
# Mechanical properties :
#
#
# Convention : Reuss Voigt Hill
#
# Bulk Modulus (GPa) = 35.23881 60.39774 47.81827
# Shear Modulus (GPa) = 25.55711 38.67867 32.11789
#
# Velocity S-wave (km/s) = 3.37829 4.15601 3.78716
# Velocity P-wave (km/s) = 5.56358 7.07115 6.36218
#
# Compressibility (1/GPa) = 0.02837780
#
# Stress axis : x y z
#
# Youngs Moduli (GPa) = 44.71645 68.08782 83.31999
#
# Poissons Ratio (x) = 0.57248 -0.42683
# Poissons Ratio (y) = 0.37597 0.58757
# Poissons Ratio (z) = -0.22907 0.48015
#
# Static dielectric constant tensor:
#      x y z
#    x 4.265580 0.000000 0.148340 
#    y 0.000000 3.926910 0.000000 
#    z 0.148340 0.000000 4.092770 
# 
# 
# High freq. dielectric constant tensor:
#      x y z
#    x 1.895180 0.000000 0.014860 
#    y 0.000000 1.897450 0.000000 
#    z 0.014860 0.000000 1.886890 
# 
# From -- ./inp_files/291298.got.cif
#   From: 2010.06.25/outbox.cif.g09.slc.cpg/sg15_146_cif.got.tgz:291298.got - 2010.06.28 07:06:18.
