data_PCOD8153412
_publ_section_title
;
Structure prediction by ZEFSAII (Michael W. Deem and Ramdas Pophale) SiO2 
 PCOD8153412
Probable space group: C 2/C
;
_chemical_formula_sum "Si O2"
_cell_formula_units_Z 40
_cell_length_a 11.061568
_cell_length_b 8.462751
_cell_length_c 18.691996
_cell_angle_alpha 90.000000
_cell_angle_beta 76.197694
_cell_angle_gamma 90.000000
_cell_volume 1699.256448
_symmetry_space_group_name_H-M "C 2/C"
_symmetry_group_IT_number 15
_symmetry_cell_setting 'monoclinic'
loop_
_space_group_symop_operation_xyz
x,y,z
-x,y,1/2-z
-x,-y,-z
x,-y,1/2+z
1/2+x,1/2+y,z
1/2-x,1/2+y,1/2-z
1/2-x,1/2-y,-z
1/2+x,1/2-y,1/2+z
loop_
_atom_site_type_symbol
_atom_site_label
_atom_site_fract_x
_atom_site_fract_y
_atom_site_fract_z
Si Si1 0.753185 0.672147 0.383006
Si Si2 0.875407 0.476850 0.739267
Si Si3 0.371405 0.032665 0.978707
Si Si4 0.288802 0.533995 0.365975
Si Si5 0.505716 0.256711 0.858341
O O1 0.782337 0.537651 0.319152
O O2 0.811559 0.623487 0.450788
O O3 0.602181 0.680316 0.405016
O O4 0.804232 0.845602 0.356195
O O5 0.808176 0.400100 0.680148
O O6 0.917988 0.656346 0.712304
O O7 0.000000 0.385497 0.750000
O O8 0.398448 0.154970 0.911974
O O9 0.268876 0.089965 0.050157
O O10 0.500000 0.000000 0.000000
O O11 0.427063 0.602260 0.333570
#
# Coordination Sequence:
#
# PCOD8153412 Si02
#       5
#     8   8   8   8   8
#     4  11  25  45  71 101 139 183 232 285 342 411
#     4  11  23  46  69  95 143 186 222 291 346 395
#     4  12  22  48  75 101 147 181 221 290 353 404
#     4  11  26  44  74 107 134 187 233 280 348 415
#     4  11  26  47  70 101 144 179 233 287 341 420
#
# _framework density 23.539707
#
# number of rings (size 3 to 8) (size 9 to 14) (size 15 to 20)
#    0.000    0.800    6.000    1.200    5.600    0.800 
#   14.400    0.000    0.000    0.000    0.000    0.000 
#    0.000    0.000    0.000    0.000    0.000    0.000 
#
# Total GULP energy -247780.133872 kJ/mol
# GULP energy per Si atom -12389.006694 kJ/mol
# Density = 2.348613 g / cm^3
# Si number density = 23.539707 Si / 1000 Ang^3
#
#
#
# Elastic Constant Matrix: (Units=GPa)
#
#
# Indices 1 2 3 4 5 6 
#
# 1 155.7358 82.6675 16.9255 0.0000 26.9131 0.0000
# 2 82.6675 76.1099 40.9997 0.0000 6.0114 0.0000
# 3 16.9255 40.9997 61.2434 0.0000 4.9323 0.0000
# 4 0.0000 0.0000 0.0000 25.3338 0.0000 -6.9294
# 5 26.9131 6.0114 4.9323 0.0000 49.2535 0.0000
# 6 0.0000 0.0000 0.0000 -6.9294 0.0000 48.0315
#
#
#
# Elastic Compliance Matrix: (Units=1/GPa)
#
#
# Indices 1 2 3 4 5 6 
#
# 1 0.027084 -0.039035 0.019614 0.000000 -0.011999 0.000000
# 2 -0.039035 0.076874 -0.041976 0.000000 0.016151 0.000000
# 3 0.019614 -0.041976 0.039780 0.000000 -0.009578 0.000000
# 4 0.000000 0.000000 0.000000 0.041095 0.000000 0.005929
# 5 -0.011999 0.016151 -0.009578 0.000000 0.025847 0.000000
# 6 0.000000 0.000000 0.000000 0.005929 0.000000 0.021675
#
#
# Mechanical properties :
#
#
# Convention : Reuss Voigt Hill
#
# Bulk Modulus (GPa) = 47.75042 63.80828 55.77935
# Shear Modulus (GPa) = 13.80712 34.69019 24.24866
#
# Velocity S-wave (km/s) = 2.42450 3.84303 3.21303
# Velocity P-wave (km/s) = 5.30723 6.84524 6.12470
#
# Compressibility (1/GPa) = 0.02094222
#
# Stress axis : x y z
#
# Youngs Moduli (GPa) = 36.92266 13.00830 25.13795
#
# Poissons Ratio (x) = 0.50778 -0.49305
# Poissons Ratio (y) = 1.44128 1.05520
# Poissons Ratio (z) = -0.72419 0.54604
#
# Static dielectric constant tensor:
#      x y z
#    x 4.605790 0.000000 0.200960 
#    y 0.000000 4.022910 0.000000 
#    z 0.200960 0.000000 4.425590 
# 
# 
# High freq. dielectric constant tensor:
#      x y z
#    x 1.951020 0.000000 0.020270 
#    y 0.000000 1.899030 0.000000 
#    z 0.020270 0.000000 1.937600 
# 
# From -- ./inp_files/195106.got.cif
#   From: 2010.06.25/outbox.cif.g09.slc.cpg/sg15_98_cif.got.tgz:195106.got - 2010.06.28 07:06:18.
