data_PCOD8153781
_publ_section_title
;
Structure prediction by ZEFSAII (Michael W. Deem and Ramdas Pophale) SiO2 
 PCOD8153781
Probable space group: C 2/C
;
_chemical_formula_sum "Si O2"
_cell_formula_units_Z 52
_cell_length_a 15.835851
_cell_length_b 18.280960
_cell_length_c 8.817339
_cell_angle_alpha 90.000000
_cell_angle_beta 110.266864
_cell_angle_gamma 90.000000
_cell_volume 2394.540475
_symmetry_space_group_name_H-M "C 2/C"
_symmetry_group_IT_number 15
_symmetry_cell_setting 'monoclinic'
loop_
_space_group_symop_operation_xyz
x,y,z
-x,y,1/2-z
-x,-y,-z
x,-y,1/2+z
1/2+x,1/2+y,z
1/2-x,1/2+y,1/2-z
1/2-x,1/2-y,-z
1/2+x,1/2-y,1/2+z
loop_
_atom_site_type_symbol
_atom_site_label
_atom_site_fract_x
_atom_site_fract_y
_atom_site_fract_z
Si Si1 0.900210 0.782193 0.747289
Si Si2 0.397427 0.568389 0.734487
Si Si3 0.000000 0.313727 0.750000
Si Si4 0.003125 0.414762 0.027864
Si Si5 0.839799 0.924595 0.532958
Si Si6 0.848666 0.215633 0.563409
Si Si7 0.853839 0.370728 0.137999
O O1 0.868942 0.856703 0.652958
O O2 0.894967 0.788595 0.926153
O O3 0.836078 0.715715 0.652994
O O4 0.000000 0.762195 0.750000
O O5 0.500000 0.574371 0.750000
O O6 0.351438 0.495106 0.644846
O O7 0.398961 0.569055 0.918207
O O8 0.340246 0.635102 0.629534
O O9 0.912524 0.262095 0.716660
O O10 0.971293 0.367348 0.599343
O O11 0.904775 0.385222 0.012492
O O12 0.082452 0.402393 0.194032
O O13 0.000000 0.500000 0.000000
O O14 0.737454 0.916156 0.417405
O O15 0.750000 0.250000 0.500000
#
# Coordination Sequence:
#
# PCOD8153781 Si02
#       7
#     8   8   4   8   8   8   8
#     4  12  23  48  71 103 141 189 240 291 359 429
#     4  12  26  49  69 105 141 189 237 295 365 414
#     4  12  24  46  72 102 146 184 236 302 350 412
#     4  11  25  44  71 100 143 190 227 284 361 423
#     4  12  28  43  76 101 144 185 241 299 346 426
#     4  12  27  44  76 108 142 187 243 296 358 428
#     4  11  24  45  68 104 141 183 236 282 355 427
#
# _framework density 21.716066999999999
#
# number of rings (size 3 to 8) (size 9 to 14) (size 15 to 20)
#    0.000    0.308    3.846    5.077    6.462    1.231 
#    0.000    0.000    0.000    0.000    0.000    0.000 
#    0.000    0.000    0.000    0.000    0.000    0.000 
#
# Total GULP energy -322480.323240 kJ/mol
# GULP energy per Si atom -12403.089355 kJ/mol
# Density = 2.166664 g / cm^3
# Si number density = 21.716067 Si / 1000 Ang^3
#
#
#
# Elastic Constant Matrix: (Units=GPa)
#
#
# Indices 1 2 3 4 5 6 
#
# 1 84.8181 20.8874 28.7149 0.0000 19.5555 0.0000
# 2 20.8874 191.1456 46.1705 0.0000 9.2184 0.0000
# 3 28.7149 46.1705 70.9682 0.0000 -1.8279 0.0000
# 4 0.0000 0.0000 0.0000 47.0648 0.0000 -0.8088
# 5 19.5555 9.2184 -1.8279 0.0000 44.2415 0.0000
# 6 0.0000 0.0000 0.0000 -0.8088 0.0000 30.9437
#
#
#
# Elastic Compliance Matrix: (Units=1/GPa)
#
#
# Indices 1 2 3 4 5 6 
#
# 1 0.015665 0.000254 -0.006690 0.000000 -0.007253 0.000000
# 2 0.000254 0.006307 -0.004247 0.000000 -0.001602 0.000000
# 3 -0.006690 -0.004247 0.019681 0.000000 0.004655 0.000000
# 4 0.000000 0.000000 0.000000 0.021257 0.000000 0.000556
# 5 -0.007253 -0.001602 0.004655 0.000000 0.026336 0.000000
# 6 0.000000 0.000000 0.000000 0.000556 0.000000 0.032331
#
#
# Mechanical properties :
#
#
# Convention : Reuss Voigt Hill
#
# Bulk Modulus (GPa) = 49.29605 59.83083 54.56344
# Shear Modulus (GPa) = 33.39895 41.19394 37.29644
#
# Velocity S-wave (km/s) = 3.92597 4.36011 4.14872
# Velocity P-wave (km/s) = 6.58031 7.27726 6.93755
#
# Compressibility (1/GPa) = 0.02028560
#
# Stress axis : x y z
#
# Youngs Moduli (GPa) = 63.83779 158.55328 50.81050
#
# Poissons Ratio (x) = -0.04029 0.33994
# Poissons Ratio (y) = -0.01622 0.21581
# Poissons Ratio (z) = 0.42710 0.67342
#
# Static dielectric constant tensor:
#      x y z
#    x 4.007010 0.000000 -0.124290 
#    y 0.000000 4.677060 0.000000 
#    z -0.124290 0.000000 4.030970 
# 
# 
# High freq. dielectric constant tensor:
#      x y z
#    x 1.854190 0.000000 -0.002200 
#    y 0.000000 1.877080 0.000000 
#    z -0.002200 0.000000 1.862160 
# 
# From -- ./inp_files/49227.got.cif
#   From: 2010.06.25/outbox.cif.g09.slc.cpg/sg15_25_cif.got.tgz:49227.got - 2010.06.28 07:06:18.
