data_PCOD8153083
_publ_section_title
;
Structure prediction by ZEFSAII (Michael W. Deem and Ramdas Pophale) SiO2 
 PCOD8153083
Probable space group: C 2/C
;
_chemical_formula_sum "Si O2"
_cell_formula_units_Z 56
_cell_length_a 18.567684
_cell_length_b 18.181852
_cell_length_c 18.037488
_cell_angle_alpha 90.000000
_cell_angle_beta 156.741635
_cell_angle_gamma 90.000000
_cell_volume 2404.555692
_symmetry_space_group_name_H-M "C 2/C"
_symmetry_group_IT_number 15
_symmetry_cell_setting 'monoclinic'
loop_
_space_group_symop_operation_xyz
x,y,z
-x,y,1/2-z
-x,-y,-z
x,-y,1/2+z
1/2+x,1/2+y,z
1/2-x,1/2+y,1/2-z
1/2-x,1/2-y,-z
1/2+x,1/2-y,1/2+z
loop_
_atom_site_type_symbol
_atom_site_label
_atom_site_fract_x
_atom_site_fract_y
_atom_site_fract_z
Si Si1 0.081383 0.078583 0.597695
Si Si2 0.548702 0.917797 0.992199
Si Si3 0.425078 0.810737 0.758328
Si Si4 0.977914 0.853345 0.146212
Si Si5 0.634625 0.073413 0.037862
Si Si6 0.480580 0.660895 0.363283
Si Si7 0.612725 0.184523 0.781587
O O1 0.011500 0.145001 0.479962
O O2 0.056543 0.089310 0.662375
O O3 0.299814 0.081542 0.799071
O O4 0.000000 0.000000 0.500000
O O5 0.548329 0.846520 0.939324
O O6 0.367596 0.918408 0.873262
O O7 0.581523 0.988796 0.970093
O O8 0.500000 0.833963 0.750000
O O9 0.225746 0.843124 0.574090
O O10 0.413499 0.723336 0.755205
O O11 0.000000 0.885837 0.250000
O O12 0.836906 0.097815 0.200214
O O13 0.484318 0.121802 0.855703
O O14 0.383368 0.739683 0.261608
O O15 0.675364 0.660008 0.503680
O O16 0.500000 0.198540 0.750000
#
# Coordination Sequence:
#
# PCOD8153083 Si02
#       7
#     8   8   8   8   8   8   8
#     4  12  25  44  71 104 141 190 246 294 357 443
#     4  11  24  45  68 102 144 185 237 305 363 435
#     4  11  23  42  71 101 141 183 231 297 368 436
#     4  11  24  43  70 108 140 185 239 298 365 428
#     4  11  25  44  70 102 141 186 242 296 367 428
#     4  12  25  44  71 104 141 191 242 304 361 428
#     4  12  27  46  73 106 146 190 248 304 365 436
#
# _framework density 23.289124000000001
#
# number of rings (size 3 to 8) (size 9 to 14) (size 15 to 20)
#    0.000    0.571    4.286    4.714    4.000    1.714 
#    0.000    2.143    0.000    0.000    0.000    0.000 
#    0.000    0.000    0.000    0.000    0.000    0.000 
#
# Total GULP energy -347021.802445 kJ/mol
# GULP energy per Si atom -12393.635802 kJ/mol
# Density = 2.323612 g / cm^3
# Si number density = 23.289124 Si / 1000 Ang^3
#
#
#
# Elastic Constant Matrix: (Units=GPa)
#
#
# Indices 1 2 3 4 5 6 
#
# 1 113.6532 52.7948 24.2853 -0.0175 -3.7038 -0.0106
# 2 52.7948 85.4917 27.3630 -0.0446 -6.3899 -0.0151
# 3 24.2853 27.3630 103.7894 -0.0384 16.7133 0.0120
# 4 -0.0175 -0.0446 -0.0384 39.2867 -0.0059 -5.3145
# 5 -3.7038 -6.3899 16.7133 -0.0059 40.0734 0.0128
# 6 -0.0106 -0.0151 0.0120 -5.3145 0.0128 29.3909
#
#
#
# Elastic Compliance Matrix: (Units=1/GPa)
#
#
# Indices 1 2 3 4 5 6 
#
# 1 0.012432 -0.007310 -0.001050 -0.000004 0.000421 0.000000
# 2 -0.007310 0.017603 -0.003509 0.000015 0.003595 0.000009
# 3 -0.001050 -0.003509 0.011697 0.000006 -0.005535 -0.000004
# 4 -0.000004 0.000015 0.000006 0.026092 0.000002 0.004718
# 5 0.000421 0.003595 -0.005535 0.000002 0.027875 -0.000007
# 6 0.000000 0.000009 -0.000004 0.004718 -0.000007 0.034877
#
#
# Mechanical properties :
#
#
# Convention : Reuss Voigt Hill
#
# Bulk Modulus (GPa) = 55.57233 56.86893 56.22063
# Shear Modulus (GPa) = 31.18889 34.98293 33.08591
#
# Velocity S-wave (km/s) = 3.66348 3.87992 3.77325
# Velocity P-wave (km/s) = 6.46595 6.67408 6.57084
#
# Compressibility (1/GPa) = 0.01799457
#
# Stress axis : x y z
#
# Youngs Moduli (GPa) = 80.43461 56.80748 85.49191
#
# Poissons Ratio (x) = 0.41527 0.08973
# Poissons Ratio (y) = 0.58799 0.30002
# Poissons Ratio (z) = 0.08442 0.19936
#
# Static dielectric constant tensor:
#      x y z
#    x 4.297300 0.000250 0.436000 
#    y 0.000250 4.128920 0.000320 
#    z 0.436000 0.000320 5.267490 
# 
# 
# High freq. dielectric constant tensor:
#      x y z
#    x 1.910530 0.000000 0.011560 
#    y 0.000000 1.912570 -0.000010 
#    z 0.011560 -0.000010 1.945610 
# 
# From -- ./inp_files/253391.got.cif
#   From: 2010.06.25/outbox.cif.g09.slc.cpg/sg15_127_cif.got.tgz:253391.got - 2010.06.28 07:06:18.
