data_PCOD8153500
_publ_section_title
;
Structure prediction by ZEFSAII (Michael W. Deem and Ramdas Pophale) SiO2 
 PCOD8153500
Probable space group: C 2/C
;
_chemical_formula_sum "Si O2"
_cell_formula_units_Z 52
_cell_length_a 13.531458
_cell_length_b 14.584241
_cell_length_c 11.597136
_cell_angle_alpha 90.000000
_cell_angle_beta 70.953151
_cell_angle_gamma 90.000000
_cell_volume 2163.350087
_symmetry_space_group_name_H-M "C 2/C"
_symmetry_group_IT_number 15
_symmetry_cell_setting 'monoclinic'
loop_
_space_group_symop_operation_xyz
x,y,z
-x,y,1/2-z
-x,-y,-z
x,-y,1/2+z
1/2+x,1/2+y,z
1/2-x,1/2+y,1/2-z
1/2-x,1/2-y,-z
1/2+x,1/2-y,1/2+z
loop_
_atom_site_type_symbol
_atom_site_label
_atom_site_fract_x
_atom_site_fract_y
_atom_site_fract_z
Si Si1 0.656295 0.311976 0.575624
Si Si2 0.367701 0.952631 0.176941
Si Si3 0.146880 0.316266 0.518356
Si Si4 0.664900 0.552317 0.272489
Si Si5 0.500000 0.188351 0.750000
Si Si6 0.000000 0.919489 0.250000
Si Si7 0.021218 0.844012 0.998803
Si Si8 0.000000 0.407032 0.750000
O O1 0.750000 0.250000 0.500000
O O2 0.694779 0.365682 0.673067
O O3 0.550538 0.253781 0.636291
O O4 0.599790 0.368357 0.493652
O O5 0.401129 0.868663 0.243948
O O6 0.268677 0.001215 0.274431
O O7 0.459199 0.030262 0.156204
O O8 0.337072 0.911857 0.061677
O O9 0.250000 0.250000 0.500000
O O10 0.065135 0.259736 0.470497
O O11 0.094696 0.345192 0.661264
O O12 0.599911 0.482608 0.222357
O O13 0.601311 0.586602 0.406943
O O14 0.976796 0.855837 0.366017
#
# Coordination Sequence:
#
# PCOD8153500 Si02
#       8
#     8   8   8   8   4   4   8   4
#     4  12  26  45  79 106 148 199 255 306 383 447
#     4  11  26  44  76 105 149 189 248 305 382 439
#     4  12  25  48  73 107 149 196 248 309 374 453
#     4  12  25  47  74 112 149 198 247 318 380 450
#     4  11  23  52  69 111 144 198 242 317 361 458
#     4  12  26  44  72 106 154 196 246 312 382 444
#     4  12  25  49  72 107 154 194 257 312 370 467
#     4  11  27  46  73 107 150 198 242 307 383 440
#
# _framework density 24.036794
#
# number of rings (size 3 to 8) (size 9 to 14) (size 15 to 20)
#    0.000    0.308    4.615    3.231    4.308    2.462 
#    2.769    0.000    0.000    0.000    0.000    0.000 
#    0.000    0.000    0.000    0.000    0.000    0.000 
#
# Total GULP energy -322091.259057 kJ/mol
# GULP energy per Si atom -12388.125348 kJ/mol
# Density = 2.398208 g / cm^3
# Si number density = 24.036794 Si / 1000 Ang^3
#
#
#
# Elastic Constant Matrix: (Units=GPa)
#
#
# Indices 1 2 3 4 5 6 
#
# 1 114.4327 49.0975 45.1431 0.0000 -7.2601 0.0000
# 2 49.0975 88.9085 36.4463 0.0000 -8.7202 0.0000
# 3 45.1431 36.4463 120.9681 0.0000 -6.7626 0.0000
# 4 0.0000 0.0000 0.0000 46.4361 0.0000 3.9343
# 5 -7.2601 -8.7202 -6.7626 0.0000 37.1020 0.0000
# 6 0.0000 0.0000 0.0000 3.9343 0.0000 48.2728
#
#
#
# Elastic Compliance Matrix: (Units=1/GPa)
#
#
# Indices 1 2 3 4 5 6 
#
# 1 0.012294 -0.005551 -0.002883 0.000000 0.000576 0.000000
# 2 -0.005551 0.015542 -0.002493 0.000000 0.002112 0.000000
# 3 -0.002883 -0.002493 0.010133 0.000000 0.000697 0.000000
# 4 0.000000 0.000000 0.000000 0.021685 0.000000 -0.001767
# 5 0.000576 0.002112 0.000697 0.000000 0.027689 0.000000
# 6 0.000000 0.000000 0.000000 -0.001767 0.000000 0.020860
#
#
# Mechanical properties :
#
#
# Convention : Reuss Voigt Hill
#
# Bulk Modulus (GPa) = 62.05608 65.07587 63.56597
# Shear Modulus (GPa) = 36.91989 39.27035 38.09512
#
# Velocity S-wave (km/s) = 3.92340 4.04636 3.98536
# Velocity P-wave (km/s) = 6.81155 6.99735 6.90508
#
# Compressibility (1/GPa) = 0.01611446
#
# Stress axis : x y z
#
# Youngs Moduli (GPa) = 81.33813 64.34198 98.68955
#
# Poissons Ratio (x) = 0.35715 0.28457
# Poissons Ratio (y) = 0.45149 0.24604
# Poissons Ratio (z) = 0.23454 0.16041
#
# Static dielectric constant tensor:
#      x y z
#    x 4.371140 0.000000 0.087330 
#    y 0.000000 4.628070 0.000000 
#    z 0.087330 0.000000 4.070210 
# 
# 
# High freq. dielectric constant tensor:
#      x y z
#    x 1.966060 0.000000 0.008230 
#    y 0.000000 1.965780 0.000000 
#    z 0.008230 0.000000 1.945510 
# 
# From -- ./inp_files/96997.got.cif
#   From: 2010.06.25/outbox.cif.g09.slc.cpg/sg15_49_cif.got.tgz:96997.got - 2010.06.28 07:06:18.
