data_PCOD8153659
_publ_section_title
;
Structure prediction by ZEFSAII (Michael W. Deem and Ramdas Pophale) SiO2 
 PCOD8153659
Probable space group: C 2/C
;
_chemical_formula_sum "Si O2"
_cell_formula_units_Z 52
_cell_length_a 9.304479
_cell_length_b 15.937358
_cell_length_c 17.165928
_cell_angle_alpha 90.000000
_cell_angle_beta 59.758536
_cell_angle_gamma 90.000000
_cell_volume 2199.097333
_symmetry_space_group_name_H-M "C 2/C"
_symmetry_group_IT_number 15
_symmetry_cell_setting 'monoclinic'
loop_
_space_group_symop_operation_xyz
x,y,z
-x,y,1/2-z
-x,-y,-z
x,-y,1/2+z
1/2+x,1/2+y,z
1/2-x,1/2+y,1/2-z
1/2-x,1/2-y,-z
1/2+x,1/2-y,1/2+z
loop_
_atom_site_type_symbol
_atom_site_label
_atom_site_fract_x
_atom_site_fract_y
_atom_site_fract_z
Si Si1 0.323448 0.369491 0.198791
Si Si2 0.730555 0.318276 0.938469
Si Si3 0.638723 0.011404 0.066987
Si Si4 0.500000 0.935672 0.250000
Si Si5 0.313809 0.088051 0.090429
Si Si6 0.000000 0.007039 0.250000
Si Si7 0.622922 0.730332 0.966042
Si Si8 0.000000 0.735264 0.250000
O O1 0.126189 0.382188 0.269598
O O2 0.433023 0.449304 0.196836
O O3 0.339089 0.347471 0.102345
O O4 0.375794 0.289769 0.233328
O O5 0.734349 0.410231 0.976988
O O6 0.882120 0.321087 0.836082
O O7 0.750000 0.250000 0.000000
O O8 0.554500 0.294493 0.946684
O O9 0.451810 0.029100 0.090324
O O10 0.626359 0.988159 0.161372
O O11 0.709374 0.935259 0.994964
O O12 0.376542 0.183551 0.084401
O O13 0.142092 0.069678 0.181202
O O14 0.750000 0.750000 0.000000
#
# Coordination Sequence:
#
# PCOD8153659 Si02
#       8
#     8   8   8   4   8   4   8   4
#     4  11  25  43  72 105 142 193 245 296 375 437
#     4  12  24  47  73 100 142 186 250 296 353 451
#     4  11  24  43  74 102 142 191 246 296 364 438
#     4  12  25  43  71 107 148 180 246 306 367 440
#     4  11  24  44  72 103 144 196 237 302 375 425
#     4  11  24  47  75 106 149 198 252 309 366 456
#     4  12  27  47  71 110 150 190 243 307 376 437
#     4  11  25  42  76 101 133 192 248 299 365 426
#
# _framework density 23.646065
#
# number of rings (size 3 to 8) (size 9 to 14) (size 15 to 20)
#    0.000    0.615    4.615    2.308    6.462    1.846 
#    2.769    3.077    0.000    0.000    0.000    0.000 
#    0.000    0.000    0.000    0.000    0.000    0.000 
#
# Total GULP energy -322324.620031 kJ/mol
# GULP energy per Si atom -12397.100770 kJ/mol
# Density = 2.359225 g / cm^3
# Si number density = 23.646065 Si / 1000 Ang^3
#
#
#
# Elastic Constant Matrix: (Units=GPa)
#
#
# Indices 1 2 3 4 5 6 
#
# 1 138.6420 26.8103 36.0821 0.0000 -10.7651 0.0000
# 2 26.8103 94.9783 43.7637 0.0000 -16.3444 0.0000
# 3 36.0821 43.7637 134.2355 0.0000 -9.7119 0.0000
# 4 0.0000 0.0000 0.0000 29.0625 0.0000 -5.8247
# 5 -10.7651 -16.3444 -9.7119 0.0000 43.4398 0.0000
# 6 0.0000 0.0000 0.0000 -5.8247 0.0000 34.2801
#
#
#
# Elastic Compliance Matrix: (Units=1/GPa)
#
#
# Indices 1 2 3 4 5 6 
#
# 1 0.007978 -0.001305 -0.001638 0.000000 0.001120 0.000000
# 2 -0.001305 0.013260 -0.003695 0.000000 0.003840 0.000000
# 3 -0.001638 -0.003695 0.009112 0.000000 0.000241 0.000000
# 4 0.000000 0.000000 0.000000 0.035622 0.000000 0.006053
# 5 0.001120 0.003840 0.000241 0.000000 0.024797 0.000000
# 6 0.000000 0.000000 0.000000 0.006053 0.000000 0.030200
#
#
# Mechanical properties :
#
#
# Convention : Reuss Voigt Hill
#
# Bulk Modulus (GPa) = 58.56278 64.57424 61.56851
# Shear Modulus (GPa) = 35.73080 38.76980 37.25030
#
# Velocity S-wave (km/s) = 3.89146 4.05358 3.97335
# Velocity P-wave (km/s) = 6.70906 7.01973 6.86615
#
# Compressibility (1/GPa) = 0.01707569
#
# Stress axis : x y z
#
# Youngs Moduli (GPa) = 125.33822 75.41395 109.74636
#
# Poissons Ratio (x) = 0.09838 0.17979
# Poissons Ratio (y) = 0.16351 0.40547
# Poissons Ratio (z) = 0.20533 0.27863
#
# Static dielectric constant tensor:
#      x y z
#    x 4.619870 0.000000 -0.196980 
#    y 0.000000 4.285380 0.000000 
#    z -0.196980 0.000000 4.653100 
# 
# 
# High freq. dielectric constant tensor:
#      x y z
#    x 1.951140 0.000000 0.000200 
#    y 0.000000 1.936180 0.000000 
#    z 0.000200 0.000000 1.927650 
# 
# From -- ./inp_files/190879.got.cif
#   From: 2010.06.25/outbox.cif.g09.slc.cpg/sg15_96_cif.got.tgz:190879.got - 2010.06.28 07:06:18.
