data_PCOD8153850
_publ_section_title
;
Structure prediction by ZEFSAII (Michael W. Deem and Ramdas Pophale) SiO2 
 PCOD8153850
Probable space group: C 2/C
;
_chemical_formula_sum "Si O2"
_cell_formula_units_Z 40
_cell_length_a 19.634902
_cell_length_b 15.286643
_cell_length_c 13.835998
_cell_angle_alpha 90.000000
_cell_angle_beta 155.022305
_cell_angle_gamma 90.000000
_cell_volume 1753.625521
_symmetry_space_group_name_H-M "C 2/C"
_symmetry_group_IT_number 15
_symmetry_cell_setting 'monoclinic'
loop_
_space_group_symop_operation_xyz
x,y,z
-x,y,1/2-z
-x,-y,-z
x,-y,1/2+z
1/2+x,1/2+y,z
1/2-x,1/2+y,1/2-z
1/2-x,1/2-y,-z
1/2+x,1/2-y,1/2+z
loop_
_atom_site_type_symbol
_atom_site_label
_atom_site_fract_x
_atom_site_fract_y
_atom_site_fract_z
Si Si1 0.077996 0.716539 0.752335
Si Si2 0.363722 0.833886 0.650901
Si Si3 0.938245 0.113456 0.981439
Si Si4 0.921896 0.053641 0.752312
Si Si5 0.078423 0.407172 0.083646
O O1 0.105393 0.632362 0.722920
O O2 0.000000 0.682765 0.750000
O O3 0.968197 0.789325 0.558110
O O4 0.250000 0.750000 0.000000
O O5 0.500000 0.816855 0.750000
O O6 0.250000 0.750000 0.500000
O O7 0.266499 0.922835 0.500625
O O8 0.450460 0.845036 0.864997
O O9 0.989983 0.106525 0.934413
O O10 0.749904 0.086734 0.748906
O O11 0.048513 0.048739 0.188630
O O12 0.000000 0.082494 0.750000
O O13 0.000000 0.500000 0.000000
#
# Coordination Sequence:
#
# PCOD8153850 Si02
#       5
#     8   8   8   8   8
#     4  12  27  48  80 106 152 202 254 308 386 450
#     4  12  26  46  74 108 149 194 248 308 383 447
#     4  11  25  50  74 110 151 198 259 315 377 459
#     4  11  24  45  78 105 149 200 246 314 388 443
#     4  12  28  48  76 114 150 195 259 311 373 458
#
# _framework density 22.809885999999999
#
# number of rings (size 3 to 8) (size 9 to 14) (size 15 to 20)
#    0.000    0.400    4.000    3.600    2.800    5.600 
#    0.000    0.000    0.000    0.000    0.000    0.000 
#    0.000    0.000    0.000    0.000    0.000    0.000 
#
# Total GULP energy -247985.565655 kJ/mol
# GULP energy per Si atom -12399.278283 kJ/mol
# Density = 2.275797 g / cm^3
# Si number density = 22.809886 Si / 1000 Ang^3
#
#
#
# Elastic Constant Matrix: (Units=GPa)
#
#
# Indices 1 2 3 4 5 6 
#
# 1 187.4912 53.2040 51.5623 0.0000 -8.1983 0.0000
# 2 53.2040 111.2972 51.8309 0.0000 -0.0456 0.0000
# 3 51.5623 51.8309 134.7213 0.0000 4.2544 0.0000
# 4 0.0000 0.0000 0.0000 53.8626 0.0000 -8.9854
# 5 -8.1983 -0.0456 4.2544 0.0000 43.7361 0.0000
# 6 0.0000 0.0000 0.0000 -8.9854 0.0000 29.8741
#
#
#
# Elastic Compliance Matrix: (Units=1/GPa)
#
#
# Indices 1 2 3 4 5 6 
#
# 1 0.006509 -0.002352 -0.001630 0.000000 0.001376 0.000000
# 2 -0.002352 0.011804 -0.003639 0.000000 -0.000075 0.000000
# 3 -0.001630 -0.003639 0.009485 0.000000 -0.001232 0.000000
# 4 0.000000 0.000000 0.000000 0.019547 0.000000 0.005879
# 5 0.001376 -0.000075 -0.001232 0.000000 0.023242 0.000000
# 6 0.000000 0.000000 0.000000 0.005879 0.000000 0.035242
#
#
# Mechanical properties :
#
#
# Convention : Reuss Voigt Hill
#
# Bulk Modulus (GPa) = 79.63540 82.96712 81.30126
# Shear Modulus (GPa) = 39.91803 43.95539 41.93671
#
# Velocity S-wave (km/s) = 4.18788 4.39456 4.29246
# Velocity P-wave (km/s) = 7.64021 7.88681 7.76449
#
# Compressibility (1/GPa) = 0.01255723
#
# Stress axis : x y z
#
# Youngs Moduli (GPa) = 153.62227 84.71816 105.42572
#
# Poissons Ratio (x) = 0.19927 0.17184
# Poissons Ratio (y) = 0.36134 0.38361
# Poissons Ratio (z) = 0.25039 0.30826
#
# Static dielectric constant tensor:
#      x y z
#    x 4.314610 0.000000 -0.134590 
#    y 0.000000 3.799310 0.000000 
#    z -0.134590 0.000000 4.167240 
# 
# 
# High freq. dielectric constant tensor:
#      x y z
#    x 1.918430 0.000000 -0.010340 
#    y 0.000000 1.894880 0.000000 
#    z -0.010340 0.000000 1.912330 
# 
# From -- ./inp_files/169234.got.cif
#   From: 2010.06.25/outbox.cif.g09.slc.cpg/sg15_85_cif.got.tgz:169234.got - 2010.06.28 07:06:18.
