data_PCOD8153814
_publ_section_title
;
Structure prediction by ZEFSAII (Michael W. Deem and Ramdas Pophale) SiO2 
 PCOD8153814
Probable space group: C 2/C
;
_chemical_formula_sum "Si O2"
_cell_formula_units_Z 52
_cell_length_a 16.545112
_cell_length_b 6.481940
_cell_length_c 24.284530
_cell_angle_alpha 90.000000
_cell_angle_beta 113.816155
_cell_angle_gamma 90.000000
_cell_volume 2382.606611
_symmetry_space_group_name_H-M "C 2/C"
_symmetry_group_IT_number 15
_symmetry_cell_setting 'monoclinic'
loop_
_space_group_symop_operation_xyz
x,y,z
-x,y,1/2-z
-x,-y,-z
x,-y,1/2+z
1/2+x,1/2+y,z
1/2-x,1/2+y,1/2-z
1/2-x,1/2-y,-z
1/2+x,1/2-y,1/2+z
loop_
_atom_site_type_symbol
_atom_site_label
_atom_site_fract_x
_atom_site_fract_y
_atom_site_fract_z
Si Si1 0.067467 0.347610 0.872745
Si Si2 0.500000 0.038394 0.750000
Si Si3 0.821296 0.875678 0.843415
Si Si4 0.991591 0.017025 0.563224
Si Si5 0.295215 0.439070 0.141673
Si Si6 0.168996 0.748726 0.937183
Si Si7 0.681499 0.775628 0.274753
O O1 0.115470 0.171461 0.851235
O O2 0.136208 0.522336 0.911042
O O3 0.994247 0.418270 0.807401
O O4 0.025641 0.247730 0.917026
O O5 0.410801 0.168615 0.721158
O O6 0.783621 0.729166 0.882004
O O7 0.827381 0.724822 0.792943
O O8 0.917930 0.945996 0.885155
O O9 0.756811 0.067995 0.815847
O O10 0.913348 0.867809 0.559756
O O11 0.000000 0.000000 0.500000
O O12 0.283378 0.638294 0.100384
O O13 0.300064 0.537210 0.203969
O O14 0.250000 0.750000 0.000000
#
# Coordination Sequence:
#
# PCOD8153814 Si02
#       7
#     8   4   8   8   8   8   8
#     4  11  26  46  72 106 140 193 235 300 360 431
#     4  12  24  44  72 102 144 180 244 290 364 436
#     4  12  26  46  69 107 147 185 242 295 371 422
#     4  11  30  47  73 107 147 190 239 302 360 435
#     4  11  24  45  71 101 140 188 234 293 356 425
#     4  11  26  50  76 102 136 194 245 289 360 436
#     4  12  26  43  70 107 141 188 231 302 360 432
#
# _framework density 21.824836999999999
#
# number of rings (size 3 to 8) (size 9 to 14) (size 15 to 20)
#    0.000    0.615    4.615    0.923   12.923    3.077 
#    0.000    0.000    0.000    0.000    0.000    0.000 
#    0.000    0.000    0.000    0.000    0.000    0.000 
#
# Total GULP energy -322215.527219 kJ/mol
# GULP energy per Si atom -12392.904893 kJ/mol
# Density = 2.177516 g / cm^3
# Si number density = 21.824837 Si / 1000 Ang^3
#
#
#
# Elastic Constant Matrix: (Units=GPa)
#
#
# Indices 1 2 3 4 5 6 
#
# 1 125.9184 53.7662 57.3559 0.0000 13.6720 0.0000
# 2 53.7662 128.9614 66.0272 0.0000 2.2841 0.0000
# 3 57.3559 66.0272 138.8628 0.0000 11.6775 0.0000
# 4 0.0000 0.0000 0.0000 29.7940 0.0000 -12.0257
# 5 13.6720 2.2841 11.6775 0.0000 48.9427 0.0000
# 6 0.0000 0.0000 0.0000 -12.0257 0.0000 37.4931
#
#
#
# Elastic Compliance Matrix: (Units=1/GPa)
#
#
# Indices 1 2 3 4 5 6 
#
# 1 0.010747 -0.002992 -0.002832 0.000000 -0.002187 0.000000
# 2 -0.002992 0.011106 -0.004155 0.000000 0.001309 0.000000
# 3 -0.002832 -0.004155 0.010474 0.000000 -0.001514 0.000000
# 4 0.000000 0.000000 0.000000 0.038555 0.000000 0.012366
# 5 -0.002187 0.001309 -0.001514 0.000000 0.021343 0.000000
# 6 0.000000 0.000000 0.000000 0.012366 0.000000 0.030638
#
#
# Mechanical properties :
#
#
# Convention : Reuss Voigt Hill
#
# Bulk Modulus (GPa) = 80.85065 83.11569 81.98317
# Shear Modulus (GPa) = 34.02667 37.68551 35.85609
#
# Velocity S-wave (km/s) = 3.95280 4.15990 4.05767
# Velocity P-wave (km/s) = 7.61305 7.82552 7.72002
#
# Compressibility (1/GPa) = 0.01236848
#
# Stress axis : x y z
#
# Youngs Moduli (GPa) = 93.05246 90.04449 95.47234
#
# Poissons Ratio (x) = 0.26937 0.27042
# Poissons Ratio (y) = 0.27837 0.39669
# Poissons Ratio (z) = 0.26357 0.37414
#
# Static dielectric constant tensor:
#      x y z
#    x 4.347340 0.000000 -0.519080 
#    y 0.000000 4.154660 0.000000 
#    z -0.519080 0.000000 4.251060 
# 
# 
# High freq. dielectric constant tensor:
#      x y z
#    x 1.869990 0.000000 -0.010800 
#    y 0.000000 1.869050 0.000000 
#    z -0.010800 0.000000 1.857820 
# 
# From -- ./inp_files/297840.got.cif
#   From: 2010.06.25/outbox.cif.g09.slc.cpg/sg15_149_cif.got.tgz:297840.got - 2010.06.28 07:06:18.
