data_PCOD8153206
_publ_section_title
;
Structure prediction by ZEFSAII (Michael W. Deem and Ramdas Pophale) SiO2 
 PCOD8153206
Probable space group: C 2/C
;
_chemical_formula_sum "Si O2"
_cell_formula_units_Z 44
_cell_length_a 5.304281
_cell_length_b 23.671523
_cell_length_c 17.802076
_cell_angle_alpha 90.000000
_cell_angle_beta 64.286475
_cell_angle_gamma 90.000000
_cell_volume 2013.890885
_symmetry_space_group_name_H-M "C 2/C"
_symmetry_group_IT_number 15
_symmetry_cell_setting 'monoclinic'
loop_
_space_group_symop_operation_xyz
x,y,z
-x,y,1/2-z
-x,-y,-z
x,-y,1/2+z
1/2+x,1/2+y,z
1/2-x,1/2+y,1/2-z
1/2-x,1/2-y,-z
1/2+x,1/2-y,1/2+z
loop_
_atom_site_type_symbol
_atom_site_label
_atom_site_fract_x
_atom_site_fract_y
_atom_site_fract_z
Si Si1 0.000000 0.901016 0.750000
Si Si2 0.485232 0.093225 0.933733
Si Si3 0.670031 0.192749 0.804688
Si Si4 0.487390 0.012008 0.168387
Si Si5 0.283709 0.682584 0.166826
Si Si6 0.328168 0.596768 0.041226
O O1 0.265175 0.938484 0.699317
O O2 0.005180 0.861001 0.821898
O O3 0.579837 0.149104 0.879204
O O4 0.624552 0.090464 0.996770
O O5 0.150753 0.092639 0.977429
O O6 0.597909 0.038271 0.875601
O O7 0.500000 0.182206 0.750000
O O8 0.592780 0.254324 0.848178
O O9 0.000000 0.186518 0.750000
O O10 0.500000 0.985275 0.250000
O O11 0.770634 0.044133 0.105572
O O12 0.000000 0.681368 0.250000
O O13 0.253014 0.658273 0.086518
#
# Coordination Sequence:
#
# PCOD8153206 Si02
#       6
#     4   8   8   8   8   8
#     4  12  20  42  72 100 126 170 240 290 318 384
#     4  12  29  44  67 104 147 179 216 280 361 411
#     4  11  25  46  73  99 136 182 234 282 329 407
#     4  12  26  42  73  99 133 186 235 281 328 408
#     4  11  23  43  73  99 132 179 241 283 325 397
#     4  12  25  46  67 103 146 176 223 282 348 404
#
# _framework density 21.848255000000002
#
# number of rings (size 3 to 8) (size 9 to 14) (size 15 to 20)
#    0.000    0.364    4.545    3.818    3.818    1.455 
#    0.000    0.000    0.000    0.000    0.000    0.000 
#    0.000    0.000    0.000    0.000    0.000    0.000 
#
# Total GULP energy -272833.943443 kJ/mol
# GULP energy per Si atom -12401.542884 kJ/mol
# Density = 2.179853 g / cm^3
# Si number density = 21.848255 Si / 1000 Ang^3
#
#
#
# Elastic Constant Matrix: (Units=GPa)
#
#
# Indices 1 2 3 4 5 6 
#
# 1 103.0394 22.6962 32.1214 0.0000 0.3709 0.0000
# 2 22.6962 140.7256 59.6339 0.0000 1.6117 0.0000
# 3 32.1214 59.6339 107.3641 0.0000 10.5902 0.0000
# 4 0.0000 0.0000 0.0000 17.2900 0.0000 21.0184
# 5 0.3709 1.6117 10.5902 0.0000 33.3672 0.0000
# 6 0.0000 0.0000 0.0000 21.0184 0.0000 -41.5459
#
#
#
# Elastic Compliance Matrix: (Units=1/GPa)
#
#
# Indices 1 2 3 4 5 6 
#
# 1 0.010753 -0.000451 -0.003053 0.000000 0.000871 0.000000
# 2 -0.000451 0.009361 -0.005183 0.000000 0.001198 0.000000
# 3 -0.003053 -0.005183 0.013501 0.000000 -0.004001 0.000000
# 4 0.000000 0.000000 0.000000 0.035812 0.000000 0.018118
# 5 0.000871 0.001198 -0.004001 0.000000 0.031172 0.000000
# 6 0.000000 0.000000 0.000000 0.018118 0.000000 -0.014904
#
#
# Mechanical properties :
#
#
# Convention : Reuss Voigt Hill
#
# Bulk Modulus (GPa) = 61.56703 64.44803 63.00753
# Shear Modulus (GPa) = 46.09069 17.60076 31.84573
#
# Velocity S-wave (km/s) = 4.59800 2.84137 3.82198
# Velocity P-wave (km/s) = 7.51195 6.35032 6.95543
#
# Compressibility (1/GPa) = 0.01624246
#
# Stress axis : x y z
#
# Youngs Moduli (GPa) = 92.99924 106.82266 74.06948
#
# Poissons Ratio (x) = 0.04813 0.22611
# Poissons Ratio (y) = 0.04190 0.38390
# Poissons Ratio (z) = 0.28390 0.55366
#
# Static dielectric constant tensor:
#      x y z
#    x 4.446030 0.000000 -0.228460 
#    y 0.000000 4.301540 0.000000 
#    z -0.228460 0.000000 4.525720 
# 
# 
# High freq. dielectric constant tensor:
#      x y z
#    x 1.865120 0.000000 0.003280 
#    y 0.000000 1.872290 0.000000 
#    z 0.003280 0.000000 1.865790 
# 
# From -- ./inp_files/129818.got.cif
#   From: 2010.06.25/outbox.cif.g09.slc.cpg/sg15_65_cif.got.tgz:129818.got - 2010.06.28 07:06:18.
