data_PCOD8153202
_publ_section_title
;
Structure prediction by ZEFSAII (Michael W. Deem and Ramdas Pophale) SiO2 
 PCOD8153202
Probable space group: C 2/C
;
_chemical_formula_sum "Si O2"
_cell_formula_units_Z 52
_cell_length_a 7.566383
_cell_length_b 16.744899
_cell_length_c 24.977862
_cell_angle_alpha 90.000000
_cell_angle_beta 50.913262
_cell_angle_gamma 90.000000
_cell_volume 2456.379601
_symmetry_space_group_name_H-M "C 2/C"
_symmetry_group_IT_number 15
_symmetry_cell_setting 'monoclinic'
loop_
_space_group_symop_operation_xyz
x,y,z
-x,y,1/2-z
-x,-y,-z
x,-y,1/2+z
1/2+x,1/2+y,z
1/2-x,1/2+y,1/2-z
1/2-x,1/2-y,-z
1/2+x,1/2-y,1/2+z
loop_
_atom_site_type_symbol
_atom_site_label
_atom_site_fract_x
_atom_site_fract_y
_atom_site_fract_z
Si Si1 0.158297 0.185859 0.785298
Si Si2 0.857436 0.312504 0.362226
Si Si3 0.730644 0.551510 0.964346
Si Si4 0.368451 0.942082 0.631471
Si Si5 0.094334 0.656991 0.178454
Si Si6 0.500000 0.451709 0.250000
Si Si7 0.874790 0.849657 0.913905
O O1 0.380878 0.195844 0.705513
O O2 0.204492 0.195032 0.838961
O O3 0.969751 0.250264 0.805452
O O4 0.043904 0.100849 0.794772
O O5 0.792263 0.398013 0.399586
O O6 0.799619 0.241554 0.415584
O O7 0.934646 0.490083 0.936920
O O8 0.500000 0.500000 0.000000
O O9 0.736858 0.614795 0.011480
O O10 0.484499 0.875357 0.645487
O O11 0.195077 0.903217 0.622991
O O12 0.224508 0.997060 0.698386
O O13 0.360048 0.643678 0.126215
O O14 0.000000 0.613165 0.250000
#
# Coordination Sequence:
#
# PCOD8153202 Si02
#       7
#     8   8   8   8   8   4   8
#     4  11  23  43  73 107 139 179 236 301 360 426
#     4  11  24  46  74 102 141 188 238 292 360 429
#     4  12  27  49  69 104 149 193 244 294 353 428
#     4  12  27  46  70 110 142 189 240 298 362 423
#     4  12  23  43  74 106 143 178 240 300 355 422
#     4  12  24  42  72 104 144 182 230 306 374 406
#     4  12  25  47  74  99 145 196 233 290 356 437
#
# _framework density 21.169366
#
# number of rings (size 3 to 8) (size 9 to 14) (size 15 to 20)
#    0.000    0.308    6.923    1.846    2.154    1.231 
#    0.000    1.538    0.000    0.000    0.000    0.000 
#    0.000    0.000    0.000    0.000    0.000    0.000 
#
# Total GULP energy -322418.495308 kJ/mol
# GULP energy per Si atom -12400.711358 kJ/mol
# Density = 2.112118 g / cm^3
# Si number density = 21.169366 Si / 1000 Ang^3
#
#
#
# Elastic Constant Matrix: (Units=GPa)
#
#
# Indices 1 2 3 4 5 6 
#
# 1 134.0492 45.1812 33.7167 -0.0028 1.3257 0.0010
# 2 45.1812 108.5733 32.2524 -0.0013 -3.6225 0.0006
# 3 33.7167 32.2524 78.2095 -0.0009 2.2745 0.0005
# 4 -0.0028 -0.0013 -0.0009 39.3659 0.0012 8.1032
# 5 1.3257 -3.6225 2.2745 0.0012 39.3095 -0.0013
# 6 0.0010 0.0006 0.0005 8.1032 -0.0013 12.1092
#
#
#
# Elastic Compliance Matrix: (Units=1/GPa)
#
#
# Indices 1 2 3 4 5 6 
#
# 1 0.009161 -0.003028 -0.002688 0.000001 -0.000432 -0.000001
# 2 -0.003028 0.011556 -0.003500 0.000000 0.001370 0.000000
# 3 -0.002688 -0.003500 0.015421 0.000000 -0.001124 -0.000001
# 4 0.000001 0.000000 0.000000 0.029461 -0.000002 -0.019714
# 5 -0.000432 0.001370 -0.001124 -0.000002 0.025645 0.000004
# 6 -0.000001 0.000000 -0.000001 -0.019714 0.000004 0.095774
#
#
# Mechanical properties :
#
#
# Convention : Reuss Voigt Hill
#
# Bulk Modulus (GPa) = 56.47872 60.34806 58.41339
# Shear Modulus (GPa) = 23.65729 32.13571 27.89650
#
# Velocity S-wave (km/s) = 3.34657 3.90042 3.63406
# Velocity P-wave (km/s) = 6.45523 6.98953 6.72769
#
# Compressibility (1/GPa) = 0.01770578
#
# Stress axis : x y z
#
# Youngs Moduli (GPa) = 109.15887 86.53654 64.84682
#
# Poissons Ratio (x) = 0.26204 0.17431
# Poissons Ratio (y) = 0.33055 0.22695
# Poissons Ratio (z) = 0.29342 0.30286
#
# Static dielectric constant tensor:
#      x y z
#    x 3.946160 0.000000 0.061730 
#    y 0.000000 3.941360 0.000010 
#    z 0.061730 0.000010 3.789240 
# 
# 
# High freq. dielectric constant tensor:
#      x y z
#    x 1.848370 0.000000 0.004590 
#    y 0.000000 1.839170 0.000000 
#    z 0.004590 0.000000 1.823420 
# 
# From -- ./inp_files/288625.got.cif
#   From: 2010.06.25/outbox.cif.g09.slc.cpg/sg15_145_cif.got.tgz:288625.got - 2010.06.28 07:06:18.
