data_PCOD8153325
_publ_section_title
;
Structure prediction by ZEFSAII (Michael W. Deem and Ramdas Pophale) SiO2 
 PCOD8153325
Probable space group: C 2/C
;
_chemical_formula_sum "Si O2"
_cell_formula_units_Z 32
_cell_length_a 9.793315
_cell_length_b 9.785541
_cell_length_c 22.189156
_cell_angle_alpha 90.000000
_cell_angle_beta 46.515255
_cell_angle_gamma 90.000000
_cell_volume 1542.862614
_symmetry_space_group_name_H-M "C 2/C"
_symmetry_group_IT_number 15
_symmetry_cell_setting 'monoclinic'
loop_
_space_group_symop_operation_xyz
x,y,z
-x,y,1/2-z
-x,-y,-z
x,-y,1/2+z
1/2+x,1/2+y,z
1/2-x,1/2+y,1/2-z
1/2-x,1/2-y,-z
1/2+x,1/2-y,1/2+z
loop_
_atom_site_type_symbol
_atom_site_label
_atom_site_fract_x
_atom_site_fract_y
_atom_site_fract_z
Si Si1 0.815183 0.604525 0.779795
Si Si2 0.355013 0.096490 0.009136
Si Si3 0.956766 0.110830 0.196136
Si Si4 0.655098 0.613688 0.955433
O O1 0.871955 0.734955 0.721153
O O2 0.698083 0.494233 0.779772
O O3 0.711107 0.658973 0.871292
O O4 0.000000 0.529131 0.750000
O O5 0.436077 0.250365 0.987435
O O6 0.145272 0.095647 0.100325
O O7 0.328016 0.059638 0.946055
O O8 0.500000 0.000000 0.000000
O O9 0.000000 0.063321 0.250000
O O10 0.500000 0.500000 0.000000
#
# Coordination Sequence:
#
# PCOD8153325 Si02
#       4
#     8   8   8   8
#     4  11  24  45  67  95 133 177 218 270 330 390
#     4  11  25  44  68  97 134 170 218 275 326 389
#     4  11  24  45  65  97 135 171 219 274 329 388
#     4  11  23  45  67  95 133 173 221 267 325 392
#
# _framework density 20.740666999999998
#
# number of rings (size 3 to 8) (size 9 to 14) (size 15 to 20)
#    0.000    1.000    7.500    0.000    3.500    2.000 
#    4.500    0.000    0.000    0.000    0.000    0.000 
#    0.000    0.000    0.000    0.000    0.000    0.000 
#
# Total GULP energy -198259.710138 kJ/mol
# GULP energy per Si atom -12391.231884 kJ/mol
# Density = 2.069346 g / cm^3
# Si number density = 20.740667 Si / 1000 Ang^3
#
#
#
# Elastic Constant Matrix: (Units=GPa)
#
#
# Indices 1 2 3 4 5 6 
#
# 1 163.5141 113.1332 21.2039 0.0000 -3.9825 0.0000
# 2 113.1332 137.5578 33.4288 0.0000 -17.4220 0.0000
# 3 21.2039 33.4288 70.6791 0.0001 -7.9535 0.0000
# 4 0.0000 0.0000 0.0001 22.3613 0.0000 -3.5839
# 5 -3.9825 -17.4220 -7.9535 0.0000 34.9317 0.0000
# 6 0.0000 0.0000 0.0000 -3.5839 0.0000 52.3887
#
#
#
# Elastic Compliance Matrix: (Units=1/GPa)
#
#
# Indices 1 2 3 4 5 6 
#
# 1 0.014975 -0.013198 0.001232 0.000000 -0.004594 0.000000
# 2 -0.013198 0.020232 -0.004766 0.000000 0.007501 0.000000
# 3 0.001232 -0.004766 0.016196 0.000000 0.001451 0.000000
# 4 0.000000 0.000000 0.000000 0.045216 0.000000 0.003093
# 5 -0.004594 0.007501 0.001451 0.000000 0.032175 0.000000
# 6 0.000000 0.000000 0.000000 0.003093 0.000000 0.019300
#
#
# Mechanical properties :
#
#
# Convention : Reuss Voigt Hill
#
# Bulk Modulus (GPa) = 55.73646 78.58697 67.16172
# Shear Modulus (GPa) = 26.66147 35.53533 31.09840
#
# Velocity S-wave (km/s) = 3.58923 4.14371 3.87640
# Velocity P-wave (km/s) = 6.64140 7.80169 7.24481
#
# Compressibility (1/GPa) = 0.01794158
#
# Stress axis : x y z
#
# Youngs Moduli (GPa) = 66.77683 49.42628 61.74342
#
# Poissons Ratio (x) = 0.65231 -0.07610
# Poissons Ratio (y) = 0.88130 0.29425
# Poissons Ratio (z) = -0.08230 0.23555
#
# Static dielectric constant tensor:
#      x y z
#    x 4.527490 0.000000 -0.433180 
#    y 0.000000 3.717410 0.000000 
#    z -0.433180 0.000000 4.965050 
# 
# 
# High freq. dielectric constant tensor:
#      x y z
#    x 1.821720 0.000000 0.017770 
#    y 0.000000 1.802480 0.000000 
#    z 0.017770 0.000000 1.821130 
# 
# From -- ./inp_files/181638.got.cif
#   From: 2010.06.25/outbox.cif.g09.slc.cpg/sg15_91_cif.got.tgz:181638.got - 2010.06.28 07:06:18.
