data_PCOD8153297
_publ_section_title
;
Structure prediction by ZEFSAII (Michael W. Deem and Ramdas Pophale) SiO2 
 PCOD8153297
Probable space group: C 2/C
;
_chemical_formula_sum "Si O2"
_cell_formula_units_Z 48
_cell_length_a 25.439165
_cell_length_b 11.838366
_cell_length_c 19.680459
_cell_angle_alpha 90.000000
_cell_angle_beta 158.226949
_cell_angle_gamma 90.000000
_cell_volume 2198.482762
_symmetry_space_group_name_H-M "C 2/C"
_symmetry_group_IT_number 15
_symmetry_cell_setting 'monoclinic'
loop_
_space_group_symop_operation_xyz
x,y,z
-x,y,1/2-z
-x,-y,-z
x,-y,1/2+z
1/2+x,1/2+y,z
1/2-x,1/2+y,1/2-z
1/2-x,1/2-y,-z
1/2+x,1/2-y,1/2+z
loop_
_atom_site_type_symbol
_atom_site_label
_atom_site_fract_x
_atom_site_fract_y
_atom_site_fract_z
Si Si1 0.988314 0.260533 0.435639
Si Si2 0.797879 0.322314 0.333750
Si Si3 0.307975 0.933676 0.578403
Si Si4 0.143307 0.765558 0.458479
Si Si5 0.284109 0.649069 0.092640
Si Si6 0.086922 0.540549 0.966639
O O1 0.130805 0.203770 0.634200
O O2 0.014707 0.382822 0.436356
O O3 0.870117 0.282928 0.350958
O O4 0.927461 0.176704 0.304940
O O5 0.875819 0.246322 0.484221
O O6 0.812874 0.454584 0.370970
O O7 0.257255 0.864406 0.583078
O O8 0.300731 0.853934 0.503402
O O9 0.201410 0.037843 0.436704
O O10 0.468653 0.970836 0.783944
O O11 0.000000 0.803605 0.250000
O O12 0.163421 0.621534 0.003781
O O13 0.250000 0.750000 0.000000
#
# Coordination Sequence:
#
# PCOD8153297 Si02
#       6
#     8   8   8   8   8   8
#     4  12  28  48  72 110 145 194 243 299 369 437
#     4  12  26  47  75 106 149 191 239 300 369 437
#     4  11  23  45  75 106 141 193 241 302 362 420
#     4  11  23  44  73 108 144 186 248 296 356 433
#     4  12  25  47  77 104 142 190 248 297 352 436
#     4  12  24  50  73 104 149 195 238 302 368 431
#
# _framework density 21.83324
#
# number of rings (size 3 to 8) (size 9 to 14) (size 15 to 20)
#    0.000    0.333    6.667    2.000    2.333    0.667 
#    9.000    0.000    0.000    0.000    0.000    0.000 
#    0.000    0.000    0.000    0.000    0.000    0.000 
#
# Total GULP energy -297605.580070 kJ/mol
# GULP energy per Si atom -12400.232503 kJ/mol
# Density = 2.178355 g / cm^3
# Si number density = 21.833240 Si / 1000 Ang^3
#
#
#
# Elastic Constant Matrix: (Units=GPa)
#
#
# Indices 1 2 3 4 5 6 
#
# 1 96.9809 47.7108 24.2846 0.0000 -2.9837 0.0000
# 2 47.7108 134.3796 47.7644 0.0000 -3.5142 0.0000
# 3 24.2846 47.7644 118.7908 0.0000 -8.7447 0.0000
# 4 0.0000 0.0000 0.0000 30.8509 0.0000 11.0267
# 5 -2.9837 -3.5142 -8.7447 0.0000 32.6160 0.0000
# 6 0.0000 0.0000 0.0000 11.0267 0.0000 30.3971
#
#
#
# Elastic Compliance Matrix: (Units=1/GPa)
#
#
# Indices 1 2 3 4 5 6 
#
# 1 0.012583 -0.004146 -0.000871 0.000000 0.000471 0.000000
# 2 -0.004146 0.010048 -0.003204 0.000000 -0.000156 0.000000
# 3 -0.000871 -0.003204 0.010052 0.000000 0.002270 0.000000
# 4 0.000000 0.000000 0.000000 0.037243 0.000000 -0.013510
# 5 0.000471 -0.000156 0.002270 0.000000 0.031295 0.000000
# 6 0.000000 0.000000 0.000000 -0.013510 0.000000 0.037799
#
#
# Mechanical properties :
#
#
# Convention : Reuss Voigt Hill
#
# Bulk Modulus (GPa) = 61.56978 65.51900 63.54439
# Shear Modulus (GPa) = 31.07995 34.13222 32.60608
#
# Velocity S-wave (km/s) = 3.77704 3.95817 3.86867
# Velocity P-wave (km/s) = 6.87624 7.13887 7.00878
#
# Compressibility (1/GPa) = 0.01624173
#
# Stress axis : x y z
#
# Youngs Moduli (GPa) = 79.46950 99.51796 99.48575
#
# Poissons Ratio (x) = 0.41259 0.08663
# Poissons Ratio (y) = 0.32947 0.31878
# Poissons Ratio (z) = 0.06920 0.31888
#
# Static dielectric constant tensor:
#      x y z
#    x 4.098730 0.000000 -0.091590 
#    y 0.000000 4.194830 0.000000 
#    z -0.091590 0.000000 3.911160 
# 
# 
# High freq. dielectric constant tensor:
#      x y z
#    x 1.867140 0.000000 -0.008730 
#    y 0.000000 1.867680 0.000000 
#    z -0.008730 0.000000 1.855490 
# 
# From -- ./inp_files/257659.got.cif
#   From: 2010.06.25/outbox.cif.g09.slc.cpg/sg15_129_cif.got.tgz:257659.got - 2010.06.28 07:06:18.
