data_PCOD8153091
_publ_section_title
;
Structure prediction by ZEFSAII (Michael W. Deem and Ramdas Pophale) SiO2 
 PCOD8153091
Probable space group: C 2/C
;
_chemical_formula_sum "Si O2"
_cell_formula_units_Z 40
_cell_length_a 5.093965
_cell_length_b 17.922944
_cell_length_c 22.684431
_cell_angle_alpha 90.000000
_cell_angle_beta 56.394463
_cell_angle_gamma 90.000000
_cell_volume 1724.921139
_symmetry_space_group_name_H-M "C 2/C"
_symmetry_group_IT_number 15
_symmetry_cell_setting 'monoclinic'
loop_
_space_group_symop_operation_xyz
x,y,z
-x,y,1/2-z
-x,-y,-z
x,-y,1/2+z
1/2+x,1/2+y,z
1/2-x,1/2+y,1/2-z
1/2-x,1/2-y,-z
1/2+x,1/2-y,1/2+z
loop_
_atom_site_type_symbol
_atom_site_label
_atom_site_fract_x
_atom_site_fract_y
_atom_site_fract_z
Si Si1 0.146497 0.484198 0.066345
Si Si2 0.060892 0.238788 0.381221
Si Si3 0.015320 0.647971 0.092547
Si Si4 0.804590 0.644544 0.553119
Si Si5 0.621568 0.134202 0.671869
O O1 0.974297 0.559970 0.108125
O O2 0.126582 0.435052 0.127292
O O3 0.948829 0.439231 0.040739
O O4 0.500000 0.500000 0.000000
O O5 0.809842 0.177495 0.393496
O O6 0.101799 0.296668 0.321302
O O7 0.369499 0.191032 0.363056
O O8 0.958568 0.293126 0.448753
O O9 0.265014 0.658654 0.007396
O O10 0.485622 0.660031 0.629743
O O11 0.500000 0.106558 0.750000
#
# Coordination Sequence:
#
# PCOD8153091 Si02
#       5
#     8   8   8   8   8
#     4  11  24  42  70 108 141 182 236 298 355 422
#     4  11  25  41  69 103 139 177 227 287 351 416
#     4  12  23  40  71 110 138 167 228 303 354 393
#     4  11  23  42  72 100 144 182 232 284 354 430
#     4  11  26  48  70  97 141 197 237 280 355 442
#
# _framework density 23.189467
#
# number of rings (size 3 to 8) (size 9 to 14) (size 15 to 20)
#    0.000    0.800    4.000    3.000    5.600    3.200 
#    0.000    2.000    0.000    0.000    0.000    0.000 
#    0.000    0.000    0.000    0.000    0.000    0.000 
#
# Total GULP energy -247783.358636 kJ/mol
# GULP energy per Si atom -12389.167932 kJ/mol
# Density = 2.313669 g / cm^3
# Si number density = 23.189467 Si / 1000 Ang^3
#
#
#
# Elastic Constant Matrix: (Units=GPa)
#
#
# Indices 1 2 3 4 5 6 
#
# 1 106.1385 27.2035 2.6542 0.0000 15.3930 0.0000
# 2 27.2035 143.9783 -10.2055 0.0000 23.6727 0.0000
# 3 2.6542 -10.2055 87.8931 0.0000 14.6338 0.0000
# 4 0.0000 0.0000 0.0000 17.8403 0.0000 4.8197
# 5 15.3930 23.6727 14.6338 0.0000 19.2899 0.0000
# 6 0.0000 0.0000 0.0000 4.8197 0.0000 35.2157
#
#
#
# Elastic Compliance Matrix: (Units=1/GPa)
#
#
# Indices 1 2 3 4 5 6 
#
# 1 0.010804 -0.000517 0.001080 0.000000 -0.008807 0.000000
# 2 -0.000517 0.009585 0.003455 0.000000 -0.013971 0.000000
# 3 0.001080 0.003455 0.014416 0.000000 -0.016038 0.000000
# 4 0.000000 0.000000 0.000000 0.058205 0.000000 -0.007966
# 5 -0.008807 -0.013971 -0.016038 0.000000 0.088181 0.000000
# 6 0.000000 0.000000 0.000000 -0.007966 0.000000 0.029487
#
#
# Mechanical properties :
#
#
# Convention : Reuss Voigt Hill
#
# Bulk Modulus (GPa) = 23.34182 41.92380 32.63281
# Shear Modulus (GPa) = 23.04966 35.69304 29.37135
#
# Velocity S-wave (km/s) = 3.15615 3.92751 3.56277
# Velocity P-wave (km/s) = 4.83418 6.21974 5.57021
#
# Compressibility (1/GPa) = 0.04284157
#
# Stress axis : x y z
#
# Youngs Moduli (GPa) = 92.55547 104.32751 69.36622
#
# Poissons Ratio (x) = 0.05392 -0.07491
# Poissons Ratio (y) = 0.04784 -0.23964
# Poissons Ratio (z) = -0.09996 -0.36043
#
# Static dielectric constant tensor:
#      x y z
#    x 4.348940 0.000000 0.237010 
#    y 0.000000 4.615280 0.000000 
#    z 0.237010 0.000000 3.755870 
# 
# 
# High freq. dielectric constant tensor:
#      x y z
#    x 1.931220 0.000000 0.028490 
#    y 0.000000 1.945770 0.000000 
#    z 0.028490 0.000000 1.856330 
# 
# From -- ./inp_files/260599.got.cif
#   From: 2010.06.25/outbox.cif.g09.slc.cpg/sg15_131_cif.got.tgz:260599.got - 2010.06.28 07:06:18.
