data_PCOD8153521
_publ_section_title
;
Structure prediction by ZEFSAII (Michael W. Deem and Ramdas Pophale) SiO2 
 PCOD8153521
Probable space group: C 2/C
;
_chemical_formula_sum "Si O2"
_cell_formula_units_Z 56
_cell_length_a 19.393833
_cell_length_b 19.060176
_cell_length_c 9.054102
_cell_angle_alpha 90.000000
_cell_angle_beta 50.857979
_cell_angle_gamma 90.000000
_cell_volume 2595.760327
_symmetry_space_group_name_H-M "C 2/C"
_symmetry_group_IT_number 15
_symmetry_cell_setting 'monoclinic'
loop_
_space_group_symop_operation_xyz
x,y,z
-x,y,1/2-z
-x,-y,-z
x,-y,1/2+z
1/2+x,1/2+y,z
1/2-x,1/2+y,1/2-z
1/2-x,1/2-y,-z
1/2+x,1/2-y,1/2+z
loop_
_atom_site_type_symbol
_atom_site_label
_atom_site_fract_x
_atom_site_fract_y
_atom_site_fract_z
Si Si1 0.254194 0.468744 0.528659
Si Si2 0.360758 0.656250 0.009618
Si Si3 0.548620 0.057502 0.338833
Si Si4 0.206583 0.278386 0.208271
Si Si5 0.490895 0.186129 0.596111
Si Si6 0.539219 0.334486 0.424446
Si Si7 0.812623 0.912483 0.144972
O O1 0.299584 0.411355 0.572447
O O2 0.149158 0.467754 0.688888
O O3 0.274306 0.458418 0.330167
O O4 0.295256 0.544333 0.518807
O O5 0.300557 0.716723 0.162037
O O6 0.399590 0.681494 0.800602
O O7 0.442129 0.637709 0.009445
O O8 0.500000 0.063918 0.250000
O O9 0.545051 0.133483 0.419137
O O10 0.500000 0.000000 0.500000
O O11 0.266867 0.336967 0.201153
O O12 0.111894 0.313704 0.308108
O O13 0.250000 0.250000 0.000000
O O14 0.500000 0.158984 0.750000
O O15 0.533137 0.263061 0.525157
O O16 0.583151 0.395144 0.467261
#
# Coordination Sequence:
#
# PCOD8153521 Si02
#       7
#     8   8   8   8   8   8   8
#     4  11  25  42  68  96 134 179 224 275 335 397
#     4   9  22  41  69  99 127 176 222 284 331 401
#     4  12  26  43  66  95 136 178 222 273 333 404
#     4  11  24  40  68  99 136 171 227 278 335 398
#     4  11  24  40  66  98 133 175 217 283 334 396
#     4   9  21  43  67  96 133 169 229 271 341 394
#     4  11  25  43  67  98 135 177 226 273 337 402
#
# _framework density 21.573640999999999
#
# number of rings (size 3 to 8) (size 9 to 14) (size 15 to 20)
#    0.000    1.429    0.000    3.857   12.000    1.714 
#    0.000    0.000    0.000    0.000    0.000    0.000 
#    0.000    0.000    0.000    0.000    0.000    0.000 
#
# Total GULP energy -347335.485545 kJ/mol
# GULP energy per Si atom -12404.838769 kJ/mol
# Density = 2.152454 g / cm^3
# Si number density = 21.573641 Si / 1000 Ang^3
#
#
#
# Elastic Constant Matrix: (Units=GPa)
#
#
# Indices 1 2 3 4 5 6 
#
# 1 108.6830 48.2635 32.8388 0.0000 3.4825 0.0000
# 2 48.2635 84.6256 32.1855 0.0000 -0.2259 0.0000
# 3 32.8388 32.1855 76.8427 0.0000 6.4218 0.0000
# 4 0.0000 0.0000 0.0000 39.3107 0.0000 6.0701
# 5 3.4825 -0.2259 6.4218 0.0000 30.9825 0.0000
# 6 0.0000 0.0000 0.0000 6.0701 0.0000 44.7739
#
#
#
# Elastic Compliance Matrix: (Units=1/GPa)
#
#
# Indices 1 2 3 4 5 6 
#
# 1 0.012860 -0.006275 -0.002791 0.000000 -0.000913 0.000000
# 2 -0.006275 0.017173 -0.004661 0.000000 0.001797 0.000000
# 3 -0.002791 -0.004661 0.016420 0.000000 -0.003124 0.000000
# 4 0.000000 0.000000 0.000000 0.025982 0.000000 -0.003522
# 5 -0.000913 0.001797 -0.003124 0.000000 0.033039 0.000000
# 6 0.000000 0.000000 0.000000 -0.003522 0.000000 0.022812
#
#
# Mechanical properties :
#
#
# Convention : Reuss Voigt Hill
#
# Bulk Modulus (GPa) = 52.63797 55.19187 53.91492
# Shear Modulus (GPa) = 30.84972 33.47098 32.16035
#
# Velocity S-wave (km/s) = 3.78560 3.94315 3.86518
# Velocity P-wave (km/s) = 6.59999 6.80954 6.70558
#
# Compressibility (1/GPa) = 0.01899769
#
# Stress axis : x y z
#
# Youngs Moduli (GPa) = 77.75777 58.22958 60.90176
#
# Poissons Ratio (x) = 0.36541 0.16999
# Poissons Ratio (y) = 0.48796 0.28389
# Poissons Ratio (z) = 0.21704 0.27143
#
# Static dielectric constant tensor:
#      x y z
#    x 4.155210 0.000000 -0.074530 
#    y 0.000000 3.774470 0.000000 
#    z -0.074530 0.000000 3.978420 
# 
# 
# High freq. dielectric constant tensor:
#      x y z
#    x 1.867590 0.000000 0.000570 
#    y 0.000000 1.846530 0.000000 
#    z 0.000570 0.000000 1.847640 
# 
# From -- ./inp_files/57802.got.cif
#   From: 2010.06.25/outbox.cif.g09.slc.cpg/sg15_29_cif.got.tgz:57802.got - 2010.06.28 07:06:18.
