data_PCOD8153943
_publ_section_title
;
Structure prediction by ZEFSAII (Michael W. Deem and Ramdas Pophale) SiO2 
 PCOD8153943
Probable space group: C 2/C
;
_chemical_formula_sum "Si O2"
_cell_formula_units_Z 32
_cell_length_a 24.908403
_cell_length_b 5.953876
_cell_length_c 9.410479
_cell_angle_alpha 90.000000
_cell_angle_beta 67.158468
_cell_angle_gamma 90.000000
_cell_volume 1286.149306
_symmetry_space_group_name_H-M "C 2/C"
_symmetry_group_IT_number 15
_symmetry_cell_setting 'monoclinic'
loop_
_space_group_symop_operation_xyz
x,y,z
-x,y,1/2-z
-x,-y,-z
x,-y,1/2+z
1/2+x,1/2+y,z
1/2-x,1/2+y,1/2-z
1/2-x,1/2-y,-z
1/2+x,1/2-y,1/2+z
loop_
_atom_site_type_symbol
_atom_site_label
_atom_site_fract_x
_atom_site_fract_y
_atom_site_fract_z
Si Si1 0.813772 0.786727 0.876447
Si Si2 0.140295 0.100437 0.448611
Si Si3 0.078098 0.518442 0.158618
Si Si4 0.955085 0.205134 0.541143
O O1 0.809425 0.814176 0.710330
O O2 0.860261 0.588638 0.856774
O O3 0.750000 0.750000 0.000000
O O4 0.833984 0.017100 0.929731
O O5 0.092545 0.290645 0.528551
O O6 0.109212 0.901367 0.392410
O O7 0.037622 0.339362 0.115547
O O8 0.041165 0.625486 0.327633
O O9 0.000000 0.000000 0.500000
#
# Coordination Sequence:
#
# PCOD8153943 Si02
#       4
#     8   8   8   8
#     4  11  26  43  75 110 148 199 243 307 383 451
#     4  11  24  47  69 108 152 187 253 306 361 465
#     4  11  24  50  73 107 154 192 252 313 375 455
#     4  11  26  50  77 106 147 199 252 314 381 446
#
# _framework density 24.880469999999999
#
# number of rings (size 3 to 8) (size 9 to 14) (size 15 to 20)
#    0.000    1.000    5.000    0.000    3.500    3.000 
#    4.500    1.250    0.000    0.000    0.000    0.000 
#    0.000    0.000    0.000    0.000    0.000    0.000 
#
# Total GULP energy -198340.144718 kJ/mol
# GULP energy per Si atom -12396.259045 kJ/mol
# Density = 2.482384 g / cm^3
# Si number density = 24.880470 Si / 1000 Ang^3
#
#
#
# Elastic Constant Matrix: (Units=GPa)
#
#
# Indices 1 2 3 4 5 6 
#
# 1 79.6224 53.9099 55.5742 0.0000 -11.3172 0.0000
# 2 53.9099 130.7639 58.6781 0.0000 0.3499 0.0000
# 3 55.5742 58.6781 182.3943 0.0000 -9.5562 0.0000
# 4 0.0000 0.0000 0.0000 52.3083 0.0000 0.3584
# 5 -11.3172 0.3499 -9.5562 0.0000 38.5735 0.0000
# 6 0.0000 0.0000 0.0000 0.3584 0.0000 25.0115
#
#
#
# Elastic Compliance Matrix: (Units=1/GPa)
#
#
# Indices 1 2 3 4 5 6 
#
# 1 0.020532 -0.006769 -0.003809 0.000000 0.005142 0.000000
# 2 -0.006769 0.011194 -0.001670 0.000000 -0.002501 0.000000
# 3 -0.003809 -0.001670 0.007216 0.000000 0.000685 0.000000
# 4 0.000000 0.000000 0.000000 0.019119 0.000000 -0.000274
# 5 0.005142 -0.002501 0.000685 0.000000 0.027626 0.000000
# 6 0.000000 0.000000 0.000000 -0.000274 0.000000 0.039986
#
#
# Mechanical properties :
#
#
# Convention : Reuss Voigt Hill
#
# Bulk Modulus (GPa) = 69.22074 81.01168 75.11621
# Shear Modulus (GPa) = 32.26149 38.15323 35.20736
#
# Velocity S-wave (km/s) = 3.60482 3.92019 3.76581
# Velocity P-wave (km/s) = 6.72369 7.28845 7.01176
#
# Compressibility (1/GPa) = 0.01444654
#
# Stress axis : x y z
#
# Youngs Moduli (GPa) = 48.70506 89.33282 138.57687
#
# Poissons Ratio (x) = 0.60472 0.52780
# Poissons Ratio (y) = 0.32970 0.23139
# Poissons Ratio (z) = 0.18550 0.14916
#
# Static dielectric constant tensor:
#      x y z
#    x 4.316310 0.000000 0.199400 
#    y 0.000000 5.175710 0.000000 
#    z 0.199400 0.000000 4.593890 
# 
# 
# High freq. dielectric constant tensor:
#      x y z
#    x 1.977780 0.000000 0.001050 
#    y 0.000000 2.004340 0.000000 
#    z 0.001050 0.000000 2.008410 
# 
# From -- ./inp_files/67959.got.cif
#   From: 2010.06.25/outbox.cif.g09.slc.cpg/sg15_34_cif.got.tgz:67959.got - 2010.06.28 07:06:18.
