data_PCOD8153546
_publ_section_title
;
Structure prediction by ZEFSAII (Michael W. Deem and Ramdas Pophale) SiO2 
 PCOD8153546
Probable space group: C 2/C
;
_chemical_formula_sum "Si O2"
_cell_formula_units_Z 56
_cell_length_a 11.819933
_cell_length_b 25.859823
_cell_length_c 9.110272
_cell_angle_alpha 90.000000
_cell_angle_beta 116.686008
_cell_angle_gamma 90.000000
_cell_volume 2488.039500
_symmetry_space_group_name_H-M "C 2/C"
_symmetry_group_IT_number 15
_symmetry_cell_setting 'monoclinic'
loop_
_space_group_symop_operation_xyz
x,y,z
-x,y,1/2-z
-x,-y,-z
x,-y,1/2+z
1/2+x,1/2+y,z
1/2-x,1/2+y,1/2-z
1/2-x,1/2-y,-z
1/2+x,1/2-y,1/2+z
loop_
_atom_site_type_symbol
_atom_site_label
_atom_site_fract_x
_atom_site_fract_y
_atom_site_fract_z
Si Si1 0.119677 0.348295 0.218614
Si Si2 0.192905 0.057211 0.702241
Si Si3 0.487108 0.632945 0.588660
Si Si4 0.349185 0.460394 0.644839
Si Si5 0.283179 0.646074 0.245788
Si Si6 0.347484 0.698823 0.003488
Si Si7 0.537428 0.794143 0.608219
O O1 0.199697 0.398704 0.217510
O O2 0.202792 0.307674 0.363307
O O3 0.000000 0.364144 0.250000
O O4 0.081043 0.319391 0.045473
O O5 0.050142 0.077258 0.659561
O O6 0.191973 0.032102 0.543983
O O7 0.219369 0.009240 0.822706
O O8 0.500000 0.665029 0.750000
O O9 0.346294 0.637307 0.443149
O O10 0.575104 0.650447 0.507576
O O11 0.500000 0.457333 0.750000
O O12 0.285217 0.407656 0.662457
O O13 0.139968 0.661302 0.195218
O O14 0.347829 0.692139 0.182295
O O15 0.408100 0.750028 0.969337
O O16 0.500000 0.773044 0.750000
#
# Coordination Sequence:
#
# PCOD8153546 Si02
#       7
#     8   8   8   8   8   8   8
#     4  11  24  48  70 101 150 190 243 291 351 438
#     4  11  25  41  70 102 146 182 236 302 362 415
#     4  11  24  41  68 107 143 176 230 303 361 408
#     4  12  22  43  67 110 139 185 243 299 358 426
#     4  12  24  46  72 103 147 189 242 291 358 433
#     4  11  24  47  72 101 140 193 238 294 351 433
#     4  12  29  45  71 110 146 190 240 294 360 428
#
# _framework density 22.507680000000001
#
# number of rings (size 3 to 8) (size 9 to 14) (size 15 to 20)
#    0.000    0.571    5.714    2.143    8.000    0.571 
#    0.000    3.571    0.000    0.000    0.000    0.000 
#    0.000    0.000    0.000    0.000    0.000    0.000 
#
# Total GULP energy -346913.635990 kJ/mol
# GULP energy per Si atom -12389.772714 kJ/mol
# Density = 2.245645 g / cm^3
# Si number density = 22.507680 Si / 1000 Ang^3
#
#
#
# Elastic Constant Matrix: (Units=GPa)
#
#
# Indices 1 2 3 4 5 6 
#
# 1 69.6653 48.6207 37.1194 0.0000 1.6362 0.0000
# 2 48.6207 120.1648 40.2785 0.0000 -4.3273 0.0000
# 3 37.1194 40.2785 133.4218 0.0000 -3.6539 0.0000
# 4 0.0000 0.0000 0.0000 39.2083 0.0000 12.7577
# 5 1.6362 -4.3273 -3.6539 0.0000 32.5395 0.0000
# 6 0.0000 0.0000 0.0000 12.7577 0.0000 33.0836
#
#
#
# Elastic Compliance Matrix: (Units=1/GPa)
#
#
# Indices 1 2 3 4 5 6 
#
# 1 0.021769 -0.007617 -0.003826 0.000000 -0.002537 0.000000
# 2 -0.007617 0.011951 -0.001439 0.000000 0.001811 0.000000
# 3 -0.003826 -0.001439 0.009022 0.000000 0.001014 0.000000
# 4 0.000000 0.000000 0.000000 0.029164 0.000000 -0.011246
# 5 -0.002537 0.001811 0.001014 0.000000 0.031214 0.000000
# 6 0.000000 0.000000 0.000000 -0.011246 0.000000 0.034563
#
#
# Mechanical properties :
#
#
# Convention : Reuss Voigt Hill
#
# Bulk Modulus (GPa) = 58.90318 63.92101 61.41209
# Shear Modulus (GPa) = 29.56704 34.11516 31.84110
#
# Velocity S-wave (km/s) = 3.62835 3.89744 3.76530
# Velocity P-wave (km/s) = 6.61667 6.97959 6.80055
#
# Compressibility (1/GPa) = 0.01697701
#
# Stress axis : x y z
#
# Youngs Moduli (GPa) = 45.93782 83.67194 110.84209
#
# Poissons Ratio (x) = 0.63731 0.42412
# Poissons Ratio (y) = 0.34990 0.15954
# Poissons Ratio (z) = 0.17577 0.12043
#
# Static dielectric constant tensor:
#      x y z
#    x 3.718630 0.000000 -0.028240 
#    y 0.000000 4.111050 0.000000 
#    z -0.028240 0.000000 4.469030 
# 
# 
# High freq. dielectric constant tensor:
#      x y z
#    x 1.883340 0.000000 -0.014590 
#    y 0.000000 1.883690 0.000000 
#    z -0.014590 0.000000 1.899980 
# 
# From -- ./inp_files/35794.got.cif
#   From: 2010.06.25/outbox.cif.g09.slc.cpg/sg15_18_cif.got.tgz:35794.got - 2010.06.28 07:06:18.
