data_PCOD8153927
_publ_section_title
;
Structure prediction by ZEFSAII (Michael W. Deem and Ramdas Pophale) SiO2 
 PCOD8153927
Probable space group: C 2/C
;
_chemical_formula_sum "Si O2"
_cell_formula_units_Z 40
_cell_length_a 5.244185
_cell_length_b 25.266762
_cell_length_c 12.116677
_cell_angle_alpha 90.000000
_cell_angle_beta 77.190854
_cell_angle_gamma 90.000000
_cell_volume 1565.548425
_symmetry_space_group_name_H-M "C 2/C"
_symmetry_group_IT_number 15
_symmetry_cell_setting 'monoclinic'
loop_
_space_group_symop_operation_xyz
x,y,z
-x,y,1/2-z
-x,-y,-z
x,-y,1/2+z
1/2+x,1/2+y,z
1/2-x,1/2+y,1/2-z
1/2-x,1/2-y,-z
1/2+x,1/2-y,1/2+z
loop_
_atom_site_type_symbol
_atom_site_label
_atom_site_fract_x
_atom_site_fract_y
_atom_site_fract_z
Si Si1 0.713162 0.434143 0.141460
Si Si2 0.816719 0.339810 0.594249
Si Si3 0.000000 0.262721 0.750000
Si Si4 0.604206 0.815116 0.358516
Si Si5 0.181822 0.089451 0.405853
Si Si6 0.500000 0.011311 0.250000
O O1 0.500000 0.451331 0.250000
O O2 0.793505 0.374371 0.156135
O O3 0.947494 0.475187 0.146173
O O4 0.603214 0.440088 0.027562
O O5 0.802377 0.298833 0.696758
O O6 0.543038 0.370671 0.612025
O O7 0.881008 0.309298 0.473367
O O8 0.050415 0.380165 0.594408
O O9 0.840299 0.226690 0.853726
O O10 0.500000 0.798719 0.250000
O O11 0.246335 0.047354 0.303921
#
# Coordination Sequence:
#
# PCOD8153927 Si02
#       6
#     8   8   4   8   8   4
#     4  11  24  46  76 111 158 204 261 321 384 462
#     4  11  28  50  76 112 157 207 257 320 389 461
#     4  12  27  46  80 114 152 210 263 318 388 462
#     4  11  24  46  76 111 158 204 261 321 384 462
#     4  11  28  50  76 112 157 207 257 320 389 461
#     4  12  27  46  80 114 152 210 263 318 388 462
#
# _framework density 25.550152000000001
#
# number of rings (size 3 to 8) (size 9 to 14) (size 15 to 20)
#    0.000    0.800    2.000    3.000   11.200    3.200 
#    0.000    0.000    0.000    0.000    0.000    0.000 
#    0.000    0.000    0.000    0.000    0.000    0.000 
#
# Total GULP energy -247969.741442 kJ/mol
# GULP energy per Si atom -12398.487072 kJ/mol
# Density = 2.549200 g / cm^3
# Si number density = 25.550152 Si / 1000 Ang^3
#
#
#
# Elastic Constant Matrix: (Units=GPa)
#
#
# Indices 1 2 3 4 5 6 
#
# 1 95.6804 52.3714 40.5633 0.0000 11.8240 0.0000
# 2 52.3714 130.6875 76.0726 0.0000 3.2840 0.0000
# 3 40.5633 76.0726 146.5397 0.0000 -0.3646 0.0000
# 4 0.0000 0.0000 0.0000 2.0307 0.0000 3.4688
# 5 11.8240 3.2840 -0.3646 0.0000 35.5523 0.0000
# 6 0.0000 0.0000 0.0000 3.4688 0.0000 45.4001
#
#
#
# Elastic Compliance Matrix: (Units=1/GPa)
#
#
# Indices 1 2 3 4 5 6 
#
# 1 0.014195 -0.004710 -0.001495 0.000000 -0.004301 0.000000
# 2 -0.004710 0.012569 -0.005220 0.000000 0.000352 0.000000
# 3 -0.001495 -0.005220 0.009951 0.000000 0.001081 0.000000
# 4 0.000000 0.000000 0.000000 0.566351 0.000000 -0.043272
# 5 -0.004301 0.000352 0.001081 0.000000 0.029537 0.000000
# 6 0.000000 0.000000 0.000000 -0.043272 0.000000 0.025333
#
#
# Mechanical properties :
#
#
# Convention : Reuss Voigt Hill
#
# Bulk Modulus (GPa) = 72.12892 78.99134 75.56013
# Shear Modulus (GPa) = 7.29494 30.18998 18.74246
#
# Velocity S-wave (km/s) = 1.69155 3.44117 2.71136
# Velocity P-wave (km/s) = 5.66628 6.83902 6.28008
#
# Compressibility (1/GPa) = 0.01386406
#
# Stress axis : x y z
#
# Youngs Moduli (GPa) = 70.44798 79.55885 100.49689
#
# Poissons Ratio (x) = 0.37474 0.15022
# Poissons Ratio (y) = 0.33183 0.52463
# Poissons Ratio (z) = 0.10530 0.41533
#
# Static dielectric constant tensor:
#      x y z
#    x 4.633980 0.000000 -0.059320 
#    y 0.000000 4.651690 0.000000 
#    z -0.059320 0.000000 5.193380 
# 
# 
# High freq. dielectric constant tensor:
#      x y z
#    x 2.011590 0.000000 -0.002750 
#    y 0.000000 2.034280 0.000000 
#    z -0.002750 0.000000 2.029250 
# 
# From -- ./inp_files/129137.got.cif
#   From: 2010.06.25/outbox.cif.g09.slc.cpg/sg15_65_cif.got.tgz:129137.got - 2010.06.28 07:06:18.
