data_PCOD8153537
_publ_section_title
;
Structure prediction by ZEFSAII (Michael W. Deem and Ramdas Pophale) SiO2 
 PCOD8153537
Probable space group: C 2/C
;
_chemical_formula_sum "Si O2"
_cell_formula_units_Z 36
_cell_length_a 24.161348
_cell_length_b 5.397205
_cell_length_c 12.700916
_cell_angle_alpha 90.000000
_cell_angle_beta 99.241830
_cell_angle_gamma 90.000000
_cell_volume 1634.747769
_symmetry_space_group_name_H-M "C 2/C"
_symmetry_group_IT_number 15
_symmetry_cell_setting 'monoclinic'
loop_
_space_group_symop_operation_xyz
x,y,z
-x,y,1/2-z
-x,-y,-z
x,-y,1/2+z
1/2+x,1/2+y,z
1/2-x,1/2+y,1/2-z
1/2-x,1/2-y,-z
1/2+x,1/2-y,1/2+z
loop_
_atom_site_type_symbol
_atom_site_label
_atom_site_fract_x
_atom_site_fract_y
_atom_site_fract_z
Si Si1 0.393285 0.273050 0.684086
Si Si2 0.812049 0.302239 0.980978
Si Si3 0.542688 0.647531 0.941366
Si Si4 0.500000 0.037340 0.250000
Si Si5 0.646385 0.287055 0.602578
O O1 0.352068 0.129847 0.591865
O O2 0.421163 0.502740 0.634106
O O3 0.357060 0.346332 0.774620
O O4 0.442934 0.109381 0.744507
O O5 0.750000 0.250000 0.000000
O O6 0.813922 0.545796 0.905860
O O7 0.831296 0.046204 0.934825
O O8 0.502462 0.822755 0.861910
O O9 0.500000 0.500000 0.000000
O O10 0.586184 0.782656 0.032524
#
# Coordination Sequence:
#
# PCOD8153537 Si02
#       5
#     8   8   8   4   8
#     4  11  26  41  66 104 134 183 233 278 351 417
#     4  11  26  48  71 100 136 179 235 295 349 411
#     4  11  24  41  64 102 145 185 228 281 343 419
#     4  12  22  40  68  94 146 178 236 272 350 414
#     4  11  25  44  71 100 138 179 231 287 346 411
#
# _framework density 22.021747999999999
#
# number of rings (size 3 to 8) (size 9 to 14) (size 15 to 20)
#    0.000    0.889    2.222    4.000    9.333    3.556 
#    0.000    0.000    0.000    0.000    0.000    0.000 
#    0.000    0.000    0.000    0.000    0.000    0.000 
#
# Total GULP energy -223096.689518 kJ/mol
# GULP energy per Si atom -12394.260529 kJ/mol
# Density = 2.197163 g / cm^3
# Si number density = 22.021748 Si / 1000 Ang^3
#
#
#
# Elastic Constant Matrix: (Units=GPa)
#
#
# Indices 1 2 3 4 5 6 
#
# 1 102.8085 30.5320 33.6271 0.0000 -20.7143 0.0000
# 2 30.5320 114.9516 39.2812 0.0000 -17.0425 0.0000
# 3 33.6271 39.2812 121.9779 0.0000 -30.9483 0.0000
# 4 0.0000 0.0000 0.0000 31.0836 0.0000 -3.5455
# 5 -20.7143 -17.0425 -30.9483 0.0000 29.6996 0.0000
# 6 0.0000 0.0000 0.0000 -3.5455 0.0000 34.5046
#
#
#
# Elastic Compliance Matrix: (Units=1/GPa)
#
#
# Indices 1 2 3 4 5 6 
#
# 1 0.011868 -0.001870 -0.001144 0.000000 0.006012 0.000000
# 2 -0.001870 0.010294 -0.002218 0.000000 0.002291 0.000000
# 3 -0.001144 -0.002218 0.011830 0.000000 0.010257 0.000000
# 4 0.000000 0.000000 0.000000 0.032553 0.000000 0.003345
# 5 0.006012 0.002291 0.010257 0.000000 0.049867 0.000000
# 6 0.000000 0.000000 0.000000 0.003345 0.000000 0.029325
#
#
# Mechanical properties :
#
#
# Convention : Reuss Voigt Hill
#
# Bulk Modulus (GPa) = 42.50358 60.73540 51.61949
# Shear Modulus (GPa) = 30.47980 34.81074 32.64527
#
# Velocity S-wave (km/s) = 3.72435 3.98017 3.85439
# Velocity P-wave (km/s) = 6.15118 6.98298 6.58024
#
# Compressibility (1/GPa) = 0.02352743
#
# Stress axis : x y z
#
# Youngs Moduli (GPa) = 84.26238 97.14758 84.52860
#
# Poissons Ratio (x) = 0.18165 0.09672
# Poissons Ratio (y) = 0.15756 0.18749
# Poissons Ratio (z) = 0.09641 0.21548
#
# Static dielectric constant tensor:
#      x y z
#    x 4.049160 0.000000 0.099090 
#    y 0.000000 4.025170 0.000000 
#    z 0.099090 0.000000 3.899410 
# 
# 
# High freq. dielectric constant tensor:
#      x y z
#    x 1.868430 0.000000 -0.003200 
#    y 0.000000 1.862030 0.000000 
#    z -0.003200 0.000000 1.885780 
# 
# From -- ./inp_files/115579.got.cif
#   From: 2010.06.25/outbox.cif.g09.slc.cpg/sg15_58_cif.got.tgz:115579.got - 2010.06.28 07:06:18.
