data_PCOD8153633
_publ_section_title
;
Structure prediction by ZEFSAII (Michael W. Deem and Ramdas Pophale) SiO2 
 PCOD8153633
Probable space group: C 2/C
;
_chemical_formula_sum "Si O2"
_cell_formula_units_Z 32
_cell_length_a 21.375232
_cell_length_b 9.742661
_cell_length_c 9.014468
_cell_angle_alpha 90.000000
_cell_angle_beta 141.437054
_cell_angle_gamma 90.000000
_cell_volume 1170.246218
_symmetry_space_group_name_H-M "C 2/C"
_symmetry_group_IT_number 15
_symmetry_cell_setting 'monoclinic'
loop_
_space_group_symop_operation_xyz
x,y,z
-x,y,1/2-z
-x,-y,-z
x,-y,1/2+z
1/2+x,1/2+y,z
1/2-x,1/2+y,1/2-z
1/2-x,1/2-y,-z
1/2+x,1/2-y,1/2+z
loop_
_atom_site_type_symbol
_atom_site_label
_atom_site_fract_x
_atom_site_fract_y
_atom_site_fract_z
Si Si1 0.895518 0.666276 0.245500
Si Si2 0.807238 0.454351 0.876234
Si Si3 0.104927 0.954096 0.368596
Si Si4 0.072713 0.751722 0.742875
O O1 0.838693 0.587400 0.269811
O O2 0.858637 0.824672 0.162813
O O3 0.015548 0.674401 0.502083
O O4 0.871811 0.586506 0.048790
O O5 0.688456 0.485443 0.650350
O O6 0.826227 0.330569 0.028793
O O7 0.000000 0.915614 0.250000
O O8 0.095317 0.089251 0.246372
O O9 0.000000 0.748338 0.750000
#
# Coordination Sequence:
#
# PCOD8153633 Si02
#       4
#     8   8   8   8
#     4  11  24  44  71 102 137 181 229 283 340 406
#     4  11  24  45  71 102 139 181 227 281 342 409
#     4  11  24  43  69 104 138 178 228 286 344 405
#     4   9  21  42  68 100 136 174 223 282 341 402
#
# _framework density 27.344674000000001
#
# number of rings (size 3 to 8) (size 9 to 14) (size 15 to 20)
#    0.000    1.500    0.000    3.750    0.000   11.000 
#    0.000    3.750    0.000    0.000    0.000    0.000 
#    0.000    0.000    0.000    0.000    0.000    0.000 
#
# Total GULP energy -198376.338613 kJ/mol
# GULP energy per Si atom -12398.521163 kJ/mol
# Density = 2.728244 g / cm^3
# Si number density = 27.344674 Si / 1000 Ang^3
#
#
#
# Elastic Constant Matrix: (Units=GPa)
#
#
# Indices 1 2 3 4 5 6 
#
# 1 48.0331 54.4647 55.4788 0.0000 -1.8491 0.0000
# 2 54.4647 177.9096 67.8142 0.0000 3.4912 0.0000
# 3 55.4788 67.8142 223.6191 0.0000 11.1260 0.0000
# 4 0.0000 0.0000 0.0000 59.9684 0.0000 -8.6962
# 5 -1.8491 3.4912 11.1260 0.0000 20.8478 0.0000
# 6 0.0000 0.0000 0.0000 -8.6962 0.0000 20.5442
#
#
#
# Elastic Compliance Matrix: (Units=1/GPa)
#
#
# Indices 1 2 3 4 5 6 
#
# 1 0.041314 -0.009890 -0.007720 0.000000 0.009441 0.000000
# 2 -0.009890 0.008723 -0.000077 0.000000 -0.002297 0.000000
# 3 -0.007720 -0.000077 0.006620 0.000000 -0.004205 0.000000
# 4 0.000000 0.000000 0.000000 0.017766 0.000000 0.007520
# 5 0.009441 -0.002297 -0.004205 0.000000 0.051433 0.000000
# 6 0.000000 0.000000 0.000000 0.007520 0.000000 0.051859
#
#
# Mechanical properties :
#
#
# Convention : Reuss Voigt Hill
#
# Bulk Modulus (GPa) = 46.98962 89.45302 68.22132
# Shear Modulus (GPa) = 22.70832 38.39235 30.55033
#
# Velocity S-wave (km/s) = 2.88488 3.75108 3.34613
# Velocity P-wave (km/s) = 5.32148 7.17949 6.31914
#
# Compressibility (1/GPa) = 0.02128129
#
# Stress axis : x y z
#
# Youngs Moduli (GPa) = 24.20501 114.63745 151.05982
#
# Poissons Ratio (x) = 1.13379 1.16621
# Poissons Ratio (y) = 0.23939 0.01169
# Poissons Ratio (z) = 0.18687 0.00887
#
# Static dielectric constant tensor:
#      x y z
#    x 4.166900 0.000000 -0.003380 
#    y 0.000000 5.178680 0.000000 
#    z -0.003380 0.000000 5.567670 
# 
# 
# High freq. dielectric constant tensor:
#      x y z
#    x 2.055260 0.000000 -0.003560 
#    y 0.000000 2.112990 0.000000 
#    z -0.003560 0.000000 2.128630 
# 
# From -- ./inp_files/126027.got.cif
#   From: 2010.06.25/outbox.cif.g09.slc.cpg/sg15_64_cif.got.tgz:126027.got - 2010.06.28 07:06:18.
