data_PCOD8153854
_publ_section_title
;
Structure prediction by ZEFSAII (Michael W. Deem and Ramdas Pophale) SiO2 
 PCOD8153854
Probable space group: C 2/C
;
_chemical_formula_sum "Si O2"
_cell_formula_units_Z 40
_cell_length_a 19.259079
_cell_length_b 6.915605
_cell_length_c 21.658046
_cell_angle_alpha 90.000000
_cell_angle_beta 141.929953
_cell_angle_gamma 90.000000
_cell_volume 1778.712146
_symmetry_space_group_name_H-M "C 2/C"
_symmetry_group_IT_number 15
_symmetry_cell_setting 'monoclinic'
loop_
_space_group_symop_operation_xyz
x,y,z
-x,y,1/2-z
-x,-y,-z
x,-y,1/2+z
1/2+x,1/2+y,z
1/2-x,1/2+y,1/2-z
1/2-x,1/2-y,-z
1/2+x,1/2-y,1/2+z
loop_
_atom_site_type_symbol
_atom_site_label
_atom_site_fract_x
_atom_site_fract_y
_atom_site_fract_z
Si Si1 0.372333 0.727922 0.662679
Si Si2 0.876922 0.940865 0.296533
Si Si3 0.730524 0.022127 0.987735
Si Si4 0.135776 0.334704 0.151562
Si Si5 0.448905 0.148238 0.042022
O O1 0.500000 0.793885 0.750000
O O2 0.340584 0.610419 0.701512
O O3 0.347264 0.578974 0.589206
O O4 0.302045 0.928978 0.602047
O O5 0.766699 0.879856 0.259035
O O6 0.996223 0.843299 0.394048
O O7 0.900263 0.165274 0.326888
O O8 0.635533 0.958236 0.970502
O O9 0.750000 0.250000 0.000000
O O10 0.058568 0.516878 0.111182
O O11 0.115846 0.288453 0.065333
#
# Coordination Sequence:
#
# PCOD8153854 Si02
#       5
#     8   8   8   8   8
#     4  11  25  45  68 101 140 180 239 294 345 423
#     4  12  23  45  70  98 138 180 231 292 350 415
#     4  11  26  45  70 103 140 187 233 290 358 420
#     4  11  25  42  69 102 135 183 232 290 352 415
#     4  11  24  46  65 101 141 178 237 284 350 425
#
# _framework density 22.488182999999999
#
# number of rings (size 3 to 8) (size 9 to 14) (size 15 to 20)
#    0.000    0.800    6.000    0.600    2.800    2.400 
#    7.200    0.000    0.000    0.000    0.000    0.000 
#    0.000    0.000    0.000    0.000    0.000    0.000 
#
# Total GULP energy -247829.979453 kJ/mol
# GULP energy per Si atom -12391.498973 kJ/mol
# Density = 2.243700 g / cm^3
# Si number density = 22.488183 Si / 1000 Ang^3
#
#
#
# Elastic Constant Matrix: (Units=GPa)
#
#
# Indices 1 2 3 4 5 6 
#
# 1 54.9474 5.5968 1.5289 -0.0001 -6.5477 -0.0003
# 2 5.5968 137.0718 32.0348 -0.0005 -5.0889 -0.0014
# 3 1.5289 32.0348 71.4110 -0.0001 2.9664 -0.0005
# 4 -0.0001 -0.0005 -0.0001 36.8067 0.0000 -0.0450
# 5 -6.5477 -5.0889 2.9664 0.0000 35.8970 -0.0001
# 6 -0.0003 -0.0014 -0.0005 -0.0450 -0.0001 37.2195
#
#
#
# Elastic Compliance Matrix: (Units=1/GPa)
#
#
# Indices 1 2 3 4 5 6 
#
# 1 0.018664 -0.000572 -0.000282 0.000000 0.003347 0.000000
# 2 -0.000572 0.008245 -0.003743 0.000000 0.001374 0.000000
# 3 -0.000282 -0.003743 0.015767 0.000000 -0.001885 0.000000
# 4 0.000000 0.000000 0.000000 0.027169 0.000000 0.000033
# 5 0.003347 0.001374 -0.001885 0.000000 0.028818 0.000000
# 6 0.000000 0.000000 0.000000 0.000033 0.000000 0.026868
#
#
# Mechanical properties :
#
#
# Convention : Reuss Voigt Hill
#
# Bulk Modulus (GPa) = 29.86753 37.97236 33.91994
# Shear Modulus (GPa) = 34.27334 36.93595 35.60465
#
# Velocity S-wave (km/s) = 3.90816 4.05712 3.98334
# Velocity P-wave (km/s) = 5.80303 6.23451 6.02264
#
# Compressibility (1/GPa) = 0.03348117
#
# Stress axis : x y z
#
# Youngs Moduli (GPa) = 53.57873 121.29068 63.42341
#
# Poissons Ratio (x) = 0.06937 0.01789
# Poissons Ratio (y) = 0.03064 0.23742
# Poissons Ratio (z) = 0.01511 0.45403
#
# Static dielectric constant tensor:
#      x y z
#    x 4.031350 0.000000 -0.014900 
#    y 0.000000 3.946260 0.000000 
#    z -0.014900 0.000000 4.380600 
# 
# 
# High freq. dielectric constant tensor:
#      x y z
#    x 1.883010 0.000000 0.015310 
#    y 0.000000 1.875870 0.000000 
#    z 0.015310 0.000000 1.908740 
# 
# From -- ./inp_files/170483.got.cif
#   From: 2010.06.25/outbox.cif.g09.slc.cpg/sg15_86_cif.got.tgz:170483.got - 2010.06.28 07:06:18.
