data_PCOD8153318
_publ_section_title
;
Structure prediction by ZEFSAII (Michael W. Deem and Ramdas Pophale) SiO2 
 PCOD8153318
Probable space group: C 2/C
;
_chemical_formula_sum "Si O2"
_cell_formula_units_Z 44
_cell_length_a 6.392495
_cell_length_b 24.861204
_cell_length_c 17.388009
_cell_angle_alpha 90.000000
_cell_angle_beta 133.007893
_cell_angle_gamma 90.000000
_cell_volume 2020.756927
_symmetry_space_group_name_H-M "C 2/C"
_symmetry_group_IT_number 15
_symmetry_cell_setting 'monoclinic'
loop_
_space_group_symop_operation_xyz
x,y,z
-x,y,1/2-z
-x,-y,-z
x,-y,1/2+z
1/2+x,1/2+y,z
1/2-x,1/2+y,1/2-z
1/2-x,1/2-y,-z
1/2+x,1/2-y,1/2+z
loop_
_atom_site_type_symbol
_atom_site_label
_atom_site_fract_x
_atom_site_fract_y
_atom_site_fract_z
Si Si1 0.500000 0.840626 0.750000
Si Si2 0.938657 0.603124 0.969862
Si Si3 0.549686 0.428216 0.675573
Si Si4 0.051798 0.029395 0.592789
Si Si5 0.868221 0.363709 0.138428
Si Si6 0.279247 0.692120 0.470980
O O1 0.251602 0.877347 0.720878
O O2 0.369277 0.804002 0.649803
O O3 0.732027 0.552996 0.936197
O O4 0.904348 0.628782 0.874914
O O5 0.888393 0.649277 0.019694
O O6 0.262215 0.582405 0.055486
O O7 0.500000 0.440764 0.750000
O O8 0.692147 0.482995 0.680236
O O9 0.271274 0.077168 0.637813
O O10 0.000000 0.000000 0.500000
O O11 0.000000 0.337888 0.250000
O O12 0.610054 0.325345 0.045871
O O13 0.250000 0.750000 0.500000
#
# Coordination Sequence:
#
# PCOD8153318 Si02
#       6
#     4   8   8   8   8   8
#     4  12  24  46  70 106 136 170 234 292 338 418
#     4  11  23  45  65  97 138 179 229 284 344 409
#     4  12  24  38  69 101 134 179 226 277 337 408
#     4  11  24  38  65  98 143 184 225 277 336 415
#     4  11  26  44  65 100 142 181 232 283 341 423
#     4  11  26  48  72  99 135 177 233 299 352 410
#
# _framework density 21.774018999999999
#
# number of rings (size 3 to 8) (size 9 to 14) (size 15 to 20)
#    0.000    0.727    5.455    1.636    3.818    4.364 
#    3.273    0.000    0.000    0.000    0.000    0.000 
#    0.000    0.000    0.000    0.000    0.000    0.000 
#
# Total GULP energy -272766.061761 kJ/mol
# GULP energy per Si atom -12398.457353 kJ/mol
# Density = 2.172446 g / cm^3
# Si number density = 21.774019 Si / 1000 Ang^3
#
#
#
# Elastic Constant Matrix: (Units=GPa)
#
#
# Indices 1 2 3 4 5 6 
#
# 1 106.1470 21.4218 44.6305 0.0000 -23.1128 0.0000
# 2 21.4218 116.6649 37.1010 0.0000 -10.1347 0.0000
# 3 44.6305 37.1010 137.0004 0.0000 -29.2722 0.0000
# 4 0.0000 0.0000 0.0000 10.8306 0.0000 -20.3031
# 5 -23.1128 -10.1347 -29.2722 0.0000 44.0166 0.0000
# 6 0.0000 0.0000 0.0000 -20.3031 0.0000 41.8629
#
#
#
# Elastic Compliance Matrix: (Units=1/GPa)
#
#
# Indices 1 2 3 4 5 6 
#
# 1 0.011622 -0.000932 -0.002653 0.000000 0.004124 0.000000
# 2 -0.000932 0.009465 -0.002213 0.000000 0.000218 0.000000
# 3 -0.002653 -0.002213 0.009740 0.000000 0.004575 0.000000
# 4 0.000000 0.000000 0.000000 1.016517 0.000000 0.493002
# 5 0.004124 0.000218 0.004575 0.000000 0.027977 0.000000
# 6 0.000000 0.000000 0.000000 0.493002 0.000000 0.262989
#
#
# Mechanical properties :
#
#
# Convention : Reuss Voigt Hill
#
# Bulk Modulus (GPa) = 51.99572 62.90209 57.44891
# Shear Modulus (GPa) = 3.68645 36.45260 20.06953
#
# Velocity S-wave (km/s) = 1.30258 4.09606 3.03928
# Velocity P-wave (km/s) = 5.11799 7.16391 6.22557
#
# Compressibility (1/GPa) = 0.01923235
#
# Stress axis : x y z
#
# Youngs Moduli (GPa) = 86.04128 105.64720 102.66698
#
# Poissons Ratio (x) = 0.09849 0.27233
# Poissons Ratio (y) = 0.08021 0.22720
# Poissons Ratio (z) = 0.22823 0.23380
#
# Static dielectric constant tensor:
#      x y z
#    x 4.054910 0.000000 -0.255080 
#    y 0.000000 3.966870 0.000000 
#    z -0.255080 0.000000 4.148680 
# 
# 
# High freq. dielectric constant tensor:
#      x y z
#    x 1.868890 0.000000 -0.015140 
#    y 0.000000 1.845870 0.000000 
#    z -0.015140 0.000000 1.859460 
# 
# From -- ./inp_files/129382.got.cif
#   From: 2010.06.25/outbox.cif.g09.slc.cpg/sg15_65_cif.got.tgz:129382.got - 2010.06.28 07:06:18.
