data_PCOD8153155
_publ_section_title
;
Structure prediction by ZEFSAII (Michael W. Deem and Ramdas Pophale) SiO2 
 PCOD8153155
Probable space group: C 2/C
;
_chemical_formula_sum "Si O2"
_cell_formula_units_Z 40
_cell_length_a 12.661087
_cell_length_b 8.254941
_cell_length_c 16.392218
_cell_angle_alpha 90.000000
_cell_angle_beta 107.686312
_cell_angle_gamma 90.000000
_cell_volume 1632.278995
_symmetry_space_group_name_H-M "C 2/C"
_symmetry_group_IT_number 15
_symmetry_cell_setting 'monoclinic'
loop_
_space_group_symop_operation_xyz
x,y,z
-x,y,1/2-z
-x,-y,-z
x,-y,1/2+z
1/2+x,1/2+y,z
1/2-x,1/2+y,1/2-z
1/2-x,1/2-y,-z
1/2+x,1/2-y,1/2+z
loop_
_atom_site_type_symbol
_atom_site_label
_atom_site_fract_x
_atom_site_fract_y
_atom_site_fract_z
Si Si1 0.715529 0.398572 0.064408
Si Si2 0.318329 0.688069 0.343066
Si Si3 0.644826 0.383955 0.407255
Si Si4 0.999908 0.307524 0.999795
Si Si5 0.610834 0.701472 0.313370
O O1 0.688447 0.497587 0.139392
O O2 0.624443 0.260334 0.028154
O O3 0.834400 0.309891 0.102372
O O4 0.723870 0.527159 0.992117
O O5 0.220113 0.783890 0.363576
O O6 0.438698 0.749778 0.402981
O O7 0.303096 0.698667 0.242283
O O8 0.559982 0.265685 0.433623
O O9 0.581712 0.522704 0.340995
O O10 0.000000 0.500000 0.000000
O O11 0.500000 0.780535 0.250000
#
# Coordination Sequence:
#
# PCOD8153155 Si02
#       5
#     8   8   8   8   8
#     4  11  23  43  69 100 136 178 224 275 336 404
#     4  11  24  43  68 103 136 175 226 279 337 399
#     4  11  24  44  69  98 139 179 224 277 335 406
#     4  11  23  43  73 104 133 176 227 276 334 407
#     4  12  25  43  66  97 136 180 226 283 338 392
#
# _framework density 24.505613
#
# number of rings (size 3 to 8) (size 9 to 14) (size 15 to 20)
#    0.000    0.800    0.000   10.200    0.000    4.800 
#    0.000    1.000    0.000    2.400    0.000    0.000 
#    0.000    0.000    0.000    0.000    0.000    0.000 
#
# Total GULP energy -248006.092591 kJ/mol
# GULP energy per Si atom -12400.304630 kJ/mol
# Density = 2.444984 g / cm^3
# Si number density = 24.505613 Si / 1000 Ang^3
#
#
#
# Elastic Constant Matrix: (Units=GPa)
#
#
# Indices 1 2 3 4 5 6 
#
# 1 70.2957 43.1121 46.5201 0.0000 18.5559 0.0000
# 2 43.1121 168.9440 40.0489 0.0000 -4.6061 0.0000
# 3 46.5201 40.0489 97.5752 0.0000 -25.5339 0.0000
# 4 0.0000 0.0000 0.0000 38.3422 0.0000 -10.9567
# 5 18.5559 -4.6061 -25.5339 0.0000 46.8950 0.0000
# 6 0.0000 0.0000 0.0000 -10.9567 0.0000 38.8597
#
#
#
# Elastic Compliance Matrix: (Units=1/GPa)
#
#
# Indices 1 2 3 4 5 6 
#
# 1 0.045209 -0.005822 -0.027982 0.000000 -0.033697 0.000000
# 2 -0.005822 0.007344 0.000645 0.000000 0.003376 0.000000
# 3 -0.027982 0.000645 0.030599 0.000000 0.027796 0.000000
# 4 0.000000 0.000000 0.000000 0.028366 0.000000 0.007998
# 5 -0.033697 0.003376 0.027796 0.000000 0.050124 0.000000
# 6 0.000000 0.000000 0.000000 0.007998 0.000000 0.027989
#
#
# Mechanical properties :
#
#
# Convention : Reuss Voigt Hill
#
# Bulk Modulus (GPa) = 59.40748 66.24188 62.82468
# Shear Modulus (GPa) = 19.11596 38.62829 28.87213
#
# Velocity S-wave (km/s) = 2.79599 3.97458 3.43619
# Velocity P-wave (km/s) = 5.89224 6.93924 6.43706
#
# Compressibility (1/GPa) = 0.01683290
#
# Stress axis : x y z
#
# Youngs Moduli (GPa) = 22.11929 136.16560 32.68128
#
# Poissons Ratio (x) = 0.79278 0.91450
# Poissons Ratio (y) = 0.12878 -0.02108
# Poissons Ratio (z) = 0.61895 -0.08783
#
# Static dielectric constant tensor:
#      x y z
#    x 4.264660 0.000000 -0.183450 
#    y 0.000000 4.534020 0.000000 
#    z -0.183450 0.000000 4.718700 
# 
# 
# High freq. dielectric constant tensor:
#      x y z
#    x 1.975800 0.000000 -0.019450 
#    y 0.000000 1.979030 0.000000 
#    z -0.019450 0.000000 1.986620 
# 
# From -- ./inp_files/195246.got.cif
#   From: 2010.06.25/outbox.cif.g09.slc.cpg/sg15_98_cif.got.tgz:195246.got - 2010.06.28 07:06:18.
