data_PCOD8153606
_publ_section_title
;
Structure prediction by ZEFSAII (Michael W. Deem and Ramdas Pophale) SiO2 
 PCOD8153606
Probable space group: C 2/C
;
_chemical_formula_sum "Si O2"
_cell_formula_units_Z 40
_cell_length_a 27.505592
_cell_length_b 6.748320
_cell_length_c 9.974064
_cell_angle_alpha 90.000000
_cell_angle_beta 69.360566
_cell_angle_gamma 90.000000
_cell_volume 1732.526233
_symmetry_space_group_name_H-M "C 2/C"
_symmetry_group_IT_number 15
_symmetry_cell_setting 'monoclinic'
loop_
_space_group_symop_operation_xyz
x,y,z
-x,y,1/2-z
-x,-y,-z
x,-y,1/2+z
1/2+x,1/2+y,z
1/2-x,1/2+y,1/2-z
1/2-x,1/2-y,-z
1/2+x,1/2-y,1/2+z
loop_
_atom_site_type_symbol
_atom_site_label
_atom_site_fract_x
_atom_site_fract_y
_atom_site_fract_z
Si Si1 0.260941 0.975209 0.520479
Si Si2 0.440474 0.394561 0.295238
Si Si3 0.900130 0.820918 0.045924
Si Si4 0.697662 0.435108 0.839624
Si Si5 0.133539 0.404840 0.482767
O O1 0.250000 0.750000 0.500000
O O2 0.235031 0.015798 0.689062
O O3 0.232688 0.113291 0.436788
O O4 0.322614 0.010510 0.459954
O O5 0.500000 0.331667 0.250000
O O6 0.426094 0.416733 0.152780
O O7 0.430959 0.600983 0.384328
O O8 0.405870 0.223614 0.392670
O O9 0.840333 0.883491 0.090956
O O10 0.899587 0.581211 0.053352
O O11 0.663017 0.236853 0.844336
#
# Coordination Sequence:
#
# PCOD8153606 Si02
#       5
#     8   8   8   8   8
#     4  12  24  41  67  99 145 189 224 278 343 412
#     4  11  27  49  75 102 137 184 238 302 361 410
#     4  11  25  46  72 102 142 179 236 293 351 427
#     4  11  24  43  65 101 145 185 226 276 346 417
#     4  11  26  40  70 106 137 183 237 283 340 423
#
# _framework density 23.087674
#
# number of rings (size 3 to 8) (size 9 to 14) (size 15 to 20)
#    0.000    0.800    2.000    4.800    5.600    3.200 
#    0.000    0.000    0.000    0.000    0.000    0.000 
#    0.000    0.000    0.000    0.000    0.000    0.000 
#
# Total GULP energy -248036.362607 kJ/mol
# GULP energy per Si atom -12401.818130 kJ/mol
# Density = 2.303513 g / cm^3
# Si number density = 23.087674 Si / 1000 Ang^3
#
#
#
# Elastic Constant Matrix: (Units=GPa)
#
#
# Indices 1 2 3 4 5 6 
#
# 1 135.4730 22.5184 51.9820 0.0000 -12.2960 0.0000
# 2 22.5184 114.9177 28.4285 0.0000 -10.0899 0.0000
# 3 51.9820 28.4285 125.3710 0.0000 12.8223 0.0000
# 4 0.0000 0.0000 0.0000 32.9012 0.0000 0.8229
# 5 -12.2960 -10.0899 12.8223 0.0000 40.1759 0.0000
# 6 0.0000 0.0000 0.0000 0.8229 0.0000 30.6454
#
#
#
# Elastic Compliance Matrix: (Units=1/GPa)
#
#
# Indices 1 2 3 4 5 6 
#
# 1 0.009460 -0.000440 -0.004246 0.000000 0.004140 0.000000
# 2 -0.000440 0.009624 -0.002309 0.000000 0.003019 0.000000
# 3 -0.004246 -0.002309 0.010805 0.000000 -0.005328 0.000000
# 4 0.000000 0.000000 0.000000 0.030414 0.000000 -0.000817
# 5 0.004140 0.003019 -0.005328 0.000000 0.028616 0.000000
# 6 0.000000 0.000000 0.000000 -0.000817 0.000000 0.032653
#
#
# Mechanical properties :
#
#
# Convention : Reuss Voigt Hill
#
# Bulk Modulus (GPa) = 62.89245 64.62438 63.75842
# Shear Modulus (GPa) = 35.49576 38.93335 37.21455
#
# Velocity S-wave (km/s) = 3.92527 4.11095 4.01918
# Velocity P-wave (km/s) = 6.91690 7.11230 7.01528
#
# Compressibility (1/GPa) = 0.01590016
#
# Stress axis : x y z
#
# Youngs Moduli (GPa) = 105.71340 103.90351 92.54818
#
# Poissons Ratio (x) = 0.04570 0.39294
# Poissons Ratio (y) = 0.04649 0.21368
# Poissons Ratio (z) = 0.44884 0.23989
#
# Static dielectric constant tensor:
#      x y z
#    x 4.128350 0.000000 -0.169460 
#    y 0.000000 4.341630 0.000000 
#    z -0.169460 0.000000 3.293360 
# 
# 
# High freq. dielectric constant tensor:
#      x y z
#    x 1.907060 0.000000 -0.003040 
#    y 0.000000 1.928820 0.000000 
#    z -0.003040 0.000000 1.904700 
# 
# From -- ./inp_files/64533.got.cif
#   From: 2010.06.25/outbox.cif.g09.slc.cpg/sg15_33_cif.got.tgz:64533.got - 2010.06.28 07:06:18.
