data_PCOD8153954
_publ_section_title
;
Structure prediction by ZEFSAII (Michael W. Deem and Ramdas Pophale) SiO2 
 PCOD8153954
Probable space group: C 2/C
;
_chemical_formula_sum "Si O2"
_cell_formula_units_Z 60
_cell_length_a 16.136835
_cell_length_b 28.192698
_cell_length_c 11.009764
_cell_angle_alpha 90.000000
_cell_angle_beta 149.311677
_cell_angle_gamma 90.000000
_cell_volume 2556.325550
_symmetry_space_group_name_H-M "C 2/C"
_symmetry_group_IT_number 15
_symmetry_cell_setting 'monoclinic'
loop_
_space_group_symop_operation_xyz
x,y,z
-x,y,1/2-z
-x,-y,-z
x,-y,1/2+z
1/2+x,1/2+y,z
1/2-x,1/2+y,1/2-z
1/2-x,1/2-y,-z
1/2+x,1/2-y,1/2+z
loop_
_atom_site_type_symbol
_atom_site_label
_atom_site_fract_x
_atom_site_fract_y
_atom_site_fract_z
Si Si1 0.906531 0.901925 0.947543
Si Si2 0.066892 0.804449 0.457750
Si Si3 0.778972 0.072366 0.533119
Si Si4 0.096058 0.517984 0.743685
Si Si5 0.654975 0.201042 0.860474
Si Si6 0.679740 0.399766 0.922257
Si Si7 0.569558 0.209264 0.139030
Si Si8 0.000000 0.366647 0.750000
O O1 0.785101 0.899883 0.910499
O O2 0.058195 0.932879 0.182884
O O3 0.959494 0.847403 0.980589
O O4 0.823616 0.921122 0.720300
O O5 0.255579 0.789983 0.704414
O O6 0.944909 0.760763 0.318840
O O7 0.000000 0.828165 0.250000
O O8 0.651444 0.098182 0.462104
O O9 0.736804 0.019239 0.445176
O O10 0.000000 0.521726 0.750000
O O11 0.000000 0.500000 0.500000
O O12 0.186909 0.568784 0.835743
O O13 0.500000 0.195899 0.750000
O O14 0.586138 0.203555 0.639966
O O15 0.750000 0.250000 0.000000
O O16 0.769883 0.155411 0.016525
O O17 0.500000 0.404647 0.750000
O O18 0.553558 0.166020 0.208498
#
# Coordination Sequence:
#
# PCOD8153954 Si02
#       8
#     8   8   8   8   8   8   8   4
#     4  11  24  47  71 103 148 184 247 296 382 427
#     4  12  23  43  64 107 142 189 237 306 364 445
#     4  11  25  44  76 104 141 191 235 310 368 443
#     4  12  29  51  78 112 153 196 253 311 385 449
#     4  12  27  50  73 106 150 202 246 301 372 446
#     4  12  30  48  78 111 150 199 254 308 372 454
#     4  12  26  39  70  99 146 184 246 297 369 432
#     4  12  24  40  70 108 134 186 240 300 370 438
#
# _framework density 23.471188000000001
#
# number of rings (size 3 to 8) (size 9 to 14) (size 15 to 20)
#    0.000    0.267    4.000    4.400    9.333    0.533 
#    0.000    0.000    0.000    0.000    0.000    0.000 
#    0.000    0.000    0.000    0.000    0.000    0.000 
#
# Total GULP energy -371744.047906 kJ/mol
# GULP energy per Si atom -12391.468264 kJ/mol
# Density = 2.341777 g / cm^3
# Si number density = 23.471188 Si / 1000 Ang^3
#
#
#
# Elastic Constant Matrix: (Units=GPa)
#
#
# Indices 1 2 3 4 5 6 
#
# 1 74.1421 22.0455 28.9700 0.0000 10.8109 0.0000
# 2 22.0455 143.1077 47.8964 0.0000 8.6602 0.0000
# 3 28.9700 47.8964 135.1466 0.0001 -0.5161 0.0000
# 4 0.0000 0.0000 0.0001 18.0608 0.0000 60.6996
# 5 10.8109 8.6602 -0.5161 0.0000 36.8960 0.0000
# 6 0.0000 0.0000 0.0000 60.6996 0.0000 -76.4442
#
#
#
# Elastic Compliance Matrix: (Units=1/GPa)
#
#
# Indices 1 2 3 4 5 6 
#
# 1 0.015620 -0.001154 -0.002956 0.000000 -0.004347 0.000000
# 2 -0.001154 0.008149 -0.002647 0.000000 -0.001612 0.000000
# 3 -0.002956 -0.002647 0.008977 0.000000 0.001613 0.000000
# 4 0.000000 0.000000 0.000000 0.015092 0.000000 0.011984
# 5 -0.004347 -0.001612 0.001613 0.000000 0.028778 0.000000
# 6 0.000000 0.000000 0.000000 0.011984 0.000000 -0.003566
#
#
# Mechanical properties :
#
#
# Convention : Reuss Voigt Hill
#
# Bulk Modulus (GPa) = 51.99506 61.13561 56.56533
# Shear Modulus (GPa) = 53.77852 12.60149 33.19000
#
# Velocity S-wave (km/s) = 4.79190 2.31961 3.76450
# Velocity P-wave (km/s) = 7.26755 5.76869 6.56106
#
# Compressibility (1/GPa) = 0.01923260
#
# Stress axis : x y z
#
# Youngs Moduli (GPa) = 64.02240 122.71641 111.39338
#
# Poissons Ratio (x) = 0.14159 0.32927
# Poissons Ratio (y) = 0.07387 0.29484
# Poissons Ratio (z) = 0.18924 0.32481
#
# Static dielectric constant tensor:
#      x y z
#    x 4.467570 0.000000 0.308670 
#    y 0.000000 4.365430 0.000000 
#    z 0.308670 0.000000 9.050100 
# 
# 
# High freq. dielectric constant tensor:
#      x y z
#    x 1.922010 0.000000 0.002400 
#    y 0.000000 1.943400 0.000000 
#    z 0.002400 0.000000 1.940270 
# 
# From -- ./inp_files/108433.got.cif
#   From: 2010.06.25/outbox.cif.g09.slc.cpg/sg15_55_cif.got.tgz:108433.got - 2010.06.28 07:06:18.
