data_PCOD8153621
_publ_section_title
;
Structure prediction by ZEFSAII (Michael W. Deem and Ramdas Pophale) SiO2 
 PCOD8153621
Probable space group: C 2/C
;
_chemical_formula_sum "Si O2"
_cell_formula_units_Z 48
_cell_length_a 9.417494
_cell_length_b 17.841395
_cell_length_c 18.506043
_cell_angle_alpha 90.000000
_cell_angle_beta 132.900163
_cell_angle_gamma 90.000000
_cell_volume 2277.768812
_symmetry_space_group_name_H-M "C 2/C"
_symmetry_group_IT_number 15
_symmetry_cell_setting 'monoclinic'
loop_
_space_group_symop_operation_xyz
x,y,z
-x,y,1/2-z
-x,-y,-z
x,-y,1/2+z
1/2+x,1/2+y,z
1/2-x,1/2+y,1/2-z
1/2-x,1/2-y,-z
1/2+x,1/2-y,1/2+z
loop_
_atom_site_type_symbol
_atom_site_label
_atom_site_fract_x
_atom_site_fract_y
_atom_site_fract_z
Si Si1 0.406233 0.814502 0.054939
Si Si2 0.133801 0.954304 0.943525
Si Si3 0.686914 0.585230 0.060969
Si Si4 0.500000 0.157947 0.250000
Si Si5 0.216381 0.765507 0.748944
Si Si6 0.500000 0.602463 0.250000
Si Si7 0.549632 0.738686 0.971192
O O1 0.550505 0.796062 0.172409
O O2 0.250000 0.750000 0.000000
O O3 0.297356 0.893809 0.025056
O O4 0.521948 0.806330 0.019170
O O5 0.107429 0.949618 0.847217
O O6 0.922375 0.952418 0.908891
O O7 0.209991 0.035314 0.996420
O O8 0.910468 0.606015 0.156143
O O9 0.551735 0.657394 0.006473
O O10 0.674654 0.211647 0.286423
O O11 0.140956 0.843544 0.754757
O O12 0.366804 0.730337 0.855781
O O13 0.750000 0.750000 0.000000
#
# Coordination Sequence:
#
# PCOD8153621 Si02
#       7
#     8   8   8   4   8   4   8
#     4  12  20  41  64 100 126 167 227 276 321 396
#     4  11  24  43  67  97 138 174 224 281 339 406
#     4  11  24  44  65  96 140 178 215 279 349 410
#     4  12  20  44  66  92 128 188 212 266 358 406
#     4  12  22  36  69  98 127 168 230 277 330 394
#     4  12  20  40  68  96 124 178 220 284 334 390
#     4  12  22  39  67  96 129 170 222 276 328 392
#
# _framework density 21.073252
#
# number of rings (size 3 to 8) (size 9 to 14) (size 15 to 20)
#    0.000    0.333   10.000    0.000    0.000    0.000 
#    6.000    5.833    0.000    0.000    0.000    0.000 
#    0.000    0.000    0.000    0.000    0.000    0.000 
#
# Total GULP energy -297400.269410 kJ/mol
# GULP energy per Si atom -12391.677892 kJ/mol
# Density = 2.102529 g / cm^3
# Si number density = 21.073252 Si / 1000 Ang^3
#
#
#
# Elastic Constant Matrix: (Units=GPa)
#
#
# Indices 1 2 3 4 5 6 
#
# 1 83.2883 7.6245 7.8871 0.0000 -0.6786 0.0000
# 2 7.6245 74.2850 38.0430 0.0000 -1.2369 0.0000
# 3 7.8871 38.0430 170.9696 0.0000 5.8179 0.0000
# 4 0.0000 0.0000 0.0000 16.4737 0.0000 7.0925
# 5 -0.6786 -1.2369 5.8179 0.0000 36.2292 0.0000
# 6 0.0000 0.0000 0.0000 7.0925 0.0000 24.9087
#
#
#
# Elastic Compliance Matrix: (Units=1/GPa)
#
#
# Indices 1 2 3 4 5 6 
#
# 1 0.012138 -0.001073 -0.000329 0.000000 0.000244 0.000000
# 2 -0.001073 0.015329 -0.003397 0.000000 0.001049 0.000000
# 3 -0.000329 -0.003397 0.006661 0.000000 -0.001192 0.000000
# 4 0.000000 0.000000 0.000000 0.069184 0.000000 -0.019699
# 5 0.000244 0.001049 -0.001192 0.000000 0.027834 0.000000
# 6 0.000000 0.000000 0.000000 -0.019699 0.000000 0.045756
#
#
# Mechanical properties :
#
#
# Convention : Reuss Voigt Hill
#
# Bulk Modulus (GPa) = 40.76917 48.40582 44.58749
# Shear Modulus (GPa) = 25.68366 33.85487 29.76927
#
# Velocity S-wave (km/s) = 3.49489 4.01251 3.76261
# Velocity P-wave (km/s) = 5.97278 6.66986 6.33092
#
# Compressibility (1/GPa) = 0.02452834
#
# Stress axis : x y z
#
# Youngs Moduli (GPa) = 82.38655 65.23589 150.13566
#
# Poissons Ratio (x) = 0.07000 0.04947
# Poissons Ratio (y) = 0.08840 0.51002
# Poissons Ratio (z) = 0.02714 0.22161
#
# Static dielectric constant tensor:
#      x y z
#    x 4.115320 0.000000 -0.105020 
#    y 0.000000 3.817120 0.000000 
#    z -0.105020 0.000000 4.163860 
# 
# 
# High freq. dielectric constant tensor:
#      x y z
#    x 1.834590 0.000000 0.002440 
#    y 0.000000 1.793540 0.000000 
#    z 0.002440 0.000000 1.840270 
# 
# From -- ./inp_files/192332.got.cif
#   From: 2010.06.25/outbox.cif.g09.slc.cpg/sg15_97_cif.got.tgz:192332.got - 2010.06.28 07:06:18.
