data_PCOD8153559
_publ_section_title
;
Structure prediction by ZEFSAII (Michael W. Deem and Ramdas Pophale) SiO2 
 PCOD8153559
Probable space group: C 2/C
;
_chemical_formula_sum "Si O2"
_cell_formula_units_Z 48
_cell_length_a 26.853047
_cell_length_b 15.525082
_cell_length_c 5.064588
_cell_angle_alpha 90.000000
_cell_angle_beta 85.009189
_cell_angle_gamma 90.000000
_cell_volume 2103.400198
_symmetry_space_group_name_H-M "C 2/C"
_symmetry_group_IT_number 15
_symmetry_cell_setting 'monoclinic'
loop_
_space_group_symop_operation_xyz
x,y,z
-x,y,1/2-z
-x,-y,-z
x,-y,1/2+z
1/2+x,1/2+y,z
1/2-x,1/2+y,1/2-z
1/2-x,1/2-y,-z
1/2+x,1/2-y,1/2+z
loop_
_atom_site_type_symbol
_atom_site_label
_atom_site_fract_x
_atom_site_fract_y
_atom_site_fract_z
Si Si1 0.000000 0.560393 0.250000
Si Si2 0.732462 0.058604 0.755840
Si Si3 0.822584 0.811556 0.206986
Si Si4 0.954871 0.303486 0.074140
Si Si5 0.000000 0.152457 0.750000
Si Si6 0.908417 0.944125 0.142635
Si Si7 0.842790 0.298249 0.214608
O O1 0.953989 0.627066 0.330948
O O2 0.000000 0.500000 0.500000
O O3 0.774219 0.130961 0.779734
O O4 0.679067 0.105661 0.812076
O O5 0.738174 0.016685 0.466347
O O6 0.868880 0.870241 0.101808
O O7 0.834349 0.758350 0.461457
O O8 0.813957 0.744992 0.972652
O O9 0.901982 0.305952 0.247241
O O10 0.000000 0.330168 0.250000
O O11 0.964556 0.208362 0.956674
O O12 0.964164 0.093941 0.585217
O O13 0.900289 0.979023 0.441352
#
# Coordination Sequence:
#
# PCOD8153559 Si02
#       7
#     4   8   8   8   4   8   8
#     4  11  24  44  66  97 134 184 236 295 348 400
#     4  12  26  48  73 106 143 177 228 300 357 413
#     4  12  24  47  72 103 139 185 233 280 353 427
#     4  11  25  44  72 100 141 192 238 287 348 410
#     4  11  24  42  62  97 144 182 232 279 336 410
#     4  12  25  41  65  99 135 181 224 280 340 404
#     4  12  26  45  75 104 138 187 239 283 348 421
#
# _framework density 22.820195999999999
#
# number of rings (size 3 to 8) (size 9 to 14) (size 15 to 20)
#    0.000    0.333    2.500    6.500    4.667    1.333 
#    0.000    0.000    0.000    0.000    0.000    0.000 
#    0.000    0.000    0.000    0.000    0.000    0.000 
#
# Total GULP energy -297668.101739 kJ/mol
# GULP energy per Si atom -12402.837572 kJ/mol
# Density = 2.276826 g / cm^3
# Si number density = 22.820196 Si / 1000 Ang^3
#
#
#
# Elastic Constant Matrix: (Units=GPa)
#
#
# Indices 1 2 3 4 5 6 
#
# 1 402.8008 -11.5754 27.1142 0.0000 152.2120 0.0000
# 2 -11.5754 101.8785 36.3307 0.0000 -21.4183 0.0000
# 3 27.1142 36.3307 106.1950 0.0000 3.4146 0.0000
# 4 0.0000 0.0000 0.0000 49.3365 0.0000 -10.6567
# 5 152.2120 -21.4183 3.4146 0.0000 115.4404 0.0000
# 6 0.0000 0.0000 0.0000 -10.6567 0.0000 21.1165
#
#
#
# Elastic Compliance Matrix: (Units=1/GPa)
#
#
# Indices 1 2 3 4 5 6 
#
# 1 0.005092 -0.000526 -0.000902 0.000000 -0.006785 0.000000
# 2 -0.000526 0.011816 -0.004004 0.000000 0.003005 0.000000
# 3 -0.000902 -0.004004 0.011013 0.000000 0.000121 0.000000
# 4 0.000000 0.000000 0.000000 0.022749 0.000000 0.011480
# 5 -0.006785 0.003005 0.000121 0.000000 0.018163 0.000000
# 6 0.000000 0.000000 0.000000 0.011480 0.000000 0.053150
#
#
# Mechanical properties :
#
#
# Convention : Reuss Voigt Hill
#
# Bulk Modulus (GPa) = 58.63250 79.40147 69.01698
# Shear Modulus (GPa) = 36.09249 74.44567 55.26908
#
# Velocity S-wave (km/s) = 3.98125 5.71783 4.92666
# Velocity P-wave (km/s) = 6.84710 8.85784 7.91657
#
# Compressibility (1/GPa) = 0.01705539
#
# Stress axis : x y z
#
# Youngs Moduli (GPa) = 196.37699 84.63451 90.80140
#
# Poissons Ratio (x) = 0.04454 0.08190
# Poissons Ratio (y) = 0.10335 0.36361
# Poissons Ratio (z) = 0.17712 0.33892
#
# Static dielectric constant tensor:
#      x y z
#    x 3.998890 0.000000 0.043650 
#    y 0.000000 4.402740 0.000000 
#    z 0.043650 0.000000 4.003260 
# 
# 
# High freq. dielectric constant tensor:
#      x y z
#    x 1.894260 0.000000 -0.004940 
#    y 0.000000 1.921450 0.000000 
#    z -0.004940 0.000000 1.909130 
# 
# From -- ./inp_files/16939.got.cif
#   From: 2010.06.25/outbox.cif.g09.slc.cpg/sg15_9_cif.got.tgz:16939.got - 2010.06.28 07:06:18.
