data_PCOD8153005
_publ_section_title
;
Structure prediction by ZEFSAII (Michael W. Deem and Ramdas Pophale) SiO2 
 PCOD8153005
Probable space group: C 2/C
;
_chemical_formula_sum "Si O2"
_cell_formula_units_Z 40
_cell_length_a 18.799423
_cell_length_b 6.817582
_cell_length_c 22.721506
_cell_angle_alpha 90.000000
_cell_angle_beta 139.138589
_cell_angle_gamma 90.000000
_cell_volume 1905.212915
_symmetry_space_group_name_H-M "C 2/C"
_symmetry_group_IT_number 15
_symmetry_cell_setting 'monoclinic'
loop_
_space_group_symop_operation_xyz
x,y,z
-x,y,1/2-z
-x,-y,-z
x,-y,1/2+z
1/2+x,1/2+y,z
1/2-x,1/2+y,1/2-z
1/2-x,1/2-y,-z
1/2+x,1/2-y,1/2+z
loop_
_atom_site_type_symbol
_atom_site_label
_atom_site_fract_x
_atom_site_fract_y
_atom_site_fract_z
Si Si1 0.881858 0.787951 0.529729
Si Si2 0.264232 0.553107 0.544657
Si Si3 0.754734 0.587012 0.668378
Si Si4 0.383445 0.580991 0.313258
Si Si5 0.104468 0.770522 0.274679
O O1 0.850619 0.560698 0.521791
O O2 0.816100 0.869888 0.433233
O O3 0.010614 0.797671 0.600056
O O4 0.852372 0.912696 0.569138
O O5 0.250000 0.750000 0.500000
O O6 0.303548 0.605057 0.634382
O O7 0.678076 0.480026 0.666695
O O8 0.803897 0.786224 0.724642
O O9 0.854569 0.446703 0.714145
O O10 0.421238 0.388129 0.301201
O O11 0.000000 0.747815 0.250000
#
# Coordination Sequence:
#
# PCOD8153005 Si02
#       5
#     8   8   8   8   8
#     4  11  25  42  71 100 138 181 228 284 346 413
#     4  11  23  42  65 103 139 173 228 288 339 409
#     4  12  26  47  69  99 140 182 232 287 347 413
#     4  12  26  46  68 103 138 182 232 286 347 412
#     4  12  25  43  72  99 141 184 227 283 346 412
#
# _framework density 20.995028999999999
#
# number of rings (size 3 to 8) (size 9 to 14) (size 15 to 20)
#    0.000    0.400    8.000    0.600    2.800    0.800 
#    0.000    2.000    0.000    0.000    0.000    0.000 
#    0.000    0.000    0.000    0.000    0.000    0.000 
#
# Total GULP energy -248115.355599 kJ/mol
# GULP energy per Si atom -12405.767780 kJ/mol
# Density = 2.094724 g / cm^3
# Si number density = 20.995029 Si / 1000 Ang^3
#
#
#
# Elastic Constant Matrix: (Units=GPa)
#
#
# Indices 1 2 3 4 5 6 
#
# 1 110.0404 38.9754 16.2941 -0.0001 6.7140 0.0000
# 2 38.9754 104.2139 22.2532 -0.0002 -2.6760 -0.0005
# 3 16.2941 22.2532 69.6898 0.0000 6.1849 -0.0001
# 4 -0.0001 -0.0002 0.0000 29.8193 0.0000 -3.1329
# 5 6.7140 -2.6760 6.1849 0.0000 35.7615 0.0000
# 6 0.0000 -0.0005 -0.0001 -3.1329 0.0000 35.3619
#
#
#
# Elastic Compliance Matrix: (Units=1/GPa)
#
#
# Indices 1 2 3 4 5 6 
#
# 1 0.010738 -0.003836 -0.001098 0.000000 -0.002113 0.000000
# 2 -0.003836 0.011733 -0.003038 0.000000 0.002124 0.000000
# 3 -0.001098 -0.003038 0.015821 0.000000 -0.002757 0.000000
# 4 0.000000 0.000000 0.000000 0.033850 0.000000 0.002999
# 5 -0.002113 0.002124 -0.002757 0.000000 0.028996 0.000000
# 6 0.000000 0.000000 0.000000 0.002999 0.000000 0.028545
#
#
# Mechanical properties :
#
#
# Convention : Reuss Voigt Hill
#
# Bulk Modulus (GPa) = 44.74736 48.77662 46.76199
# Shear Modulus (GPa) = 32.66342 33.94996 33.30669
#
# Velocity S-wave (km/s) = 3.94860 4.02562 3.98730
# Velocity P-wave (km/s) = 6.49216 6.70003 6.59691
#
# Compressibility (1/GPa) = 0.02234769
#
# Stress axis : x y z
#
# Youngs Moduli (GPa) = 93.13036 85.22647 63.20710
#
# Poissons Ratio (x) = 0.32689 0.06942
# Poissons Ratio (y) = 0.35721 0.19205
# Poissons Ratio (z) = 0.10228 0.25895
#
# Static dielectric constant tensor:
#      x y z
#    x 3.846090 0.000000 -0.100960 
#    y 0.000000 3.936760 0.000000 
#    z -0.100960 0.000000 4.108830 
# 
# 
# High freq. dielectric constant tensor:
#      x y z
#    x 1.827970 0.000000 -0.007460 
#    y 0.000000 1.833810 0.000000 
#    z -0.007460 0.000000 1.826390 
# 
# From -- ./inp_files/208095.got.cif
#   From: 2010.06.25/outbox.cif.g09.slc.cpg/sg15_105_cif.got.tgz:208095.got - 2010.06.28 07:06:18.
