data_PCOD8153171
_publ_section_title
;
Structure prediction by ZEFSAII (Michael W. Deem and Ramdas Pophale) SiO2 
 PCOD8153171
Probable space group: C 2/C
;
_chemical_formula_sum "Si O2"
_cell_formula_units_Z 64
_cell_length_a 15.199194
_cell_length_b 11.426529
_cell_length_c 27.391222
_cell_angle_alpha 90.000000
_cell_angle_beta 138.867206
_cell_angle_gamma 90.000000
_cell_volume 3129.279967
_symmetry_space_group_name_H-M "C 2/C"
_symmetry_group_IT_number 15
_symmetry_cell_setting 'monoclinic'
loop_
_space_group_symop_operation_xyz
x,y,z
-x,y,1/2-z
-x,-y,-z
x,-y,1/2+z
1/2+x,1/2+y,z
1/2-x,1/2+y,1/2-z
1/2-x,1/2-y,-z
1/2+x,1/2-y,1/2+z
loop_
_atom_site_type_symbol
_atom_site_label
_atom_site_fract_x
_atom_site_fract_y
_atom_site_fract_z
Si Si1 0.930801 0.536770 0.338590
Si Si2 0.558198 0.783896 0.199273
Si Si3 0.684597 0.176724 0.430043
Si Si4 0.287809 0.233994 0.638075
Si Si5 0.856707 0.848454 0.171396
Si Si6 0.345043 0.486395 0.928263
Si Si7 0.358965 0.033133 0.417505
Si Si8 0.773883 0.827831 0.810643
O O1 0.948797 0.421237 0.314192
O O2 0.862642 0.509835 0.361444
O O3 0.843819 0.629144 0.272906
O O4 0.074772 0.593563 0.408432
O O5 0.667426 0.764698 0.287034
O O6 0.413319 0.738875 0.155565
O O7 0.599124 0.710955 0.168621
O O8 0.750000 0.250000 0.500000
O O9 0.615077 0.261396 0.361556
O O10 0.796063 0.098720 0.450460
O O11 0.226759 0.110483 0.597426
O O12 0.174267 0.332559 0.583193
O O13 0.779020 0.783256 0.182071
O O14 0.000000 0.896785 0.250000
O O15 0.763076 0.954072 0.113375
O O16 0.318437 0.432823 0.864058
O O17 0.500000 0.500000 0.000000
O O18 0.500000 0.000000 0.500000
#
# Coordination Sequence:
#
# PCOD8153171 Si02
#       8
#     8   8   8   8   8   8   8   8
#     4  12  22  43  72  99 134 179 230 279 345 414
#     4  11  23  44  70 104 133 175 235 290 346 403
#     4  11  25  45  68 101 136 177 225 280 343 416
#     4  11  25  44  70 100 138 176 231 292 343 409
#     4  11  24  43  70  98 135 177 232 284 337 408
#     4  11  26  44  69  99 138 178 226 285 350 412
#     4  12  28  45  66  98 147 188 221 282 362 418
#     4  11  23  43  70 103 131 176 232 288 340 415
#
# _framework density 20.451989000000001
#
# number of rings (size 3 to 8) (size 9 to 14) (size 15 to 20)
#    0.000    0.750    6.250    0.750    7.000    0.000 
#    6.750    1.250    0.000    0.000    0.000    0.000 
#    0.000    0.000    0.000    0.000    0.000    0.000 
#
# Total GULP energy -396983.302791 kJ/mol
# GULP energy per Si atom -12405.728212 kJ/mol
# Density = 2.040544 g / cm^3
# Si number density = 20.451989 Si / 1000 Ang^3
#
#
#
# Elastic Constant Matrix: (Units=GPa)
#
#
# Indices 1 2 3 4 5 6 
#
# 1 95.5589 41.8773 37.6693 0.0000 2.4579 0.0000
# 2 41.8773 122.7393 51.6804 0.0000 7.7447 0.0000
# 3 37.6693 51.6804 114.6998 0.0000 19.7643 0.0000
# 4 0.0000 0.0000 0.0000 38.3984 0.0000 11.1029
# 5 2.4579 7.7447 19.7643 0.0000 34.5404 0.0000
# 6 0.0000 0.0000 0.0000 11.1029 0.0000 30.6708
#
#
#
# Elastic Compliance Matrix: (Units=1/GPa)
#
#
# Indices 1 2 3 4 5 6 
#
# 1 0.013072 -0.003255 -0.003097 0.000000 0.001572 0.000000
# 2 -0.003255 0.010870 -0.003826 0.000000 -0.000016 0.000000
# 3 -0.003097 -0.003826 0.012507 0.000000 -0.006078 0.000000
# 4 0.000000 0.000000 0.000000 0.029087 0.000000 -0.010530
# 5 0.001572 -0.000016 -0.006078 0.000000 0.032321 0.000000
# 6 0.000000 0.000000 0.000000 -0.010530 0.000000 0.036416
#
#
# Mechanical properties :
#
#
# Convention : Reuss Voigt Hill
#
# Bulk Modulus (GPa) = 62.14172 66.16134 64.15153
# Shear Modulus (GPa) = 31.25129 34.17332 32.71231
#
# Velocity S-wave (km/s) = 3.91325 4.09210 4.00367
# Velocity P-wave (km/s) = 7.13219 7.39912 7.26688
#
# Compressibility (1/GPa) = 0.01609225
#
# Stress axis : x y z
#
# Youngs Moduli (GPa) = 76.50119 91.99764 79.95685
#
# Poissons Ratio (x) = 0.29945 0.24764
# Poissons Ratio (y) = 0.24901 0.30590
# Poissons Ratio (z) = 0.23694 0.35197
#
# Static dielectric constant tensor:
#      x y z
#    x 3.793370 0.000000 -0.017890 
#    y 0.000000 3.769720 0.000000 
#    z -0.017890 0.000000 3.755650 
# 
# 
# High freq. dielectric constant tensor:
#      x y z
#    x 1.810130 0.000000 0.003010 
#    y 0.000000 1.809010 0.000000 
#    z 0.003010 0.000000 1.797500 
# 
# From -- ./inp_files/296168.got.cif
#   From: 2010.06.25/outbox.cif.g09.slc.cpg/sg15_149_cif.got.tgz:296168.got - 2010.06.28 07:06:18.
