data_PCOD8153015
_publ_section_title
;
Structure prediction by ZEFSAII (Michael W. Deem and Ramdas Pophale) SiO2 
 PCOD8153015
Probable space group: C 2/C
;
_chemical_formula_sum "Si O2"
_cell_formula_units_Z 56
_cell_length_a 26.988787
_cell_length_b 16.840688
_cell_length_c 8.817807
_cell_angle_alpha 90.000000
_cell_angle_beta 43.113776
_cell_angle_gamma 90.000000
_cell_volume 2739.113921
_symmetry_space_group_name_H-M "C 2/C"
_symmetry_group_IT_number 15
_symmetry_cell_setting 'monoclinic'
loop_
_space_group_symop_operation_xyz
x,y,z
-x,y,1/2-z
-x,-y,-z
x,-y,1/2+z
1/2+x,1/2+y,z
1/2-x,1/2+y,1/2-z
1/2-x,1/2-y,-z
1/2+x,1/2-y,1/2+z
loop_
_atom_site_type_symbol
_atom_site_label
_atom_site_fract_x
_atom_site_fract_y
_atom_site_fract_z
Si Si1 0.156088 0.871881 0.929501
Si Si2 0.054554 0.004917 0.245253
Si Si3 0.714921 0.095183 0.783200
Si Si4 0.872121 0.842958 0.850236
Si Si5 0.327044 0.770918 0.903109
Si Si6 0.808386 0.570714 0.009094
Si Si7 0.085049 0.315015 0.083919
O O1 0.118531 0.856017 0.851119
O O2 0.242277 0.873613 0.709934
O O3 0.127508 0.951838 0.076698
O O4 0.138872 0.804143 0.088300
O O5 0.000000 0.968333 0.250000
O O6 0.076190 0.096565 0.174803
O O7 0.000000 0.000000 0.500000
O O8 0.792464 0.134979 0.584087
O O9 0.679860 0.074132 0.698737
O O10 0.671483 0.160368 0.974530
O O11 0.713639 0.017536 0.891422
O O12 0.894861 0.753981 0.841099
O O13 0.382859 0.795297 0.650234
O O14 0.250000 0.750000 0.000000
O O15 0.881111 0.603003 0.926900
O O16 0.000000 0.327037 0.250000
#
# Coordination Sequence:
#
# PCOD8153015 Si02
#       7
#     8   8   8   8   8   8   8
#     4  11  24  40  65  94 138 180 222 274 323 407
#     4  12  25  39  60 100 145 180 212 264 337 410
#     4  11  23  42  74 100 126 171 226 289 317 398
#     4  11  23  42  65  98 136 177 221 269 338 397
#     4  12  24  42  67  99 132 169 228 274 332 394
#     4  11  23  44  69 100 133 173 234 272 340 388
#     4  12  27  45  68  99 138 179 222 282 340 400
#
# _framework density 20.444568
#
# number of rings (size 3 to 8) (size 9 to 14) (size 15 to 20)
#    0.000    0.571    5.714    2.143    4.000    2.286 
#    0.000    5.000    0.000    0.000    0.000    0.000 
#    0.000    0.000    0.000    0.000    0.000    0.000 
#
# Total GULP energy -347017.798654 kJ/mol
# GULP energy per Si atom -12393.492809 kJ/mol
# Density = 2.039804 g / cm^3
# Si number density = 20.444568 Si / 1000 Ang^3
#
#
#
# Elastic Constant Matrix: (Units=GPa)
#
#
# Indices 1 2 3 4 5 6 
#
# 1 99.4477 30.1826 51.4601 0.0000 1.3367 0.0000
# 2 30.1826 63.7237 6.1307 0.0000 3.8421 0.0000
# 3 51.4601 6.1307 111.0166 0.0000 10.9125 0.0000
# 4 0.0000 0.0000 0.0000 32.8374 0.0000 7.0900
# 5 1.3367 3.8421 10.9125 0.0000 41.0033 0.0000
# 6 0.0000 0.0000 0.0000 7.0900 0.0000 37.1358
#
#
#
# Elastic Compliance Matrix: (Units=1/GPa)
#
#
# Indices 1 2 3 4 5 6 
#
# 1 0.015837 -0.006936 -0.007159 0.000000 0.002039 0.000000
# 2 -0.006936 0.018880 0.002386 0.000000 -0.002178 0.000000
# 3 -0.007159 0.002386 0.012521 0.000000 -0.003322 0.000000
# 4 0.000000 0.000000 0.000000 0.031762 0.000000 -0.006064
# 5 0.002039 -0.002178 -0.003322 0.000000 0.025410 0.000000
# 6 0.000000 0.000000 0.000000 -0.006064 0.000000 0.028086
#
#
# Mechanical properties :
#
#
# Convention : Reuss Voigt Hill
#
# Bulk Modulus (GPa) = 41.97786 49.97054 45.97420
# Shear Modulus (GPa) = 30.51530 34.62294 32.56912
#
# Velocity S-wave (km/s) = 3.86759 4.11968 3.99563
# Velocity P-wave (km/s) = 6.36565 6.86470 6.61988
#
# Compressibility (1/GPa) = 0.02382208
#
# Stress axis : x y z
#
# Youngs Moduli (GPa) = 63.14185 52.96747 79.86767
#
# Poissons Ratio (x) = 0.36736 0.57174
# Poissons Ratio (y) = 0.43792 -0.19059
# Poissons Ratio (z) = 0.45201 -0.12640
#
# Static dielectric constant tensor:
#      x y z
#    x 3.707930 0.000000 0.198650 
#    y 0.000000 3.845720 0.000000 
#    z 0.198650 0.000000 3.794670 
# 
# 
# High freq. dielectric constant tensor:
#      x y z
#    x 1.797970 0.000000 0.019020 
#    y 0.000000 1.803170 0.000000 
#    z 0.019020 0.000000 1.805560 
# 
# From -- ./inp_files/67103.got.cif
#   From: 2010.06.25/outbox.cif.g09.slc.cpg/sg15_34_cif.got.tgz:67103.got - 2010.06.28 07:06:18.
