data_PCOD8153557
_publ_section_title
;
Structure prediction by ZEFSAII (Michael W. Deem and Ramdas Pophale) SiO2 
 PCOD8153557
Probable space group: C 2/C
;
_chemical_formula_sum "Si O2"
_cell_formula_units_Z 56
_cell_length_a 17.586024
_cell_length_b 15.082537
_cell_length_c 14.099671
_cell_angle_alpha 90.000000
_cell_angle_beta 42.159185
_cell_angle_gamma 90.000000
_cell_volume 2510.141857
_symmetry_space_group_name_H-M "C 2/C"
_symmetry_group_IT_number 15
_symmetry_cell_setting 'monoclinic'
loop_
_space_group_symop_operation_xyz
x,y,z
-x,y,1/2-z
-x,-y,-z
x,-y,1/2+z
1/2+x,1/2+y,z
1/2-x,1/2+y,1/2-z
1/2-x,1/2-y,-z
1/2+x,1/2-y,1/2+z
loop_
_atom_site_type_symbol
_atom_site_label
_atom_site_fract_x
_atom_site_fract_y
_atom_site_fract_z
Si Si1 0.683182 0.167795 0.660119
Si Si2 0.095265 0.317725 0.589768
Si Si3 0.335695 0.378243 0.437811
Si Si4 0.510609 0.103933 0.972840
Si Si5 0.291274 0.847122 0.574077
Si Si6 0.618085 0.498288 0.766872
Si Si7 0.369836 0.462529 0.034762
O O1 0.590026 0.118581 0.808498
O O2 0.645512 0.170768 0.584758
O O3 0.708142 0.265898 0.677488
O O4 0.801710 0.115462 0.548465
O O5 0.210267 0.363939 0.514350
O O6 0.104673 0.211785 0.585180
O O7 0.063303 0.346252 0.513622
O O8 0.000000 0.351804 0.750000
O O9 0.405630 0.424336 0.287674
O O10 0.330585 0.441119 0.534257
O O11 0.386696 0.144012 0.066617
O O12 0.500000 0.000000 0.000000
O O13 0.216584 0.935632 0.636775
O O14 0.501728 0.444523 0.890240
O O15 0.656526 0.542626 0.829389
#
# Coordination Sequence:
#
# PCOD8153557 Si02
#       7
#     8   8   8   8   8   8   8
#     4  11  26  45  70 104 141 189 239 295 359 432
#     4  11  27  43  72 103 143 192 234 294 364 428
#     4  11  24  47  69 104 142 182 243 296 351 436
#     4  12  28  47  73 108 148 191 241 305 367 443
#     4  11  26  45  73 103 145 190 237 299 359 436
#     4  11  24  44  71 106 137 183 239 291 361 416
#     4  11  24  41  74  99 140 184 233 297 351 424
#
# _framework density 22.309497
#
# number of rings (size 3 to 8) (size 9 to 14) (size 15 to 20)
#    0.000    0.857    1.429    4.286    8.000    3.429 
#    0.000    0.000    0.000    0.000    0.000    0.000 
#    0.000    0.000    0.000    0.000    0.000    0.000 
#
# Total GULP energy -347385.230265 kJ/mol
# GULP energy per Si atom -12406.615367 kJ/mol
# Density = 2.225872 g / cm^3
# Si number density = 22.309497 Si / 1000 Ang^3
#
#
#
# Elastic Constant Matrix: (Units=GPa)
#
#
# Indices 1 2 3 4 5 6 
#
# 1 122.5843 44.3514 21.8079 0.0000 8.2342 0.0000
# 2 44.3514 96.3639 37.1452 0.0000 7.5637 0.0000
# 3 21.8079 37.1452 100.3145 0.0000 10.4668 0.0000
# 4 0.0000 0.0000 0.0000 31.7869 0.0000 0.5930
# 5 8.2342 7.5637 10.4668 0.0000 30.8222 0.0000
# 6 0.0000 0.0000 0.0000 0.5930 0.0000 36.1544
#
#
#
# Elastic Compliance Matrix: (Units=1/GPa)
#
#
# Indices 1 2 3 4 5 6 
#
# 1 0.009874 -0.004271 -0.000414 0.000000 -0.001449 0.000000
# 2 -0.004271 0.014020 -0.004171 0.000000 -0.000883 0.000000
# 3 -0.000414 -0.004171 0.011907 0.000000 -0.002909 0.000000
# 4 0.000000 0.000000 0.000000 0.031469 0.000000 -0.000516
# 5 -0.001449 -0.000883 -0.002909 0.000000 0.034036 0.000000
# 6 0.000000 0.000000 0.000000 -0.000516 0.000000 0.027668
#
#
# Mechanical properties :
#
#
# Convention : Reuss Voigt Hill
#
# Bulk Modulus (GPa) = 55.28198 58.43018 56.85608
# Shear Modulus (GPa) = 32.74078 34.14991 33.44535
#
# Velocity S-wave (km/s) = 3.83505 3.91670 3.87609
# Velocity P-wave (km/s) = 6.66659 6.83386 6.75075
#
# Compressibility (1/GPa) = 0.01808908
#
# Stress axis : x y z
#
# Youngs Moduli (GPa) = 101.27651 71.32564 83.98749
#
# Poissons Ratio (x) = 0.30465 0.03475
# Poissons Ratio (y) = 0.43258 0.35030
# Poissons Ratio (z) = 0.04190 0.29749
#
# Static dielectric constant tensor:
#      x y z
#    x 4.231590 0.000000 0.034210 
#    y 0.000000 3.964350 0.000000 
#    z 0.034210 0.000000 3.968050 
# 
# 
# High freq. dielectric constant tensor:
#      x y z
#    x 1.898790 0.000000 0.000540 
#    y 0.000000 1.879160 0.000000 
#    z 0.000540 0.000000 1.881710 
# 
# From -- ./inp_files/162193.got.cif
#   From: 2010.06.25/outbox.cif.g09.slc.cpg/sg15_82_cif.got.tgz:162193.got - 2010.06.28 07:06:18.
