data_PCOD8153352
_publ_section_title
;
Structure prediction by ZEFSAII (Michael W. Deem and Ramdas Pophale) SiO2 
 PCOD8153352
Probable space group: C 2/C
;
_chemical_formula_sum "Si O2"
_cell_formula_units_Z 56
_cell_length_a 17.713570
_cell_length_b 19.843829
_cell_length_c 7.702055
_cell_angle_alpha 90.000000
_cell_angle_beta 110.426827
_cell_angle_gamma 90.000000
_cell_volume 2537.071950
_symmetry_space_group_name_H-M "C 2/C"
_symmetry_group_IT_number 15
_symmetry_cell_setting 'monoclinic'
loop_
_space_group_symop_operation_xyz
x,y,z
-x,y,1/2-z
-x,-y,-z
x,-y,1/2+z
1/2+x,1/2+y,z
1/2-x,1/2+y,1/2-z
1/2-x,1/2-y,-z
1/2+x,1/2-y,1/2+z
loop_
_atom_site_type_symbol
_atom_site_label
_atom_site_fract_x
_atom_site_fract_y
_atom_site_fract_z
Si Si1 0.410056 0.183733 0.989908
Si Si2 0.158195 0.079748 0.436576
Si Si3 0.160879 0.228342 0.378975
Si Si4 0.938098 0.037818 0.831722
Si Si5 0.337028 0.073049 0.490177
Si Si6 0.596756 0.798368 0.630582
Si Si7 0.582733 0.038677 0.612931
O O1 0.381262 0.216005 0.149991
O O2 0.504581 0.183739 0.038677
O O3 0.366844 0.223546 0.800187
O O4 0.394218 0.103610 0.985261
O O5 0.147875 0.149731 0.320384
O O6 0.119410 0.086203 0.599570
O O7 0.253616 0.068090 0.527956
O O8 0.117636 0.017599 0.306295
O O9 0.250000 0.250000 0.500000
O O10 0.109920 0.234867 0.516137
O O11 0.000000 0.077642 0.750000
O O12 0.000000 0.000000 0.000000
O O13 0.345539 0.143641 0.399120
O O14 0.412543 0.062686 0.683341
O O15 0.344048 0.013869 0.354869
O O16 0.500000 0.000000 0.500000
#
# Coordination Sequence:
#
# PCOD8153352 Si02
#       7
#     8   8   8   8   8   8   8
#     4  11  25  44  66 103 142 187 246 294 343 437
#     4  11  23  45  72 101 139 181 227 300 370 417
#     4  12  25  47  71 100 145 191 234 296 365 432
#     4   9  21  43  70 102 131 165 233 297 353 432
#     4  12  23  40  65 101 140 190 239 291 359 417
#     4  11  24  44  65  99 142 187 241 288 347 431
#     4  12  23  36  65  99 142 192 238 291 347 412
#
# _framework density 22.072690000000001
#
# number of rings (size 3 to 8) (size 9 to 14) (size 15 to 20)
#    0.000    0.857    4.286    2.571    2.000    4.000 
#    7.714    0.000    0.000    0.000    0.000    0.000 
#    0.000    0.000    0.000    0.000    0.000    0.000 
#
# Total GULP energy -346902.707183 kJ/mol
# GULP energy per Si atom -12389.382399 kJ/mol
# Density = 2.202245 g / cm^3
# Si number density = 22.072690 Si / 1000 Ang^3
#
#
#
# Elastic Constant Matrix: (Units=GPa)
#
#
# Indices 1 2 3 4 5 6 
#
# 1 132.2315 27.7280 44.6393 0.0000 -14.3377 0.0000
# 2 27.7280 94.9402 27.1032 0.0000 5.0217 0.0000
# 3 44.6393 27.1032 125.5362 0.0000 -5.9575 0.0000
# 4 0.0000 0.0000 0.0000 30.6374 0.0000 2.5060
# 5 -14.3377 5.0217 -5.9575 0.0000 29.8455 0.0000
# 6 0.0000 0.0000 0.0000 2.5060 0.0000 26.5945
#
#
#
# Elastic Compliance Matrix: (Units=1/GPa)
#
#
# Indices 1 2 3 4 5 6 
#
# 1 0.009396 -0.002216 -0.002656 0.000000 0.004357 0.000000
# 2 -0.002216 0.011920 -0.001949 0.000000 -0.003460 0.000000
# 3 -0.002656 -0.001949 0.009375 0.000000 0.000923 0.000000
# 4 0.000000 0.000000 0.000000 0.032893 0.000000 -0.003100
# 5 0.004357 -0.003460 0.000923 0.000000 0.036365 0.000000
# 6 0.000000 0.000000 0.000000 -0.003100 0.000000 0.037894
#
#
# Mechanical properties :
#
#
# Convention : Reuss Voigt Hill
#
# Bulk Modulus (GPa) = 58.66052 61.29431 59.97742
# Shear Modulus (GPa) = 31.81273 34.29797 33.05535
#
# Velocity S-wave (km/s) = 3.80053 3.94619 3.87404
# Velocity P-wave (km/s) = 6.77439 6.97085 6.87332
#
# Compressibility (1/GPa) = 0.01704724
#
# Stress axis : x y z
#
# Youngs Moduli (GPa) = 106.42526 83.89391 106.66713
#
# Poissons Ratio (x) = 0.18595 0.28330
# Poissons Ratio (y) = 0.23589 0.20795
# Poissons Ratio (z) = 0.28266 0.16355
#
# Static dielectric constant tensor:
#      x y z
#    x 4.191080 0.000000 -0.620380 
#    y 0.000000 3.983420 0.000000 
#    z -0.620380 0.000000 3.926900 
# 
# 
# High freq. dielectric constant tensor:
#      x y z
#    x 1.882230 0.000000 -0.010100 
#    y 0.000000 1.858920 0.000000 
#    z -0.010100 0.000000 1.866290 
# 
# From -- ./inp_files/49118.got.cif
#   From: 2010.06.25/outbox.cif.g09.slc.cpg/sg15_25_cif.got.tgz:49118.got - 2010.06.28 07:06:18.
