data_PCOD8153085
_publ_section_title
;
Structure prediction by ZEFSAII (Michael W. Deem and Ramdas Pophale) SiO2 
 PCOD8153085
Probable space group: C 2/C
;
_chemical_formula_sum "Si O2"
_cell_formula_units_Z 44
_cell_length_a 16.684594
_cell_length_b 11.846970
_cell_length_c 26.595327
_cell_angle_alpha 90.000000
_cell_angle_beta 22.252927
_cell_angle_gamma 90.000000
_cell_volume 1990.759827
_symmetry_space_group_name_H-M "C 2/C"
_symmetry_group_IT_number 15
_symmetry_cell_setting 'monoclinic'
loop_
_space_group_symop_operation_xyz
x,y,z
-x,y,1/2-z
-x,-y,-z
x,-y,1/2+z
1/2+x,1/2+y,z
1/2-x,1/2+y,1/2-z
1/2-x,1/2-y,-z
1/2+x,1/2-y,1/2+z
loop_
_atom_site_type_symbol
_atom_site_label
_atom_site_fract_x
_atom_site_fract_y
_atom_site_fract_z
Si Si1 0.000000 0.551839 0.250000
Si Si2 0.951687 0.199457 0.136562
Si Si3 0.875584 0.414283 0.417340
Si Si4 0.586215 0.626405 0.450505
Si Si5 0.236608 0.990125 0.097907
Si Si6 0.877440 0.343072 0.594032
O O1 0.999584 0.478523 0.199086
O O2 0.207160 0.630176 0.133802
O O3 0.853721 0.179682 0.138501
O O4 0.798909 0.128088 0.261999
O O5 0.962436 0.330290 0.147811
O O6 0.188804 0.152502 0.998336
O O7 0.771122 0.500417 0.518048
O O8 0.500000 0.500000 0.500000
O O9 0.406570 0.708042 0.577331
O O10 0.000000 0.951991 0.250000
O O11 0.287259 0.112544 0.093211
O O12 0.395592 0.897819 0.027362
#
# Coordination Sequence:
#
# PCOD8153085 Si02
#       6
#     4   8   8   8   8   8
#     4  12  26  44  70 102 148 186 238 284 368 416
#     4  11  23  42  71 102 137 176 244 284 353 405
#     4  11  23  42  73 102 136 185 233 296 338 426
#     4  12  25  47  68 104 142 186 229 295 353 423
#     4  11  23  46  71  98 140 178 241 286 353 419
#     4  11  25  43  70 101 138 189 224 298 351 423
#
# _framework density 22.102112000000002
#
# number of rings (size 3 to 8) (size 9 to 14) (size 15 to 20)
#    0.000    0.727    5.455    2.182    1.273    0.000 
#    4.909    1.818    0.000    0.000    0.000    0.000 
#    0.000    0.000    0.000    0.000    0.000    0.000 
#
# Total GULP energy -272830.561552 kJ/mol
# GULP energy per Si atom -12401.389161 kJ/mol
# Density = 2.205181 g / cm^3
# Si number density = 22.102112 Si / 1000 Ang^3
#
#
#
# Elastic Constant Matrix: (Units=GPa)
#
#
# Indices 1 2 3 4 5 6 
#
# 1 110.9010 20.5457 25.2475 -0.0060 12.3288 -0.0103
# 2 20.5457 79.6518 20.1802 -0.0221 -1.2641 0.0037
# 3 25.2475 20.1802 102.9352 -0.0320 4.6318 -0.0020
# 4 -0.0060 -0.0221 -0.0320 30.1742 -0.0333 -0.2275
# 5 12.3288 -1.2641 4.6318 -0.0333 44.6877 0.0056
# 6 -0.0103 0.0037 -0.0020 -0.2275 0.0056 32.1985
#
#
#
# Elastic Compliance Matrix: (Units=1/GPa)
#
#
# Indices 1 2 3 4 5 6 
#
# 1 0.010158 -0.002169 -0.001946 -0.000005 -0.002662 0.000004
# 2 -0.002169 0.013693 -0.002207 0.000009 0.001215 -0.000003
# 3 -0.001946 -0.002207 0.010653 0.000009 -0.000630 0.000000
# 4 -0.000005 0.000009 0.000009 0.033143 0.000025 0.000234
# 5 -0.002662 0.001215 -0.000630 0.000025 0.023212 -0.000005
# 6 0.000004 -0.000003 0.000000 0.000234 -0.000005 0.031059
#
#
# Mechanical properties :
#
#
# Convention : Reuss Voigt Hill
#
# Bulk Modulus (GPa) = 45.74889 47.27054 46.50971
# Shear Modulus (GPa) = 35.24878 36.57971 35.91425
#
# Velocity S-wave (km/s) = 3.99785 4.07262 4.03541
# Velocity P-wave (km/s) = 6.48492 6.59915 6.54228
#
# Compressibility (1/GPa) = 0.02185846
#
# Stress axis : x y z
#
# Youngs Moduli (GPa) = 98.44449 73.03196 93.86788
#
# Poissons Ratio (x) = 0.15843 0.18271
# Poissons Ratio (y) = 0.21356 0.20717
# Poissons Ratio (z) = 0.19162 0.16118
#
# Static dielectric constant tensor:
#      x y z
#    x 3.993480 0.000020 -0.025000 
#    y 0.000020 3.862550 0.000060 
#    z -0.025000 0.000060 4.028390 
# 
# 
# High freq. dielectric constant tensor:
#      x y z
#    x 1.871270 0.000000 0.003290 
#    y 0.000000 1.852310 0.000010 
#    z 0.003290 0.000010 1.880830 
# 
# From -- ./inp_files/104105.got.cif
#   From: 2010.06.25/outbox.cif.g09.slc.cpg/sg15_53_cif.got.tgz:104105.got - 2010.06.28 07:06:18.
