data_PCOD8153397
_publ_section_title
;
Structure prediction by ZEFSAII (Michael W. Deem and Ramdas Pophale) SiO2 
 PCOD8153397
Probable space group: C 2/C
;
_chemical_formula_sum "Si O2"
_cell_formula_units_Z 64
_cell_length_a 23.042698
_cell_length_b 17.154506
_cell_length_c 19.685558
_cell_angle_alpha 90.000000
_cell_angle_beta 157.583545
_cell_angle_gamma 90.000000
_cell_volume 2967.337528
_symmetry_space_group_name_H-M "C 2/C"
_symmetry_group_IT_number 15
_symmetry_cell_setting 'monoclinic'
loop_
_space_group_symop_operation_xyz
x,y,z
-x,y,1/2-z
-x,-y,-z
x,-y,1/2+z
1/2+x,1/2+y,z
1/2-x,1/2+y,1/2-z
1/2-x,1/2-y,-z
1/2+x,1/2-y,1/2+z
loop_
_atom_site_type_symbol
_atom_site_label
_atom_site_fract_x
_atom_site_fract_y
_atom_site_fract_z
Si Si1 0.651923 0.634458 0.720746
Si Si2 0.540200 0.384682 0.365849
Si Si3 0.197789 0.316889 0.766709
Si Si4 0.383193 0.443973 0.567944
Si Si5 0.037331 0.421689 0.212412
Si Si6 0.007256 0.849353 0.930033
Si Si7 0.679300 0.196426 0.092302
Si Si8 0.462600 0.948562 0.526920
O O1 0.607546 0.598495 0.746357
O O2 0.669403 0.726689 0.749903
O O3 0.517102 0.625025 0.519403
O O4 0.794380 0.588204 0.842916
O O5 0.500000 0.343426 0.250000
O O6 0.643738 0.330082 0.524018
O O7 0.628913 0.463005 0.441058
O O8 0.198742 0.338507 0.688423
O O9 0.070571 0.374756 0.658196
O O10 0.500000 0.409892 0.750000
O O11 0.217096 0.407361 0.398054
O O12 0.455375 0.425023 0.573313
O O13 0.000000 0.435277 0.250000
O O14 0.977592 0.496694 0.108027
O O15 0.952044 0.345953 0.091894
O O16 0.842319 0.814436 0.732666
O O17 0.137753 0.786943 0.052401
O O18 0.500000 0.000000 0.500000
#
# Coordination Sequence:
#
# PCOD8153397 Si02
#       8
#     8   8   8   8   8   8   8   8
#     4  11  26  41  72 101 138 180 236 284 352 412
#     4  11  25  44  67  98 137 179 231 289 347 408
#     4  11  23  46  67 102 137 182 229 289 344 418
#     4  11  25  44  68  96 139 180 227 281 350 414
#     4  12  26  44  69 102 141 182 233 290 348 417
#     4  11  24  42  70 101 137 180 228 286 345 425
#     4  11  24  42  70 101 140 177 230 281 353 415
#     4  12  25  42  72 103 140 184 236 291 353 414
#
# _framework density 21.568155999999998
#
# number of rings (size 3 to 8) (size 9 to 14) (size 15 to 20)
#    0.000    0.750    3.750    3.000   10.500    1.500 
#    0.000    3.750    0.000    0.000    0.000    0.000 
#    0.000    0.000    0.000    0.000    0.000    0.000 
#
# Total GULP energy -396760.280358 kJ/mol
# GULP energy per Si atom -12398.758761 kJ/mol
# Density = 2.151907 g / cm^3
# Si number density = 21.568156 Si / 1000 Ang^3
#
#
#
# Elastic Constant Matrix: (Units=GPa)
#
#
# Indices 1 2 3 4 5 6 
#
# 1 137.8260 33.3912 40.1020 0.0056 -16.4937 0.0040
# 2 33.3912 59.6228 27.1917 0.0007 -11.7397 0.0013
# 3 40.1020 27.1917 115.8628 0.0045 -5.1553 0.0039
# 4 0.0056 0.0007 0.0045 26.8075 0.0022 -0.0100
# 5 -16.4937 -11.7397 -5.1553 0.0022 44.5811 0.0021
# 6 0.0040 0.0013 0.0039 -0.0100 0.0021 24.9461
#
#
#
# Elastic Compliance Matrix: (Units=1/GPa)
#
#
# Indices 1 2 3 4 5 6 
#
# 1 0.009026 -0.003644 -0.002174 -0.000002 0.002128 -0.000001
# 2 -0.003644 0.021179 -0.003539 0.000000 0.003820 0.000000
# 3 -0.002174 -0.003539 0.010189 -0.000001 -0.000558 -0.000001
# 4 -0.000002 0.000000 -0.000001 0.037303 -0.000002 0.000015
# 5 0.002128 0.003820 -0.000558 -0.000002 0.024160 -0.000002
# 6 -0.000001 0.000000 -0.000001 0.000015 -0.000002 0.040086
#
#
# Mechanical properties :
#
#
# Convention : Reuss Voigt Hill
#
# Bulk Modulus (GPa) = 46.12731 57.18679 51.65705
# Shear Modulus (GPa) = 29.78241 33.44206 31.61224
#
# Velocity S-wave (km/s) = 3.72001 3.94195 3.83259
# Velocity P-wave (km/s) = 6.31542 6.87682 6.60209
#
# Compressibility (1/GPa) = 0.02167913
#
# Stress axis : x y z
#
# Youngs Moduli (GPa) = 110.79560 47.21611 98.14376
#
# Poissons Ratio (x) = 0.17207 0.21336
# Poissons Ratio (y) = 0.40376 0.34735
# Poissons Ratio (z) = 0.24087 0.16711
#
# Static dielectric constant tensor:
#      x y z
#    x 3.936210 -0.000010 -0.113680 
#    y -0.000010 3.712550 -0.000020 
#    z -0.113680 -0.000020 4.077790 
# 
# 
# High freq. dielectric constant tensor:
#      x y z
#    x 1.848170 0.000000 -0.001350 
#    y 0.000000 1.842590 0.000000 
#    z -0.001350 0.000000 1.858690 
# 
# From -- ./inp_files/256044.got.cif
#   From: 2010.06.25/outbox.cif.g09.slc.cpg/sg15_129_cif.got.tgz:256044.got - 2010.06.28 07:06:18.
