data_PCOD8153835
_publ_section_title
;
Structure prediction by ZEFSAII (Michael W. Deem and Ramdas Pophale) SiO2 
 PCOD8153835
Probable space group: C 2/C
;
_chemical_formula_sum "Si O2"
_cell_formula_units_Z 52
_cell_length_a 12.540810
_cell_length_b 14.508890
_cell_length_c 14.868572
_cell_angle_alpha 90.000000
_cell_angle_beta 67.654695
_cell_angle_gamma 90.000000
_cell_volume 2502.235739
_symmetry_space_group_name_H-M "C 2/C"
_symmetry_group_IT_number 15
_symmetry_cell_setting 'monoclinic'
loop_
_space_group_symop_operation_xyz
x,y,z
-x,y,1/2-z
-x,-y,-z
x,-y,1/2+z
1/2+x,1/2+y,z
1/2-x,1/2+y,1/2-z
1/2-x,1/2-y,-z
1/2+x,1/2-y,1/2+z
loop_
_atom_site_type_symbol
_atom_site_label
_atom_site_fract_x
_atom_site_fract_y
_atom_site_fract_z
Si Si1 0.000000 0.558673 0.750000
Si Si2 0.192207 0.330547 0.464441
Si Si3 0.641168 0.501820 0.555617
Si Si4 0.723095 0.610905 0.189757
Si Si5 0.488364 0.063500 0.089170
Si Si6 0.795640 0.316973 0.246185
Si Si7 0.377266 0.464142 0.144375
O O1 0.961469 0.493502 0.843649
O O2 0.107717 0.620906 0.739885
O O3 0.250000 0.250000 0.500000
O O4 0.266384 0.422631 0.445869
O O5 0.176868 0.300589 0.366746
O O6 0.066688 0.346334 0.548808
O O7 0.662962 0.415716 0.614845
O O8 0.659455 0.469953 0.447813
O O9 0.514349 0.543120 0.611048
O O10 0.858329 0.592375 0.147717
O O11 0.703635 0.719133 0.205775
O O12 0.667463 0.554758 0.289920
O O13 0.500000 0.000000 0.000000
O O14 0.674550 0.370659 0.296603
#
# Coordination Sequence:
#
# PCOD8153835 Si02
#       7
#     4   8   8   8   8   8   8
#     4  12  24  46  74  98 144 190 232 300 346 434
#     4  12  26  46  71 105 139 184 240 293 352 427
#     4  11  24  45  73  94 146 184 223 290 350 414
#     4  12  26  46  71 105 142 184 230 297 352 419
#     4  12  24  48  73 100 142 188 235 293 362 417
#     4  12  27  44  71 105 140 181 240 287 356 425
#     4  11  24  47  67 105 137 184 232 281 353 417
#
# _framework density 20.781414999999999
#
# number of rings (size 3 to 8) (size 9 to 14) (size 15 to 20)
#    0.000    0.308    6.154    2.308    6.462    0.615 
#    0.000    0.000    0.000    0.000    0.000    0.000 
#    0.000    0.000    0.000    0.000    0.000    0.000 
#
# Total GULP energy -322564.419614 kJ/mol
# GULP energy per Si atom -12406.323831 kJ/mol
# Density = 2.073412 g / cm^3
# Si number density = 20.781415 Si / 1000 Ang^3
#
#
#
# Elastic Constant Matrix: (Units=GPa)
#
#
# Indices 1 2 3 4 5 6 
#
# 1 90.7776 5.1156 42.2220 0.0000 8.9275 0.0000
# 2 5.1156 86.4150 36.8400 0.0000 11.9674 0.0000
# 3 42.2220 36.8400 133.9133 0.0000 15.9650 0.0000
# 4 0.0000 0.0000 0.0000 30.7651 0.0000 5.2924
# 5 8.9275 11.9674 15.9650 0.0000 40.3778 0.0000
# 6 0.0000 0.0000 0.0000 5.2924 0.0000 40.3695
#
#
#
# Elastic Compliance Matrix: (Units=1/GPa)
#
#
# Indices 1 2 3 4 5 6 
#
# 1 0.013095 0.001272 -0.004291 0.000000 -0.001576 0.000000
# 2 0.001272 0.013495 -0.003781 0.000000 -0.002786 0.000000
# 3 -0.004291 -0.003781 0.010090 0.000000 -0.001920 0.000000
# 4 0.000000 0.000000 0.000000 0.033254 0.000000 -0.004360
# 5 -0.001576 -0.002786 -0.001920 0.000000 0.026699 0.000000
# 6 0.000000 0.000000 0.000000 -0.004360 0.000000 0.025343
#
#
# Mechanical properties :
#
#
# Convention : Reuss Voigt Hill
#
# Bulk Modulus (GPa) = 43.32928 53.27347 48.30137
# Shear Modulus (GPa) = 34.89947 37.43102 36.16525
#
# Velocity S-wave (km/s) = 4.10244 4.24863 4.17618
# Velocity P-wave (km/s) = 6.58296 7.05398 6.82254
#
# Compressibility (1/GPa) = 0.02307908
#
# Stress axis : x y z
#
# Youngs Moduli (GPa) = 76.36520 74.10354 99.11201
#
# Poissons Ratio (x) = -0.09428 0.42528
# Poissons Ratio (y) = -0.09716 0.37479
# Poissons Ratio (z) = 0.32768 0.28022
#
# Static dielectric constant tensor:
#      x y z
#    x 3.950830 0.000000 0.032180 
#    y 0.000000 3.843850 0.000000 
#    z 0.032180 0.000000 4.244010 
# 
# 
# High freq. dielectric constant tensor:
#      x y z
#    x 1.831680 0.000000 0.000470 
#    y 0.000000 1.808340 0.000000 
#    z 0.000470 0.000000 1.834390 
# 
# From -- ./inp_files/144176.got.cif
#   From: 2010.06.25/outbox.cif.g09.slc.cpg/sg15_73_cif.got.tgz:144176.got - 2010.06.28 07:06:18.
