data_PCOD8153499
_publ_section_title
;
Structure prediction by ZEFSAII (Michael W. Deem and Ramdas Pophale) SiO2 
 PCOD8153499
Probable space group: C 2/C
;
_chemical_formula_sum "Si O2"
_cell_formula_units_Z 60
_cell_length_a 27.554598
_cell_length_b 8.475871
_cell_length_c 23.073212
_cell_angle_alpha 90.000000
_cell_angle_beta 149.575452
_cell_angle_gamma 90.000000
_cell_volume 2728.870732
_symmetry_space_group_name_H-M "C 2/C"
_symmetry_group_IT_number 15
_symmetry_cell_setting 'monoclinic'
loop_
_space_group_symop_operation_xyz
x,y,z
-x,y,1/2-z
-x,-y,-z
x,-y,1/2+z
1/2+x,1/2+y,z
1/2-x,1/2+y,1/2-z
1/2-x,1/2-y,-z
1/2+x,1/2-y,1/2+z
loop_
_atom_site_type_symbol
_atom_site_label
_atom_site_fract_x
_atom_site_fract_y
_atom_site_fract_z
Si Si1 0.000000 0.305159 0.250000
Si Si2 0.781612 0.523884 0.927313
Si Si3 0.077159 0.321693 0.134074
Si Si4 0.094027 0.808105 0.237658
Si Si5 0.265377 0.350103 0.395447
Si Si6 0.973295 0.100611 0.112162
Si Si7 0.333281 0.034015 0.109413
Si Si8 0.451457 0.115478 0.020532
O O1 0.958445 0.206399 0.153943
O O2 0.918687 0.410391 0.194213
O O3 0.685661 0.604516 0.804235
O O4 0.774097 0.336505 0.914315
O O5 0.789160 0.573576 0.001989
O O6 0.870591 0.601052 0.985931
O O7 0.178146 0.388293 0.261980
O O8 0.046127 0.168184 0.138648
O O9 0.987619 0.439628 0.045950
O O10 0.091755 0.294680 0.080298
O O11 0.125339 0.695832 0.322353
O O12 0.044542 0.710254 0.136079
O O13 0.016227 0.936150 0.179118
O O14 0.366662 0.415517 0.474659
O O15 0.247961 0.449193 0.436047
#
# Coordination Sequence:
#
# PCOD8153499 Si02
#       8
#     4   8   8   8   8   8   8   8
#     4  12  22  44  74  94 146 192 232 278 358 432
#     4  12  25  46  70 108 141 187 240 287 359 433
#     4  11  23  51  72  98 140 192 244 292 355 425
#     4  12  27  45  68 109 151 175 236 298 366 417
#     4  12  24  46  73 104 138 189 242 290 351 435
#     4  12  26  42  72 107 140 189 242 290 356 437
#     4  12  24  44  71 104 148 188 224 294 361 431
#     4  11  26  47  74  97 143 193 235 302 358 416
#
# _framework density 21.987117999999999
#
# number of rings (size 3 to 8) (size 9 to 14) (size 15 to 20)
#    0.000    0.267    6.667    1.600    3.733    3.200 
#    2.400    0.000    0.000    0.000    0.000    0.000 
#    0.000    0.000    0.000    0.000    0.000    0.000 
#
# Total GULP energy -372032.022084 kJ/mol
# GULP energy per Si atom -12401.067403 kJ/mol
# Density = 2.193707 g / cm^3
# Si number density = 21.987118 Si / 1000 Ang^3
#
#
#
# Elastic Constant Matrix: (Units=GPa)
#
#
# Indices 1 2 3 4 5 6 
#
# 1 91.4497 35.7546 54.9637 0.0000 -9.7686 0.0000
# 2 35.7546 107.5785 26.8872 0.0000 4.9919 0.0000
# 3 54.9637 26.8872 124.0815 0.0000 9.7851 0.0000
# 4 0.0000 0.0000 0.0000 39.5871 0.0000 4.7798
# 5 -9.7686 4.9919 9.7851 0.0000 37.2905 0.0000
# 6 0.0000 0.0000 0.0000 4.7798 0.0000 24.4103
#
#
#
# Elastic Compliance Matrix: (Units=1/GPa)
#
#
# Indices 1 2 3 4 5 6 
#
# 1 0.018010 -0.004427 -0.007595 0.000000 0.007303 0.000000
# 2 -0.004427 0.010938 -0.000207 0.000000 -0.002570 0.000000
# 3 -0.007595 -0.000207 0.011869 0.000000 -0.005076 0.000000
# 4 0.000000 0.000000 0.000000 0.025872 0.000000 -0.005066
# 5 0.007303 -0.002570 -0.005076 0.000000 0.030406 0.000000
# 6 0.000000 0.000000 0.000000 -0.005066 0.000000 0.041958
#
#
# Mechanical properties :
#
#
# Convention : Reuss Voigt Hill
#
# Bulk Modulus (GPa) = 61.12235 62.03565 61.57900
# Shear Modulus (GPa) = 29.59234 33.95787 31.77510
#
# Velocity S-wave (km/s) = 3.67262 3.93420 3.80566
# Velocity P-wave (km/s) = 6.77080 6.99379 6.88320
#
# Compressibility (1/GPa) = 0.01636063
#
# Stress axis : x y z
#
# Youngs Moduli (GPa) = 55.52320 91.42742 84.25662
#
# Poissons Ratio (x) = 0.40472 0.63991
# Poissons Ratio (y) = 0.24578 0.01741
# Poissons Ratio (z) = 0.42168 0.01889
#
# Static dielectric constant tensor:
#      x y z
#    x 3.878430 0.000000 -0.008990 
#    y 0.000000 4.042160 0.000000 
#    z -0.008990 0.000000 4.289490 
# 
# 
# High freq. dielectric constant tensor:
#      x y z
#    x 1.849310 0.000000 0.009100 
#    y 0.000000 1.868210 0.000000 
#    z 0.009100 0.000000 1.884160 
# 
# From -- ./inp_files/283413.got.cif
#   From: 2010.06.25/outbox.cif.g09.slc.cpg/sg15_142_cif.got.tgz:283413.got - 2010.06.28 07:06:18.
