data_PCOD8153743
_publ_section_title
;
Structure prediction by ZEFSAII (Michael W. Deem and Ramdas Pophale) SiO2 
 PCOD8153743
Probable space group: C 2/C
;
_chemical_formula_sum "Si O2"
_cell_formula_units_Z 56
_cell_length_a 10.941672
_cell_length_b 18.135447
_cell_length_c 14.625558
_cell_angle_alpha 90.000000
_cell_angle_beta 57.444654
_cell_angle_gamma 90.000000
_cell_volume 2446.166683
_symmetry_space_group_name_H-M "C 2/C"
_symmetry_group_IT_number 15
_symmetry_cell_setting 'monoclinic'
loop_
_space_group_symop_operation_xyz
x,y,z
-x,y,1/2-z
-x,-y,-z
x,-y,1/2+z
1/2+x,1/2+y,z
1/2-x,1/2+y,1/2-z
1/2-x,1/2-y,-z
1/2+x,1/2-y,1/2+z
loop_
_atom_site_type_symbol
_atom_site_label
_atom_site_fract_x
_atom_site_fract_y
_atom_site_fract_z
Si Si1 0.049279 0.189804 0.008315
Si Si2 0.000000 0.042545 0.750000
Si Si3 0.615857 0.528999 0.028631
Si Si4 0.058848 0.486975 0.078475
Si Si5 0.667113 0.674921 0.761975
Si Si6 0.000000 0.589184 0.250000
Si Si7 0.999925 0.322865 0.354749
Si Si8 0.778600 0.708129 0.393655
O O1 0.126746 0.117333 0.016288
O O2 0.089975 0.261460 0.052222
O O3 0.875869 0.180866 0.082021
O O4 0.109416 0.202554 0.882342
O O5 0.112599 0.094117 0.758327
O O6 0.066854 0.988122 0.650206
O O7 0.500000 0.500000 0.000000
O O8 0.774551 0.489871 0.962669
O O9 0.949919 0.533765 0.188011
O O10 0.068610 0.401545 0.099479
O O11 0.000000 0.500000 0.000000
O O12 0.837002 0.671395 0.679057
O O13 0.623944 0.736745 0.706356
O O14 0.875632 0.634875 0.352615
O O15 0.000000 0.298986 0.250000
O O16 0.750000 0.750000 0.500000
#
# Coordination Sequence:
#
# PCOD8153743 Si02
#       8
#     8   4   8   8   8   4   8   8
#     4  11  25  45  72 103 146 192 250 307 380 457
#     4  12  25  44  73 102 144 190 246 310 379 436
#     4  12  27  47  74 108 146 194 252 313 374 452
#     4  12  29  48  75 107 150 199 251 312 378 456
#     4  11  24  44  73 100 138 190 239 306 370 446
#     4  12  27  46  75 108 152 196 252 312 377 452
#     4  11  26  47  69 104 145 195 245 305 381 459
#     4  11  25  43  74 107 143 185 249 307 374 446
#
# _framework density 22.892961
#
# number of rings (size 3 to 8) (size 9 to 14) (size 15 to 20)
#    0.000    0.571    2.143    4.714    9.000    5.714 
#    0.000    0.000    0.000    0.000    0.000    0.000 
#    0.000    0.000    0.000    0.000    0.000    0.000 
#
# Total GULP energy -346948.943962 kJ/mol
# GULP energy per Si atom -12391.033713 kJ/mol
# Density = 2.284086 g / cm^3
# Si number density = 22.892961 Si / 1000 Ang^3
#
#
#
# Elastic Constant Matrix: (Units=GPa)
#
#
# Indices 1 2 3 4 5 6 
#
# 1 90.8789 21.8697 32.5286 0.0000 1.7123 0.0000
# 2 21.8697 142.4909 82.9874 0.0000 16.2843 0.0000
# 3 32.5286 82.9874 183.9604 0.0000 30.8042 0.0000
# 4 0.0000 0.0000 0.0000 54.2231 0.0000 8.3496
# 5 1.7123 16.2843 30.8042 0.0000 43.1437 0.0000
# 6 0.0000 0.0000 0.0000 8.3496 0.0000 31.4667
#
#
#
# Elastic Compliance Matrix: (Units=1/GPa)
#
#
# Indices 1 2 3 4 5 6 
#
# 1 0.011872 -0.000841 -0.001924 0.000000 0.001220 0.000000
# 2 -0.000841 0.009592 -0.004064 0.000000 -0.000686 0.000000
# 3 -0.001924 -0.004064 0.008336 0.000000 -0.004342 0.000000
# 4 0.000000 0.000000 0.000000 0.019228 0.000000 -0.005102
# 5 0.001220 -0.000686 -0.004342 0.000000 0.026489 0.000000
# 6 0.000000 0.000000 0.000000 -0.005102 0.000000 0.033133
#
#
# Mechanical properties :
#
#
# Convention : Reuss Voigt Hill
#
# Bulk Modulus (GPa) = 61.94676 76.90017 69.42347
# Shear Modulus (GPa) = 39.15768 44.42967 41.79368
#
# Velocity S-wave (km/s) = 4.14027 4.41018 4.27735
# Velocity P-wave (km/s) = 7.06922 7.71991 7.40172
#
# Compressibility (1/GPa) = 0.01614289
#
# Stress axis : x y z
#
# Youngs Moduli (GPa) = 84.23365 104.25243 119.95544
#
# Poissons Ratio (x) = 0.08766 0.23081
# Poissons Ratio (y) = 0.07083 0.48746
# Poissons Ratio (z) = 0.16208 0.42364
#
# Static dielectric constant tensor:
#      x y z
#    x 4.312120 0.000000 -0.002130 
#    y 0.000000 4.532940 0.000000 
#    z -0.002130 0.000000 4.185670 
# 
# 
# High freq. dielectric constant tensor:
#      x y z
#    x 1.905880 0.000000 -0.006240 
#    y 0.000000 1.918460 0.000000 
#    z -0.006240 0.000000 1.917230 
# 
# From -- ./inp_files/146009.got.cif
#   From: 2010.06.25/outbox.cif.g09.slc.cpg/sg15_74_cif.got.tgz:146009.got - 2010.06.28 07:06:18.
