data_PCOD8153929
_publ_section_title
;
Structure prediction by ZEFSAII (Michael W. Deem and Ramdas Pophale) SiO2 
 PCOD8153929
Probable space group: C 2/C
;
_chemical_formula_sum "Si O2"
_cell_formula_units_Z 44
_cell_length_a 9.304454
_cell_length_b 16.464909
_cell_length_c 17.099049
_cell_angle_alpha 90.000000
_cell_angle_beta 135.147417
_cell_angle_gamma 90.000000
_cell_volume 1847.510458
_symmetry_space_group_name_H-M "C 2/C"
_symmetry_group_IT_number 15
_symmetry_cell_setting 'monoclinic'
loop_
_space_group_symop_operation_xyz
x,y,z
-x,y,1/2-z
-x,-y,-z
x,-y,1/2+z
1/2+x,1/2+y,z
1/2-x,1/2+y,1/2-z
1/2-x,1/2-y,-z
1/2+x,1/2-y,1/2+z
loop_
_atom_site_type_symbol
_atom_site_label
_atom_site_fract_x
_atom_site_fract_y
_atom_site_fract_z
Si Si1 0.897206 0.323348 0.568978
Si Si2 0.738754 0.033043 0.727136
Si Si3 0.500000 0.083144 0.250000
Si Si4 0.223273 0.767607 0.864191
Si Si5 0.300900 0.527876 0.577775
Si Si6 0.851923 0.373598 0.060278
O O1 0.750000 0.250000 0.500000
O O2 0.846287 0.394919 0.488298
O O3 0.864431 0.358891 0.643008
O O4 0.124888 0.287499 0.647905
O O5 0.750999 0.992092 0.645007
O O6 0.595013 0.112758 0.667128
O O7 0.965896 0.057586 0.840826
O O8 0.650713 0.969156 0.754690
O O9 0.226915 0.672399 0.891800
O O10 0.000000 0.795244 0.750000
O O11 0.302692 0.818970 0.967640
O O12 0.253132 0.461639 0.491834
#
# Coordination Sequence:
#
# PCOD8153929 Si02
#       6
#     8   8   4   8   8   8
#     4  12  29  49  72 111 158 204 254 324 391 463
#     4  11  25  46  78 116 145 201 255 321 377 471
#     4  12  28  46  76 112 154 192 270 314 390 456
#     4  11  28  46  75 110 151 200 247 316 385 460
#     4  11  25  48  83 105 154 202 255 315 397 452
#     4  11  24  46  78 108 145 191 259 305 378 457
#
# _framework density 23.815830999999999
#
# number of rings (size 3 to 8) (size 9 to 14) (size 15 to 20)
#    0.000    0.727    3.636    1.636   11.455    3.636 
#    0.000    0.000    0.000    0.000    0.000    0.000 
#    0.000    0.000    0.000    0.000    0.000    0.000 
#
# Total GULP energy -272781.560476 kJ/mol
# GULP energy per Si atom -12399.161840 kJ/mol
# Density = 2.376162 g / cm^3
# Si number density = 23.815831 Si / 1000 Ang^3
#
#
#
# Elastic Constant Matrix: (Units=GPa)
#
#
# Indices 1 2 3 4 5 6 
#
# 1 141.8710 67.6905 83.3242 0.0000 10.4724 0.0000
# 2 67.6905 136.6645 56.5807 0.0000 12.1943 0.0000
# 3 83.3242 56.5807 130.5145 0.0000 23.0299 0.0000
# 4 0.0000 0.0000 0.0000 34.9607 0.0000 0.7233
# 5 10.4724 12.1943 23.0299 0.0000 46.9316 0.0000
# 6 0.0000 0.0000 0.0000 0.7233 0.0000 33.0437
#
#
#
# Elastic Compliance Matrix: (Units=1/GPa)
#
#
# Indices 1 2 3 4 5 6 
#
# 1 0.012620 -0.003581 -0.006757 0.000000 0.001430 0.000000
# 2 -0.003581 0.009943 -0.001871 0.000000 -0.000866 0.000000
# 3 -0.006757 -0.001871 0.013614 0.000000 -0.004687 0.000000
# 4 0.000000 0.000000 0.000000 0.028616 0.000000 -0.000626
# 5 0.001430 -0.000866 -0.004687 0.000000 0.023513 0.000000
# 6 0.000000 0.000000 0.000000 -0.000626 0.000000 0.030277
#
#
# Mechanical properties :
#
#
# Convention : Reuss Voigt Hill
#
# Bulk Modulus (GPa) = 85.04554 91.58228 88.31391
# Shear Modulus (GPa) = 34.03160 36.41750 35.22455
#
# Velocity S-wave (km/s) = 3.78424 3.91465 3.85000
# Velocity P-wave (km/s) = 7.40818 7.67923 7.54492
#
# Compressibility (1/GPa) = 0.01175841
#
# Stress axis : x y z
#
# Youngs Moduli (GPa) = 79.23774 100.57390 73.45289
#
# Poissons Ratio (x) = 0.36015 0.49633
# Poissons Ratio (y) = 0.28375 0.13746
# Poissons Ratio (z) = 0.53541 0.18822
#
# Static dielectric constant tensor:
#      x y z
#    x 3.280900 0.000000 0.398400 
#    y 0.000000 4.496480 0.000000 
#    z 0.398400 0.000000 4.451710 
# 
# 
# High freq. dielectric constant tensor:
#      x y z
#    x 1.935080 0.000000 0.000760 
#    y 0.000000 1.942070 0.000000 
#    z 0.000760 0.000000 1.963090 
# 
# From -- ./inp_files/191180.got.cif
#   From: 2010.06.25/outbox.cif.g09.slc.cpg/sg15_96_cif.got.tgz:191180.got - 2010.06.28 07:06:18.
