data_PCOD8153907
_publ_section_title
;
Structure prediction by ZEFSAII (Michael W. Deem and Ramdas Pophale) SiO2 
 PCOD8153907
Probable space group: C 2/C
;
_chemical_formula_sum "Si O2"
_cell_formula_units_Z 40
_cell_length_a 30.371526
_cell_length_b 8.786302
_cell_length_c 15.362213
_cell_angle_alpha 90.000000
_cell_angle_beta 154.323559
_cell_angle_gamma 90.000000
_cell_volume 1776.248508
_symmetry_space_group_name_H-M "C 2/C"
_symmetry_group_IT_number 15
_symmetry_cell_setting 'monoclinic'
loop_
_space_group_symop_operation_xyz
x,y,z
-x,y,1/2-z
-x,-y,-z
x,-y,1/2+z
1/2+x,1/2+y,z
1/2-x,1/2+y,1/2-z
1/2-x,1/2-y,-z
1/2+x,1/2-y,1/2+z
loop_
_atom_site_type_symbol
_atom_site_label
_atom_site_fract_x
_atom_site_fract_y
_atom_site_fract_z
Si Si1 0.387167 0.474890 0.552689
Si Si2 0.030399 0.323005 0.553545
Si Si3 0.418451 0.196520 0.165047
Si Si4 0.655292 0.358249 0.839721
Si Si5 0.806647 0.117908 0.726894
O O1 0.500000 0.404643 0.750000
O O2 0.391583 0.657280 0.558616
O O3 0.331478 0.429145 0.541774
O O4 0.323950 0.414574 0.358809
O O5 0.028488 0.262203 0.649048
O O6 0.140741 0.279555 0.707296
O O7 0.000000 0.500000 0.500000
O O8 0.948139 0.235969 0.349523
O O9 0.500000 0.102210 0.250000
O O10 0.314593 0.110074 0.002492
O O11 0.647823 0.487193 0.752936
O O12 0.750000 0.250000 0.000000
#
# Coordination Sequence:
#
# PCOD8153907 Si02
#       5
#     8   8   8   8   8
#     4  11  24  46  73 102 142 190 241 297 362 432
#     4  12  26  48  73 107 147 189 242 306 369 438
#     4  11  26  46  71 106 142 188 243 302 363 430
#     4  12  26  46  73 108 146 195 245 296 370 439
#     4  12  26  48  75 104 149 195 242 304 368 438
#
# _framework density 22.519371
#
# number of rings (size 3 to 8) (size 9 to 14) (size 15 to 20)
#    0.000    0.400    4.000    4.800    8.400    0.000 
#    3.600    0.000    0.000    0.000    0.000    0.000 
#    0.000    0.000    0.000    0.000    0.000    0.000 
#
# Total GULP energy -247993.130478 kJ/mol
# GULP energy per Si atom -12399.656524 kJ/mol
# Density = 2.246812 g / cm^3
# Si number density = 22.519371 Si / 1000 Ang^3
#
#
#
# Elastic Constant Matrix: (Units=GPa)
#
#
# Indices 1 2 3 4 5 6 
#
# 1 133.1463 29.7025 50.7321 0.0000 -7.6046 0.0000
# 2 29.7025 94.3736 23.2200 0.0000 4.2776 0.0000
# 3 50.7321 23.2200 91.9850 0.0000 -0.8561 0.0000
# 4 0.0000 0.0000 0.0000 31.7396 0.0000 5.7616
# 5 -7.6046 4.2776 -0.8561 0.0000 57.2247 0.0000
# 6 0.0000 0.0000 0.0000 5.7616 0.0000 30.4801
#
#
#
# Elastic Compliance Matrix: (Units=1/GPa)
#
#
# Indices 1 2 3 4 5 6 
#
# 1 0.009919 -0.001964 -0.004962 0.000000 0.001391 0.000000
# 2 -0.001964 0.011732 -0.001889 0.000000 -0.001166 0.000000
# 3 -0.004962 -0.001889 0.014082 0.000000 -0.000307 0.000000
# 4 0.000000 0.000000 0.000000 0.032626 0.000000 -0.006167
# 5 0.001391 -0.001166 -0.000307 0.000000 0.017742 0.000000
# 6 0.000000 0.000000 0.000000 -0.006167 0.000000 0.033974
#
#
# Mechanical properties :
#
#
# Convention : Reuss Voigt Hill
#
# Bulk Modulus (GPa) = 55.24009 58.53489 56.88749
# Shear Modulus (GPa) = 34.78534 38.27890 36.53212
#
# Velocity S-wave (km/s) = 3.93451 4.12736 4.03209
# Velocity P-wave (km/s) = 6.72486 6.98305 6.85517
#
# Compressibility (1/GPa) = 0.01810280
#
# Stress axis : x y z
#
# Youngs Moduli (GPa) = 100.82062 85.23695 71.01330
#
# Poissons Ratio (x) = 0.16740 0.35234
# Poissons Ratio (y) = 0.19801 0.13416
# Poissons Ratio (z) = 0.50024 0.16103
#
# Static dielectric constant tensor:
#      x y z
#    x 4.467720 0.000000 0.097130 
#    y 0.000000 3.879470 0.000000 
#    z 0.097130 0.000000 4.244830 
# 
# 
# High freq. dielectric constant tensor:
#      x y z
#    x 1.908080 0.000000 -0.000770 
#    y 0.000000 1.867550 0.000000 
#    z -0.000770 0.000000 1.899490 
# 
# From -- ./inp_files/150562.got.cif
#   From: 2010.06.25/outbox.cif.g09.slc.cpg/sg15_76_cif.got.tgz:150562.got - 2010.06.28 07:06:18.
