data_PCOD8153457
_publ_section_title
;
Structure prediction by ZEFSAII (Michael W. Deem and Ramdas Pophale) SiO2 
 PCOD8153457
Probable space group: C 2/C
;
_chemical_formula_sum "Si O2"
_cell_formula_units_Z 44
_cell_length_a 8.190145
_cell_length_b 11.513267
_cell_length_c 24.172465
_cell_angle_alpha 90.000000
_cell_angle_beta 127.391122
_cell_angle_gamma 90.000000
_cell_volume 1810.963835
_symmetry_space_group_name_H-M "C 2/C"
_symmetry_group_IT_number 15
_symmetry_cell_setting 'monoclinic'
loop_
_space_group_symop_operation_xyz
x,y,z
-x,y,1/2-z
-x,-y,-z
x,-y,1/2+z
1/2+x,1/2+y,z
1/2-x,1/2+y,1/2-z
1/2-x,1/2-y,-z
1/2+x,1/2-y,1/2+z
loop_
_atom_site_type_symbol
_atom_site_label
_atom_site_fract_x
_atom_site_fract_y
_atom_site_fract_z
Si Si1 0.406109 0.591434 0.063593
Si Si2 0.753702 0.230124 0.208148
Si Si3 0.835860 0.984239 0.668643
Si Si4 0.500000 0.131729 0.250000
Si Si5 0.024468 0.353067 0.421686
Si Si6 0.749445 0.940368 0.364538
O O1 0.443928 0.567554 0.136500
O O2 0.489180 0.718695 0.064490
O O3 0.549199 0.493731 0.063845
O O4 0.170125 0.578896 0.995593
O O5 0.679131 0.115983 0.158789
O O6 0.663729 0.215226 0.251679
O O7 0.675541 0.353795 0.169215
O O8 0.000000 0.227785 0.250000
O O9 0.000000 0.018111 0.750000
O O10 0.703894 0.096224 0.624073
O O11 0.619150 0.049051 0.316569
O O12 0.119274 0.363116 0.379996
#
# Coordination Sequence:
#
# PCOD8153457 Si02
#       6
#     8   8   8   4   8   8
#     4  11  26  47  73 105 143 201 241 297 379 435
#     4  11  24  46  68 107 152 189 241 310 378 439
#     4  11  23  47  71 106 146 188 244 307 367 435
#     4  12  26  44  72 108 148 196 242 308 386 434
#     4  11  25  49  74 101 149 191 246 302 363 454
#     4  12  24  46  69 104 144 189 246 306 363 445
#
# _framework density 24.296455000000002
#
# number of rings (size 3 to 8) (size 9 to 14) (size 15 to 20)
#    0.000    0.727    4.545    3.273    0.000    1.455 
#    8.182    0.909    0.000    0.000    0.000    0.000 
#    0.000    0.000    0.000    0.000    0.000    0.000 
#
# Total GULP energy -272742.764605 kJ/mol
# GULP energy per Si atom -12397.398391 kJ/mol
# Density = 2.424116 g / cm^3
# Si number density = 24.296455 Si / 1000 Ang^3
#
#
#
# Elastic Constant Matrix: (Units=GPa)
#
#
# Indices 1 2 3 4 5 6 
#
# 1 89.5342 35.0287 10.8869 0.0000 5.9373 0.0000
# 2 35.0287 110.6362 29.0840 0.0000 23.3748 0.0000
# 3 10.8869 29.0840 112.6613 0.0000 17.1354 0.0000
# 4 0.0000 0.0000 0.0000 38.9106 0.0000 2.8213
# 5 5.9373 23.3748 17.1354 0.0000 35.9420 0.0000
# 6 0.0000 0.0000 0.0000 2.8213 0.0000 22.1655
#
#
#
# Elastic Compliance Matrix: (Units=1/GPa)
#
#
# Indices 1 2 3 4 5 6 
#
# 1 0.012767 -0.004117 -0.000277 0.000000 0.000701 0.000000
# 2 -0.004117 0.012156 -0.001770 0.000000 -0.006382 0.000000
# 3 -0.000277 -0.001770 0.009895 0.000000 -0.003521 0.000000
# 4 0.000000 0.000000 0.000000 0.025939 0.000000 -0.003302
# 5 0.000701 -0.006382 -0.003521 0.000000 0.033536 0.000000
# 6 0.000000 0.000000 0.000000 -0.003302 0.000000 0.045535
#
#
# Mechanical properties :
#
#
# Convention : Reuss Voigt Hill
#
# Bulk Modulus (GPa) = 44.46543 51.42565 47.94554
# Shear Modulus (GPa) = 31.31781 35.25911 33.28846
#
# Velocity S-wave (km/s) = 3.59414 3.81360 3.70550
# Velocity P-wave (km/s) = 5.96362 6.37207 6.17122
#
# Compressibility (1/GPa) = 0.02248938
#
# Stress axis : x y z
#
# Youngs Moduli (GPa) = 78.32690 82.26586 101.05799
#
# Poissons Ratio (x) = 0.33872 0.02804
# Poissons Ratio (y) = 0.32250 0.17883
# Poissons Ratio (z) = 0.02173 0.14557
#
# Static dielectric constant tensor:
#      x y z
#    x 4.306930 0.000000 0.028740 
#    y 0.000000 4.698730 0.000000 
#    z 0.028740 0.000000 4.322950 
# 
# 
# High freq. dielectric constant tensor:
#      x y z
#    x 1.957040 0.000000 -0.001420 
#    y 0.000000 1.978990 0.000000 
#    z -0.001420 0.000000 1.955370 
# 
# From -- ./inp_files/230212.got.cif
#   From: 2010.06.25/outbox.cif.g09.slc.cpg/sg15_116_cif.got.tgz:230212.got - 2010.06.28 07:06:18.
