data_PCOD8153801
_publ_section_title
;
Structure prediction by ZEFSAII (Michael W. Deem and Ramdas Pophale) SiO2 
 PCOD8153801
Probable space group: C 2/C
;
_chemical_formula_sum "Si O2"
_cell_formula_units_Z 48
_cell_length_a 21.077764
_cell_length_b 17.275126
_cell_length_c 14.505489
_cell_angle_alpha 90.000000
_cell_angle_beta 23.138396
_cell_angle_gamma 90.000000
_cell_volume 2075.483209
_symmetry_space_group_name_H-M "C 2/C"
_symmetry_group_IT_number 15
_symmetry_cell_setting 'monoclinic'
loop_
_space_group_symop_operation_xyz
x,y,z
-x,y,1/2-z
-x,-y,-z
x,-y,1/2+z
1/2+x,1/2+y,z
1/2-x,1/2+y,1/2-z
1/2-x,1/2-y,-z
1/2+x,1/2-y,1/2+z
loop_
_atom_site_type_symbol
_atom_site_label
_atom_site_fract_x
_atom_site_fract_y
_atom_site_fract_z
Si Si1 0.176854 0.503227 0.301534
Si Si2 0.092752 0.782432 0.346310
Si Si3 0.910712 0.202144 0.274845
Si Si4 0.681055 0.073064 0.988418
Si Si5 0.357032 0.661376 0.012645
Si Si6 0.658805 0.537225 0.081414
O O1 0.182874 0.485519 0.400913
O O2 0.274092 0.583286 0.159465
O O3 0.000000 0.500000 0.500000
O O4 0.251863 0.437830 0.133222
O O5 0.198436 0.859199 0.197401
O O6 0.210831 0.711133 0.162473
O O7 0.023908 0.769397 0.540788
O O8 0.936815 0.788444 0.488632
O O9 0.750000 0.250000 0.500000
O O10 0.869871 0.111166 0.315421
O O11 0.000000 0.216124 0.250000
O O12 0.744248 0.028892 0.994207
O O13 0.500000 0.103864 0.250000
O O14 0.500000 0.644614 0.750000
O O15 0.500000 0.498428 0.250000
#
# Coordination Sequence:
#
# PCOD8153801 Si02
#       6
#     8   8   8   8   8   8
#     4  12  26  43  73 103 141 187 242 293 356 419
#     4  12  27  46  73 104 145 186 236 290 356 426
#     4  11  25  44  70  98 137 181 230 288 349 418
#     4  12  25  44  71 105 140 187 236 293 351 424
#     4  12  28  47  74 105 145 190 236 294 354 425
#     4  11  24  45  70 100 139 181 233 294 349 416
#
# _framework density 23.127144999999999
#
# number of rings (size 3 to 8) (size 9 to 14) (size 15 to 20)
#    0.000    0.333    1.667    7.500    4.667    2.667 
#    0.000    0.000    0.000    0.000    0.000    0.000 
#    0.000    0.000    0.000    0.000    0.000    0.000 
#
# Total GULP energy -297455.137805 kJ/mol
# GULP energy per Si atom -12393.964075 kJ/mol
# Density = 2.307451 g / cm^3
# Si number density = 23.127145 Si / 1000 Ang^3
#
#
#
# Elastic Constant Matrix: (Units=GPa)
#
#
# Indices 1 2 3 4 5 6 
#
# 1 91.6408 9.3882 28.5385 -0.0053 -2.6864 0.0051
# 2 9.3882 78.2788 22.8043 -0.0011 -11.4641 0.0039
# 3 28.5385 22.8043 140.9322 -0.0002 -2.2363 0.0053
# 4 -0.0053 -0.0011 -0.0002 36.5666 0.0021 -6.3377
# 5 -2.6864 -11.4641 -2.2363 0.0021 45.5375 -0.0033
# 6 0.0051 0.0039 0.0053 -6.3377 -0.0033 26.3775
#
#
#
# Elastic Compliance Matrix: (Units=1/GPa)
#
#
# Indices 1 2 3 4 5 6 
#
# 1 0.011695 -0.000688 -0.002251 0.000001 0.000406 -0.000001
# 2 -0.000688 0.013953 -0.002065 0.000000 0.003371 -0.000001
# 3 -0.002251 -0.002065 0.007881 0.000000 -0.000266 -0.000001
# 4 0.000001 0.000000 0.000000 0.028536 -0.000001 0.006856
# 5 0.000406 0.003371 -0.000266 -0.000001 0.022819 0.000002
# 6 -0.000001 -0.000001 -0.000001 0.006856 0.000002 0.039558
#
#
# Mechanical properties :
#
#
# Convention : Reuss Voigt Hill
#
# Bulk Modulus (GPa) = 42.51150 48.03485 45.27317
# Shear Modulus (GPa) = 35.13954 38.37103 36.75528
#
# Velocity S-wave (km/s) = 3.90219 4.07767 3.99089
# Velocity P-wave (km/s) = 6.22288 6.55628 6.39176
#
# Compressibility (1/GPa) = 0.02352305
#
# Stress axis : x y z
#
# Youngs Moduli (GPa) = 85.50378 71.67171 126.88313
#
# Poissons Ratio (x) = 0.04927 0.28556
# Poissons Ratio (y) = 0.05878 0.26201
# Poissons Ratio (z) = 0.19243 0.14800
#
# Static dielectric constant tensor:
#      x y z
#    x 4.687160 -0.000010 0.014480 
#    y -0.000010 3.948260 0.000010 
#    z 0.014480 0.000010 4.314680 
# 
# 
# High freq. dielectric constant tensor:
#      x y z
#    x 1.929770 0.000000 -0.003800 
#    y 0.000000 1.906060 0.000000 
#    z -0.003800 0.000000 1.944040 
# 
# From -- ./inp_files/174502.got.cif
#   From: 2010.06.25/outbox.cif.g09.slc.cpg/sg15_88_cif.got.tgz:174502.got - 2010.06.28 07:06:18.
