data_PCOD8153159
_publ_section_title
;
Structure prediction by ZEFSAII (Michael W. Deem and Ramdas Pophale) SiO2 
 PCOD8153159
Probable space group: C 2/C
;
_chemical_formula_sum "Si O2"
_cell_formula_units_Z 64
_cell_length_a 21.333795
_cell_length_b 8.998330
_cell_length_c 24.443744
_cell_angle_alpha 90.000000
_cell_angle_beta 36.973022
_cell_angle_gamma 90.000000
_cell_volume 2822.209733
_symmetry_space_group_name_H-M "C 2/C"
_symmetry_group_IT_number 15
_symmetry_cell_setting 'monoclinic'
loop_
_space_group_symop_operation_xyz
x,y,z
-x,y,1/2-z
-x,-y,-z
x,-y,1/2+z
1/2+x,1/2+y,z
1/2-x,1/2+y,1/2-z
1/2-x,1/2-y,-z
1/2+x,1/2-y,1/2+z
loop_
_atom_site_type_symbol
_atom_site_label
_atom_site_fract_x
_atom_site_fract_y
_atom_site_fract_z
Si Si1 0.528958 0.366822 0.642422
Si Si2 0.441440 0.877553 0.930880
Si Si3 0.789581 0.061397 0.561063
Si Si4 0.759926 0.262712 0.111529
Si Si5 0.083464 0.419837 0.147298
Si Si6 0.689430 0.206846 0.730287
Si Si7 0.417693 0.325163 0.346858
Si Si8 0.672966 0.864390 0.778635
O O1 0.602198 0.379845 0.538144
O O2 0.584016 0.257730 0.647276
O O3 0.418496 0.295354 0.702355
O O4 0.526042 0.520190 0.677167
O O5 0.397929 0.760757 0.916573
O O6 0.553101 0.832222 0.876909
O O7 0.449382 0.031374 0.891466
O O8 0.360128 0.874386 0.038633
O O9 0.699916 0.025396 0.578695
O O10 0.745490 0.186082 0.632919
O O11 0.809997 0.901409 0.572620
O O12 0.689011 0.328738 0.112469
O O13 0.700164 0.252480 0.210801
O O14 0.000000 0.480905 0.250000
O O15 0.757446 0.318818 0.718802
O O16 0.682269 0.040621 0.760299
O O17 0.500000 0.239923 0.250000
#
# Coordination Sequence:
#
# PCOD8153159 Si02
#       8
#     8   8   8   8   8   8   8   8
#     4  12  25  43  64 106 139 172 224 282 343 402
#     4  12  22  42  70 100 134 178 225 271 339 408
#     4  11  23  43  70  97 138 181 218 275 347 407
#     4  11  23  43  69 102 135 178 223 275 339 407
#     4  12  21  42  68  98 144 180 210 273 355 408
#     4  11  27  49  70  94 134 185 234 279 337 400
#     4  12  23  38  69 107 142 173 219 277 333 413
#     4  11  26  49  70  95 134 185 232 280 334 401
#
# _framework density 22.677265999999999
#
# number of rings (size 3 to 8) (size 9 to 14) (size 15 to 20)
#    0.000    0.500    6.250    3.000    1.750    1.000 
#    2.250    3.750    0.000    0.000    0.000    0.000 
#    0.000    0.000    0.000    0.000    0.000    0.000 
#
# Total GULP energy -396477.563002 kJ/mol
# GULP energy per Si atom -12389.923844 kJ/mol
# Density = 2.262565 g / cm^3
# Si number density = 22.677266 Si / 1000 Ang^3
#
#
#
# Elastic Constant Matrix: (Units=GPa)
#
#
# Indices 1 2 3 4 5 6 
#
# 1 82.3606 33.7736 29.5020 -0.0032 -13.4298 0.0005
# 2 33.7736 89.6826 20.9205 -0.0106 -0.7490 0.0087
# 3 29.5020 20.9205 124.6409 0.0013 -12.9192 -0.0021
# 4 -0.0032 -0.0106 0.0013 -5.1571 0.0004 -18.4131
# 5 -13.4298 -0.7490 -12.9192 0.0004 18.9107 0.0003
# 6 0.0005 0.0087 -0.0021 -18.4131 0.0003 29.3137
#
#
#
# Elastic Compliance Matrix: (Units=1/GPa)
#
#
# Indices 1 2 3 4 5 6 
#
# 1 0.016940 -0.005838 -0.001944 -0.000001 0.010470 0.000001
# 2 -0.005838 0.013632 -0.001378 -0.000003 -0.004547 -0.000006
# 3 -0.001944 -0.001378 0.009218 0.000001 0.004862 0.000002
# 4 -0.000001 -0.000003 0.000001 -0.059798 0.000002 -0.037561
# 5 0.010470 -0.004547 0.004862 0.000002 0.063457 0.000002
# 6 0.000001 -0.000006 0.000002 -0.037561 0.000002 0.010520
#
#
# Mechanical properties :
#
#
# Convention : Reuss Voigt Hill
#
# Bulk Modulus (GPa) = 46.57636 51.67516 49.12576
# Shear Modulus (GPa) = 62.93467 22.77934 42.85700
#
# Velocity S-wave (km/s) = 5.27376 3.17282 4.35198
# Velocity P-wave (km/s) = 7.59387 6.02155 6.85295
#
# Compressibility (1/GPa) = 0.02147012
#
# Stress axis : x y z
#
# Youngs Moduli (GPa) = 59.03321 73.35440 108.47767
#
# Poissons Ratio (x) = 0.42826 0.21092
# Poissons Ratio (y) = 0.34465 0.14944
# Poissons Ratio (z) = 0.11478 0.10105
#
# Static dielectric constant tensor:
#      x y z
#    x 4.078320 -0.000010 0.236760 
#    y -0.000010 4.226980 0.000000 
#    z 0.236760 0.000000 4.336820 
# 
# 
# High freq. dielectric constant tensor:
#      x y z
#    x 1.867030 0.000000 -0.005880 
#    y 0.000000 1.901560 0.000000 
#    z -0.005880 0.000000 1.908600 
# 
# From -- ./inp_files/318606.got.cif
#   From: 2010.06.25/outbox.cif.g09.slc.cpg/sg15_160_cif.got.tgz:318606.got - 2010.06.28 07:06:18.
