data_PCOD8153072
_publ_section_title
;
Structure prediction by ZEFSAII (Michael W. Deem and Ramdas Pophale) SiO2 
 PCOD8153072
Probable space group: C 2/C
;
_chemical_formula_sum "Si O2"
_cell_formula_units_Z 60
_cell_length_a 22.142924
_cell_length_b 9.029652
_cell_length_c 15.208353
_cell_angle_alpha 90.000000
_cell_angle_beta 68.684793
_cell_angle_gamma 90.000000
_cell_volume 2832.795441
_symmetry_space_group_name_H-M "C 2/C"
_symmetry_group_IT_number 15
_symmetry_cell_setting 'monoclinic'
loop_
_space_group_symop_operation_xyz
x,y,z
-x,y,1/2-z
-x,-y,-z
x,-y,1/2+z
1/2+x,1/2+y,z
1/2-x,1/2+y,1/2-z
1/2-x,1/2-y,-z
1/2+x,1/2-y,1/2+z
loop_
_atom_site_type_symbol
_atom_site_label
_atom_site_fract_x
_atom_site_fract_y
_atom_site_fract_z
Si Si1 0.194242 0.913032 0.078955
Si Si2 0.558053 0.323882 0.089594
Si Si3 0.838185 0.863992 0.758855
Si Si4 0.252004 0.365385 0.630467
Si Si5 0.545648 0.873892 0.438077
Si Si6 0.981785 0.892265 0.658790
Si Si7 0.626036 0.039005 0.744410
Si Si8 0.500000 0.890410 0.750000
O O1 0.122111 0.844342 0.113893
O O2 0.244251 0.799513 0.096904
O O3 0.195736 0.052777 0.142557
O O4 0.216774 0.958621 0.967649
O O5 0.524530 0.482153 0.087700
O O6 0.505613 0.217737 0.163669
O O7 0.577504 0.239820 0.990203
O O8 0.795145 0.864931 0.694348
O O9 0.906109 0.937119 0.693496
O O10 0.849761 0.702027 0.793842
O O11 0.182362 0.423930 0.696572
O O12 0.505436 0.769037 0.391632
O O13 0.605133 0.956456 0.358279
O O14 0.500000 0.000000 0.500000
O O15 0.000000 0.881939 0.750000
O O16 0.563217 0.993404 0.721149
#
# Coordination Sequence:
#
# PCOD8153072 Si02
#       8
#     8   8   8   8   8   8   8   4
#     4  11  23  44  74  98 132 190 232 286 349 420
#     4  12  22  44  69 106 133 180 235 284 354 418
#     4  11  24  43  70  99 141 179 231 287 350 414
#     4  11  25  46  69  99 139 183 236 284 343 426
#     4  11  25  39  66 102 141 180 223 282 347 418
#     4  11  23  42  70 102 139 176 223 292 346 402
#     4  11  25  44  64  99 137 178 222 288 348 405
#     4  12  22  40  74  94 140 174 224 284 362 408
#
# _framework density 21.180492000000001
#
# number of rings (size 3 to 8) (size 9 to 14) (size 15 to 20)
#    0.000    0.800    4.667    2.800    3.733    1.600 
#    0.000    1.333    0.000    0.000    0.000    0.000 
#    0.000    0.000    0.000    0.000    0.000    0.000 
#
# Total GULP energy -371931.207324 kJ/mol
# GULP energy per Si atom -12397.706911 kJ/mol
# Density = 2.113228 g / cm^3
# Si number density = 21.180492 Si / 1000 Ang^3
#
#
#
# Elastic Constant Matrix: (Units=GPa)
#
#
# Indices 1 2 3 4 5 6 
#
# 1 136.5064 45.1448 43.2704 0.0000 9.9026 0.0000
# 2 45.1448 101.5008 72.1040 0.0000 2.5557 0.0000
# 3 43.2704 72.1040 118.6042 0.0000 -3.1785 0.0000
# 4 0.0000 0.0000 0.0000 50.5834 0.0000 -3.0238
# 5 9.9026 2.5557 -3.1785 0.0000 33.0412 0.0000
# 6 0.0000 0.0000 0.0000 -3.0238 0.0000 28.4336
#
#
#
# Elastic Compliance Matrix: (Units=1/GPa)
#
#
# Indices 1 2 3 4 5 6 
#
# 1 0.008949 -0.002719 -0.001683 0.000000 -0.002634 0.000000
# 2 -0.002719 0.018353 -0.010208 0.000000 -0.001587 0.000000
# 3 -0.001683 -0.010208 0.015325 0.000000 0.002768 0.000000
# 4 0.000000 0.000000 0.000000 0.019896 0.000000 0.002116
# 5 -0.002634 -0.001587 0.002768 0.000000 0.031444 0.000000
# 6 0.000000 0.000000 0.000000 0.002116 0.000000 0.035395
#
#
# Mechanical properties :
#
#
# Convention : Reuss Voigt Hill
#
# Bulk Modulus (GPa) = 74.57957 75.29443 74.93700
# Shear Modulus (GPa) = 30.66541 35.48445 33.07493
#
# Velocity S-wave (km/s) = 3.80914 4.09753 3.95596
# Velocity P-wave (km/s) = 7.39148 7.61659 7.50488
#
# Compressibility (1/GPa) = 0.01340850
#
# Stress axis : x y z
#
# Youngs Moduli (GPa) = 111.74138 54.48729 65.25115
#
# Poissons Ratio (x) = 0.14813 0.10980
# Poissons Ratio (y) = 0.30379 0.66609
# Poissons Ratio (z) = 0.18803 0.55621
#
# Static dielectric constant tensor:
#      x y z
#    x 3.884400 0.000000 -0.005860 
#    y 0.000000 3.929820 0.000000 
#    z -0.005860 0.000000 4.109330 
# 
# 
# High freq. dielectric constant tensor:
#      x y z
#    x 1.827780 0.000000 0.001130 
#    y 0.000000 1.829200 0.000000 
#    z 0.001130 0.000000 1.841240 
# 
# From -- ./inp_files/172372.got.cif
#   From: 2010.06.25/outbox.cif.g09.slc.cpg/sg15_87_cif.got.tgz:172372.got - 2010.06.28 07:06:18.
