data_PCOD8153650
_publ_section_title
;
Structure prediction by ZEFSAII (Michael W. Deem and Ramdas Pophale) SiO2 
 PCOD8153650
Probable space group: C 2/C
;
_chemical_formula_sum "Si O2"
_cell_formula_units_Z 40
_cell_length_a 21.254078
_cell_length_b 11.396809
_cell_length_c 12.397294
_cell_angle_alpha 90.000000
_cell_angle_beta 145.522563
_cell_angle_gamma 90.000000
_cell_volume 1699.931886
_symmetry_space_group_name_H-M "C 2/C"
_symmetry_group_IT_number 15
_symmetry_cell_setting 'monoclinic'
loop_
_space_group_symop_operation_xyz
x,y,z
-x,y,1/2-z
-x,-y,-z
x,-y,1/2+z
1/2+x,1/2+y,z
1/2-x,1/2+y,1/2-z
1/2-x,1/2-y,-z
1/2+x,1/2-y,1/2+z
loop_
_atom_site_type_symbol
_atom_site_label
_atom_site_fract_x
_atom_site_fract_y
_atom_site_fract_z
Si Si1 0.147357 0.570783 0.080077
Si Si2 0.429826 0.801813 0.314959
Si Si3 0.078929 0.684041 0.458330
Si Si4 0.712882 0.405723 0.927233
Si Si5 0.722746 0.354404 0.541434
O O1 0.237886 0.617790 0.123085
O O2 0.173195 0.604840 0.240066
O O3 0.155190 0.430653 0.078928
O O4 0.025817 0.629075 0.884194
O O5 0.475441 0.789646 0.502243
O O6 0.398404 0.674472 0.218951
O O7 0.312772 0.872359 0.150183
O O8 0.134978 0.805836 0.503121
O O9 0.000000 0.645090 0.250000
O O10 0.675982 0.538129 0.903406
O O11 0.750000 0.250000 0.500000
#
# Coordination Sequence:
#
# PCOD8153650 Si02
#       5
#     8   8   8   8   8
#     4  12  24  45  72 105 145 192 244 297 363 435
#     4  11  24  43  72 105 142 191 243 300 356 438
#     4  12  24  44  72 106 142 193 248 297 361 436
#     4  11  24  45  69 109 146 186 246 294 370 430
#     4  12  25  44  72 109 150 192 241 306 361 435
#
# _framework density 23.530355
#
# number of rings (size 3 to 8) (size 9 to 14) (size 15 to 20)
#    0.000    0.400    6.000    3.600    0.000    0.000 
#    0.000   10.000    0.000    0.000    0.000    0.000 
#    0.000    0.000    0.000    0.000    0.000    0.000 
#
# Total GULP energy -247788.483232 kJ/mol
# GULP energy per Si atom -12389.424162 kJ/mol
# Density = 2.347680 g / cm^3
# Si number density = 23.530355 Si / 1000 Ang^3
#
#
#
# Elastic Constant Matrix: (Units=GPa)
#
#
# Indices 1 2 3 4 5 6 
#
# 1 81.3577 45.0595 24.5051 0.0000 -9.6650 0.0000
# 2 45.0595 180.4196 33.8577 0.0000 -4.0853 0.0000
# 3 24.5051 33.8577 90.0483 0.0000 -29.8728 0.0000
# 4 0.0000 0.0000 0.0000 10.2320 0.0000 -12.8884
# 5 -9.6650 -4.0853 -29.8728 0.0000 39.8954 0.0000
# 6 0.0000 0.0000 0.0000 -12.8884 0.0000 42.7973
#
#
#
# Elastic Compliance Matrix: (Units=1/GPa)
#
#
# Indices 1 2 3 4 5 6 
#
# 1 0.014990 -0.003270 -0.002336 0.000000 0.001547 0.000000
# 2 -0.003270 0.006738 -0.002232 0.000000 -0.001773 0.000000
# 3 -0.002336 -0.002232 0.016387 0.000000 0.011476 0.000000
# 4 0.000000 0.000000 0.000000 0.157463 0.000000 0.047420
# 5 0.001547 -0.001773 0.011476 0.000000 0.033852 0.000000
# 6 0.000000 0.000000 0.000000 0.047420 0.000000 0.037646
#
#
# Mechanical properties :
#
#
# Convention : Reuss Voigt Hill
#
# Bulk Modulus (GPa) = 44.56689 62.07447 53.32068
# Shear Modulus (GPa) = 17.22756 35.14515 26.18635
#
# Velocity S-wave (km/s) = 2.70875 3.86892 3.33960
# Velocity P-wave (km/s) = 5.36324 6.81145 6.13026
#
# Compressibility (1/GPa) = 0.02243818
#
# Stress axis : x y z
#
# Youngs Moduli (GPa) = 66.71037 148.41069 61.02347
#
# Poissons Ratio (x) = 0.48534 0.14258
# Poissons Ratio (y) = 0.21816 0.13620
# Poissons Ratio (z) = 0.15587 0.33123
#
# Static dielectric constant tensor:
#      x y z
#    x 4.636200 0.000000 0.381090 
#    y 0.000000 4.515400 0.000000 
#    z 0.381090 0.000000 5.676740 
# 
# 
# High freq. dielectric constant tensor:
#      x y z
#    x 1.919220 0.000000 -0.033980 
#    y 0.000000 1.939670 0.000000 
#    z -0.033980 0.000000 1.926920 
# 
# From -- ./inp_files/111889.got.cif
#   From: 2010.06.25/outbox.cif.g09.slc.cpg/sg15_56_cif.got.tgz:111889.got - 2010.06.28 07:06:18.
