data_PCOD8153916
_publ_section_title
;
Structure prediction by ZEFSAII (Michael W. Deem and Ramdas Pophale) SiO2 
 PCOD8153916
Probable space group: C 2/C
;
_chemical_formula_sum "Si O2"
_cell_formula_units_Z 24
_cell_length_a 6.298153
_cell_length_b 14.551696
_cell_length_c 13.978714
_cell_angle_alpha 90.000000
_cell_angle_beta 52.746346
_cell_angle_gamma 90.000000
_cell_volume 1019.734557
_symmetry_space_group_name_H-M "C 2/C"
_symmetry_group_IT_number 15
_symmetry_cell_setting 'monoclinic'
loop_
_space_group_symop_operation_xyz
x,y,z
-x,y,1/2-z
-x,-y,-z
x,-y,1/2+z
1/2+x,1/2+y,z
1/2-x,1/2+y,1/2-z
1/2-x,1/2-y,-z
1/2+x,1/2-y,1/2+z
loop_
_atom_site_type_symbol
_atom_site_label
_atom_site_fract_x
_atom_site_fract_y
_atom_site_fract_z
Si Si1 0.500000 0.458965 0.250000
Si Si2 0.198468 0.888661 0.830161
Si Si3 0.428670 0.660199 0.935302
Si Si4 0.500000 0.758234 0.250000
O O1 0.311976 0.520657 0.233236
O O2 0.675835 0.395005 0.130273
O O3 0.500000 0.852713 0.750000
O O4 0.018270 0.806829 0.837746
O O5 0.097674 0.906250 0.965509
O O6 0.739896 0.679652 0.833066
O O7 0.250000 0.750000 0.000000
#
# Coordination Sequence:
#
# PCOD8153916 Si02
#       4
#     4   8   8   4
#     4  11  28  44  70 109 142 186 230 293 358 416
#     4  11  24  47  70 106 146 184 231 289 356 417
#     4  12  24  48  75 102 142 186 240 289 344 419
#     4  11  24  46  74 107 136 186 242 287 344 412
#
# _framework density 23.535537000000001
#
# number of rings (size 3 to 8) (size 9 to 14) (size 15 to 20)
#    0.000    0.667    3.333    4.000    2.333    1.333 
#    0.000    0.000    0.000    0.000    0.000    0.000 
#    0.000    0.000    0.000    0.000    0.000    0.000 
#
# Total GULP energy -148798.912857 kJ/mol
# GULP energy per Si atom -12399.909405 kJ/mol
# Density = 2.348197 g / cm^3
# Si number density = 23.535537 Si / 1000 Ang^3
#
#
#
# Elastic Constant Matrix: (Units=GPa)
#
#
# Indices 1 2 3 4 5 6 
#
# 1 93.5990 45.4834 67.3521 0.0000 12.7491 0.0000
# 2 45.4834 108.3660 64.1317 0.0000 18.3746 0.0000
# 3 67.3521 64.1317 191.1146 0.0000 34.2778 0.0000
# 4 0.0000 0.0000 0.0000 47.7067 0.0000 9.6566
# 5 12.7491 18.3746 34.2778 0.0000 60.2714 0.0000
# 6 0.0000 0.0000 0.0000 9.6566 0.0000 17.6843
#
#
#
# Elastic Compliance Matrix: (Units=1/GPa)
#
#
# Indices 1 2 3 4 5 6 
#
# 1 0.015672 -0.004156 -0.004188 0.000000 0.000334 0.000000
# 2 -0.004156 0.012733 -0.002528 0.000000 -0.001565 0.000000
# 3 -0.004188 -0.002528 0.008084 0.000000 -0.002941 0.000000
# 4 0.000000 0.000000 0.000000 0.023566 0.000000 -0.012868
# 5 0.000334 -0.001565 -0.002941 0.000000 0.018671 0.000000
# 6 0.000000 0.000000 0.000000 -0.012868 0.000000 0.063574
#
#
# Mechanical properties :
#
#
# Convention : Reuss Voigt Hill
#
# Bulk Modulus (GPa) = 67.81460 83.00155 75.40807
# Shear Modulus (GPa) = 29.59294 39.53999 34.56646
#
# Velocity S-wave (km/s) = 3.54979 4.10324 3.83651
# Velocity P-wave (km/s) = 6.75852 7.60209 7.19269
#
# Compressibility (1/GPa) = 0.01474609
#
# Stress axis : x y z
#
# Youngs Moduli (GPa) = 63.80953 78.53302 123.69764
#
# Poissons Ratio (x) = 0.32635 0.51809
# Poissons Ratio (y) = 0.26517 0.31266
# Poissons Ratio (z) = 0.26726 0.19850
#
# Static dielectric constant tensor:
#      x y z
#    x 4.220160 0.000000 0.449140 
#    y 0.000000 4.223260 0.000000 
#    z 0.449140 0.000000 4.523920 
# 
# 
# High freq. dielectric constant tensor:
#      x y z
#    x 1.926630 0.000000 0.028960 
#    y 0.000000 1.937690 0.000000 
#    z 0.028960 0.000000 1.939390 
# 
# From -- ./inp_files/71265.got.cif
#   From: 2010.06.25/outbox.cif.g09.slc.cpg/sg15_36_cif.got.tgz:71265.got - 2010.06.28 07:06:18.
