data_PCOD8153342
_publ_section_title
;
Structure prediction by ZEFSAII (Michael W. Deem and Ramdas Pophale) SiO2 
 PCOD8153342
Probable space group: C 2/C
;
_chemical_formula_sum "Si O2"
_cell_formula_units_Z 36
_cell_length_a 11.383841
_cell_length_b 15.385466
_cell_length_c 14.674872
_cell_angle_alpha 90.000000
_cell_angle_beta 40.932491
_cell_angle_gamma 90.000000
_cell_volume 1683.942894
_symmetry_space_group_name_H-M "C 2/C"
_symmetry_group_IT_number 15
_symmetry_cell_setting 'monoclinic'
loop_
_space_group_symop_operation_xyz
x,y,z
-x,y,1/2-z
-x,-y,-z
x,-y,1/2+z
1/2+x,1/2+y,z
1/2-x,1/2+y,1/2-z
1/2-x,1/2-y,-z
1/2+x,1/2-y,1/2+z
loop_
_atom_site_type_symbol
_atom_site_label
_atom_site_fract_x
_atom_site_fract_y
_atom_site_fract_z
Si Si1 0.603791 0.640544 0.273352
Si Si2 0.045563 0.734747 0.118338
Si Si3 0.439141 0.049351 0.123831
Si Si4 0.331343 0.698534 0.587472
Si Si5 0.000000 0.572352 0.750000
O O1 0.500000 0.595578 0.250000
O O2 0.722296 0.565497 0.253080
O O3 0.478310 0.690085 0.420469
O O4 0.731434 0.709130 0.145343
O O5 0.000000 0.732298 0.250000
O O6 0.023752 0.644031 0.079758
O O7 0.934275 0.807619 0.125483
O O8 0.250000 0.750000 0.000000
O O9 0.522386 0.990698 0.152750
O O10 0.500000 0.000000 0.000000
O O11 0.180834 0.626026 0.661116
#
# Coordination Sequence:
#
# PCOD8153342 Si02
#       5
#     8   8   8   8   4
#     4  11  23  45  70 105 132 184 240 281 347 422
#     4  11  24  47  70  99 135 183 236 280 341 418
#     4  11  26  44  69  98 145 180 223 296 353 401
#     4  11  25  41  77  97 138 187 231 287 345 423
#     4  12  26  46  64 106 144 178 232 292 356 410
#
# _framework density 21.378398000000001
#
# number of rings (size 3 to 8) (size 9 to 14) (size 15 to 20)
#    0.000    0.889    2.222    4.667    9.333    0.889 
#    4.000    0.000    0.000    0.000    0.000    0.000 
#    0.000    0.000    0.000    0.000    0.000    0.000 
#
# Total GULP energy -223002.996569 kJ/mol
# GULP energy per Si atom -12389.055365 kJ/mol
# Density = 2.132974 g / cm^3
# Si number density = 21.378398 Si / 1000 Ang^3
#
#
#
# Elastic Constant Matrix: (Units=GPa)
#
#
# Indices 1 2 3 4 5 6 
#
# 1 171.2414 71.7167 55.1837 -0.0044 -3.2183 0.0024
# 2 71.7167 85.8320 51.4373 -0.0008 -1.7127 0.0004
# 3 55.1837 51.4373 138.9739 -0.0085 4.4266 0.0045
# 4 -0.0044 -0.0008 -0.0085 -64.8292 0.0024 50.0177
# 5 -3.2183 -1.7127 4.4266 0.0024 50.5939 -0.0012
# 6 0.0024 0.0004 0.0045 50.0177 -0.0012 28.8089
#
#
#
# Elastic Compliance Matrix: (Units=1/GPa)
#
#
# Indices 1 2 3 4 5 6 
#
# 1 0.009105 -0.006970 -0.001050 0.000000 0.000435 0.000000
# 2 -0.006970 0.020357 -0.004788 0.000001 0.000665 0.000000
# 3 -0.001050 -0.004788 0.009418 -0.000001 -0.001053 0.000000
# 4 0.000000 0.000001 -0.000001 -0.006593 0.000001 0.011447
# 5 0.000435 0.000665 -0.001053 0.000001 0.019908 0.000000
# 6 0.000000 0.000000 0.000000 0.011447 0.000000 0.014837
#
#
# Mechanical properties :
#
#
# Convention : Reuss Voigt Hill
#
# Bulk Modulus (GPa) = 75.38716 83.63587 79.51152
# Shear Modulus (GPa) = 51.50958 17.42869 34.46913
#
# Velocity S-wave (km/s) = 4.91391 2.85835 4.01974
# Velocity P-wave (km/s) = 8.21798 7.07815 7.66927
#
# Compressibility (1/GPa) = 0.01326486
#
# Stress axis : x y z
#
# Youngs Moduli (GPa) = 109.82641 49.12238 106.17885
#
# Poissons Ratio (x) = 0.34239 0.11144
# Poissons Ratio (y) = 0.76552 0.50840
# Poissons Ratio (z) = 0.11527 0.23520
#
# Static dielectric constant tensor:
#      x y z
#    x 4.561630 0.000000 -0.108600 
#    y 0.000000 3.877790 0.000000 
#    z -0.108600 0.000000 3.770990 
# 
# 
# High freq. dielectric constant tensor:
#      x y z
#    x 1.879970 0.000000 -0.002260 
#    y 0.000000 1.819390 0.000000 
#    z -0.002260 0.000000 1.839580 
# 
# From -- ./inp_files/28787.got.cif
#   From: 2010.06.25/outbox.cif.g09.slc.cpg/sg15_15_cif.got.tgz:28787.got - 2010.06.28 07:06:18.
