data_PCOD8153339
_publ_section_title
;
Structure prediction by ZEFSAII (Michael W. Deem and Ramdas Pophale) SiO2 
 PCOD8153339
Probable space group: C 2/C
;
_chemical_formula_sum "Si O2"
_cell_formula_units_Z 40
_cell_length_a 14.187456
_cell_length_b 13.361460
_cell_length_c 19.283577
_cell_angle_alpha 90.000000
_cell_angle_beta 27.734324
_cell_angle_gamma 90.000000
_cell_volume 1701.165775
_symmetry_space_group_name_H-M "C 2/C"
_symmetry_group_IT_number 15
_symmetry_cell_setting 'monoclinic'
loop_
_space_group_symop_operation_xyz
x,y,z
-x,y,1/2-z
-x,-y,-z
x,-y,1/2+z
1/2+x,1/2+y,z
1/2-x,1/2+y,1/2-z
1/2-x,1/2-y,-z
1/2+x,1/2-y,1/2+z
loop_
_atom_site_type_symbol
_atom_site_label
_atom_site_fract_x
_atom_site_fract_y
_atom_site_fract_z
Si Si1 0.715603 0.433304 0.687730
Si Si2 0.479395 0.041249 0.626617
Si Si3 0.323023 0.748002 0.057071
Si Si4 0.721880 0.238240 0.758720
Si Si5 0.000000 0.911482 0.250000
Si Si6 0.000000 0.419364 0.750000
O O1 0.870077 0.463349 0.647214
O O2 0.633098 0.325900 0.767239
O O3 0.540959 0.517617 0.790836
O O4 0.819704 0.421513 0.544343
O O5 0.333699 0.133787 0.741352
O O6 0.537865 0.987844 0.659099
O O7 0.385581 0.762239 0.096446
O O8 0.201494 0.646228 0.126515
O O9 0.197643 0.842340 0.107532
O O10 0.538495 0.744320 0.878142
#
# Coordination Sequence:
#
# PCOD8153339 Si02
#       6
#     8   8   8   8   4   4
#     4  11  23  45  70 101 141 186 228 283 360 414
#     4  11  24  45  69 101 143 184 227 293 350 414
#     4  11  25  42  74 105 137 181 242 292 336 416
#     4  12  23  48  69 104 141 188 228 287 354 416
#     4  11  24  43  72 104 130 187 232 281 344 420
#     4  11  26  41  68 108 136 177 242 295 336 404
#
# _framework density 23.513287999999999
#
# number of rings (size 3 to 8) (size 9 to 14) (size 15 to 20)
#    0.000    0.800    6.000    1.200    2.800    3.200 
#    3.600    2.000    0.000    0.000    0.000    0.000 
#    0.000    0.000    0.000    0.000    0.000    0.000 
#
# Total GULP energy -248048.363155 kJ/mol
# GULP energy per Si atom -12402.418158 kJ/mol
# Density = 2.345977 g / cm^3
# Si number density = 23.513288 Si / 1000 Ang^3
#
#
#
# Elastic Constant Matrix: (Units=GPa)
#
#
# Indices 1 2 3 4 5 6 
#
# 1 102.7870 39.1777 18.2012 -0.0112 17.4063 0.0089
# 2 39.1777 140.7448 31.7696 -0.0163 -0.6009 0.0124
# 3 18.2012 31.7696 53.0778 -0.0432 3.8530 0.0342
# 4 -0.0112 -0.0163 -0.0432 20.1276 0.0188 2.0292
# 5 17.4063 -0.6009 3.8530 0.0188 31.4543 -0.0103
# 6 0.0089 0.0124 0.0342 2.0292 -0.0103 51.3185
#
#
#
# Elastic Compliance Matrix: (Units=1/GPa)
#
#
# Indices 1 2 3 4 5 6 
#
# 1 0.012354 -0.003029 -0.001940 0.000007 -0.006657 -0.000002
# 2 -0.003029 0.008976 -0.004508 -0.000007 0.002400 0.000002
# 3 -0.001940 -0.004508 0.022331 0.000046 -0.001748 -0.000016
# 4 0.000007 -0.000007 0.000046 0.049882 -0.000040 -0.001972
# 5 -0.006657 0.002400 -0.001748 -0.000040 0.035736 0.000010
# 6 -0.000002 0.000002 -0.000016 -0.001972 0.000010 0.019564
#
#
# Mechanical properties :
#
#
# Convention : Reuss Voigt Hill
#
# Bulk Modulus (GPa) = 40.47551 52.76739 46.62145
# Shear Modulus (GPa) = 28.40363 34.41083 31.40723
#
# Velocity S-wave (km/s) = 3.47937 3.82967 3.65872
# Velocity P-wave (km/s) = 5.77864 6.48425 6.14158
#
# Compressibility (1/GPa) = 0.02470630
#
# Stress axis : x y z
#
# Youngs Moduli (GPa) = 80.94290 111.40604 44.78131
#
# Poissons Ratio (x) = 0.33750 0.08687
# Poissons Ratio (y) = 0.24522 0.20188
# Poissons Ratio (z) = 0.15703 0.50222
#
# Static dielectric constant tensor:
#      x y z
#    x 4.179480 0.000000 0.006130 
#    y 0.000000 4.470760 0.000050 
#    z 0.006130 0.000050 4.007550 
# 
# 
# High freq. dielectric constant tensor:
#      x y z
#    x 1.925600 0.000000 0.002010 
#    y 0.000000 1.946380 0.000000 
#    z 0.002010 0.000000 1.911110 
# 
# From -- ./inp_files/38006.got.cif
#   From: 2010.06.25/outbox.cif.g09.slc.cpg/sg15_20_cif.got.tgz:38006.got - 2010.06.28 07:06:18.
