data_PCOD8153860
_publ_section_title
;
Structure prediction by ZEFSAII (Michael W. Deem and Ramdas Pophale) SiO2 
 PCOD8153860
Probable space group: C 2/C
;
_chemical_formula_sum "Si O2"
_cell_formula_units_Z 44
_cell_length_a 17.093604
_cell_length_b 10.242696
_cell_length_c 12.900752
_cell_angle_alpha 90.000000
_cell_angle_beta 68.092128
_cell_angle_gamma 90.000000
_cell_volume 2095.609193
_symmetry_space_group_name_H-M "C 2/C"
_symmetry_group_IT_number 15
_symmetry_cell_setting 'monoclinic'
loop_
_space_group_symop_operation_xyz
x,y,z
-x,y,1/2-z
-x,-y,-z
x,-y,1/2+z
1/2+x,1/2+y,z
1/2-x,1/2+y,1/2-z
1/2-x,1/2-y,-z
1/2+x,1/2-y,1/2+z
loop_
_atom_site_type_symbol
_atom_site_label
_atom_site_fract_x
_atom_site_fract_y
_atom_site_fract_z
Si Si1 0.217911 0.554548 0.943177
Si Si2 0.010852 0.208209 0.853530
Si Si3 0.500000 0.745862 0.250000
Si Si4 0.443509 0.886739 0.483917
Si Si5 0.124770 0.038132 0.259887
Si Si6 0.661557 0.666818 0.453724
O O1 0.148530 0.442686 0.997910
O O2 0.286525 0.493243 0.834893
O O3 0.177479 0.683552 0.910394
O O4 0.257060 0.602535 0.032323
O O5 0.060382 0.280462 0.921556
O O6 0.000000 0.291155 0.750000
O O7 0.064057 0.084462 0.791981
O O8 0.918370 0.161275 0.931516
O O9 0.487073 0.831742 0.359174
O O10 0.582860 0.656999 0.218355
O O11 0.500000 0.000000 0.500000
O O12 0.141759 0.077303 0.367911
#
# Coordination Sequence:
#
# PCOD8153860 Si02
#       6
#     8   8   4   8   8   8
#     4  11  26  45  68 106 137 186 238 298 367 425
#     4  12  24  46  76  98 141 198 236 291 367 433
#     4  12  26  48  74 106 144 186 248 294 354 452
#     4  12  28  47  73 107 145 191 239 300 368 430
#     4  12  25  43  73 104 138 185 243 298 363 425
#     4  11  24  46  68 101 145 182 243 299 356 440
#
# _framework density 20.996281
#
# number of rings (size 3 to 8) (size 9 to 14) (size 15 to 20)
#    0.000    0.364    6.364    0.545    6.364    3.636 
#    0.000    0.000    0.000    0.000    0.000    0.000 
#    0.000    0.000    0.000    0.000    0.000    0.000 
#
# Total GULP energy -272818.031526 kJ/mol
# GULP energy per Si atom -12400.819615 kJ/mol
# Density = 2.094849 g / cm^3
# Si number density = 20.996281 Si / 1000 Ang^3
#
#
#
# Elastic Constant Matrix: (Units=GPa)
#
#
# Indices 1 2 3 4 5 6 
#
# 1 93.7499 32.6557 36.0143 0.0000 -8.8489 0.0000
# 2 32.6557 80.9806 50.9324 0.0000 -2.3358 0.0000
# 3 36.0143 50.9324 140.2678 0.0000 4.6209 0.0000
# 4 0.0000 0.0000 0.0000 54.9629 0.0000 -43.8413
# 5 -8.8489 -2.3358 4.6209 0.0000 45.7397 0.0000
# 6 0.0000 0.0000 0.0000 -43.8413 0.0000 134.9174
#
#
#
# Elastic Compliance Matrix: (Units=1/GPa)
#
#
# Indices 1 2 3 4 5 6 
#
# 1 0.013043 -0.003924 -0.002007 0.000000 0.002526 0.000000
# 2 -0.003924 0.017275 -0.005287 0.000000 0.000657 0.000000
# 3 -0.002007 -0.005287 0.009618 0.000000 -0.001630 0.000000
# 4 0.000000 0.000000 0.000000 0.024560 0.000000 0.007981
# 5 0.002526 0.000657 -0.001630 0.000000 0.022550 0.000000
# 6 0.000000 0.000000 0.000000 0.007981 0.000000 0.010005
#
#
# Mechanical properties :
#
#
# Convention : Reuss Voigt Hill
#
# Bulk Modulus (GPa) = 57.14425 61.57812 59.36118
# Shear Modulus (GPa) = 39.89752 60.15041 50.02397
#
# Velocity S-wave (km/s) = 4.36388 5.35820 4.88640
# Velocity P-wave (km/s) = 7.25718 8.22631 7.75690
#
# Compressibility (1/GPa) = 0.01749957
#
# Stress axis : x y z
#
# Youngs Moduli (GPa) = 76.66889 57.88621 103.97259
#
# Poissons Ratio (x) = 0.22717 0.20868
# Poissons Ratio (y) = 0.30089 0.54968
# Poissons Ratio (z) = 0.15388 0.30603
#
# Static dielectric constant tensor:
#      x y z
#    x 6.947960 0.000000 0.157600 
#    y 0.000000 4.000180 0.000000 
#    z 0.157600 0.000000 3.765820 
# 
# 
# High freq. dielectric constant tensor:
#      x y z
#    x 1.840840 0.000000 0.005890 
#    y 0.000000 1.825540 0.000000 
#    z 0.005890 0.000000 1.829490 
# 
# From -- ./inp_files/103633.got.cif
#   From: 2010.06.25/outbox.cif.g09.slc.cpg/sg15_52_cif.got.tgz:103633.got - 2010.06.28 07:06:18.
