data_PCOD8153867
_publ_section_title
;
Structure prediction by ZEFSAII (Michael W. Deem and Ramdas Pophale) SiO2 
 PCOD8153867
Probable space group: C 2/C
;
_chemical_formula_sum "Si O2"
_cell_formula_units_Z 44
_cell_length_a 22.769552
_cell_length_b 6.564635
_cell_length_c 22.754004
_cell_angle_alpha 90.000000
_cell_angle_beta 145.354666
_cell_angle_gamma 90.000000
_cell_volume 1933.523428
_symmetry_space_group_name_H-M "C 2/C"
_symmetry_group_IT_number 15
_symmetry_cell_setting 'monoclinic'
loop_
_space_group_symop_operation_xyz
x,y,z
-x,y,1/2-z
-x,-y,-z
x,-y,1/2+z
1/2+x,1/2+y,z
1/2-x,1/2+y,1/2-z
1/2-x,1/2-y,-z
1/2+x,1/2-y,1/2+z
loop_
_atom_site_type_symbol
_atom_site_label
_atom_site_fract_x
_atom_site_fract_y
_atom_site_fract_z
Si Si1 0.622067 0.533462 0.909963
Si Si2 0.000000 0.307670 0.250000
Si Si3 0.006011 0.896387 0.594938
Si Si4 0.837801 0.612855 0.145484
Si Si5 0.148853 0.463446 0.223436
Si Si6 0.632843 0.695955 0.622345
O O1 0.585614 0.316239 0.856625
O O2 0.541539 0.564667 0.897860
O O3 0.615341 0.691755 0.850026
O O4 0.739173 0.528122 0.029157
O O5 0.928249 0.451068 0.229415
O O6 0.063202 0.704918 0.673033
O O7 0.912974 0.798285 0.480920
O O8 0.086198 0.006806 0.619062
O O9 0.814410 0.631274 0.196073
O O10 0.245333 0.330143 0.282151
O O11 0.106716 0.592595 0.133670
#
# Coordination Sequence:
#
# PCOD8153867 Si02
#       6
#     8   4   8   8   8   8
#     4  11  25  45  70 101 138 186 236 292 354 416
#     4  12  24  44  68  98 138 180 236 284 364 408
#     4  11  24  46  69 101 142 181 233 288 345 419
#     4  11  26  44  68 105 139 184 234 292 349 423
#     4  12  23  45  71 103 142 181 233 282 352 417
#     4  11  25  42  70 106 138 184 229 282 348 419
#
# _framework density 22.756384000000001
#
# number of rings (size 3 to 8) (size 9 to 14) (size 15 to 20)
#    0.000    0.727    5.455    1.636    5.091    0.000 
#    0.000    1.818    0.000    0.000    0.000    0.000 
#    0.000    0.000    0.000    0.000    0.000    0.000 
#
# Total GULP energy -272540.911958 kJ/mol
# GULP energy per Si atom -12388.223271 kJ/mol
# Density = 2.270459 g / cm^3
# Si number density = 22.756384 Si / 1000 Ang^3
#
#
#
# Elastic Constant Matrix: (Units=GPa)
#
#
# Indices 1 2 3 4 5 6 
#
# 1 97.4184 38.9583 19.1998 0.0000 0.7015 -0.0014
# 2 38.9583 89.9405 31.3822 -0.0005 10.5640 -0.0011
# 3 19.1998 31.3822 57.6017 -0.0004 10.9612 -0.0029
# 4 0.0000 -0.0005 -0.0004 47.0180 0.0000 -13.2953
# 5 0.7015 10.5640 10.9612 0.0000 29.8112 0.0012
# 6 -0.0014 -0.0011 -0.0029 -13.2953 0.0012 69.8274
#
#
#
# Elastic Compliance Matrix: (Units=1/GPa)
#
#
# Indices 1 2 3 4 5 6 
#
# 1 0.012651 -0.005087 -0.001862 0.000000 0.002190 0.000000
# 2 -0.005087 0.015919 -0.006372 0.000000 -0.003178 0.000000
# 3 -0.001862 -0.006372 0.022596 0.000000 -0.006006 0.000001
# 4 0.000000 0.000000 0.000000 0.022479 0.000000 0.004280
# 5 0.002190 -0.003178 -0.006006 0.000000 0.036828 -0.000001
# 6 0.000000 0.000000 0.000001 0.004280 -0.000001 0.015136
#
#
# Mechanical properties :
#
#
# Convention : Reuss Voigt Hill
#
# Bulk Modulus (GPa) = 40.77867 47.11567 43.94717
# Shear Modulus (GPa) = 31.16735 39.69266 35.43000
#
# Velocity S-wave (km/s) = 3.70484 4.18094 3.95007
# Velocity P-wave (km/s) = 6.02160 6.63750 6.33704
#
# Compressibility (1/GPa) = 0.02452262
#
# Stress axis : x y z
#
# Youngs Moduli (GPa) = 79.04771 62.81889 44.25596
#
# Poissons Ratio (x) = 0.31958 0.08239
# Poissons Ratio (y) = 0.40214 0.28201
# Poissons Ratio (z) = 0.14717 0.40030
#
# Static dielectric constant tensor:
#      x y z
#    x 4.311760 0.000000 -0.105960 
#    y 0.000000 3.810900 0.000000 
#    z -0.105960 0.000000 4.161100 
# 
# 
# High freq. dielectric constant tensor:
#      x y z
#    x 1.911580 0.000000 -0.002280 
#    y 0.000000 1.878430 0.000000 
#    z -0.002280 0.000000 1.911310 
# 
# From -- ./inp_files/281259.got.cif
#   From: 2010.06.25/outbox.cif.g09.slc.cpg/sg15_141_cif.got.tgz:281259.got - 2010.06.28 07:06:18.
