data_PCOD8153973
_publ_section_title
;
Structure prediction by ZEFSAII (Michael W. Deem and Ramdas Pophale) SiO2 
 PCOD8153973
Probable space group: C 2/C
;
_chemical_formula_sum "Si O2"
_cell_formula_units_Z 36
_cell_length_a 5.266255
_cell_length_b 28.085785
_cell_length_c 12.290522
_cell_angle_alpha 90.000000
_cell_angle_beta 117.211435
_cell_angle_gamma 90.000000
_cell_volume 1616.662423
_symmetry_space_group_name_H-M "C 2/C"
_symmetry_group_IT_number 15
_symmetry_cell_setting 'monoclinic'
loop_
_space_group_symop_operation_xyz
x,y,z
-x,y,1/2-z
-x,-y,-z
x,-y,1/2+z
1/2+x,1/2+y,z
1/2-x,1/2+y,1/2-z
1/2-x,1/2-y,-z
1/2+x,1/2-y,1/2+z
loop_
_atom_site_type_symbol
_atom_site_label
_atom_site_fract_x
_atom_site_fract_y
_atom_site_fract_z
Si Si1 0.779969 0.769870 0.882111
Si Si2 0.088663 0.417496 0.025400
Si Si3 0.000000 0.297621 0.250000
Si Si4 0.598007 0.355371 0.038354
Si Si5 0.820660 0.491488 0.819809
O O1 0.500000 0.776404 0.750000
O O2 0.974962 0.732846 0.855258
O O3 0.750000 0.750000 0.000000
O O4 0.941159 0.820252 0.922342
O O5 0.964301 0.446459 0.901926
O O6 0.372308 0.392355 0.039357
O O7 0.182874 0.456884 0.128446
O O8 0.860653 0.380257 0.027859
O O9 0.719790 0.329110 0.170354
O O10 0.500000 0.473819 0.750000
O O11 0.000000 0.501389 0.750000
#
# Coordination Sequence:
#
# PCOD8153973 Si02
#       5
#     8   8   4   8   8
#     4  12  27  51  75 108 156 205 256 320 390 445
#     4  11  27  46  69 117 141 189 252 302 377 450
#     4  12  28  48  76 106 156 198 262 312 396 448
#     4  12  27  46  77 110 147 196 258 314 367 464
#     4  11  24  47  75 100 154 192 233 305 383 451
#
# _framework density 22.2681
#
# number of rings (size 3 to 8) (size 9 to 14) (size 15 to 20)
#    0.000    0.444    2.222    4.667    7.778    6.222 
#    0.000    0.000    0.000    0.000    0.000    0.000 
#    0.000    0.000    0.000    0.000    0.000    0.000 
#
# Total GULP energy -223092.831836 kJ/mol
# GULP energy per Si atom -12394.046213 kJ/mol
# Density = 2.221742 g / cm^3
# Si number density = 22.268100 Si / 1000 Ang^3
#
#
#
# Elastic Constant Matrix: (Units=GPa)
#
#
# Indices 1 2 3 4 5 6 
#
# 1 131.0643 8.2977 59.1004 0.0000 -24.9634 0.0000
# 2 8.2977 104.4067 47.7737 0.0000 15.0030 0.0000
# 3 59.1004 47.7737 153.7133 0.0000 -9.7386 0.0000
# 4 0.0000 0.0000 0.0000 73.1027 0.0000 17.6964
# 5 -24.9634 15.0030 -9.7386 0.0000 84.0351 0.0000
# 6 0.0000 0.0000 0.0000 17.6964 0.0000 52.5157
#
#
#
# Elastic Compliance Matrix: (Units=1/GPa)
#
#
# Indices 1 2 3 4 5 6 
#
# 1 0.009747 0.000624 -0.003793 0.000000 0.002345 0.000000
# 2 0.000624 0.011714 -0.004031 0.000000 -0.002373 0.000000
# 3 -0.003793 -0.004031 0.009259 0.000000 0.000666 0.000000
# 4 0.000000 0.000000 0.000000 0.014894 0.000000 -0.005019
# 5 0.002345 -0.002373 0.000666 0.000000 0.013097 0.000000
# 6 0.000000 0.000000 0.000000 -0.005019 0.000000 0.020733
#
#
# Mechanical properties :
#
#
# Convention : Reuss Voigt Hill
#
# Bulk Modulus (GPa) = 61.27387 68.83643 65.05515
# Shear Modulus (GPa) = 50.36025 60.19820 55.27923
#
# Velocity S-wave (km/s) = 4.76073 5.20500 4.98781
# Velocity P-wave (km/s) = 7.60234 8.19161 7.90247
#
# Compressibility (1/GPa) = 0.01632017
#
# Stress axis : x y z
#
# Youngs Moduli (GPa) = 102.59251 85.36965 108.00317
#
# Poissons Ratio (x) = -0.05328 0.40967
# Poissons Ratio (y) = -0.06402 0.43535
# Poissons Ratio (z) = 0.38914 0.34412
#
# Static dielectric constant tensor:
#      x y z
#    x 4.104740 0.000000 0.171600 
#    y 0.000000 4.702000 0.000000 
#    z 0.171600 0.000000 4.356470 
# 
# 
# High freq. dielectric constant tensor:
#      x y z
#    x 1.894360 0.000000 0.009250 
#    y 0.000000 1.898540 0.000000 
#    z 0.009250 0.000000 1.888420 
# 
# From -- ./inp_files/73413.got.cif
#   From: 2010.06.25/outbox.cif.g09.slc.cpg/sg15_37_cif.got.tgz:73413.got - 2010.06.28 07:06:18.
