data_PCOD8153273
_publ_section_title
;
Structure prediction by ZEFSAII (Michael W. Deem and Ramdas Pophale) SiO2 
 PCOD8153273
Probable space group: C 2/C
;
_chemical_formula_sum "Si O2"
_cell_formula_units_Z 40
_cell_length_a 9.181801
_cell_length_b 17.206794
_cell_length_c 11.826439
_cell_angle_alpha 90.000000
_cell_angle_beta 75.504696
_cell_angle_gamma 90.000000
_cell_volume 1808.975257
_symmetry_space_group_name_H-M "C 2/C"
_symmetry_group_IT_number 15
_symmetry_cell_setting 'monoclinic'
loop_
_space_group_symop_operation_xyz
x,y,z
-x,y,1/2-z
-x,-y,-z
x,-y,1/2+z
1/2+x,1/2+y,z
1/2-x,1/2+y,1/2-z
1/2-x,1/2-y,-z
1/2+x,1/2-y,1/2+z
loop_
_atom_site_type_symbol
_atom_site_label
_atom_site_fract_x
_atom_site_fract_y
_atom_site_fract_z
Si Si1 0.846225 0.703111 0.828710
Si Si2 0.622884 0.838400 0.925425
Si Si3 0.340476 0.580202 0.239036
Si Si4 0.334162 0.595275 0.789978
Si Si5 0.720221 0.840307 0.537300
O O1 0.710191 0.763183 0.862198
O O2 0.794708 0.638137 0.752741
O O3 0.000000 0.741076 0.750000
O O4 0.882337 0.661704 0.939264
O O5 0.716691 0.911198 0.861809
O O6 0.457046 0.846009 0.907343
O O7 0.500000 0.613080 0.250000
O O8 0.348542 0.487708 0.224144
O O9 0.300573 0.630827 0.135990
O O10 0.500000 0.634398 0.750000
O O11 0.280881 0.599905 0.930601
O O12 0.750000 0.750000 0.500000
#
# Coordination Sequence:
#
# PCOD8153273 Si02
#       5
#     8   8   8   8   8
#     4  11  23  44  71 105 138 182 236 286 354 415
#     4  11  25  43  71 102 139 184 230 297 343 420
#     4  11  28  45  71 103 143 186 235 286 356 419
#     4  11  26  45  70 102 144 187 230 293 351 419
#     4  12  26  47  74 105 138 187 241 291 351 421
#
# _framework density 22.111965999999999
#
# number of rings (size 3 to 8) (size 9 to 14) (size 15 to 20)
#    0.000    0.800    2.000    3.600   11.200    4.000 
#    0.000    0.000    0.000    0.000    0.000    0.000 
#    0.000    0.000    0.000    0.000    0.000    0.000 
#
# Total GULP energy -247926.323998 kJ/mol
# GULP energy per Si atom -12396.316200 kJ/mol
# Density = 2.206164 g / cm^3
# Si number density = 22.111966 Si / 1000 Ang^3
#
#
#
# Elastic Constant Matrix: (Units=GPa)
#
#
# Indices 1 2 3 4 5 6 
#
# 1 194.6159 31.3413 64.5122 0.0000 -6.1296 0.0000
# 2 31.3413 61.5045 21.8184 0.0000 10.2192 0.0000
# 3 64.5122 21.8184 137.0054 0.0000 0.9532 0.0000
# 4 0.0000 0.0000 0.0000 32.1776 0.0000 -2.8808
# 5 -6.1296 10.2192 0.9532 0.0000 45.6480 0.0000
# 6 0.0000 0.0000 0.0000 -2.8808 0.0000 23.3093
#
#
#
# Elastic Compliance Matrix: (Units=1/GPa)
#
#
# Indices 1 2 3 4 5 6 
#
# 1 0.006485 -0.002617 -0.002647 0.000000 0.001512 0.000000
# 2 -0.002617 0.018974 -0.001758 0.000000 -0.004562 0.000000
# 3 -0.002647 -0.001758 0.008827 0.000000 -0.000146 0.000000
# 4 0.000000 0.000000 0.000000 0.031425 0.000000 0.003884
# 5 0.001512 -0.004562 -0.000146 0.000000 0.023134 0.000000
# 6 0.000000 0.000000 0.000000 0.003884 0.000000 0.043381
#
#
# Mechanical properties :
#
#
# Convention : Reuss Voigt Hill
#
# Bulk Modulus (GPa) = 49.40276 69.82995 59.61636
# Shear Modulus (GPa) = 32.67611 38.59058 35.63335
#
# Velocity S-wave (km/s) = 3.84833 4.18213 4.01870
# Velocity P-wave (km/s) = 6.49129 7.41411 6.96799
#
# Compressibility (1/GPa) = 0.02024178
#
# Stress axis : x y z
#
# Youngs Moduli (GPa) = 154.20450 52.70374 113.29498
#
# Poissons Ratio (x) = 0.13791 0.29994
# Poissons Ratio (y) = 0.40349 0.19915
# Poissons Ratio (z) = 0.40824 0.09264
#
# Static dielectric constant tensor:
#      x y z
#    x 4.252130 0.000000 -0.128780 
#    y 0.000000 3.862680 0.000000 
#    z -0.128780 0.000000 4.244080 
# 
# 
# High freq. dielectric constant tensor:
#      x y z
#    x 1.894730 0.000000 -0.005040 
#    y 0.000000 1.860160 0.000000 
#    z -0.005040 0.000000 1.881440 
# 
# From -- ./inp_files/76685.got.cif
#   From: 2010.06.25/outbox.cif.g09.slc.cpg/sg15_39_cif.got.tgz:76685.got - 2010.06.28 07:06:18.
