data_PCOD8153252
_publ_section_title
;
Structure prediction by ZEFSAII (Michael W. Deem and Ramdas Pophale) SiO2 
 PCOD8153252
Probable space group: C 2/C
;
_chemical_formula_sum "Si O2"
_cell_formula_units_Z 44
_cell_length_a 16.489729
_cell_length_b 9.279929
_cell_length_c 14.011564
_cell_angle_alpha 90.000000
_cell_angle_beta 114.178777
_cell_angle_gamma 90.000000
_cell_volume 1956.001040
_symmetry_space_group_name_H-M "C 2/C"
_symmetry_group_IT_number 15
_symmetry_cell_setting 'monoclinic'
loop_
_space_group_symop_operation_xyz
x,y,z
-x,y,1/2-z
-x,-y,-z
x,-y,1/2+z
1/2+x,1/2+y,z
1/2-x,1/2+y,1/2-z
1/2-x,1/2-y,-z
1/2+x,1/2-y,1/2+z
loop_
_atom_site_type_symbol
_atom_site_label
_atom_site_fract_x
_atom_site_fract_y
_atom_site_fract_z
Si Si1 0.574835 0.032344 0.959164
Si Si2 0.669742 0.733786 0.769557
Si Si3 0.228325 0.016187 0.938787
Si Si4 0.232286 0.458986 0.327641
Si Si5 0.903164 0.763967 0.666960
Si Si6 0.000000 0.354204 0.750000
O O1 0.580965 0.201114 0.932568
O O2 0.558690 0.948091 0.851695
O O3 0.500000 0.000000 0.000000
O O4 0.670231 0.994471 0.050558
O O5 0.696509 0.672979 0.887566
O O6 0.694257 0.620937 0.699826
O O7 0.563728 0.753172 0.717870
O O8 0.712718 0.888848 0.768266
O O9 0.163692 0.897196 0.861926
O O10 0.224299 0.993378 0.049515
O O11 0.142821 0.362184 0.291150
O O12 0.000000 0.811232 0.750000
#
# Coordination Sequence:
#
# PCOD8153252 Si02
#       6
#     8   8   8   8   8   4
#     4  11  24  43  74 104 141 195 237 288 356 434
#     4  12  26  47  72 105 143 188 235 299 361 417
#     4  11  26  45  70 105 147 182 241 296 353 424
#     4  11  24  45  73  99 141 196 235 288 360 426
#     4  11  23  44  69 108 145 184 244 290 350 426
#     4  12  26  46  68 110 148 180 244 296 348 430
#
# _framework density 22.494875
#
# number of rings (size 3 to 8) (size 9 to 14) (size 15 to 20)
#    0.000    0.727    4.545    3.818   11.455    0.000 
#    0.000    0.909    0.000    0.000    0.000    0.000 
#    0.000    0.000    0.000    0.000    0.000    0.000 
#
# Total GULP energy -272732.391470 kJ/mol
# GULP energy per Si atom -12396.926885 kJ/mol
# Density = 2.244368 g / cm^3
# Si number density = 22.494875 Si / 1000 Ang^3
#
#
#
# Elastic Constant Matrix: (Units=GPa)
#
#
# Indices 1 2 3 4 5 6 
#
# 1 159.8894 70.3335 44.5383 0.0000 4.3410 0.0000
# 2 70.3335 121.8304 31.2475 0.0000 8.1370 0.0000
# 3 44.5383 31.2475 72.3118 0.0000 14.1200 0.0000
# 4 0.0000 0.0000 0.0000 27.1828 0.0000 -7.6292
# 5 4.3410 8.1370 14.1200 0.0000 50.0625 0.0000
# 6 0.0000 0.0000 0.0000 -7.6292 0.0000 40.8285
#
#
#
# Elastic Compliance Matrix: (Units=1/GPa)
#
#
# Indices 1 2 3 4 5 6 
#
# 1 0.009279 -0.004396 -0.004020 0.000000 0.001044 0.000000
# 2 -0.004396 0.011321 -0.002010 0.000000 -0.000892 0.000000
# 3 -0.004020 -0.002010 0.018035 0.000000 -0.004411 0.000000
# 4 0.000000 0.000000 0.000000 0.038824 0.000000 0.007255
# 5 0.001044 -0.000892 -0.004411 0.000000 0.021274 0.000000
# 6 0.000000 0.000000 0.000000 0.007255 0.000000 0.025848
#
#
# Mechanical properties :
#
#
# Convention : Reuss Voigt Hill
#
# Bulk Modulus (GPa) = 56.23149 71.80779 64.01964
# Shear Modulus (GPa) = 33.03362 37.47557 35.25460
#
# Velocity S-wave (km/s) = 3.83625 4.08605 3.96312
# Velocity P-wave (km/s) = 6.68387 7.36561 7.03301
#
# Compressibility (1/GPa) = 0.01778363
#
# Stress axis : x y z
#
# Youngs Moduli (GPa) = 107.76660 88.33105 55.44798
#
# Poissons Ratio (x) = 0.38828 0.22288
# Poissons Ratio (y) = 0.47371 0.11148
# Poissons Ratio (z) = 0.43318 0.17759
#
# Static dielectric constant tensor:
#      x y z
#    x 4.100770 0.000000 0.013870 
#    y 0.000000 4.194620 0.000000 
#    z 0.013870 0.000000 4.022430 
# 
# 
# High freq. dielectric constant tensor:
#      x y z
#    x 1.896080 0.000000 0.002380 
#    y 0.000000 1.887570 0.000000 
#    z 0.002380 0.000000 1.878670 
# 
# From -- ./inp_files/159653.got.cif
#   From: 2010.06.25/outbox.cif.g09.slc.cpg/sg15_80_cif.got.tgz:159653.got - 2010.06.28 07:06:18.
