data_PCOD8153099
_publ_section_title
;
Structure prediction by ZEFSAII (Michael W. Deem and Ramdas Pophale) SiO2 
 PCOD8153099
Probable space group: C 2/C
;
_chemical_formula_sum "Si O2"
_cell_formula_units_Z 40
_cell_length_a 10.873806
_cell_length_b 9.845519
_cell_length_c 17.113781
_cell_angle_alpha 90.000000
_cell_angle_beta 95.130012
_cell_angle_gamma 90.000000
_cell_volume 1824.832666
_symmetry_space_group_name_H-M "C 2/C"
_symmetry_group_IT_number 15
_symmetry_cell_setting 'monoclinic'
loop_
_space_group_symop_operation_xyz
x,y,z
-x,y,1/2-z
-x,-y,-z
x,-y,1/2+z
1/2+x,1/2+y,z
1/2-x,1/2+y,1/2-z
1/2-x,1/2-y,-z
1/2+x,1/2-y,1/2+z
loop_
_atom_site_type_symbol
_atom_site_label
_atom_site_fract_x
_atom_site_fract_y
_atom_site_fract_z
Si Si1 0.220102 0.781953 0.691516
Si Si2 0.513332 0.182216 0.570237
Si Si3 0.864392 0.979730 0.209461
Si Si4 0.119768 0.942785 0.965516
Si Si5 0.848887 0.565722 0.061645
O O1 0.087993 0.746067 0.646438
O O2 0.282286 0.648373 0.731535
O O3 0.196804 0.884052 0.761029
O O4 0.312960 0.848883 0.634956
O O5 0.398705 0.280972 0.544253
O O6 0.461886 0.034203 0.590230
O O7 0.606526 0.171174 0.502093
O O8 0.000000 0.957060 0.250000
O O9 0.862300 0.984644 0.116203
O O10 0.236598 0.973266 0.025815
O O11 0.000000 0.000000 0.000000
#
# Coordination Sequence:
#
# PCOD8153099 Si02
#       5
#     8   8   8   8   8
#     4  12  26  46  68  99 141 183 225 285 344 407
#     4  11  23  42  73  99 134 174 227 287 341 400
#     4  12  27  45  68  99 141 184 227 276 347 408
#     4  12  22  44  73  99 133 179 229 281 338 406
#     4  11  24  44  71 105 132 173 234 288 336 406
#
# _framework density 21.919816999999998
#
# number of rings (size 3 to 8) (size 9 to 14) (size 15 to 20)
#    0.000    0.400    6.000    2.400    2.800    1.600 
#    3.600    0.000    0.000    0.000    0.000    0.000 
#    0.000    0.000    0.000    0.000    0.000    0.000 
#
# Total GULP energy -248167.652436 kJ/mol
# GULP energy per Si atom -12408.382622 kJ/mol
# Density = 2.186993 g / cm^3
# Si number density = 21.919817 Si / 1000 Ang^3
#
#
#
# Elastic Constant Matrix: (Units=GPa)
#
#
# Indices 1 2 3 4 5 6 
#
# 1 82.0415 33.7995 24.2922 0.0000 -10.7050 0.0000
# 2 33.7995 121.1937 33.9792 0.0000 -0.9241 0.0000
# 3 24.2922 33.9792 83.1986 0.0000 -17.0221 0.0000
# 4 0.0000 0.0000 0.0000 30.0279 0.0000 4.5849
# 5 -10.7050 -0.9241 -17.0221 0.0000 12.2045 0.0000
# 6 0.0000 0.0000 0.0000 4.5849 0.0000 44.3102
#
#
#
# Elastic Compliance Matrix: (Units=1/GPa)
#
#
# Indices 1 2 3 4 5 6 
#
# 1 0.015708 -0.004240 -0.000142 0.000000 0.013258 0.000000
# 2 -0.004240 0.010839 -0.005292 0.000000 -0.010279 0.000000
# 3 -0.000142 -0.005292 0.019751 0.000000 0.027022 0.000000
# 4 0.000000 0.000000 0.000000 0.033837 0.000000 -0.003501
# 5 0.013258 -0.010279 0.027022 0.000000 0.130476 0.000000
# 6 0.000000 0.000000 0.000000 -0.003501 0.000000 0.022930
#
#
# Mechanical properties :
#
#
# Convention : Reuss Voigt Hill
#
# Bulk Modulus (GPa) = 37.10581 52.28618 44.69599
# Shear Modulus (GPa) = 19.09331 30.26607 24.67969
#
# Velocity S-wave (km/s) = 2.95456 3.71989 3.35909
# Velocity P-wave (km/s) = 5.34827 6.50809 5.95648
#
# Compressibility (1/GPa) = 0.02694996
#
# Stress axis : x y z
#
# Youngs Moduli (GPa) = 63.66299 92.25967 50.63109
#
# Poissons Ratio (x) = 0.39116 0.00720
# Poissons Ratio (y) = 0.26991 0.26793
# Poissons Ratio (z) = 0.00905 0.48822
#
# Static dielectric constant tensor:
#      x y z
#    x 4.101600 0.000000 -0.080140 
#    y 0.000000 4.204850 0.000000 
#    z -0.080140 0.000000 3.764090 
# 
# 
# High freq. dielectric constant tensor:
#      x y z
#    x 1.871990 0.000000 -0.008740 
#    y 0.000000 1.880760 0.000000 
#    z -0.008740 0.000000 1.850870 
# 
# From -- ./inp_files/141842.got.cif
#   From: 2010.06.25/outbox.cif.g09.slc.cpg/sg15_71_cif.got.tgz:141842.got - 2010.06.28 07:06:18.
