data_PCOD8153915
_publ_section_title
;
Structure prediction by ZEFSAII (Michael W. Deem and Ramdas Pophale) SiO2 
 PCOD8153915
Probable space group: C 2/C
;
_chemical_formula_sum "Si O2"
_cell_formula_units_Z 32
_cell_length_a 11.028976
_cell_length_b 18.740011
_cell_length_c 8.133618
_cell_angle_alpha 90.000000
_cell_angle_beta 127.979730
_cell_angle_gamma 90.000000
_cell_volume 1325.076479
_symmetry_space_group_name_H-M "C 2/C"
_symmetry_group_IT_number 15
_symmetry_cell_setting 'monoclinic'
loop_
_space_group_symop_operation_xyz
x,y,z
-x,y,1/2-z
-x,-y,-z
x,-y,1/2+z
1/2+x,1/2+y,z
1/2-x,1/2+y,1/2-z
1/2-x,1/2-y,-z
1/2+x,1/2-y,1/2+z
loop_
_atom_site_type_symbol
_atom_site_label
_atom_site_fract_x
_atom_site_fract_y
_atom_site_fract_z
Si Si1 0.172417 0.096672 0.427302
Si Si2 0.662512 0.551837 0.795007
Si Si3 0.403958 0.778917 0.013823
Si Si4 0.706243 0.805602 0.099918
O O1 0.167498 0.069705 0.608453
O O2 0.292783 0.157970 0.480129
O O3 0.000000 0.123236 0.250000
O O4 0.229115 0.027626 0.370033
O O5 0.500000 0.553532 0.750000
O O6 0.759207 0.617284 0.951462
O O7 0.500000 0.749009 0.250000
O O8 0.524467 0.805986 0.979696
O O9 0.304145 0.713948 0.849556
O O10 0.750000 0.750000 0.000000
#
# Coordination Sequence:
#
# PCOD8153915 Si02
#       4
#     8   8   8   8
#     4  11  26  46  77 106 146 197 248 304 368 447
#     4  11  24  46  74 106 147 193 248 298 372 433
#     4  12  27  49  74 109 146 195 242 308 375 436
#     4  12  28  48  75 109 148 195 247 308 369 446
#
# _framework density 24.149549
#
# number of rings (size 3 to 8) (size 9 to 14) (size 15 to 20)
#    0.000    0.500    2.500    6.000   10.500    1.000 
#    0.000    0.000    0.000    0.000    0.000    0.000 
#    0.000    0.000    0.000    0.000    0.000    0.000 
#
# Total GULP energy -198238.566349 kJ/mol
# GULP energy per Si atom -12389.910397 kJ/mol
# Density = 2.409458 g / cm^3
# Si number density = 24.149549 Si / 1000 Ang^3
#
#
#
# Elastic Constant Matrix: (Units=GPa)
#
#
# Indices 1 2 3 4 5 6 
#
# 1 138.0882 51.4390 36.9120 0.0000 1.6671 0.0000
# 2 51.4390 159.4617 35.5519 0.0000 8.0123 0.0000
# 3 36.9120 35.5519 67.4365 0.0000 2.8182 0.0000
# 4 0.0000 0.0000 0.0000 34.7673 0.0000 -6.0598
# 5 1.6671 8.0123 2.8182 0.0000 39.6176 0.0000
# 6 0.0000 0.0000 0.0000 -6.0598 0.0000 53.0909
#
#
#
# Elastic Compliance Matrix: (Units=1/GPa)
#
#
# Indices 1 2 3 4 5 6 
#
# 1 0.009044 -0.002070 -0.003872 0.000000 0.000313 0.000000
# 2 -0.002070 0.007635 -0.002840 0.000000 -0.001255 0.000000
# 3 -0.003872 -0.002840 0.018469 0.000000 -0.000577 0.000000
# 4 0.000000 0.000000 0.000000 0.029347 0.000000 0.003350
# 5 0.000313 -0.001255 -0.000577 0.000000 0.025523 0.000000
# 6 0.000000 0.000000 0.000000 0.003350 0.000000 0.019218
#
#
# Mechanical properties :
#
#
# Convention : Reuss Voigt Hill
#
# Bulk Modulus (GPa) = 56.86704 68.08804 62.47754
# Shear Modulus (GPa) = 37.69003 41.56738 39.62870
#
# Velocity S-wave (km/s) = 3.95485 4.15329 4.05528
# Velocity P-wave (km/s) = 6.66734 7.15928 6.91769
#
# Compressibility (1/GPa) = 0.01758488
#
# Stress axis : x y z
#
# Youngs Moduli (GPa) = 110.56944 130.97649 54.14356
#
# Poissons Ratio (x) = 0.27110 0.20966
# Poissons Ratio (y) = 0.22886 0.15375
# Poissons Ratio (z) = 0.42815 0.37193
#
# Static dielectric constant tensor:
#      x y z
#    x 4.155630 0.000000 -0.170870 
#    y 0.000000 6.118110 0.000000 
#    z -0.170870 0.000000 4.716640 
# 
# 
# High freq. dielectric constant tensor:
#      x y z
#    x 1.981220 0.000000 -0.018390 
#    y 0.000000 1.987700 0.000000 
#    z -0.018390 0.000000 1.947880 
# 
# From -- ./inp_files/30636.got.cif
#   From: 2010.06.25/outbox.cif.g09.slc.cpg/sg15_16_cif.got.tgz:30636.got - 2010.06.28 07:06:18.
