data_PCOD8153134
_publ_section_title
;
Structure prediction by ZEFSAII (Michael W. Deem and Ramdas Pophale) SiO2 
 PCOD8153134
Probable space group: C 2/C
;
_chemical_formula_sum "Si O2"
_cell_formula_units_Z 48
_cell_length_a 4.829223
_cell_length_b 25.420605
_cell_length_c 18.115354
_cell_angle_alpha 90.000000
_cell_angle_beta 112.156664
_cell_angle_gamma 90.000000
_cell_volume 2059.653482
_symmetry_space_group_name_H-M "C 2/C"
_symmetry_group_IT_number 15
_symmetry_cell_setting 'monoclinic'
loop_
_space_group_symop_operation_xyz
x,y,z
-x,y,1/2-z
-x,-y,-z
x,-y,1/2+z
1/2+x,1/2+y,z
1/2-x,1/2+y,1/2-z
1/2-x,1/2-y,-z
1/2+x,1/2-y,1/2+z
loop_
_atom_site_type_symbol
_atom_site_label
_atom_site_fract_x
_atom_site_fract_y
_atom_site_fract_z
Si Si1 0.843759 0.183847 0.908304
Si Si2 0.262455 0.262522 0.161786
Si Si3 0.954543 0.160169 0.086293
Si Si4 0.945604 0.588981 0.082935
Si Si5 0.498083 0.983006 0.162358
Si Si6 0.094822 0.927944 0.404464
O O1 0.500285 0.194872 0.852866
O O2 0.064515 0.228617 0.898250
O O3 0.941994 0.128922 0.881974
O O4 0.868190 0.184874 0.998929
O O5 0.500000 0.269753 0.250000
O O6 0.117009 0.204674 0.150549
O O7 0.665081 0.139144 0.100304
O O8 0.157353 0.108708 0.098028
O O9 0.088868 0.540729 0.142001
O O10 0.853049 0.570032 0.992084
O O11 0.500000 0.980541 0.250000
O O12 0.744040 0.942239 0.156251
O O13 0.164982 0.969252 0.100709
#
# Coordination Sequence:
#
# PCOD8153134 Si02
#       6
#     8   8   8   8   8   8
#     4  11  23  43  67  95 130 173 222 268 318 383
#     4  12  25  42  66  98 135 172 211 268 334 391
#     4  11  23  43  70  97 127 172 225 271 317 380
#     4  11  23  43  70  97 127 172 225 271 317 380
#     4  12  25  42  66  98 135 172 211 268 334 391
#     4  11  23  43  67  95 130 173 222 268 318 383
#
# _framework density 23.304893
#
# number of rings (size 3 to 8) (size 9 to 14) (size 15 to 20)
#    0.000    0.667    0.000   10.000    0.000    3.333 
#    0.000    3.333    0.000    0.000    0.000    0.000 
#    0.000    0.000    0.000    0.000    0.000    0.000 
#
# Total GULP energy -297757.310032 kJ/mol
# GULP energy per Si atom -12406.554585 kJ/mol
# Density = 2.325185 g / cm^3
# Si number density = 23.304893 Si / 1000 Ang^3
#
#
#
# Elastic Constant Matrix: (Units=GPa)
#
#
# Indices 1 2 3 4 5 6 
#
# 1 123.2859 21.2952 32.6010 0.0000 8.9083 0.0000
# 2 21.2952 74.4021 33.8356 0.0000 6.6157 0.0000
# 3 32.6010 33.8356 65.2029 0.0000 6.6024 0.0000
# 4 0.0000 0.0000 0.0000 22.5513 0.0000 2.0980
# 5 8.9083 6.6157 6.6024 0.0000 32.8421 0.0000
# 6 0.0000 0.0000 0.0000 2.0980 0.0000 55.3083
#
#
#
# Elastic Compliance Matrix: (Units=1/GPa)
#
#
# Indices 1 2 3 4 5 6 
#
# 1 0.009456 -0.000639 -0.004236 0.000000 -0.001585 0.000000
# 2 -0.000639 0.017734 -0.008716 0.000000 -0.001647 0.000000
# 3 -0.004236 -0.008716 0.022134 0.000000 -0.001545 0.000000
# 4 0.000000 0.000000 0.000000 0.044500 0.000000 -0.001688
# 5 -0.001585 -0.001647 -0.001545 0.000000 0.031521 0.000000
# 6 0.000000 0.000000 0.000000 -0.001688 0.000000 0.018145
#
#
# Mechanical properties :
#
#
# Convention : Reuss Voigt Hill
#
# Bulk Modulus (GPa) = 45.16408 48.70608 46.93508
# Shear Modulus (GPa) = 28.08155 33.81761 30.94958
#
# Velocity S-wave (km/s) = 3.47502 3.81346 3.64817
# Velocity P-wave (km/s) = 5.96010 6.35097 6.15864
#
# Compressibility (1/GPa) = 0.02214149
#
# Stress axis : x y z
#
# Youngs Moduli (GPa) = 105.74999 56.38994 45.17918
#
# Poissons Ratio (x) = 0.03605 0.19137
# Poissons Ratio (y) = 0.06761 0.39379
# Poissons Ratio (z) = 0.44794 0.49150
#
# Static dielectric constant tensor:
#      x y z
#    x 4.467950 0.000000 0.046490 
#    y 0.000000 4.114110 0.000000 
#    z 0.046490 0.000000 3.849260 
# 
# 
# High freq. dielectric constant tensor:
#      x y z
#    x 1.945370 0.000000 0.002730 
#    y 0.000000 1.927270 0.000000 
#    z 0.002730 0.000000 1.899820 
# 
# From -- ./inp_files/185978.got.cif
#   From: 2010.06.25/outbox.cif.g09.slc.cpg/sg15_93_cif.got.tgz:185978.got - 2010.06.28 07:06:18.
