data_PCOD8153582
_publ_section_title
;
Structure prediction by ZEFSAII (Michael W. Deem and Ramdas Pophale) SiO2 
 PCOD8153582
Probable space group: C 2/C
;
_chemical_formula_sum "Si O2"
_cell_formula_units_Z 44
_cell_length_a 6.648543
_cell_length_b 18.558897
_cell_length_c 17.840505
_cell_angle_alpha 90.000000
_cell_angle_beta 108.905459
_cell_angle_gamma 90.000000
_cell_volume 2082.581179
_symmetry_space_group_name_H-M "C 2/C"
_symmetry_group_IT_number 15
_symmetry_cell_setting 'monoclinic'
loop_
_space_group_symop_operation_xyz
x,y,z
-x,y,1/2-z
-x,-y,-z
x,-y,1/2+z
1/2+x,1/2+y,z
1/2-x,1/2+y,1/2-z
1/2-x,1/2-y,-z
1/2+x,1/2-y,1/2+z
loop_
_atom_site_type_symbol
_atom_site_label
_atom_site_fract_x
_atom_site_fract_y
_atom_site_fract_z
Si Si1 0.637140 0.325849 0.981025
Si Si2 0.702437 0.020977 0.821083
Si Si3 0.000000 0.250824 0.750000
Si Si4 0.861354 0.137033 0.305679
Si Si5 0.052703 0.133182 0.881303
Si Si6 0.515272 0.932457 0.451233
O O1 0.484634 0.330303 0.891328
O O2 0.750000 0.250000 0.000000
O O3 0.508586 0.345814 0.041124
O O4 0.832719 0.377858 0.987642
O O5 0.500000 0.047011 0.750000
O O6 0.641944 0.036262 0.897576
O O7 0.906155 0.070654 0.827286
O O8 0.748261 0.936866 0.815738
O O9 0.200397 0.301648 0.759946
O O10 0.031440 0.203826 0.828185
O O11 0.000000 0.118639 0.250000
O O12 0.292190 0.104530 0.905642
O O13 0.500000 0.000000 0.500000
#
# Coordination Sequence:
#
# PCOD8153582 Si02
#       6
#     8   8   4   8   8   8
#     4  11  25  44  66  98 136 178 227 280 342 408
#     4  11  25  42  66 100 133 176 227 278 338 405
#     4  12  26  44  68 102 134 180 230 278 350 410
#     4  12  27  43  68 100 137 176 228 282 341 410
#     4  11  25  44  71  98 138 182 227 287 343 406
#     4  11  24  42  69  98 133 177 231 277 338 409
#
# _framework density 21.12763
#
# number of rings (size 3 to 8) (size 9 to 14) (size 15 to 20)
#    0.000    0.727    0.909    5.455    6.364   12.364 
#    0.000    0.000    0.000    0.000    0.000    0.000 
#    0.000    0.000    0.000    0.000    0.000    0.000 
#
# Total GULP energy -272799.466708 kJ/mol
# GULP energy per Si atom -12399.975759 kJ/mol
# Density = 2.107954 g / cm^3
# Si number density = 21.127630 Si / 1000 Ang^3
#
#
#
# Elastic Constant Matrix: (Units=GPa)
#
#
# Indices 1 2 3 4 5 6 
#
# 1 114.6971 52.6548 27.8824 0.0000 16.1142 0.0000
# 2 52.6548 145.5271 30.9984 0.0000 4.9116 0.0000
# 3 27.8824 30.9984 88.8751 0.0000 12.3587 0.0000
# 4 0.0000 0.0000 0.0000 47.8874 0.0000 6.4999
# 5 16.1142 4.9116 12.3587 0.0000 30.1458 0.0000
# 6 0.0000 0.0000 0.0000 6.4999 0.0000 23.1114
#
#
#
# Elastic Compliance Matrix: (Units=1/GPa)
#
#
# Indices 1 2 3 4 5 6 
#
# 1 0.011473 -0.003634 -0.001656 0.000000 -0.004862 0.000000
# 2 -0.003634 0.008575 -0.002043 0.000000 0.001383 0.000000
# 3 -0.001656 -0.002043 0.013059 0.000000 -0.004136 0.000000
# 4 0.000000 0.000000 0.000000 0.021711 0.000000 -0.006106
# 5 -0.004862 0.001383 -0.004136 0.000000 0.037241 0.000000
# 6 0.000000 0.000000 0.000000 -0.006106 0.000000 0.044986
#
#
# Mechanical properties :
#
#
# Convention : Reuss Voigt Hill
#
# Bulk Modulus (GPa) = 54.22808 63.57450 58.90129
# Shear Modulus (GPa) = 31.67420 36.06650 33.87035
#
# Velocity S-wave (km/s) = 3.87613 4.13616 4.00826
# Velocity P-wave (km/s) = 6.76425 7.27781 7.02572
#
# Compressibility (1/GPa) = 0.01844063
#
# Stress axis : x y z
#
# Youngs Moduli (GPa) = 87.16470 116.61780 76.57657
#
# Poissons Ratio (x) = 0.42382 0.12678
# Poissons Ratio (y) = 0.31678 0.15645
# Poissons Ratio (z) = 0.14431 0.23825
#
# Static dielectric constant tensor:
#      x y z
#    x 2.832010 0.000000 -0.048360 
#    y 0.000000 3.170880 0.000000 
#    z -0.048360 0.000000 3.896780 
# 
# 
# High freq. dielectric constant tensor:
#      x y z
#    x 1.845750 0.000000 0.003420 
#    y 0.000000 1.849690 0.000000 
#    z 0.003420 0.000000 1.842270 
# 
# From -- ./inp_files/185003.got.cif
#   From: 2010.06.25/outbox.cif.g09.slc.cpg/sg15_93_cif.got.tgz:185003.got - 2010.06.28 07:06:18.
