data_PCOD8153987
_publ_section_title
;
Structure prediction by ZEFSAII (Michael W. Deem and Ramdas Pophale) SiO2 
 PCOD8153987
Probable space group: C 2/C
;
_chemical_formula_sum "Si O2"
_cell_formula_units_Z 28
_cell_length_a 7.235527
_cell_length_b 12.951626
_cell_length_c 12.565653
_cell_angle_alpha 90.000000
_cell_angle_beta 60.161518
_cell_angle_gamma 90.000000
_cell_volume 1021.444327
_symmetry_space_group_name_H-M "C 2/C"
_symmetry_group_IT_number 15
_symmetry_cell_setting 'monoclinic'
loop_
_space_group_symop_operation_xyz
x,y,z
-x,y,1/2-z
-x,-y,-z
x,-y,1/2+z
1/2+x,1/2+y,z
1/2-x,1/2+y,1/2-z
1/2-x,1/2-y,-z
1/2+x,1/2-y,1/2+z
loop_
_atom_site_type_symbol
_atom_site_label
_atom_site_fract_x
_atom_site_fract_y
_atom_site_fract_z
Si Si1 0.943711 0.491315 0.148496
Si Si2 0.500000 0.557223 0.750000
Si Si3 0.638346 0.403897 0.997939
Si Si4 0.518891 0.247214 0.621025
O O1 0.699234 0.523466 0.196479
O O2 0.875761 0.554750 0.469333
O O3 0.000000 0.526502 0.250000
O O4 0.941212 0.368877 0.136074
O O5 0.519416 0.631909 0.640730
O O6 0.639821 0.314916 0.908968
O O7 0.500000 0.500000 0.000000
O O8 0.500000 0.284031 0.750000
O O9 0.750000 0.250000 0.500000
#
# Coordination Sequence:
#
# PCOD8153987 Si02
#       4
#     8   4   8   8
#     4  11  24  48  74 108 156 201 261 321 389 464
#     4  12  26  48  70 110 158 196 260 330 378 472
#     4  12  24  44  76 112 148 209 261 314 403 463
#     4  11  24  47  79 114 158 205 260 330 389 467
#
# _framework density 27.412163
#
# number of rings (size 3 to 8) (size 9 to 14) (size 15 to 20)
#    0.000    0.571    5.714    2.571    2.000    1.143 
#    7.714    0.000    0.000    0.000    0.000    0.000 
#    0.000    0.000    0.000    0.000    0.000    0.000 
#
# Total GULP energy -173457.169150 kJ/mol
# GULP energy per Si atom -12389.797796 kJ/mol
# Density = 2.734977 g / cm^3
# Si number density = 27.412163 Si / 1000 Ang^3
#
#
#
# Elastic Constant Matrix: (Units=GPa)
#
#
# Indices 1 2 3 4 5 6 
#
# 1 205.4032 33.0908 69.9528 0.0000 -29.7836 0.0000
# 2 33.0908 89.1163 42.9013 0.0000 4.8486 0.0000
# 3 69.9528 42.9013 257.7905 0.0000 15.6646 0.0000
# 4 0.0000 0.0000 0.0000 53.3696 0.0000 44.9465
# 5 -29.7836 4.8486 15.6646 0.0000 54.1798 0.0000
# 6 0.0000 0.0000 0.0000 44.9465 0.0000 107.7897
#
#
#
# Elastic Compliance Matrix: (Units=1/GPa)
#
#
# Indices 1 2 3 4 5 6 
#
# 1 0.006319 -0.001766 -0.001671 0.000000 0.004114 0.000000
# 2 -0.001766 0.012706 -0.001534 0.000000 -0.001664 0.000000
# 3 -0.001671 -0.001534 0.004718 0.000000 -0.002145 0.000000
# 4 0.000000 0.000000 0.000000 0.028879 0.000000 -0.012042
# 5 0.004114 -0.001664 -0.002145 0.000000 0.021488 0.000000
# 6 0.000000 0.000000 0.000000 -0.012042 0.000000 0.014299
#
#
# Mechanical properties :
#
#
# Convention : Reuss Voigt Hill
#
# Bulk Modulus (GPa) = 72.45696 93.79997 83.12846
# Shear Modulus (GPa) = 48.56725 70.15882 59.36304
#
# Velocity S-wave (km/s) = 4.21377 5.06454 4.65862
# Velocity P-wave (km/s) = 7.08268 8.27600 7.70248
#
# Compressibility (1/GPa) = 0.01380130
#
# Stress axis : x y z
#
# Youngs Moduli (GPa) = 158.26468 78.70229 211.94674
#
# Poissons Ratio (x) = 0.13897 0.35410
# Poissons Ratio (y) = 0.27946 0.32518
# Poissons Ratio (z) = 0.26442 0.12075
#
# Static dielectric constant tensor:
#      x y z
#    x 5.805060 0.000000 -0.057920 
#    y 0.000000 4.623090 0.000000 
#    z -0.057920 0.000000 6.440630 
# 
# 
# High freq. dielectric constant tensor:
#      x y z
#    x 2.125730 0.000000 0.011080 
#    y 0.000000 2.062650 0.000000 
#    z 0.011080 0.000000 2.152510 
# 
# From -- ./inp_files/75502.got.cif
#   From: 2010.06.25/outbox.cif.g09.slc.cpg/sg15_38_cif.got.tgz:75502.got - 2010.06.28 07:06:18.
