data_PCOD8153037
_publ_section_title
;
Structure prediction by ZEFSAII (Michael W. Deem and Ramdas Pophale) SiO2 
 PCOD8153037
Probable space group: C 2/C
;
_chemical_formula_sum "Si O2"
_cell_formula_units_Z 48
_cell_length_a 12.391053
_cell_length_b 13.501480
_cell_length_c 20.807713
_cell_angle_alpha 90.000000
_cell_angle_beta 143.405019
_cell_angle_gamma 90.000000
_cell_volume 2075.261371
_symmetry_space_group_name_H-M "C 2/C"
_symmetry_group_IT_number 15
_symmetry_cell_setting 'monoclinic'
loop_
_space_group_symop_operation_xyz
x,y,z
-x,y,1/2-z
-x,-y,-z
x,-y,1/2+z
1/2+x,1/2+y,z
1/2-x,1/2+y,1/2-z
1/2-x,1/2-y,-z
1/2+x,1/2-y,1/2+z
loop_
_atom_site_type_symbol
_atom_site_label
_atom_site_fract_x
_atom_site_fract_y
_atom_site_fract_z
Si Si1 0.241791 0.697181 0.315280
Si Si2 0.194738 0.872850 0.521430
Si Si3 0.487788 0.442503 0.608731
Si Si4 0.166706 0.428890 0.541047
Si Si5 0.002800 0.681365 0.083678
Si Si6 0.218600 0.430448 0.172893
O O1 0.182211 0.659271 0.357759
O O2 0.440484 0.649652 0.398440
O O3 0.235336 0.815077 0.307598
O O4 0.125727 0.651805 0.202602
O O5 0.022821 0.799028 0.436230
O O6 0.307191 0.865500 0.508461
O O7 0.121188 0.984564 0.491244
O O8 0.345926 0.391402 0.590492
O O9 0.646015 0.507302 0.718066
O O10 0.227843 0.531532 0.603772
O O11 0.097361 0.354227 0.563434
O O12 0.995683 0.447026 0.410275
#
# Coordination Sequence:
#
# PCOD8153037 Si02
#       6
#     8   8   8   8   8   8
#     4  12  25  43  68 104 140 177 229 287 352 404
#     4  11  24  43  67 101 138 181 227 286 345 404
#     4  12  26  42  74 101 139 182 226 289 352 408
#     4  11  24  45  71 102 135 182 235 285 335 412
#     4  11  23  42  70 100 136 181 234 282 336 413
#     4  11  23  42  68 101 136 178 233 280 334 415
#
# _framework density 23.129618000000001
#
# number of rings (size 3 to 8) (size 9 to 14) (size 15 to 20)
#    0.000    0.667    5.000    3.500    2.333    2.000 
#    0.000    0.000    0.000    0.000    0.000    0.000 
#    0.000    0.000    0.000    0.000    0.000    0.000 
#
# Total GULP energy -297340.191480 kJ/mol
# GULP energy per Si atom -12389.174645 kJ/mol
# Density = 2.307697 g / cm^3
# Si number density = 23.129618 Si / 1000 Ang^3
#
#
#
# Elastic Constant Matrix: (Units=GPa)
#
#
# Indices 1 2 3 4 5 6 
#
# 1 111.6215 43.6450 1.4898 0.0000 4.3520 0.0000
# 2 43.6450 69.4868 -0.1774 -0.0001 8.0297 0.0000
# 3 1.4898 -0.1774 82.8934 -0.0001 -10.8470 0.0000
# 4 0.0000 -0.0001 -0.0001 28.0862 0.0000 4.9389
# 5 4.3520 8.0297 -10.8470 0.0000 24.6795 0.0000
# 6 0.0000 0.0000 0.0000 4.9389 0.0000 14.9564
#
#
#
# Elastic Compliance Matrix: (Units=1/GPa)
#
#
# Indices 1 2 3 4 5 6 
#
# 1 0.011881 -0.007493 -0.000196 0.000000 0.000257 0.000000
# 2 -0.007493 0.019711 -0.000519 0.000000 -0.005320 0.000000
# 3 -0.000196 -0.000519 0.012831 0.000000 0.005843 0.000000
# 4 0.000000 0.000000 0.000000 0.037800 0.000000 -0.012482
# 5 0.000257 -0.005320 0.005843 0.000000 0.044773 0.000000
# 6 0.000000 0.000000 0.000000 -0.012482 0.000000 0.070983
#
#
# Mechanical properties :
#
#
# Convention : Reuss Voigt Hill
#
# Bulk Modulus (GPa) = 35.70588 39.32405 37.51497
# Shear Modulus (GPa) = 22.34837 28.14739 25.24788
#
# Velocity S-wave (km/s) = 3.11178 3.49225 3.30749
# Velocity P-wave (km/s) = 5.32745 5.77058 5.55344
#
# Compressibility (1/GPa) = 0.02800659
#
# Stress axis : x y z
#
# Youngs Moduli (GPa) = 84.16644 50.73327 77.93831
#
# Poissons Ratio (x) = 0.38013 0.01528
# Poissons Ratio (y) = 0.63064 0.04047
# Poissons Ratio (z) = 0.01650 0.02635
#
# Static dielectric constant tensor:
#      x y z
#    x 4.106510 0.000000 0.109260 
#    y 0.000000 4.121840 0.000000 
#    z 0.109260 0.000000 4.443280 
# 
# 
# High freq. dielectric constant tensor:
#      x y z
#    x 1.904190 0.000000 0.002840 
#    y 0.000000 1.913710 0.000000 
#    z 0.002840 0.000000 1.920150 
# 
# From -- ./inp_files/239010.got.cif
#   From: 2010.06.25/outbox.cif.g09.slc.cpg/sg15_120_cif.got.tgz:239010.got - 2010.06.28 07:06:18.
