data_PCOD8153276
_publ_section_title
;
Structure prediction by ZEFSAII (Michael W. Deem and Ramdas Pophale) SiO2 
 PCOD8153276
Probable space group: C 2/C
;
_chemical_formula_sum "Si O2"
_cell_formula_units_Z 40
_cell_length_a 16.307098
_cell_length_b 22.451341
_cell_length_c 9.022976
_cell_angle_alpha 90.000000
_cell_angle_beta 147.341938
_cell_angle_gamma 90.000000
_cell_volume 1782.625887
_symmetry_space_group_name_H-M "C 2/C"
_symmetry_group_IT_number 15
_symmetry_cell_setting 'monoclinic'
loop_
_space_group_symop_operation_xyz
x,y,z
-x,y,1/2-z
-x,-y,-z
x,-y,1/2+z
1/2+x,1/2+y,z
1/2-x,1/2+y,1/2-z
1/2-x,1/2-y,-z
1/2+x,1/2-y,1/2+z
loop_
_atom_site_type_symbol
_atom_site_label
_atom_site_fract_x
_atom_site_fract_y
_atom_site_fract_z
Si Si1 0.609655 0.980874 0.295320
Si Si2 0.344972 0.391195 0.524415
Si Si3 0.890757 0.221158 0.290104
Si Si4 0.671729 0.109559 0.467848
Si Si5 0.201894 0.289938 0.792546
O O1 0.500000 0.951930 0.250000
O O2 0.718715 0.928653 0.413992
O O3 0.700485 0.038728 0.492882
O O4 0.500000 0.000000 0.000000
O O5 0.500000 0.430784 0.750000
O O6 0.412021 0.340072 0.734677
O O7 0.280508 0.367617 0.267538
O O8 0.837461 0.211097 0.378656
O O9 0.036786 0.264758 0.490493
O O10 0.750000 0.250000 0.000000
O O11 0.500000 0.123154 0.250000
O O12 0.699232 0.142748 0.353651
O O13 0.250000 0.250000 0.000000
#
# Coordination Sequence:
#
# PCOD8153276 Si02
#       5
#     8   8   8   8   8
#     4  11  24  46  74 102 132 185 241 276 343 425
#     4  12  26  45  69 105 147 176 229 300 350 403
#     4  12  26  42  67 101 136 182 231 283 345 406
#     4  11  23  44  71  98 136 186 232 283 339 422
#     4  12  25  44  69  97 138 183 229 280 344 413
#
# _framework density 22.438808000000002
#
# number of rings (size 3 to 8) (size 9 to 14) (size 15 to 20)
#    0.000    0.400    4.000    7.200    2.800    0.800 
#    0.000    2.000    0.000    0.000    0.000    0.000 
#    0.000    0.000    0.000    0.000    0.000    0.000 
#
# Total GULP energy -247834.626082 kJ/mol
# GULP energy per Si atom -12391.731304 kJ/mol
# Density = 2.238774 g / cm^3
# Si number density = 22.438808 Si / 1000 Ang^3
#
#
#
# Elastic Constant Matrix: (Units=GPa)
#
#
# Indices 1 2 3 4 5 6 
#
# 1 125.9523 30.6737 38.9941 0.0000 -5.0245 0.0000
# 2 30.6737 82.8354 26.7494 0.0000 2.0114 0.0000
# 3 38.9941 26.7494 140.8960 0.0000 5.7087 0.0000
# 4 0.0000 0.0000 0.0000 33.2683 0.0000 -8.5218
# 5 -5.0245 2.0114 5.7087 0.0000 40.6844 0.0000
# 6 0.0000 0.0000 0.0000 -8.5218 0.0000 24.2290
#
#
#
# Elastic Compliance Matrix: (Units=1/GPa)
#
#
# Indices 1 2 3 4 5 6 
#
# 1 0.009344 -0.002815 -0.002116 0.000000 0.001590 0.000000
# 2 -0.002815 0.013712 -0.001793 0.000000 -0.000774 0.000000
# 3 -0.002116 -0.001793 0.008076 0.000000 -0.001306 0.000000
# 4 0.000000 0.000000 0.000000 0.033035 0.000000 0.011619
# 5 0.001590 -0.000774 -0.001306 0.000000 0.024997 0.000000
# 6 0.000000 0.000000 0.000000 0.011619 0.000000 0.045359
#
#
# Mechanical properties :
#
#
# Convention : Reuss Voigt Hill
#
# Bulk Modulus (GPa) = 56.54701 60.27978 58.41340
# Shear Modulus (GPa) = 32.49571 36.52078 34.50825
#
# Velocity S-wave (km/s) = 3.80964 4.03869 3.92584
# Velocity P-wave (km/s) = 6.67880 6.97642 6.82923
#
# Compressibility (1/GPa) = 0.01768440
#
# Stress axis : x y z
#
# Youngs Moduli (GPa) = 107.02498 72.92698 123.81919
#
# Poissons Ratio (x) = 0.20531 0.26198
# Poissons Ratio (y) = 0.30130 0.22198
# Poissons Ratio (z) = 0.22645 0.13074
#
# Static dielectric constant tensor:
#      x y z
#    x 7.650220 0.000000 1.634080 
#    y 0.000000 -1.200120 0.000000 
#    z 1.634080 0.000000 5.214350 
# 
# 
# High freq. dielectric constant tensor:
#      x y z
#    x 1.902860 0.000000 -0.002570 
#    y 0.000000 1.874280 0.000000 
#    z -0.002570 0.000000 1.901900 
# 
# From -- ./inp_files/51698.got.cif
#   From: 2010.06.25/outbox.cif.g09.slc.cpg/sg15_26_cif.got.tgz:51698.got - 2010.06.28 07:06:18.
