data_PCOD8153976
_publ_section_title
;
Structure prediction by ZEFSAII (Michael W. Deem and Ramdas Pophale) SiO2 
 PCOD8153976
Probable space group: C 2/C
;
_chemical_formula_sum "Si O2"
_cell_formula_units_Z 44
_cell_length_a 11.747617
_cell_length_b 14.341620
_cell_length_c 12.186156
_cell_angle_alpha 90.000000
_cell_angle_beta 101.632143
_cell_angle_gamma 90.000000
_cell_volume 2010.955424
_symmetry_space_group_name_H-M "C 2/C"
_symmetry_group_IT_number 15
_symmetry_cell_setting 'monoclinic'
loop_
_space_group_symop_operation_xyz
x,y,z
-x,y,1/2-z
-x,-y,-z
x,-y,1/2+z
1/2+x,1/2+y,z
1/2-x,1/2+y,1/2-z
1/2-x,1/2-y,-z
1/2+x,1/2-y,1/2+z
loop_
_atom_site_type_symbol
_atom_site_label
_atom_site_fract_x
_atom_site_fract_y
_atom_site_fract_z
Si Si1 0.500000 0.400937 0.750000
Si Si2 0.416511 0.914652 0.454919
Si Si3 0.065828 0.746231 0.914146
Si Si4 0.219909 0.022919 0.758297
Si Si5 0.126232 0.625293 0.316007
Si Si6 0.305291 0.280176 0.339866
O O1 0.495173 0.336644 0.858657
O O2 0.612657 0.464605 0.783166
O O3 0.483297 0.843910 0.386663
O O4 0.300576 0.952857 0.376903
O O5 0.378621 0.856200 0.555061
O O6 0.500000 0.000000 0.500000
O O7 0.174654 0.734296 0.854657
O O8 0.103717 0.754910 0.047617
O O9 0.171853 0.113879 0.688641
O O10 0.290346 0.962591 0.684418
O O11 0.172369 0.716050 0.261543
O O12 0.000000 0.595385 0.250000
#
# Coordination Sequence:
#
# PCOD8153976 Si02
#       6
#     4   8   8   8   8   8
#     4  12  28  48  66 108 154 196 244 298 372 456
#     4  12  25  45  80 109 141 197 251 311 363 435
#     4  11  24  47  75 103 148 197 244 301 383 436
#     4  12  28  46  72 107 149 195 251 295 379 440
#     4  12  24  47  73 111 147 180 256 311 355 442
#     4  11  25  46  74 105 147 197 239 312 370 444
#
# _framework density 21.880147999999998
#
# number of rings (size 3 to 8) (size 9 to 14) (size 15 to 20)
#    0.000    0.364    5.455    2.182    6.364    1.455 
#    0.000    0.000    0.000    0.000    0.000    0.000 
#    0.000    0.000    0.000    0.000    0.000    0.000 
#
# Total GULP energy -272947.412554 kJ/mol
# GULP energy per Si atom -12406.700571 kJ/mol
# Density = 2.183035 g / cm^3
# Si number density = 21.880148 Si / 1000 Ang^3
#
#
#
# Elastic Constant Matrix: (Units=GPa)
#
#
# Indices 1 2 3 4 5 6 
#
# 1 128.5638 64.9357 48.6257 0.0000 8.4882 0.0000
# 2 64.9357 161.9970 35.4154 0.0000 -2.7620 0.0000
# 3 48.6257 35.4154 79.4682 0.0000 1.7476 0.0000
# 4 0.0000 0.0000 0.0000 31.4627 0.0000 2.8592
# 5 8.4882 -2.7620 1.7476 0.0000 35.0117 0.0000
# 6 0.0000 0.0000 0.0000 2.8592 0.0000 43.7392
#
#
#
# Elastic Compliance Matrix: (Units=1/GPa)
#
#
# Indices 1 2 3 4 5 6 
#
# 1 0.011911 -0.003595 -0.005623 0.000000 -0.002891 0.000000
# 2 -0.003595 0.007941 -0.001374 0.000000 0.001566 0.000000
# 3 -0.005623 -0.001374 0.016627 0.000000 0.000425 0.000000
# 4 0.000000 0.000000 0.000000 0.031974 0.000000 -0.002090
# 5 -0.002891 0.001566 0.000425 0.000000 0.029365 0.000000
# 6 0.000000 0.000000 0.000000 -0.002090 0.000000 0.022999
#
#
# Mechanical properties :
#
#
# Convention : Reuss Voigt Hill
#
# Bulk Modulus (GPa) = 65.37363 74.22028 69.79696
# Shear Modulus (GPa) = 33.99067 36.77953 35.38510
#
# Velocity S-wave (km/s) = 3.94571 4.10439 4.02584
# Velocity P-wave (km/s) = 7.12047 7.51374 7.31975
#
# Compressibility (1/GPa) = 0.01529669
#
# Stress axis : x y z
#
# Youngs Moduli (GPa) = 83.95311 125.93029 60.14262
#
# Poissons Ratio (x) = 0.45267 0.33818
# Poissons Ratio (y) = 0.30178 0.08263
# Poissons Ratio (z) = 0.47206 0.17301
#
# Static dielectric constant tensor:
#      x y z
#    x 4.110210 0.000000 -0.007450 
#    y 0.000000 4.138010 0.000000 
#    z -0.007450 0.000000 3.987480 
# 
# 
# High freq. dielectric constant tensor:
#      x y z
#    x 1.867620 0.000000 0.003810 
#    y 0.000000 1.870830 0.000000 
#    z 0.003810 0.000000 1.863770 
# 
# From -- ./inp_files/86184.got.cif
#   From: 2010.06.25/outbox.cif.g09.slc.cpg/sg15_44_cif.got.tgz:86184.got - 2010.06.28 07:06:18.
