data_PCOD8153609
_publ_section_title
;
Structure prediction by ZEFSAII (Michael W. Deem and Ramdas Pophale) SiO2 
 PCOD8153609
Probable space group: C 2/C
;
_chemical_formula_sum "Si O2"
_cell_formula_units_Z 48
_cell_length_a 17.513660
_cell_length_b 15.784167
_cell_length_c 21.610803
_cell_angle_alpha 90.000000
_cell_angle_beta 156.642366
_cell_angle_gamma 90.000000
_cell_volume 2368.530098
_symmetry_space_group_name_H-M "C 2/C"
_symmetry_group_IT_number 15
_symmetry_cell_setting 'monoclinic'
loop_
_space_group_symop_operation_xyz
x,y,z
-x,y,1/2-z
-x,-y,-z
x,-y,1/2+z
1/2+x,1/2+y,z
1/2-x,1/2+y,1/2-z
1/2-x,1/2-y,-z
1/2+x,1/2-y,1/2+z
loop_
_atom_site_type_symbol
_atom_site_label
_atom_site_fract_x
_atom_site_fract_y
_atom_site_fract_z
Si Si1 0.806173 0.077361 0.134427
Si Si2 0.683465 0.753585 0.130531
Si Si3 0.560653 0.606507 0.732108
Si Si4 0.238296 0.706813 0.181842
Si Si5 0.219543 0.322143 0.925083
Si Si6 0.071997 0.314966 0.371667
O O1 0.780075 0.115642 0.183272
O O2 0.000000 0.117348 0.250000
O O3 0.832048 0.977620 0.164709
O O4 0.636406 0.102285 0.959857
O O5 0.793930 0.842446 0.203178
O O6 0.780392 0.699277 0.257713
O O7 0.686905 0.704254 0.069592
O O8 0.469771 0.765921 0.997301
O O9 0.500000 0.658344 0.750000
O O10 0.353207 0.596293 0.543089
O O11 0.392591 0.775254 0.274330
O O12 0.000000 0.350124 0.750000
O O13 0.250000 0.250000 0.000000
O O14 0.250000 0.250000 0.500000
O O15 0.000000 0.343258 0.250000
#
# Coordination Sequence:
#
# PCOD8153609 Si02
#       6
#     8   8   8   8   8   8
#     4  11  24  43  65  93 139 173 216 283 337 393
#     4  12  22  37  67  98 128 172 227 274 324 402
#     4  11  24  43  65  94 136 176 220 277 341 387
#     4  12  22  37  65  99 128 173 223 272 332 392
#     4  12  20  40  71  98 126 176 235 269 316 403
#     4  12  20  40  70  95 127 179 233 267 313 404
#
# _framework density 20.265733000000001
#
# number of rings (size 3 to 8) (size 9 to 14) (size 15 to 20)
#    0.000    0.333   10.000    0.000    0.000    0.667 
#    0.000    4.167    0.000    0.000    0.000    0.000 
#    0.000    0.000    0.000    0.000    0.000    0.000 
#
# Total GULP energy -297341.562617 kJ/mol
# GULP energy per Si atom -12389.231776 kJ/mol
# Density = 2.021961 g / cm^3
# Si number density = 20.265733 Si / 1000 Ang^3
#
#
#
# Elastic Constant Matrix: (Units=GPa)
#
#
# Indices 1 2 3 4 5 6 
#
# 1 131.7313 38.1757 49.2563 -0.0031 -14.8734 0.0048
# 2 38.1757 66.7768 56.7818 -0.0610 -12.4610 -0.0018
# 3 49.2563 56.7818 154.3368 -0.0891 0.1297 -0.0024
# 4 -0.0031 -0.0610 -0.0891 29.3848 -0.0099 -0.1248
# 5 -14.8734 -12.4610 0.1297 -0.0099 54.4065 0.0032
# 6 0.0048 -0.0018 -0.0024 -0.1248 0.0032 24.9979
#
#
#
# Elastic Compliance Matrix: (Units=1/GPa)
#
#
# Indices 1 2 3 4 5 6 
#
# 1 0.009479 -0.003664 -0.001679 -0.000011 0.001756 -0.000003
# 2 -0.003664 0.024666 -0.007910 0.000028 0.004667 0.000001
# 3 -0.001679 -0.007910 0.009927 0.000013 -0.002294 0.000001
# 4 -0.000011 0.000028 0.000013 0.034032 0.000010 0.000170
# 5 0.001756 0.004667 -0.002294 0.000010 0.019935 -0.000003
# 6 -0.000003 0.000001 0.000001 0.000170 -0.000003 0.040004
#
#
# Mechanical properties :
#
#
# Convention : Reuss Voigt Hill
#
# Bulk Modulus (GPa) = 56.92143 71.25251 64.08697
# Shear Modulus (GPa) = 29.34212 35.66659 32.50435
#
# Velocity S-wave (km/s) = 3.80922 4.19972 4.00923
# Velocity P-wave (km/s) = 6.89169 7.66501 7.28861
#
# Compressibility (1/GPa) = 0.01756808
#
# Stress axis : x y z
#
# Youngs Moduli (GPa) = 105.49652 40.54096 100.73514
#
# Poissons Ratio (x) = 0.14854 0.16910
# Poissons Ratio (y) = 0.38653 0.79677
# Poissons Ratio (z) = 0.17710 0.32066
#
# Static dielectric constant tensor:
#      x y z
#    x 4.004300 -0.000050 -0.070180 
#    y -0.000050 3.234870 -0.000230 
#    z -0.070180 -0.000230 4.145740 
# 
# 
# High freq. dielectric constant tensor:
#      x y z
#    x 1.812260 0.000000 -0.003280 
#    y 0.000000 1.741380 -0.000010 
#    z -0.003280 -0.000010 1.816840 
# 
# From -- ./inp_files/48067.got.cif
#   From: 2010.06.25/outbox.cif.g09.slc.cpg/sg15_25_cif.got.tgz:48067.got - 2010.06.28 07:06:18.
