data_PCOD8153490
_publ_section_title
;
Structure prediction by ZEFSAII (Michael W. Deem and Ramdas Pophale) SiO2 
 PCOD8153490
Probable space group: C 2/C
;
_chemical_formula_sum "Si O2"
_cell_formula_units_Z 48
_cell_length_a 23.649867
_cell_length_b 11.461079
_cell_length_c 8.416845
_cell_angle_alpha 90.000000
_cell_angle_beta 73.553062
_cell_angle_gamma 90.000000
_cell_volume 2188.061064
_symmetry_space_group_name_H-M "C 2/C"
_symmetry_group_IT_number 15
_symmetry_cell_setting 'monoclinic'
loop_
_space_group_symop_operation_xyz
x,y,z
-x,y,1/2-z
-x,-y,-z
x,-y,1/2+z
1/2+x,1/2+y,z
1/2-x,1/2+y,1/2-z
1/2-x,1/2-y,-z
1/2+x,1/2-y,1/2+z
loop_
_atom_site_type_symbol
_atom_site_label
_atom_site_fract_x
_atom_site_fract_y
_atom_site_fract_z
Si Si1 0.416324 0.832037 0.141820
Si Si2 0.863697 0.122830 0.740286
Si Si3 0.969117 0.718628 0.110504
Si Si4 0.780987 0.302411 0.628733
Si Si5 0.164057 0.127877 0.368072
Si Si6 0.391137 0.053029 0.985831
O O1 0.368113 0.731441 0.201696
O O2 0.419639 0.909126 0.297325
O O3 0.479560 0.771073 0.062437
O O4 0.397350 0.914154 0.007541
O O5 0.930667 0.163081 0.649736
O O6 0.816882 0.199583 0.682861
O O7 0.858549 0.990803 0.690262
O O8 0.851615 0.133914 0.935674
O O9 0.000000 0.688616 0.250000
O O10 0.926056 0.612468 0.102887
O O11 0.750000 0.250000 0.500000
O O12 0.733820 0.356550 0.788447
O O13 0.822727 0.409995 0.545725
#
# Coordination Sequence:
#
# PCOD8153490 Si02
#       6
#     8   8   8   8   8   8
#     4  12  25  45  73 106 142 191 238 297 363 421
#     4  11  27  47  72 106 145 194 244 293 360 428
#     4  11  23  48  71 101 143 187 240 301 356 422
#     4  11  24  47  74 106 146 188 239 296 361 428
#     4  12  26  46  74 104 149 192 239 295 357 428
#     4  11  26  43  74 106 144 186 240 296 363 426
#
# _framework density 21.937231000000001
#
# number of rings (size 3 to 8) (size 9 to 14) (size 15 to 20)
#    0.000    0.667    3.333    3.500    7.000    2.000 
#    0.000    0.000    0.000    0.000    0.000    0.000 
#    0.000    0.000    0.000    0.000    0.000    0.000 
#
# Total GULP energy -297721.755944 kJ/mol
# GULP energy per Si atom -12405.073164 kJ/mol
# Density = 2.188730 g / cm^3
# Si number density = 21.937231 Si / 1000 Ang^3
#
#
#
# Elastic Constant Matrix: (Units=GPa)
#
#
# Indices 1 2 3 4 5 6 
#
# 1 136.5270 51.2556 61.7190 0.0000 -19.0101 0.0000
# 2 51.2556 121.9242 60.1021 0.0000 -7.7639 0.0000
# 3 61.7190 60.1021 116.0818 0.0000 -12.1306 0.0000
# 4 0.0000 0.0000 0.0000 33.3435 0.0000 -4.2701
# 5 -19.0101 -7.7639 -12.1306 0.0000 49.9427 0.0000
# 6 0.0000 0.0000 0.0000 -4.2701 0.0000 13.9017
#
#
#
# Elastic Compliance Matrix: (Units=1/GPa)
#
#
# Indices 1 2 3 4 5 6 
#
# 1 0.010360 -0.002159 -0.004118 0.000000 0.002607 0.000000
# 2 -0.002159 0.011468 -0.004811 0.000000 -0.000208 0.000000
# 3 -0.004118 -0.004811 0.013393 0.000000 0.000938 0.000000
# 4 0.000000 0.000000 0.000000 0.031219 0.000000 0.009589
# 5 0.002607 -0.000208 0.000938 0.000000 0.021211 0.000000
# 6 0.000000 0.000000 0.000000 0.009589 0.000000 0.074879
#
#
# Mechanical properties :
#
#
# Convention : Reuss Voigt Hill
#
# Bulk Modulus (GPa) = 76.66196 80.07625 78.36910
# Shear Modulus (GPa) = 26.44744 32.86801 29.65773
#
# Velocity S-wave (km/s) = 3.47594 3.87496 3.68086
# Velocity P-wave (km/s) = 7.15062 7.52343 7.33940
#
# Compressibility (1/GPa) = 0.01304428
#
# Stress axis : x y z
#
# Youngs Moduli (GPa) = 96.52772 87.19884 74.66602
#
# Poissons Ratio (x) = 0.18829 0.30745
# Poissons Ratio (y) = 0.20843 0.35924
# Poissons Ratio (z) = 0.39747 0.41954
#
# Static dielectric constant tensor:
#      x y z
#    x 4.248460 0.000000 -0.123970 
#    y 0.000000 3.830700 0.000000 
#    z -0.123970 0.000000 4.123780 
# 
# 
# High freq. dielectric constant tensor:
#      x y z
#    x 1.874430 0.000000 -0.003900 
#    y 0.000000 1.859010 0.000000 
#    z -0.003900 0.000000 1.879310 
# 
# From -- ./inp_files/60851.got.cif
#   From: 2010.06.25/outbox.cif.g09.slc.cpg/sg15_31_cif.got.tgz:60851.got - 2010.06.28 07:06:18.
