data_PCOD8153857
_publ_section_title
;
Structure prediction by ZEFSAII (Michael W. Deem and Ramdas Pophale) SiO2 
 PCOD8153857
Probable space group: C 2/C
;
_chemical_formula_sum "Si O2"
_cell_formula_units_Z 60
_cell_length_a 23.961475
_cell_length_b 8.710379
_cell_length_c 14.567463
_cell_angle_alpha 90.000000
_cell_angle_beta 113.475733
_cell_angle_gamma 90.000000
_cell_volume 2788.767084
_symmetry_space_group_name_H-M "C 2/C"
_symmetry_group_IT_number 15
_symmetry_cell_setting 'monoclinic'
loop_
_space_group_symop_operation_xyz
x,y,z
-x,y,1/2-z
-x,-y,-z
x,-y,1/2+z
1/2+x,1/2+y,z
1/2-x,1/2+y,1/2-z
1/2-x,1/2-y,-z
1/2+x,1/2-y,1/2+z
loop_
_atom_site_type_symbol
_atom_site_label
_atom_site_fract_x
_atom_site_fract_y
_atom_site_fract_z
Si Si1 0.710556 0.383459 0.763072
Si Si2 0.181039 0.724568 0.923649
Si Si3 0.519258 0.141553 0.574945
Si Si4 0.000000 0.492710 0.750000
Si Si5 0.908313 0.862131 0.487301
Si Si6 0.876023 0.194727 0.451673
Si Si7 0.869932 0.385167 0.623924
Si Si8 0.676631 0.280237 0.227766
O O1 0.672646 0.295170 0.816612
O O2 0.683154 0.353914 0.644335
O O3 0.710896 0.565311 0.783020
O O4 0.779677 0.323783 0.806897
O O5 0.162455 0.547340 0.912610
O O6 0.250000 0.750000 0.000000
O O7 0.136432 0.813179 0.961398
O O8 0.473216 0.282902 0.538302
O O9 0.585372 0.189087 0.584370
O O10 0.500000 0.000000 0.500000
O O11 0.525795 0.097195 0.685349
O O12 0.056407 0.392635 0.824250
O O13 0.882442 0.819762 0.370467
O O14 0.916547 0.045159 0.501741
O O15 0.852510 0.275690 0.528258
O O16 0.844264 0.314702 0.699136
#
# Coordination Sequence:
#
# PCOD8153857 Si02
#       8
#     8   8   8   4   8   8   8   8
#     4  11  25  44  67 101 136 179 226 283 343 409
#     4  12  24  43  71 100 137 177 226 282 345 409
#     4  12  23  45  71  97 135 177 227 280 340 411
#     4  12  24  44  72 104 132 184 232 278 340 406
#     4  11  24  46  67 101 135 174 227 285 346 404
#     4  11  26  44  69 100 134 181 225 283 345 407
#     4  12  26  45  70 102 136 183 230 281 340 412
#     4  11  25  43  70  98 136 179 226 282 341 409
#
# _framework density 21.514883000000001
#
# number of rings (size 3 to 8) (size 9 to 14) (size 15 to 20)
#    0.000    0.533    4.000    3.600    3.733    2.667 
#    0.000    0.000    0.000    0.000    0.000    0.000 
#    0.000    0.000    0.000    0.000    0.000    0.000 
#
# Total GULP energy -372210.544416 kJ/mol
# GULP energy per Si atom -12407.018147 kJ/mol
# Density = 2.146591 g / cm^3
# Si number density = 21.514883 Si / 1000 Ang^3
#
#
#
# Elastic Constant Matrix: (Units=GPa)
#
#
# Indices 1 2 3 4 5 6 
#
# 1 69.4050 9.3390 4.6478 0.0000 -10.9777 0.0000
# 2 9.3390 97.8178 22.3075 0.0000 -5.0762 0.0000
# 3 4.6478 22.3075 83.6906 0.0000 -20.2475 0.0000
# 4 0.0000 0.0000 0.0000 30.7278 0.0000 -12.7652
# 5 -10.9777 -5.0762 -20.2475 0.0000 44.9934 0.0000
# 6 0.0000 0.0000 0.0000 -12.7652 0.0000 37.0852
#
#
#
# Elastic Compliance Matrix: (Units=1/GPa)
#
#
# Indices 1 2 3 4 5 6 
#
# 1 0.015152 -0.001349 0.000422 0.000000 0.003734 0.000000
# 2 -0.001349 0.011005 -0.002960 0.000000 -0.000420 0.000000
# 3 0.000422 -0.002960 0.014205 0.000000 0.006161 0.000000
# 4 0.000000 0.000000 0.000000 0.037974 0.000000 0.013071
# 5 0.003734 -0.000420 0.006161 0.000000 0.025862 0.000000
# 6 0.000000 0.000000 0.000000 0.013071 0.000000 0.031464
#
#
# Mechanical properties :
#
#
# Convention : Reuss Voigt Hill
#
# Bulk Modulus (GPa) = 30.68665 35.94465 33.31565
# Shear Modulus (GPa) = 32.40451 36.86923 34.63687
#
# Velocity S-wave (km/s) = 3.88512 4.14413 4.01671
# Velocity P-wave (km/s) = 5.86681 6.29616 6.08527
#
# Compressibility (1/GPa) = 0.03258746
#
# Stress axis : x y z
#
# Youngs Moduli (GPa) = 65.99728 90.86669 70.39805
#
# Poissons Ratio (x) = 0.12258 -0.02968
# Poissons Ratio (y) = 0.08903 0.20838
# Poissons Ratio (z) = -0.02782 0.26896
#
# Static dielectric constant tensor:
#      x y z
#    x 2.554610 0.000000 -0.076940 
#    y 0.000000 3.717390 0.000000 
#    z -0.076940 0.000000 4.016720 
# 
# 
# High freq. dielectric constant tensor:
#      x y z
#    x 1.849940 0.000000 -0.011550 
#    y 0.000000 1.855860 0.000000 
#    z -0.011550 0.000000 1.855100 
# 
# From -- ./inp_files/172439.got.cif
#   From: 2010.06.25/outbox.cif.g09.slc.cpg/sg15_87_cif.got.tgz:172439.got - 2010.06.28 07:06:18.
