data_PCOD8153020
_publ_section_title
;
Structure prediction by ZEFSAII (Michael W. Deem and Ramdas Pophale) SiO2 
 PCOD8153020
Probable space group: C 2/C
;
_chemical_formula_sum "Si O2"
_cell_formula_units_Z 64
_cell_length_a 11.742383
_cell_length_b 26.701307
_cell_length_c 9.637607
_cell_angle_alpha 90.000000
_cell_angle_beta 92.488129
_cell_angle_gamma 90.000000
_cell_volume 3018.897341
_symmetry_space_group_name_H-M "C 2/C"
_symmetry_group_IT_number 15
_symmetry_cell_setting 'monoclinic'
loop_
_space_group_symop_operation_xyz
x,y,z
-x,y,1/2-z
-x,-y,-z
x,-y,1/2+z
1/2+x,1/2+y,z
1/2-x,1/2+y,1/2-z
1/2-x,1/2-y,-z
1/2+x,1/2-y,1/2+z
loop_
_atom_site_type_symbol
_atom_site_label
_atom_site_fract_x
_atom_site_fract_y
_atom_site_fract_z
Si Si1 0.019794 0.388122 0.598807
Si Si2 0.368956 0.402095 0.226379
Si Si3 0.267262 0.598067 0.022164
Si Si4 0.071297 0.728227 0.130837
Si Si5 0.713032 0.684667 0.267644
Si Si6 0.802228 0.352076 0.488068
Si Si7 0.437342 0.763905 0.370661
Si Si8 0.078371 0.010485 0.373039
O O1 0.131017 0.410181 0.528554
O O2 0.035521 0.329296 0.617625
O O3 0.000000 0.413295 0.750000
O O4 0.907255 0.392440 0.493288
O O5 0.500000 0.383774 0.250000
O O6 0.300521 0.393066 0.364579
O O7 0.306612 0.370909 0.102673
O O8 0.365823 0.460059 0.183698
O O9 0.314636 0.645349 0.111898
O O10 0.321335 0.547529 0.082573
O O11 0.206009 0.729490 0.168064
O O12 0.000000 0.754746 0.250000
O O13 0.033876 0.754162 0.985594
O O14 0.604514 0.711835 0.197889
O O15 0.774267 0.653749 0.148793
O O16 0.837587 0.297500 0.430386
O O17 0.500000 0.794617 0.250000
O O18 0.000000 0.035467 0.250000
O O19 0.000000 0.000000 0.500000
#
# Coordination Sequence:
#
# PCOD8153020 Si02
#       8
#     8   8   8   8   8   8   8   8
#     4   9  17  38  66  99 122 180 230 273 337 404
#     4  11  26  45  65 107 139 177 228 280 351 412
#     4  11  23  42  73  98 139 174 231 287 338 420
#     4   9  17  38  62  81 125 171 223 272 333 398
#     4  11  23  42  66  97 125 186 235 274 348 411
#     4  11  23  42  69  91 140 184 232 283 347 410
#     4  11  25  40  60  95 131 179 236 286 349 406
#     4  11  23  45  73  99 142 185 223 278 357 419
#
# _framework density 21.199791999999999
#
# number of rings (size 3 to 8) (size 9 to 14) (size 15 to 20)
#    0.000    1.500    7.500    0.375    7.000    2.000 
#    2.250    0.625    0.000    0.000    0.000    0.000 
#    0.000    0.000    0.000    0.000    0.000    0.000 
#
# Total GULP energy -396632.262417 kJ/mol
# GULP energy per Si atom -12394.758201 kJ/mol
# Density = 2.115154 g / cm^3
# Si number density = 21.199792 Si / 1000 Ang^3
#
#
#
# Elastic Constant Matrix: (Units=GPa)
#
#
# Indices 1 2 3 4 5 6 
#
# 1 143.3051 36.1018 63.2132 0.0000 16.3543 0.0000
# 2 36.1018 56.4134 29.7195 0.0000 6.9875 0.0000
# 3 63.2132 29.7195 146.3730 0.0000 4.5107 0.0000
# 4 0.0000 0.0000 0.0000 22.5866 0.0000 11.2559
# 5 16.3543 6.9875 4.5107 0.0000 48.9608 0.0000
# 6 0.0000 0.0000 0.0000 11.2559 0.0000 20.5775
#
#
#
# Elastic Compliance Matrix: (Units=1/GPa)
#
#
# Indices 1 2 3 4 5 6 
#
# 1 0.009760 -0.004224 -0.003285 0.000000 -0.002355 0.000000
# 2 -0.004224 0.021979 -0.002593 0.000000 -0.001487 0.000000
# 3 -0.003285 -0.002593 0.008757 0.000000 0.000661 0.000000
# 4 0.000000 0.000000 0.000000 0.060866 0.000000 -0.033294
# 5 -0.002355 -0.001487 0.000661 0.000000 0.021362 0.000000
# 6 0.000000 0.000000 0.000000 -0.033294 0.000000 0.066809
#
#
# Mechanical properties :
#
#
# Convention : Reuss Voigt Hill
#
# Bulk Modulus (GPa) = 49.27761 67.12894 58.20327
# Shear Modulus (GPa) = 23.09473 32.89544 27.99509
#
# Velocity S-wave (km/s) = 3.30416 3.94342 3.63786
# Velocity P-wave (km/s) = 6.15236 7.24346 6.72009
#
# Compressibility (1/GPa) = 0.02029319
#
# Stress axis : x y z
#
# Youngs Moduli (GPa) = 102.46094 45.49726 114.20055
#
# Poissons Ratio (x) = 0.19217 0.37512
# Poissons Ratio (y) = 0.43276 0.29610
# Poissons Ratio (z) = 0.33656 0.11797
#
# Static dielectric constant tensor:
#      x y z
#    x 4.410820 0.000000 0.311880 
#    y 0.000000 3.453230 0.000000 
#    z 0.311880 0.000000 4.357580 
# 
# 
# High freq. dielectric constant tensor:
#      x y z
#    x 1.842750 0.000000 0.004420 
#    y 0.000000 1.781860 0.000000 
#    z 0.004420 0.000000 1.853660 
# 
# From -- ./inp_files/35669.got.cif
#   From: 2010.06.25/outbox.cif.g09.slc.cpg/sg15_18_cif.got.tgz:35669.got - 2010.06.28 07:06:18.
