data_PCOD8153754
_publ_section_title
;
Structure prediction by ZEFSAII (Michael W. Deem and Ramdas Pophale) SiO2 
 PCOD8153754
Probable space group: C 2/C
;
_chemical_formula_sum "Si O2"
_cell_formula_units_Z 48
_cell_length_a 14.588294
_cell_length_b 9.295030
_cell_length_c 26.726118
_cell_angle_alpha 90.000000
_cell_angle_beta 38.917116
_cell_angle_gamma 90.000000
_cell_volume 2276.596247
_symmetry_space_group_name_H-M "C 2/C"
_symmetry_group_IT_number 15
_symmetry_cell_setting 'monoclinic'
loop_
_space_group_symop_operation_xyz
x,y,z
-x,y,1/2-z
-x,-y,-z
x,-y,1/2+z
1/2+x,1/2+y,z
1/2-x,1/2+y,1/2-z
1/2-x,1/2-y,-z
1/2+x,1/2-y,1/2+z
loop_
_atom_site_type_symbol
_atom_site_label
_atom_site_fract_x
_atom_site_fract_y
_atom_site_fract_z
Si Si1 0.914815 0.467897 0.336897
Si Si2 0.611513 0.603365 0.926913
Si Si3 0.094872 0.804877 0.160563
Si Si4 0.431460 0.848067 0.037975
Si Si5 0.896222 0.698436 0.665594
Si Si6 0.621360 0.527118 0.809993
O O1 0.755746 0.398890 0.399416
O O2 0.913107 0.637170 0.349921
O O3 0.000000 0.436044 0.250000
O O4 0.986534 0.389004 0.352908
O O5 0.654723 0.552647 0.853663
O O6 0.500000 0.500000 0.000000
O O7 0.531686 0.755707 0.958036
O O8 0.262097 0.848690 0.095761
O O9 0.000000 0.838975 0.250000
O O10 0.032044 0.904092 0.142375
O O11 0.453582 0.786744 0.084635
O O12 0.500000 0.000000 0.000000
O O13 0.746687 0.608278 0.725691
O O14 0.873377 0.855034 0.700761
#
# Coordination Sequence:
#
# PCOD8153754 Si02
#       6
#     8   8   8   8   8   8
#     4  11  24  44  74 102 137 190 237 282 350 421
#     4  12  25  49  69 101 148 184 223 290 360 408
#     4  11  24  46  73 102 141 185 236 285 346 423
#     4  12  29  47  71 107 147 181 232 298 351 411
#     4  12  26  46  72 107 138 187 238 285 347 423
#     4  12  26  44  75 102 141 187 238 286 347 422
#
# _framework density 21.084108000000001
#
# number of rings (size 3 to 8) (size 9 to 14) (size 15 to 20)
#    0.000    0.333    6.667    1.000    7.000    3.333 
#    0.000    0.000    0.000    0.000    0.000    0.000 
#    0.000    0.000    0.000    0.000    0.000    0.000 
#
# Total GULP energy -297680.399072 kJ/mol
# GULP energy per Si atom -12403.349961 kJ/mol
# Density = 2.103612 g / cm^3
# Si number density = 21.084108 Si / 1000 Ang^3
#
#
#
# Elastic Constant Matrix: (Units=GPa)
#
#
# Indices 1 2 3 4 5 6 
#
# 1 144.3100 43.5066 24.8292 0.0000 -30.3449 -0.0001
# 2 43.5066 144.8199 34.3502 0.0000 -24.5948 -0.0001
# 3 24.8292 34.3502 73.2260 0.0000 -24.0001 0.0000
# 4 0.0000 0.0000 0.0000 32.0892 0.0000 -4.8652
# 5 -30.3449 -24.5948 -24.0001 0.0000 43.8178 0.0000
# 6 -0.0001 -0.0001 0.0000 -4.8652 0.0000 39.0825
#
#
#
# Elastic Compliance Matrix: (Units=1/GPa)
#
#
# Indices 1 2 3 4 5 6 
#
# 1 0.008499 -0.001622 -0.000597 0.000000 0.004648 0.000000
# 2 -0.001622 0.008390 -0.002694 0.000000 0.002110 0.000000
# 3 -0.000597 -0.002694 0.017662 0.000000 0.007748 0.000000
# 4 0.000000 0.000000 0.000000 0.031763 0.000000 0.003954
# 5 0.004648 0.002110 0.007748 0.000000 0.031469 0.000000
# 6 0.000000 0.000000 0.000000 0.003954 0.000000 0.026079
#
#
# Mechanical properties :
#
#
# Convention : Reuss Voigt Hill
#
# Bulk Modulus (GPa) = 40.44720 63.08091 51.76405
# Shear Modulus (GPa) = 35.22875 40.30921 37.76898
#
# Velocity S-wave (km/s) = 4.09206 4.37719 4.23702
# Velocity P-wave (km/s) = 6.44608 7.45185 6.96714
#
# Compressibility (1/GPa) = 0.02472359
#
# Stress axis : x y z
#
# Youngs Moduli (GPa) = 117.66531 119.19200 56.61823
#
# Poissons Ratio (x) = 0.19334 0.03383
# Poissons Ratio (y) = 0.19087 0.15253
# Poissons Ratio (z) = 0.07030 0.32110
#
# Static dielectric constant tensor:
#      x y z
#    x 3.803590 0.000000 -0.161270 
#    y 0.000000 3.818080 0.000000 
#    z -0.161270 0.000000 3.694340 
# 
# 
# High freq. dielectric constant tensor:
#      x y z
#    x 1.837230 0.000000 -0.009620 
#    y 0.000000 1.838800 0.000000 
#    z -0.009620 0.000000 1.828460 
# 
# From -- ./inp_files/295399.got.cif
#   From: 2010.06.25/outbox.cif.g09.slc.cpg/sg15_148_cif.got.tgz:295399.got - 2010.06.28 07:06:18.
