data_PCOD8153586
_publ_section_title
;
Structure prediction by ZEFSAII (Michael W. Deem and Ramdas Pophale) SiO2 
 PCOD8153586
Probable space group: C 2/C
;
_chemical_formula_sum "Si O2"
_cell_formula_units_Z 48
_cell_length_a 8.494700
_cell_length_b 14.549891
_cell_length_c 27.042954
_cell_angle_alpha 90.000000
_cell_angle_beta 40.382803
_cell_angle_gamma 90.000000
_cell_volume 2165.529297
_symmetry_space_group_name_H-M "C 2/C"
_symmetry_group_IT_number 15
_symmetry_cell_setting 'monoclinic'
loop_
_space_group_symop_operation_xyz
x,y,z
-x,y,1/2-z
-x,-y,-z
x,-y,1/2+z
1/2+x,1/2+y,z
1/2-x,1/2+y,1/2-z
1/2-x,1/2-y,-z
1/2+x,1/2-y,1/2+z
loop_
_atom_site_type_symbol
_atom_site_label
_atom_site_fract_x
_atom_site_fract_y
_atom_site_fract_z
Si Si1 0.774635 0.301281 0.401941
Si Si2 0.205851 0.945602 0.111939
Si Si3 0.152372 0.126040 0.439327
Si Si4 0.497052 0.118777 0.448920
Si Si5 0.768052 0.468476 0.335037
Si Si6 0.733092 0.727433 0.664563
O O1 0.630761 0.355299 0.479988
O O2 0.605261 0.220859 0.420782
O O3 0.838924 0.371546 0.342770
O O4 0.020434 0.255778 0.363668
O O5 0.206214 0.880085 0.159445
O O6 0.935770 0.953699 0.156839
O O7 0.291947 0.044655 0.110813
O O8 0.384215 0.900730 0.029229
O O9 0.291344 0.107190 0.456967
O O10 0.263666 0.215027 0.386641
O O11 0.169299 0.038550 0.399750
O O12 0.000000 0.508055 0.250000
O O13 0.500000 0.763040 0.750000
#
# Coordination Sequence:
#
# PCOD8153586 Si02
#       6
#     8   8   8   8   8   8
#     4  12  24  44  70  99 130 177 225 274 328 395
#     4  11  24  43  67  97 135 168 222 273 333 392
#     4  12  24  44  69 101 131 175 229 275 326 397
#     4  11  24  42  70 100 126 170 225 281 320 389
#     4  12  26  44  67  99 138 177 220 276 339 394
#     4  12  26  44  67  99 139 177 219 277 338 393
#
# _framework density 22.165482999999998
#
# number of rings (size 3 to 8) (size 9 to 14) (size 15 to 20)
#    0.000    0.333    3.333    6.000    4.667    0.000 
#    0.000    2.500    0.000    0.000    0.000    0.000 
#    0.000    0.000    0.000    0.000    0.000    0.000 
#
# Total GULP energy -297799.911527 kJ/mol
# GULP energy per Si atom -12408.329647 kJ/mol
# Density = 2.211503 g / cm^3
# Si number density = 22.165483 Si / 1000 Ang^3
#
#
#
# Elastic Constant Matrix: (Units=GPa)
#
#
# Indices 1 2 3 4 5 6 
#
# 1 84.1672 6.4696 20.2547 -0.0018 -15.9286 -0.0087
# 2 6.4696 90.2806 13.1773 -0.0001 -3.7359 -0.0021
# 3 20.2547 13.1773 99.6999 -0.0085 -15.4163 0.0001
# 4 -0.0018 -0.0001 -0.0085 18.9997 0.0052 5.9260
# 5 -15.9286 -3.7359 -15.4163 0.0052 27.1417 0.0063
# 6 -0.0087 -0.0021 0.0001 5.9260 0.0063 32.7393
#
#
#
# Elastic Compliance Matrix: (Units=1/GPa)
#
#
# Indices 1 2 3 4 5 6 
#
# 1 0.013635 -0.000449 -0.001626 -0.000002 0.007017 0.000003
# 2 -0.000449 0.011324 -0.001321 -0.000001 0.000544 0.000001
# 3 -0.001626 -0.001321 0.011357 0.000004 0.005315 -0.000002
# 4 -0.000002 -0.000001 0.000004 0.055782 -0.000007 -0.010097
# 5 0.007017 0.000544 0.005315 -0.000007 0.044055 -0.000005
# 6 0.000003 0.000001 -0.000002 -0.010097 -0.000005 0.032372
#
#
# Mechanical properties :
#
#
# Convention : Reuss Voigt Hill
#
# Bulk Modulus (GPa) = 33.87181 39.32789 36.59985
# Shear Modulus (GPa) = 27.00399 31.39255 29.19827
#
# Velocity S-wave (km/s) = 3.49419 3.76743 3.63338
# Velocity P-wave (km/s) = 5.62082 6.05856 5.84379
#
# Compressibility (1/GPa) = 0.02952307
#
# Stress axis : x y z
#
# Youngs Moduli (GPa) = 73.34200 88.30680 88.05321
#
# Poissons Ratio (x) = 0.03969 0.14314
# Poissons Ratio (y) = 0.03296 0.11634
# Poissons Ratio (z) = 0.11923 0.11667
#
# Static dielectric constant tensor:
#      x y z
#    x 3.850210 -0.000010 -0.064960 
#    y -0.000010 4.156110 0.000010 
#    z -0.064960 0.000010 3.994940 
# 
# 
# High freq. dielectric constant tensor:
#      x y z
#    x 1.876610 0.000000 -0.005520 
#    y 0.000000 1.887320 0.000000 
#    z -0.005520 0.000000 1.868680 
# 
# From -- ./inp_files/289007.got.cif
#   From: 2010.06.25/outbox.cif.g09.slc.cpg/sg15_145_cif.got.tgz:289007.got - 2010.06.28 07:06:18.
