data_PCOD8153581
_publ_section_title
;
Structure prediction by ZEFSAII (Michael W. Deem and Ramdas Pophale) SiO2 
 PCOD8153581
Probable space group: C 2/C
;
_chemical_formula_sum "Si O2"
_cell_formula_units_Z 44
_cell_length_a 13.857528
_cell_length_b 17.764834
_cell_length_c 9.284541
_cell_angle_alpha 90.000000
_cell_angle_beta 121.313269
_cell_angle_gamma 90.000000
_cell_volume 1952.708115
_symmetry_space_group_name_H-M "C 2/C"
_symmetry_group_IT_number 15
_symmetry_cell_setting 'monoclinic'
loop_
_space_group_symop_operation_xyz
x,y,z
-x,y,1/2-z
-x,-y,-z
x,-y,1/2+z
1/2+x,1/2+y,z
1/2-x,1/2+y,1/2-z
1/2-x,1/2-y,-z
1/2+x,1/2-y,1/2+z
loop_
_atom_site_type_symbol
_atom_site_label
_atom_site_fract_x
_atom_site_fract_y
_atom_site_fract_z
Si Si1 0.628103 0.376086 0.340369
Si Si2 0.881520 0.596586 0.703064
Si Si3 0.805842 0.495696 0.394998
Si Si4 0.500000 0.326528 0.750000
Si Si5 0.807419 0.138686 0.295255
Si Si6 0.314187 0.287180 0.391285
O O1 0.500000 0.402555 0.250000
O O2 0.695350 0.451187 0.357668
O O3 0.666743 0.338894 0.520649
O O4 0.642048 0.312836 0.229749
O O5 0.867527 0.527141 0.582720
O O6 0.887648 0.560293 0.868191
O O7 0.777533 0.654496 0.614019
O O8 0.000000 0.636411 0.750000
O O9 0.767975 0.564146 0.263039
O O10 0.577281 0.377471 0.704829
O O11 0.418633 0.277245 0.582793
O O12 0.742437 0.206398 0.167055
#
# Coordination Sequence:
#
# PCOD8153581 Si02
#       6
#     8   8   8   4   8   8
#     4  11  24  46  71  98 139 183 226 279 338 410
#     4  11  24  44  67  98 139 182 228 276 337 408
#     4  11  24  42  69 100 134 181 224 283 336 401
#     4  12  24  42  70 104 134 176 220 292 344 388
#     4  12  25  44  68 101 140 174 231 279 343 405
#     4  11  26  44  72 102 136 181 226 282 344 401
#
# _framework density 22.532809
#
# number of rings (size 3 to 8) (size 9 to 14) (size 15 to 20)
#    0.000    0.727    5.455    1.636    2.545    0.727 
#    0.000    0.909    0.000    0.000    0.000    0.000 
#    0.000    0.000    0.000    0.000    0.000    0.000 
#
# Total GULP energy -272794.073237 kJ/mol
# GULP energy per Si atom -12399.730602 kJ/mol
# Density = 2.248152 g / cm^3
# Si number density = 22.532809 Si / 1000 Ang^3
#
#
#
# Elastic Constant Matrix: (Units=GPa)
#
#
# Indices 1 2 3 4 5 6 
#
# 1 140.0300 32.0095 33.3120 0.0000 -8.4562 0.0000
# 2 32.0095 77.8450 26.7683 0.0000 1.6052 0.0000
# 3 33.3120 26.7683 124.6043 0.0000 -15.0439 0.0000
# 4 0.0000 0.0000 0.0000 24.3635 0.0000 -4.2930
# 5 -8.4562 1.6052 -15.0439 0.0000 37.2452 0.0000
# 6 0.0000 0.0000 0.0000 -4.2930 0.0000 26.7401
#
#
#
# Elastic Compliance Matrix: (Units=1/GPa)
#
#
# Indices 1 2 3 4 5 6 
#
# 1 0.008231 -0.002933 -0.001398 0.000000 0.001431 0.000000
# 2 -0.002933 0.015044 -0.002740 0.000000 -0.002421 0.000000
# 3 -0.001398 -0.002740 0.009423 0.000000 0.003607 0.000000
# 4 0.000000 0.000000 0.000000 0.042240 0.000000 0.006781
# 5 0.001431 -0.002421 0.003607 0.000000 0.028735 0.000000
# 6 0.000000 0.000000 0.000000 0.006781 0.000000 0.038486
#
#
# Mechanical properties :
#
#
# Convention : Reuss Voigt Hill
#
# Bulk Modulus (GPa) = 53.88986 58.51767 56.20376
# Shear Modulus (GPa) = 30.77183 34.36239 32.56711
#
# Velocity S-wave (km/s) = 3.69947 3.90935 3.80586
# Velocity P-wave (km/s) = 6.49740 6.81203 6.65658
#
# Compressibility (1/GPa) = 0.01855637
#
# Stress axis : x y z
#
# Youngs Moduli (GPa) = 121.49600 66.47013 106.12191
#
# Poissons Ratio (x) = 0.19498 0.14831
# Poissons Ratio (y) = 0.35639 0.29078
# Poissons Ratio (z) = 0.16979 0.18213
#
# Static dielectric constant tensor:
#      x y z
#    x 4.360490 0.000000 -0.188960 
#    y 0.000000 3.726770 0.000000 
#    z -0.188960 0.000000 4.214380 
# 
# 
# High freq. dielectric constant tensor:
#      x y z
#    x 1.903090 0.000000 -0.014020 
#    y 0.000000 1.870750 0.000000 
#    z -0.014020 0.000000 1.903650 
# 
# From -- ./inp_files/39744.got.cif
#   From: 2010.06.25/outbox.cif.g09.slc.cpg/sg15_20_cif.got.tgz:39744.got - 2010.06.28 07:06:18.
