data_PCOD8153656
_publ_section_title
;
Structure prediction by ZEFSAII (Michael W. Deem and Ramdas Pophale) SiO2 
 PCOD8153656
Probable space group: C 2/C
;
_chemical_formula_sum "Si O2"
_cell_formula_units_Z 48
_cell_length_a 8.031888
_cell_length_b 13.992471
_cell_length_c 24.977249
_cell_angle_alpha 90.000000
_cell_angle_beta 44.069462
_cell_angle_gamma 90.000000
_cell_volume 1952.416616
_symmetry_space_group_name_H-M "C 2/C"
_symmetry_group_IT_number 15
_symmetry_cell_setting 'monoclinic'
loop_
_space_group_symop_operation_xyz
x,y,z
-x,y,1/2-z
-x,-y,-z
x,-y,1/2+z
1/2+x,1/2+y,z
1/2-x,1/2+y,1/2-z
1/2-x,1/2-y,-z
1/2+x,1/2-y,1/2+z
loop_
_atom_site_type_symbol
_atom_site_label
_atom_site_fract_x
_atom_site_fract_y
_atom_site_fract_z
Si Si1 0.264518 0.827789 0.273991
Si Si2 0.802371 0.262998 0.908481
Si Si3 0.348965 0.876800 0.518188
Si Si4 0.564062 0.051983 0.070856
Si Si5 0.298783 0.522803 0.256852
Si Si6 0.645911 0.679259 0.336585
O O1 0.500000 0.865268 0.250000
O O2 0.360862 0.750888 0.210523
O O3 0.060948 0.785377 0.361108
O O4 0.143413 0.913355 0.269322
O O5 0.767700 0.352510 0.958379
O O6 0.837872 0.297784 0.838522
O O7 0.587839 0.186959 0.958939
O O8 0.360682 0.929455 0.573048
O O9 0.110344 0.813551 0.573411
O O10 0.307194 0.955387 0.480260
O O11 0.453500 0.031979 0.154456
O O12 0.500000 0.564982 0.250000
O O13 0.296730 0.575355 0.200248
#
# Coordination Sequence:
#
# PCOD8153656 Si02
#       6
#     8   8   8   8   8   8
#     4  12  27  44  74 108 143 194 249 308 377 446
#     4  12  26  47  75 107 150 198 248 319 378 460
#     4  11  25  47  72 111 147 205 244 310 385 451
#     4  11  24  43  73 104 151 196 250 305 380 453
#     4  12  24  46  74 107 145 190 248 311 378 448
#     4  12  25  47  75 107 151 189 251 309 375 451
#
# _framework density 24.584918999999999
#
# number of rings (size 3 to 8) (size 9 to 14) (size 15 to 20)
#    0.000    0.333    3.333    6.000    4.667    0.667 
#    0.000    0.000    0.000    0.000    0.000    0.000 
#    0.000    0.000    0.000    0.000    0.000    0.000 
#
# Total GULP energy -297570.714047 kJ/mol
# GULP energy per Si atom -12398.779752 kJ/mol
# Density = 2.452896 g / cm^3
# Si number density = 24.584919 Si / 1000 Ang^3
#
#
#
# Elastic Constant Matrix: (Units=GPa)
#
#
# Indices 1 2 3 4 5 6 
#
# 1 64.4461 13.7554 24.0682 -0.0020 -1.8534 0.0011
# 2 13.7554 132.2641 44.0995 0.0008 -8.1290 -0.0009
# 3 24.0682 44.0995 109.7725 -0.0023 -0.5291 -0.0001
# 4 -0.0020 0.0008 -0.0023 22.3556 0.0035 3.9965
# 5 -1.8534 -8.1290 -0.5291 0.0035 23.9421 -0.0010
# 6 0.0011 -0.0009 -0.0001 3.9965 -0.0010 46.1638
#
#
#
# Elastic Compliance Matrix: (Units=1/GPa)
#
#
# Indices 1 2 3 4 5 6 
#
# 1 0.016968 -0.000532 -0.003501 0.000001 0.001055 0.000000
# 2 -0.000532 0.008951 -0.003465 -0.000001 0.002921 0.000000
# 3 -0.003501 -0.003465 0.011264 0.000001 -0.001199 0.000000
# 4 0.000001 -0.000001 0.000001 0.045435 -0.000007 -0.003933
# 5 0.001055 0.002921 -0.001199 -0.000007 0.042815 0.000002
# 6 0.000000 0.000000 0.000000 -0.003933 0.000002 0.022003
#
#
# Mechanical properties :
#
#
# Convention : Reuss Voigt Hill
#
# Bulk Modulus (GPa) = 45.07501 52.25876 48.66689
# Shear Modulus (GPa) = 29.44161 33.46294 31.45227
#
# Velocity S-wave (km/s) = 3.46431 3.69333 3.58066
# Velocity P-wave (km/s) = 5.86312 6.28412 6.07727
#
# Compressibility (1/GPa) = 0.02218524
#
# Stress axis : x y z
#
# Youngs Moduli (GPa) = 58.93277 111.72107 88.78061
#
# Poissons Ratio (x) = 0.05948 0.31086
# Poissons Ratio (y) = 0.03138 0.30763
# Poissons Ratio (z) = 0.20635 0.38712
#
# Static dielectric constant tensor:
#      x y z
#    x 4.258440 0.000000 0.167070 
#    y 0.000000 4.617740 0.000000 
#    z 0.167070 0.000000 4.346730 
# 
# 
# High freq. dielectric constant tensor:
#      x y z
#    x 1.971020 0.000000 0.008670 
#    y 0.000000 1.985350 0.000000 
#    z 0.008670 0.000000 1.979220 
# 
# From -- ./inp_files/289010.got.cif
#   From: 2010.06.25/outbox.cif.g09.slc.cpg/sg15_145_cif.got.tgz:289010.got - 2010.06.28 07:06:18.
