data_PCOD8153317
_publ_section_title
;
Structure prediction by ZEFSAII (Michael W. Deem and Ramdas Pophale) SiO2 
 PCOD8153317
Probable space group: C 2/C
;
_chemical_formula_sum "Si O2"
_cell_formula_units_Z 48
_cell_length_a 27.140387
_cell_length_b 8.359043
_cell_length_c 9.822130
_cell_angle_alpha 90.000000
_cell_angle_beta 88.589725
_cell_angle_gamma 90.000000
_cell_volume 2227.648692
_symmetry_space_group_name_H-M "C 2/C"
_symmetry_group_IT_number 15
_symmetry_cell_setting 'monoclinic'
loop_
_space_group_symop_operation_xyz
x,y,z
-x,y,1/2-z
-x,-y,-z
x,-y,1/2+z
1/2+x,1/2+y,z
1/2-x,1/2+y,1/2-z
1/2-x,1/2-y,-z
1/2+x,1/2-y,1/2+z
loop_
_atom_site_type_symbol
_atom_site_label
_atom_site_fract_x
_atom_site_fract_y
_atom_site_fract_z
Si Si1 0.114622 0.827894 0.742725
Si Si2 0.401958 0.308127 0.276096
Si Si3 0.196593 0.633593 0.141457
Si Si4 0.048002 0.691095 0.971466
Si Si5 0.291532 0.159692 0.665938
Si Si6 0.564756 0.830043 0.000695
O O1 0.169610 0.794507 0.791124
O O2 0.102034 0.706536 0.621114
O O3 0.112142 0.009325 0.692022
O O4 0.075998 0.807083 0.867045
O O5 0.354796 0.197401 0.299575
O O6 0.444739 0.252960 0.375721
O O7 0.422620 0.288207 0.123230
O O8 0.237403 0.768075 0.161491
O O9 0.211312 0.477536 0.222642
O O10 0.192362 0.589924 0.981978
O O11 0.070184 0.513006 0.952123
O O12 0.990383 0.698489 0.940612
#
# Coordination Sequence:
#
# PCOD8153317 Si02
#       6
#     8   8   8   8   8   8
#     4  12  25  42  66  99 136 176 220 276 334 393
#     4  12  25  42  66  99 136 176 220 276 334 393
#     4  11  25  46  71 100 136 175 221 272 330 399
#     4  11  23  45  64  97 132 175 233 273 331 397
#     4  11  25  46  71 100 136 175 221 272 330 399
#     4  11  25  41  70  93 132 181 223 279 331 393
#
# _framework density 21.547384000000001
#
# number of rings (size 3 to 8) (size 9 to 14) (size 15 to 20)
#    0.000    0.667    1.667    6.000    2.333    7.333 
#    0.000    0.000    0.000    0.000    0.000    0.000 
#    0.000    0.000    0.000    0.000    0.000    0.000 
#
# Total GULP energy -297823.599276 kJ/mol
# GULP energy per Si atom -12409.316637 kJ/mol
# Density = 2.149834 g / cm^3
# Si number density = 21.547384 Si / 1000 Ang^3
#
#
#
# Elastic Constant Matrix: (Units=GPa)
#
#
# Indices 1 2 3 4 5 6 
#
# 1 41.3171 4.8921 16.3698 0.0000 9.7320 0.0000
# 2 4.8921 78.2638 16.3405 0.0000 3.3936 0.0000
# 3 16.3698 16.3405 98.3824 0.0000 13.4246 0.0000
# 4 0.0000 0.0000 0.0000 35.8008 0.0000 3.7919
# 5 9.7320 3.3936 13.4246 0.0000 35.7102 0.0000
# 6 0.0000 0.0000 0.0000 3.7919 0.0000 24.2727
#
#
#
# Elastic Compliance Matrix: (Units=1/GPa)
#
#
# Indices 1 2 3 4 5 6 
#
# 1 0.027111 -0.000688 -0.003581 0.000000 -0.005977 0.000000
# 2 -0.000688 0.013261 -0.002047 0.000000 -0.000303 0.000000
# 3 -0.003581 -0.002047 0.011532 0.000000 -0.003165 0.000000
# 4 0.000000 0.000000 0.000000 0.028402 0.000000 -0.004437
# 5 -0.005977 -0.000303 -0.003165 0.000000 0.030851 0.000000
# 6 0.000000 0.000000 0.000000 -0.004437 0.000000 0.041892
#
#
# Mechanical properties :
#
#
# Convention : Reuss Voigt Hill
#
# Bulk Modulus (GPa) = 25.46299 32.57424 29.01861
# Shear Modulus (GPa) = 27.96875 31.18079 29.57477
#
# Velocity S-wave (km/s) = 3.60670 3.80818 3.70881
# Velocity P-wave (km/s) = 5.40252 5.87253 5.64242
#
# Compressibility (1/GPa) = 0.03927269
#
# Stress axis : x y z
#
# Youngs Moduli (GPa) = 36.88514 75.41048 86.71459
#
# Poissons Ratio (x) = 0.05187 0.31054
# Poissons Ratio (y) = 0.02537 0.17748
# Poissons Ratio (z) = 0.13209 0.15434
#
# Static dielectric constant tensor:
#      x y z
#    x 3.971990 0.000000 0.141230 
#    y 0.000000 3.811940 0.000000 
#    z 0.141230 0.000000 3.975320 
# 
# 
# High freq. dielectric constant tensor:
#      x y z
#    x 1.858280 0.000000 0.007070 
#    y 0.000000 1.846330 0.000000 
#    z 0.007070 0.000000 1.858020 
# 
# From -- ./inp_files/68588.got.cif
#   From: 2010.06.25/outbox.cif.g09.slc.cpg/sg15_35_cif.got.tgz:68588.got - 2010.06.28 07:06:18.
