data_PCOD8153728
_publ_section_title
;
Structure prediction by ZEFSAII (Michael W. Deem and Ramdas Pophale) SiO2 
 PCOD8153728
Probable space group: C 2/C
;
_chemical_formula_sum "Si O2"
_cell_formula_units_Z 56
_cell_length_a 27.191788
_cell_length_b 8.238045
_cell_length_c 11.825406
_cell_angle_alpha 90.000000
_cell_angle_beta 70.438508
_cell_angle_gamma 90.000000
_cell_volume 2496.084025
_symmetry_space_group_name_H-M "C 2/C"
_symmetry_group_IT_number 15
_symmetry_cell_setting 'monoclinic'
loop_
_space_group_symop_operation_xyz
x,y,z
-x,y,1/2-z
-x,-y,-z
x,-y,1/2+z
1/2+x,1/2+y,z
1/2-x,1/2+y,1/2-z
1/2-x,1/2-y,-z
1/2+x,1/2-y,1/2+z
loop_
_atom_site_type_symbol
_atom_site_label
_atom_site_fract_x
_atom_site_fract_y
_atom_site_fract_z
Si Si1 0.934461 0.280374 0.004440
Si Si2 0.112414 0.097808 0.667616
Si Si3 0.537961 0.646684 0.928406
Si Si4 0.373698 0.249579 0.767956
Si Si5 0.203812 0.478227 0.299133
Si Si6 0.388412 0.876478 0.493858
Si Si7 0.280621 0.262502 0.363384
O O1 0.906609 0.148196 0.943154
O O2 0.919774 0.464091 0.998512
O O3 0.996487 0.288703 0.938228
O O4 0.921231 0.224251 0.143289
O O5 0.063895 0.105693 0.789466
O O6 0.157455 0.221571 0.668530
O O7 0.137945 0.918149 0.656993
O O8 0.500000 0.500000 0.000000
O O9 0.582274 0.714044 0.981378
O O10 0.326581 0.176695 0.729598
O O11 0.386333 0.125623 0.859412
O O12 0.168852 0.595253 0.407314
O O13 0.255682 0.413396 0.317953
O O14 0.228446 0.589357 0.185104
O O15 0.250000 0.250000 0.500000
#
# Coordination Sequence:
#
# PCOD8153728 Si02
#       7
#     8   8   8   8   8   8   8
#     4  11  25  44  70 104 142 192 240 292 370 433
#     4  12  25  46  71 103 146 187 238 304 353 430
#     4  12  24  47  72 103 143 190 242 292 367 427
#     4  11  24  44  71 103 144 182 242 295 357 439
#     4  11  24  46  71 106 141 187 240 300 368 426
#     4  11  25  45  73 102 149 185 241 300 359 434
#     4  12  25  45  73 102 140 186 242 295 363 431
#
# _framework density 22.435143
#
# number of rings (size 3 to 8) (size 9 to 14) (size 15 to 20)
#    0.000    0.571    2.857    6.000    2.000    1.714 
#    2.571    2.857    0.000    0.000    0.000    0.000 
#    0.000    0.000    0.000    0.000    0.000    0.000 
#
# Total GULP energy -347058.861087 kJ/mol
# GULP energy per Si atom -12394.959325 kJ/mol
# Density = 2.238408 g / cm^3
# Si number density = 22.435143 Si / 1000 Ang^3
#
#
#
# Elastic Constant Matrix: (Units=GPa)
#
#
# Indices 1 2 3 4 5 6 
#
# 1 78.5919 -2.1095 25.0097 0.0000 -5.2443 0.0000
# 2 -2.1095 77.2745 34.4885 0.0000 -5.8019 0.0000
# 3 25.0097 34.4885 133.4136 0.0000 3.4113 0.0000
# 4 0.0000 0.0000 0.0000 39.6597 0.0000 1.5588
# 5 -5.2443 -5.8019 3.4113 0.0000 37.0636 0.0000
# 6 0.0000 0.0000 0.0000 1.5588 0.0000 33.1049
#
#
#
# Elastic Compliance Matrix: (Units=1/GPa)
#
#
# Indices 1 2 3 4 5 6 
#
# 1 0.013970 0.002005 -0.003203 0.000000 0.002585 0.000000
# 2 0.002005 0.015180 -0.004378 0.000000 0.003063 0.000000
# 3 -0.003203 -0.004378 0.009279 0.000000 -0.001993 0.000000
# 4 0.000000 0.000000 0.000000 0.025261 0.000000 -0.001189
# 5 0.002585 0.003063 -0.001993 0.000000 0.028009 0.000000
# 6 0.000000 0.000000 0.000000 -0.001189 0.000000 0.030263
#
#
# Mechanical properties :
#
#
# Convention : Reuss Voigt Hill
#
# Bulk Modulus (GPa) = 36.66324 44.89528 40.77926
# Shear Modulus (GPa) = 35.16025 37.42505 36.29265
#
# Velocity S-wave (km/s) = 3.96308 4.08872 4.02639
# Velocity P-wave (km/s) = 6.10890 6.50729 6.31124
#
# Compressibility (1/GPa) = 0.02727528
#
# Stress axis : x y z
#
# Youngs Moduli (GPa) = 71.58395 65.87767 107.77355
#
# Poissons Ratio (x) = -0.13209 0.34522
# Poissons Ratio (y) = -0.14353 0.47186
# Poissons Ratio (z) = 0.22930 0.28843
#
# Static dielectric constant tensor:
#      x y z
#    x 4.168570 0.000000 -0.081180 
#    y 0.000000 4.040320 0.000000 
#    z -0.081180 0.000000 4.230760 
# 
# 
# High freq. dielectric constant tensor:
#      x y z
#    x 1.884350 0.000000 0.000620 
#    y 0.000000 1.897760 0.000000 
#    z 0.000620 0.000000 1.890700 
# 
# From -- ./inp_files/121849.got.cif
#   From: 2010.06.25/outbox.cif.g09.slc.cpg/sg15_61_cif.got.tgz:121849.got - 2010.06.28 07:06:18.
