data_PCOD8153818
_publ_section_title
;
Structure prediction by ZEFSAII (Michael W. Deem and Ramdas Pophale) SiO2 
 PCOD8153818
Probable space group: C 2/C
;
_chemical_formula_sum "Si O2"
_cell_formula_units_Z 56
_cell_length_a 29.145551
_cell_length_b 7.854431
_cell_length_c 11.456991
_cell_angle_alpha 90.000000
_cell_angle_beta 109.933912
_cell_angle_gamma 90.000000
_cell_volume 2465.615701
_symmetry_space_group_name_H-M "C 2/C"
_symmetry_group_IT_number 15
_symmetry_cell_setting 'monoclinic'
loop_
_space_group_symop_operation_xyz
x,y,z
-x,y,1/2-z
-x,-y,-z
x,-y,1/2+z
1/2+x,1/2+y,z
1/2-x,1/2+y,1/2-z
1/2-x,1/2-y,-z
1/2+x,1/2-y,1/2+z
loop_
_atom_site_type_symbol
_atom_site_label
_atom_site_fract_x
_atom_site_fract_y
_atom_site_fract_z
Si Si1 0.880912 0.252698 0.533405
Si Si2 0.220477 0.271390 0.593324
Si Si3 0.878000 0.875729 0.569709
Si Si4 0.702497 0.113444 0.683607
Si Si5 0.372630 0.047791 0.708290
Si Si6 0.042453 0.625926 0.570379
Si Si7 0.513850 0.584615 0.388232
O O1 0.837186 0.252969 0.400839
O O2 0.876827 0.421255 0.605629
O O3 0.934247 0.263739 0.517235
O O4 0.875520 0.077421 0.602344
O O5 0.250000 0.250000 0.500000
O O6 0.168392 0.174651 0.550704
O O7 0.249157 0.210231 0.733187
O O8 0.214100 0.474276 0.595653
O O9 0.876295 0.748293 0.677535
O O10 0.929769 0.857793 0.549221
O O11 0.679433 0.018100 0.776073
O O12 0.415240 0.009431 0.837547
O O13 0.000000 0.500000 0.500000
O O14 0.020511 0.749819 0.649050
O O15 0.500000 0.490956 0.250000
O O16 0.500000 0.500000 0.500000
#
# Coordination Sequence:
#
# PCOD8153818 Si02
#       7
#     8   8   8   8   8   8   8
#     4  11  24  45  71 109 140 196 255 298 383 453
#     4  12  25  47  76 106 150 192 247 316 386 453
#     4  12  24  46  74 102 148 196 246 317 371 454
#     4  11  24  46  71 109 147 190 247 308 378 461
#     4  11  24  48  71 105 150 191 251 310 372 457
#     4  11  25  43  71 102 152 197 247 311 378 451
#     4  12  26  48  72 108 152 198 256 311 379 459
#
# _framework density 22.712378000000001
#
# number of rings (size 3 to 8) (size 9 to 14) (size 15 to 20)
#    0.000    0.571    5.714    1.714    2.000    2.286 
#    7.714    2.857    0.000    0.000    0.000    0.000 
#    0.000    0.000    0.000    0.000    0.000    0.000 
#
# Total GULP energy -346986.448053 kJ/mol
# GULP energy per Si atom -12392.373145 kJ/mol
# Density = 2.266068 g / cm^3
# Si number density = 22.712378 Si / 1000 Ang^3
#
#
#
# Elastic Constant Matrix: (Units=GPa)
#
#
# Indices 1 2 3 4 5 6 
#
# 1 119.6801 23.9410 40.9369 0.0000 13.0399 0.0000
# 2 23.9410 106.5628 34.5168 0.0000 -1.6177 0.0000
# 3 40.9369 34.5168 100.5135 0.0000 4.0334 0.0000
# 4 0.0000 0.0000 0.0000 38.0210 0.0000 -1.8908
# 5 13.0399 -1.6177 4.0334 0.0000 47.6918 0.0000
# 6 0.0000 0.0000 0.0000 -1.8908 0.0000 34.1949
#
#
#
# Elastic Compliance Matrix: (Units=1/GPa)
#
#
# Indices 1 2 3 4 5 6 
#
# 1 0.010092 -0.001132 -0.003622 0.000000 -0.002492 0.000000
# 2 -0.001132 0.010707 -0.003254 0.000000 0.000948 0.000000
# 3 -0.003622 -0.003254 0.012549 0.000000 -0.000181 0.000000
# 4 0.000000 0.000000 0.000000 0.026374 0.000000 0.001458
# 5 -0.002492 0.000948 -0.000181 0.000000 0.021697 0.000000
# 6 0.000000 0.000000 0.000000 0.001458 0.000000 0.029325
#
#
# Mechanical properties :
#
#
# Convention : Reuss Voigt Hill
#
# Bulk Modulus (GPa) = 57.69432 58.39398 58.04415
# Shear Modulus (GPa) = 37.72577 39.13899 38.43238
#
# Velocity S-wave (km/s) = 4.07999 4.15570 4.11802
# Velocity P-wave (km/s) = 6.90307 6.98516 6.94424
#
# Compressibility (1/GPa) = 0.01733273
#
# Stress axis : x y z
#
# Youngs Moduli (GPa) = 99.08500 93.39868 79.69066
#
# Poissons Ratio (x) = 0.10574 0.28861
# Poissons Ratio (y) = 0.11218 0.25929
# Poissons Ratio (z) = 0.35885 0.30389
#
# Static dielectric constant tensor:
#      x y z
#    x 4.432610 0.000000 0.200040 
#    y 0.000000 4.283940 0.000000 
#    z 0.200040 0.000000 4.107810 
# 
# 
# High freq. dielectric constant tensor:
#      x y z
#    x 1.914640 0.000000 0.016190 
#    y 0.000000 1.884780 0.000000 
#    z 0.016190 0.000000 1.893710 
# 
# From -- ./inp_files/122014.got.cif
#   From: 2010.06.25/outbox.cif.g09.slc.cpg/sg15_62_cif.got.tgz:122014.got - 2010.06.28 07:06:18.
