data_PCOD8153332
_publ_section_title
;
Structure prediction by ZEFSAII (Michael W. Deem and Ramdas Pophale) SiO2 
 PCOD8153332
Probable space group: C 2/C
;
_chemical_formula_sum "Si O2"
_cell_formula_units_Z 44
_cell_length_a 11.694640
_cell_length_b 14.286136
_cell_length_c 11.860769
_cell_angle_alpha 90.000000
_cell_angle_beta 78.668256
_cell_angle_gamma 90.000000
_cell_volume 1942.963835
_symmetry_space_group_name_H-M "C 2/C"
_symmetry_group_IT_number 15
_symmetry_cell_setting 'monoclinic'
loop_
_space_group_symop_operation_xyz
x,y,z
-x,y,1/2-z
-x,-y,-z
x,-y,1/2+z
1/2+x,1/2+y,z
1/2-x,1/2+y,1/2-z
1/2-x,1/2-y,-z
1/2+x,1/2-y,1/2+z
loop_
_atom_site_type_symbol
_atom_site_label
_atom_site_fract_x
_atom_site_fract_y
_atom_site_fract_z
Si Si1 0.819333 0.928063 0.505217
Si Si2 0.193497 0.554905 0.241287
Si Si3 0.500000 0.198832 0.250000
Si Si4 0.917967 0.424916 0.075815
Si Si5 0.896435 0.905221 0.859740
Si Si6 0.002583 0.771135 0.004229
O O1 0.782414 0.980578 0.628249
O O2 0.703503 0.905016 0.460415
O O3 0.879468 0.831053 0.527179
O O4 0.908334 0.993646 0.418329
O O5 0.112403 0.635089 0.202935
O O6 0.113554 0.467305 0.295392
O O7 0.267736 0.599502 0.329967
O O8 0.526406 0.259346 0.357043
O O9 0.984837 0.326580 0.065360
O O10 0.000000 0.500000 0.000000
O O11 0.000000 0.892827 0.750000
O O12 0.901610 0.825700 0.955434
#
# Coordination Sequence:
#
# PCOD8153332 Si02
#       6
#     8   8   4   8   8   8
#     4  11  24  44  73 101 141 192 236 290 360 424
#     4  11  23  47  70 103 149 182 236 297 355 432
#     4  12  26  44  74 104 142 190 244 288 356 434
#     4  11  23  45  69 102 143 188 236 292 352 422
#     4  11  26  46  70 107 148 183 237 303 357 424
#     4  12  25  45  73 107 140 186 247 288 359 426
#
# _framework density 22.645814000000001
#
# number of rings (size 3 to 8) (size 9 to 14) (size 15 to 20)
#    0.000    0.727    5.455    1.091    1.273    2.182 
#    4.909    0.000    0.000    0.000    0.000    0.000 
#    0.000    0.000    0.000    0.000    0.000    0.000 
#
# Total GULP energy -272746.618213 kJ/mol
# GULP energy per Si atom -12397.573555 kJ/mol
# Density = 2.259427 g / cm^3
# Si number density = 22.645814 Si / 1000 Ang^3
#
#
#
# Elastic Constant Matrix: (Units=GPa)
#
#
# Indices 1 2 3 4 5 6 
#
# 1 61.6703 23.2277 1.9870 0.0000 10.8988 0.0000
# 2 23.2277 120.2935 32.0411 0.0000 -6.1620 0.0000
# 3 1.9870 32.0411 127.2158 0.0000 -13.9107 0.0000
# 4 0.0000 0.0000 0.0000 32.9052 0.0000 -0.2603
# 5 10.8988 -6.1620 -13.9107 0.0000 36.5014 0.0000
# 6 0.0000 0.0000 0.0000 -0.2603 0.0000 23.4566
#
#
#
# Elastic Compliance Matrix: (Units=1/GPa)
#
#
# Indices 1 2 3 4 5 6 
#
# 1 0.018816 -0.003959 0.000017 0.000000 -0.006280 0.000000
# 2 -0.003959 0.009760 -0.002178 0.000000 0.002000 0.000000
# 3 0.000017 -0.002178 0.008732 0.000000 0.002955 0.000000
# 4 0.000000 0.000000 0.000000 0.030393 0.000000 0.000337
# 5 -0.006280 0.002000 0.002955 0.000000 0.030735 0.000000
# 6 0.000000 0.000000 0.000000 0.000337 0.000000 0.042636
#
#
# Mechanical properties :
#
#
# Convention : Reuss Voigt Hill
#
# Bulk Modulus (GPa) = 39.89293 47.07681 43.48487
# Shear Modulus (GPa) = 30.92753 35.36755 33.14754
#
# Velocity S-wave (km/s) = 3.69956 3.95621 3.83003
# Velocity P-wave (km/s) = 5.99193 6.45773 6.22918
#
# Compressibility (1/GPa) = 0.02506710
#
# Stress axis : x y z
#
# Youngs Moduli (GPa) = 53.14669 102.45902 114.52105
#
# Poissons Ratio (x) = 0.40567 -0.00190
# Poissons Ratio (y) = 0.21042 0.24939
# Poissons Ratio (z) = -0.00088 0.22312
#
# Static dielectric constant tensor:
#      x y z
#    x 4.133980 0.000000 0.128610 
#    y 0.000000 4.337680 0.000000 
#    z 0.128610 0.000000 4.356860 
# 
# 
# High freq. dielectric constant tensor:
#      x y z
#    x 1.899800 0.000000 0.005680 
#    y 0.000000 1.878290 0.000000 
#    z 0.005680 0.000000 1.903850 
# 
# From -- ./inp_files/86111.got.cif
#   From: 2010.06.25/outbox.cif.g09.slc.cpg/sg15_44_cif.got.tgz:86111.got - 2010.06.28 07:06:18.
