data_PCOD8153735
_publ_section_title
;
Structure prediction by ZEFSAII (Michael W. Deem and Ramdas Pophale) SiO2 
 PCOD8153735
Probable space group: C 2/C
;
_chemical_formula_sum "Si O2"
_cell_formula_units_Z 44
_cell_length_a 18.753799
_cell_length_b 6.006011
_cell_length_c 19.241525
_cell_angle_alpha 90.000000
_cell_angle_beta 119.164894
_cell_angle_gamma 90.000000
_cell_volume 1892.513376
_symmetry_space_group_name_H-M "C 2/C"
_symmetry_group_IT_number 15
_symmetry_cell_setting 'monoclinic'
loop_
_space_group_symop_operation_xyz
x,y,z
-x,y,1/2-z
-x,-y,-z
x,-y,1/2+z
1/2+x,1/2+y,z
1/2-x,1/2+y,1/2-z
1/2-x,1/2-y,-z
1/2+x,1/2-y,1/2+z
loop_
_atom_site_type_symbol
_atom_site_label
_atom_site_fract_x
_atom_site_fract_y
_atom_site_fract_z
Si Si1 0.048161 0.543187 0.628445
Si Si2 0.060435 0.198090 0.525443
Si Si3 0.284993 0.551911 0.974558
Si Si4 0.770311 0.625001 0.790622
Si Si5 0.330284 0.293186 0.128445
Si Si6 0.500000 0.124998 0.250000
O O1 0.062549 0.299213 0.603507
O O2 0.132783 0.676707 0.657170
O O3 0.023147 0.534282 0.696978
O O4 0.971052 0.640770 0.550381
O O5 0.152000 0.125001 0.554000
O O6 0.000000 0.000000 0.500000
O O7 0.329332 0.390774 0.050383
O O8 0.250000 0.750000 0.000000
O O9 0.209043 0.450785 0.896494
O O10 0.762367 0.375001 0.750000
O O11 0.725612 0.573293 0.842829
O O12 0.423831 0.284277 0.196979
#
# Coordination Sequence:
#
# PCOD8153735 Si02
#       6
#     8   8   8   8   8   4
#     4  11  26  44  70 107 147 194 258 316 390 464
#     4  11  24  44  72 102 144 198 252 317 383 467
#     4  11  24  44  72 102 144 198 252 317 383 467
#     4  12  28  47  74 106 150 203 252 311 392 464
#     4  11  26  44  70 107 147 194 258 316 390 464
#     4  12  24  46  70 112 154 194 258 324 394 448
#
# _framework density 23.249504000000002
#
# number of rings (size 3 to 8) (size 9 to 14) (size 15 to 20)
#    0.000    0.727    1.818    4.364    7.636    8.727 
#    0.000    1.818    0.000    0.000    0.000    0.000 
#    0.000    0.000    0.000    0.000    0.000    0.000 
#
# Total GULP energy -272579.909467 kJ/mol
# GULP energy per Si atom -12389.995885 kJ/mol
# Density = 2.319659 g / cm^3
# Si number density = 23.249504 Si / 1000 Ang^3
#
#
#
# Elastic Constant Matrix: (Units=GPa)
#
#
# Indices 1 2 3 4 5 6 
#
# 1 158.9320 30.9614 42.1566 0.0000 -1.0778 0.0001
# 2 30.9614 106.6732 20.8666 -0.0001 -0.5130 0.0007
# 3 42.1566 20.8666 104.2719 0.0000 -1.6996 0.0000
# 4 0.0000 -0.0001 0.0000 25.7362 0.0000 -0.8165
# 5 -1.0778 -0.5130 -1.6996 0.0000 47.7504 0.0000
# 6 0.0001 0.0007 0.0000 -0.8165 0.0000 41.8066
#
#
#
# Elastic Compliance Matrix: (Units=1/GPa)
#
#
# Indices 1 2 3 4 5 6 
#
# 1 0.007303 -0.001605 -0.002630 0.000000 0.000054 0.000000
# 2 -0.001605 0.010109 -0.001374 0.000000 0.000023 0.000000
# 3 -0.002630 -0.001374 0.010934 0.000000 0.000315 0.000000
# 4 0.000000 0.000000 0.000000 0.038880 0.000000 0.000759
# 5 0.000054 0.000023 0.000315 0.000000 0.020955 0.000000
# 6 0.000000 0.000000 0.000000 0.000759 0.000000 0.023934
#
#
# Mechanical properties :
#
#
# Convention : Reuss Voigt Hill
#
# Bulk Modulus (GPa) = 58.38537 61.98293 60.18415
# Shear Modulus (GPa) = 38.74703 41.45147 40.09925
#
# Velocity S-wave (km/s) = 4.08680 4.22702 4.15750
# Velocity P-wave (km/s) = 6.88740 7.10924 6.99920
#
# Compressibility (1/GPa) = 0.01712758
#
# Stress axis : x y z
#
# Youngs Moduli (GPa) = 136.93544 98.92128 91.45920
#
# Poissons Ratio (x) = 0.15875 0.24058
# Poissons Ratio (y) = 0.21975 0.12565
# Poissons Ratio (z) = 0.36020 0.13590
#
# Static dielectric constant tensor:
#      x y z
#    x 3.897430 0.000000 0.047150 
#    y 0.000000 4.157240 0.000000 
#    z 0.047150 0.000000 4.824280 
# 
# 
# High freq. dielectric constant tensor:
#      x y z
#    x 1.938510 0.000000 -0.000530 
#    y 0.000000 1.915060 0.000000 
#    z -0.000530 0.000000 1.928090 
# 
# From -- ./inp_files/246536.got.cif
#   From: 2010.06.25/outbox.cif.g09.slc.cpg/sg15_124_cif.got.tgz:246536.got - 2010.06.28 07:06:18.
