data_PCOD8153664
_publ_section_title
;
Structure prediction by ZEFSAII (Michael W. Deem and Ramdas Pophale) SiO2 
 PCOD8153664
Probable space group: C 2/C
;
_chemical_formula_sum "Si O2"
_cell_formula_units_Z 52
_cell_length_a 15.841081
_cell_length_b 14.732146
_cell_length_c 17.638202
_cell_angle_alpha 90.000000
_cell_angle_beta 36.142692
_cell_angle_gamma 90.000000
_cell_volume 2427.775995
_symmetry_space_group_name_H-M "C 2/C"
_symmetry_group_IT_number 15
_symmetry_cell_setting 'monoclinic'
loop_
_space_group_symop_operation_xyz
x,y,z
-x,y,1/2-z
-x,-y,-z
x,-y,1/2+z
1/2+x,1/2+y,z
1/2-x,1/2+y,1/2-z
1/2-x,1/2-y,-z
1/2+x,1/2-y,1/2+z
loop_
_atom_site_type_symbol
_atom_site_label
_atom_site_fract_x
_atom_site_fract_y
_atom_site_fract_z
Si Si1 0.000000 0.479515 0.750000
Si Si2 0.105636 0.070033 0.383833
Si Si3 0.727385 0.839509 0.613617
Si Si4 0.143323 0.627850 0.546354
Si Si5 0.162216 0.860666 0.135500
Si Si6 0.668457 0.009544 0.393331
Si Si7 0.555182 0.679463 0.127065
O O1 0.891618 0.415026 0.783278
O O2 0.930669 0.540259 0.864977
O O3 0.148073 0.144883 0.415498
O O4 0.244930 0.019595 0.248136
O O5 0.026651 0.120102 0.373723
O O6 0.000000 0.000000 0.500000
O O7 0.783498 0.855178 0.488929
O O8 0.663073 0.739295 0.672306
O O9 0.189805 0.601230 0.427450
O O10 0.278176 0.653837 0.500483
O O11 0.035134 0.713439 0.623572
O O12 0.000000 0.899034 0.250000
O O13 0.266495 0.924076 0.108457
O O14 0.500000 0.000000 0.500000
O O15 0.500000 0.654805 0.250000
#
# Coordination Sequence:
#
# PCOD8153664 Si02
#       7
#     4   8   8   8   8   8   8
#     4  12  20  44  70 100 138 178 238 284 372 444
#     4  12  27  46  71 104 145 189 248 300 362 439
#     4  11  25  44  69 103 139 183 237 294 354 432
#     4  11  24  43  74  98 142 185 234 297 370 437
#     4  11  25  47  75  99 141 191 238 293 364 435
#     4  12  27  45  73 111 144 184 241 304 365 433
#     4  11  24  47  70 105 138 191 240 301 368 440
#
# _framework density 21.418780999999999
#
# number of rings (size 3 to 8) (size 9 to 14) (size 15 to 20)
#    0.000    0.615    4.615    2.769    4.308    0.000 
#    2.769    0.000    0.000    0.000    0.000    0.000 
#    0.000    0.000    0.000    0.000    0.000    0.000 
#
# Total GULP energy -322490.790435 kJ/mol
# GULP energy per Si atom -12403.491940 kJ/mol
# Density = 2.137003 g / cm^3
# Si number density = 21.418781 Si / 1000 Ang^3
#
#
#
# Elastic Constant Matrix: (Units=GPa)
#
#
# Indices 1 2 3 4 5 6 
#
# 1 132.1815 74.2903 49.9239 -0.0007 -4.8544 0.0002
# 2 74.2903 135.8476 51.5624 -0.0010 -2.7989 0.0003
# 3 49.9239 51.5624 111.1695 -0.0026 -8.0177 0.0008
# 4 -0.0007 -0.0010 -0.0026 30.2891 0.0008 -0.7198
# 5 -4.8544 -2.7989 -8.0177 0.0008 38.9968 -0.0002
# 6 0.0002 0.0003 0.0008 -0.7198 -0.0002 24.9410
#
#
#
# Elastic Compliance Matrix: (Units=1/GPa)
#
#
# Indices 1 2 3 4 5 6 
#
# 1 0.011584 -0.005296 -0.002709 0.000000 0.000505 0.000000
# 2 -0.005296 0.011357 -0.002921 0.000000 -0.000445 0.000000
# 3 -0.002709 -0.002921 0.011701 0.000001 0.001859 0.000000
# 4 0.000000 0.000000 0.000001 0.033038 0.000000 0.000954
# 5 0.000505 -0.000445 0.001859 0.000000 0.026056 0.000000
# 6 0.000000 0.000000 0.000000 0.000954 0.000000 0.040122
#
#
# Mechanical properties :
#
#
# Convention : Reuss Voigt Hill
#
# Bulk Modulus (GPa) = 78.19483 81.19464 79.69474
# Shear Modulus (GPa) = 31.25512 32.40685 31.83098
#
# Velocity S-wave (km/s) = 3.82414 3.89396 3.85921
# Velocity P-wave (km/s) = 7.48903 7.62940 7.55954
#
# Compressibility (1/GPa) = 0.01278857
#
# Stress axis : x y z
#
# Youngs Moduli (GPa) = 86.32857 88.05101 85.46317
#
# Poissons Ratio (x) = 0.46632 0.23154
# Poissons Ratio (y) = 0.45720 0.24967
# Poissons Ratio (z) = 0.23388 0.25723
#
# Static dielectric constant tensor:
#      x y z
#    x 6.482010 0.000050 0.324400 
#    y 0.000050 4.112190 0.000010 
#    z 0.324400 0.000010 4.129290 
# 
# 
# High freq. dielectric constant tensor:
#      x y z
#    x 1.843290 0.000000 -0.002230 
#    y 0.000000 1.849790 0.000000 
#    z -0.002230 0.000000 1.851040 
# 
# From -- ./inp_files/205657.got.cif
#   From: 2010.06.25/outbox.cif.g09.slc.cpg/sg15_103_cif.got.tgz:205657.got - 2010.06.28 07:06:18.
