data_PCOD8153419
_publ_section_title
;
Structure prediction by ZEFSAII (Michael W. Deem and Ramdas Pophale) SiO2 
 PCOD8153419
Probable space group: C 2/C
;
_chemical_formula_sum "Si O2"
_cell_formula_units_Z 40
_cell_length_a 9.724261
_cell_length_b 22.192648
_cell_length_c 9.685768
_cell_angle_alpha 90.000000
_cell_angle_beta 120.424707
_cell_angle_gamma 90.000000
_cell_volume 1802.419396
_symmetry_space_group_name_H-M "C 2/C"
_symmetry_group_IT_number 15
_symmetry_cell_setting 'monoclinic'
loop_
_space_group_symop_operation_xyz
x,y,z
-x,y,1/2-z
-x,-y,-z
x,-y,1/2+z
1/2+x,1/2+y,z
1/2-x,1/2+y,1/2-z
1/2-x,1/2-y,-z
1/2+x,1/2-y,1/2+z
loop_
_atom_site_type_symbol
_atom_site_label
_atom_site_fract_x
_atom_site_fract_y
_atom_site_fract_z
Si Si1 0.278200 0.876179 0.353844
Si Si2 0.775588 0.879077 0.848755
Si Si3 0.391499 0.816701 0.968071
Si Si4 0.617780 0.996620 0.186633
Si Si5 0.893955 0.177604 0.973716
O O1 0.245780 0.873268 0.499146
O O2 0.457027 0.855596 0.413107
O O3 0.257220 0.943122 0.280243
O O4 0.153012 0.834414 0.209369
O O5 0.662715 0.830044 0.716565
O O6 0.724955 0.944501 0.767583
O O7 0.958583 0.864172 0.904995
O O8 0.440746 0.747397 0.011429
O O9 0.251720 0.837760 0.999536
O O10 0.500000 0.982133 0.250000
O O11 0.500000 0.000000 0.000000
#
# Coordination Sequence:
#
# PCOD8153419 Si02
#       5
#     8   8   8   8   8
#     4  12  25  43  71  98 134 185 228 276 347 412
#     4  12  25  43  68 104 134 171 233 291 334 401
#     4  11  23  46  70  97 137 187 225 269 344 424
#     4  12  23  45  71  99 134 186 233 277 348 428
#     4  11  26  43  68 102 140 175 224 287 345 399
#
# _framework density 22.192395000000001
#
# number of rings (size 3 to 8) (size 9 to 14) (size 15 to 20)
#    0.000    0.400    4.000    4.800    0.000    8.800 
#    0.000    2.000    0.000    0.000    0.000    0.000 
#    0.000    0.000    0.000    0.000    0.000    0.000 
#
# Total GULP energy -248060.505069 kJ/mol
# GULP energy per Si atom -12403.025253 kJ/mol
# Density = 2.214188 g / cm^3
# Si number density = 22.192395 Si / 1000 Ang^3
#
#
#
# Elastic Constant Matrix: (Units=GPa)
#
#
# Indices 1 2 3 4 5 6 
#
# 1 77.0881 46.2938 22.5778 0.0000 3.4670 0.0000
# 2 46.2938 91.9687 31.8224 0.0000 2.0964 0.0000
# 3 22.5778 31.8224 122.9147 0.0000 -0.5586 0.0000
# 4 0.0000 0.0000 0.0000 31.3398 0.0000 1.4749
# 5 3.4670 2.0964 -0.5586 0.0000 45.4564 0.0000
# 6 0.0000 0.0000 0.0000 1.4749 0.0000 26.2844
#
#
#
# Elastic Compliance Matrix: (Units=1/GPa)
#
#
# Indices 1 2 3 4 5 6 
#
# 1 0.018774 -0.009042 -0.001112 0.000000 -0.001029 0.000000
# 2 -0.009042 0.016314 -0.002563 0.000000 -0.000094 0.000000
# 3 -0.001112 -0.002563 0.009005 0.000000 0.000314 0.000000
# 4 0.000000 0.000000 0.000000 0.031993 0.000000 -0.001795
# 5 -0.001029 -0.000094 0.000314 0.000000 0.022086 0.000000
# 6 0.000000 0.000000 0.000000 -0.001795 0.000000 0.038146
#
#
# Mechanical properties :
#
#
# Convention : Reuss Voigt Hill
#
# Bulk Modulus (GPa) = 53.59578 54.81769 54.20673
# Shear Modulus (GPa) = 29.76692 33.36795 31.56744
#
# Velocity S-wave (km/s) = 3.66637 3.88180 3.77562
# Velocity P-wave (km/s) = 6.49045 6.69671 6.59439
#
# Compressibility (1/GPa) = 0.01865819
#
# Stress axis : x y z
#
# Youngs Moduli (GPa) = 53.26467 61.29824 111.04873
#
# Poissons Ratio (x) = 0.55425 0.12352
# Poissons Ratio (y) = 0.48162 0.28463
# Poissons Ratio (z) = 0.05925 0.15712
#
# Static dielectric constant tensor:
#      x y z
#    x 3.980220 0.000000 -0.041300 
#    y 0.000000 3.707430 0.000000 
#    z -0.041300 0.000000 4.218030 
# 
# 
# High freq. dielectric constant tensor:
#      x y z
#    x 1.872810 0.000000 -0.007510 
#    y 0.000000 1.878320 0.000000 
#    z -0.007510 0.000000 1.893440 
# 
# From -- ./inp_files/79540.got.cif
#   From: 2010.06.25/outbox.cif.g09.slc.cpg/sg15_40_cif.got.tgz:79540.got - 2010.06.28 07:06:18.
