data_PCOD8153029
_publ_section_title
;
Structure prediction by ZEFSAII (Michael W. Deem and Ramdas Pophale) SiO2 
 PCOD8153029
Probable space group: C 2/C
;
_chemical_formula_sum "Si O2"
_cell_formula_units_Z 32
_cell_length_a 14.457685
_cell_length_b 13.248517
_cell_length_c 12.304540
_cell_angle_alpha 90.000000
_cell_angle_beta 143.961901
_cell_angle_gamma 90.000000
_cell_volume 1386.587544
_symmetry_space_group_name_H-M "C 2/C"
_symmetry_group_IT_number 15
_symmetry_cell_setting 'monoclinic'
loop_
_space_group_symop_operation_xyz
x,y,z
-x,y,1/2-z
-x,-y,-z
x,-y,1/2+z
1/2+x,1/2+y,z
1/2-x,1/2+y,1/2-z
1/2-x,1/2-y,-z
1/2+x,1/2-y,1/2+z
loop_
_atom_site_type_symbol
_atom_site_label
_atom_site_fract_x
_atom_site_fract_y
_atom_site_fract_z
Si Si1 0.694371 0.701135 0.559000
Si Si2 0.825414 0.458560 0.324848
Si Si3 0.376801 0.203036 0.045827
Si Si4 0.876938 0.847204 0.858149
O O1 0.750000 0.750000 0.500000
O O2 0.808614 0.607311 0.698514
O O3 0.719372 0.789005 0.671652
O O4 0.487100 0.664044 0.105493
O O5 0.800735 0.388649 0.406373
O O6 0.681424 0.538111 0.183361
O O7 0.000000 0.500000 0.500000
O O8 0.500000 0.158959 0.250000
O O9 0.250000 0.250000 0.000000
O O10 0.441557 0.293939 0.029547
#
# Coordination Sequence:
#
# PCOD8153029 Si02
#       4
#     8   8   8   8
#     4  11  24  43  67  97 135 179 223 279 343 402
#     4  11  24  44  69 101 137 175 225 281 337 408
#     4  11  23  42  67  95 131 174 217 269 333 398
#     4  11  23  43  67  99 136 174 226 283 333 402
#
# _framework density 23.078240000000001
#
# number of rings (size 3 to 8) (size 9 to 14) (size 15 to 20)
#    0.000    1.000    0.000    9.000    0.000    4.000 
#    0.000    5.000    0.000    0.000    0.000    0.000 
#    0.000    0.000    0.000    0.000    0.000    0.000 
#
# Total GULP energy -198233.928660 kJ/mol
# GULP energy per Si atom -12389.620541 kJ/mol
# Density = 2.302571 g / cm^3
# Si number density = 23.078240 Si / 1000 Ang^3
#
#
#
# Elastic Constant Matrix: (Units=GPa)
#
#
# Indices 1 2 3 4 5 6 
#
# 1 147.2775 58.9701 45.0460 0.0000 -2.8171 0.0000
# 2 58.9701 155.6021 68.3891 0.0000 -15.2530 0.0000
# 3 45.0460 68.3891 110.1079 0.0000 -4.8052 0.0000
# 4 0.0000 0.0000 0.0000 38.8849 0.0000 5.1869
# 5 -2.8171 -15.2530 -4.8052 0.0000 40.6600 0.0000
# 6 0.0000 0.0000 0.0000 5.1869 0.0000 39.8537
#
#
#
# Elastic Compliance Matrix: (Units=1/GPa)
#
#
# Indices 1 2 3 4 5 6 
#
# 1 0.008320 -0.002337 -0.001975 0.000000 -0.000534 0.000000
# 2 -0.002337 0.009797 -0.005001 0.000000 0.002922 0.000000
# 3 -0.001975 -0.005001 0.012976 0.000000 -0.000480 0.000000
# 4 0.000000 0.000000 0.000000 0.026171 0.000000 -0.003406
# 5 -0.000534 0.002922 -0.000480 0.000000 0.025597 0.000000
# 6 0.000000 0.000000 0.000000 -0.003406 0.000000 0.025535
#
#
# Mechanical properties :
#
#
# Convention : Reuss Voigt Hill
#
# Bulk Modulus (GPa) = 80.22695 84.19977 82.21336
# Shear Modulus (GPa) = 38.11622 39.91854 39.01738
#
# Velocity S-wave (km/s) = 4.06841 4.16348 4.11622
# Velocity P-wave (km/s) = 7.54372 7.72506 7.63493
#
# Compressibility (1/GPa) = 0.01246464
#
# Stress axis : x y z
#
# Youngs Moduli (GPa) = 120.19740 102.07235 77.06802
#
# Poissons Ratio (x) = 0.23856 0.15223
# Poissons Ratio (y) = 0.28092 0.38544
# Poissons Ratio (z) = 0.23743 0.51050
#
# Static dielectric constant tensor:
#      x y z
#    x 3.874760 0.000000 -0.183520 
#    y 0.000000 4.427190 0.000000 
#    z -0.183520 0.000000 4.248210 
# 
# 
# High freq. dielectric constant tensor:
#      x y z
#    x 1.904890 0.000000 0.006300 
#    y 0.000000 1.917260 0.000000 
#    z 0.006300 0.000000 1.924840 
# 
# From -- ./inp_files/104027.got.cif
#   From: 2010.06.25/outbox.cif.g09.slc.cpg/sg15_53_cif.got.tgz:104027.got - 2010.06.28 07:06:18.
