data_PCOD8153611
_publ_section_title
;
Structure prediction by ZEFSAII (Michael W. Deem and Ramdas Pophale) SiO2 
 PCOD8153611
Probable space group: C 2/C
;
_chemical_formula_sum "Si O2"
_cell_formula_units_Z 48
_cell_length_a 5.043176
_cell_length_b 13.725875
_cell_length_c 29.911002
_cell_angle_alpha 90.000000
_cell_angle_beta 85.699136
_cell_angle_gamma 90.000000
_cell_volume 2064.668961
_symmetry_space_group_name_H-M "C 2/C"
_symmetry_group_IT_number 15
_symmetry_cell_setting 'monoclinic'
loop_
_space_group_symop_operation_xyz
x,y,z
-x,y,1/2-z
-x,-y,-z
x,-y,1/2+z
1/2+x,1/2+y,z
1/2-x,1/2+y,1/2-z
1/2-x,1/2-y,-z
1/2+x,1/2-y,1/2+z
loop_
_atom_site_type_symbol
_atom_site_label
_atom_site_fract_x
_atom_site_fract_y
_atom_site_fract_z
Si Si1 0.566358 0.387567 0.197701
Si Si2 0.792634 0.329908 0.433740
Si Si3 0.791740 0.038309 0.089412
Si Si4 0.074397 0.713637 0.661445
Si Si5 0.944364 0.327563 0.978490
Si Si6 0.250257 0.077380 0.145238
O O1 0.500000 0.397854 0.250000
O O2 0.301773 0.361689 0.173709
O O3 0.668871 0.491333 0.179324
O O4 0.797050 0.305570 0.190105
O O5 0.636662 0.425026 0.418784
O O6 0.993988 0.302681 0.390719
O O7 0.624171 0.230891 0.440715
O O8 0.907777 0.366853 0.479492
O O9 0.715403 0.086352 0.043086
O O10 0.556734 0.060328 0.127875
O O11 0.068753 0.081373 0.103023
O O12 0.194788 0.820343 0.670944
O O13 0.750000 0.250000 0.000000
#
# Coordination Sequence:
#
# PCOD8153611 Si02
#       6
#     8   8   8   8   8   8
#     4  12  27  48  75 108 137 177 234 294 361 427
#     4  11  24  43  66 101 141 187 236 289 342 408
#     4  12  25  43  71 101 139 194 237 281 353 407
#     4  12  25  47  77 103 143 189 230 288 359 427
#     4  11  26  41  65 103 143 191 241 296 332 416
#     4  12  25  46  74 104 139 186 232 289 349 429
#
# _framework density 23.248280000000001
#
# number of rings (size 3 to 8) (size 9 to 14) (size 15 to 20)
#    0.000    0.333    5.000    3.000    7.000    2.000 
#    0.000    0.000    0.000    0.000    0.000    0.000 
#    0.000    0.000    0.000    0.000    0.000    0.000 
#
# Total GULP energy -297516.462256 kJ/mol
# GULP energy per Si atom -12396.519261 kJ/mol
# Density = 2.319537 g / cm^3
# Si number density = 23.248280 Si / 1000 Ang^3
#
#
#
# Elastic Constant Matrix: (Units=GPa)
#
#
# Indices 1 2 3 4 5 6 
#
# 1 68.3085 -6.7731 10.2198 0.0000 -0.9342 0.0000
# 2 -6.7731 93.4126 29.8524 0.0000 0.9129 0.0000
# 3 10.2198 29.8524 101.4605 0.0000 -9.0303 0.0000
# 4 0.0000 0.0000 0.0000 28.0705 0.0000 -4.5074
# 5 -0.9342 0.9129 -9.0303 0.0000 25.3147 0.0000
# 6 0.0000 0.0000 0.0000 -4.5074 0.0000 21.7543
#
#
#
# Elastic Compliance Matrix: (Units=1/GPa)
#
#
# Indices 1 2 3 4 5 6 
#
# 1 0.015119 0.001757 -0.002061 0.000000 -0.000241 0.000000
# 2 0.001757 0.012094 -0.003892 0.000000 -0.001760 0.000000
# 3 -0.002061 -0.003892 0.011582 0.000000 0.004196 0.000000
# 4 0.000000 0.000000 0.000000 0.036851 0.000000 0.007635
# 5 -0.000241 -0.001760 0.004196 0.000000 0.041054 0.000000
# 6 0.000000 0.000000 0.000000 0.007635 0.000000 0.047550
#
#
# Mechanical properties :
#
#
# Convention : Reuss Voigt Hill
#
# Bulk Modulus (GPa) = 32.89165 36.64220 34.76693
# Shear Modulus (GPa) = 27.35599 30.35339 28.85469
#
# Velocity S-wave (km/s) = 3.43401 3.61725 3.52682
# Velocity P-wave (km/s) = 5.46827 5.76555 5.61887
#
# Compressibility (1/GPa) = 0.03040285
#
# Stress axis : x y z
#
# Youngs Moduli (GPa) = 66.14264 82.68866 86.33913
#
# Poissons Ratio (x) = -0.14531 0.17798
# Poissons Ratio (y) = -0.11624 0.33602
# Poissons Ratio (z) = 0.13634 0.32181
#
# Static dielectric constant tensor:
#      x y z
#    x 4.050380 0.000000 -0.057530 
#    y 0.000000 4.171220 0.000000 
#    z -0.057530 0.000000 3.862740 
# 
# 
# High freq. dielectric constant tensor:
#      x y z
#    x 1.912780 0.000000 -0.004770 
#    y 0.000000 1.937790 0.000000 
#    z -0.004770 0.000000 1.914890 
# 
# From -- ./inp_files/285562.got.cif
#   From: 2010.06.25/outbox.cif.g09.slc.cpg/sg15_143_cif.got.tgz:285562.got - 2010.06.28 07:06:18.
