data_PCOD8153455
_publ_section_title
;
Structure prediction by ZEFSAII (Michael W. Deem and Ramdas Pophale) SiO2 
 PCOD8153455
Probable space group: C 2/C
;
_chemical_formula_sum "Si O2"
_cell_formula_units_Z 44
_cell_length_a 27.256709
_cell_length_b 9.098146
_cell_length_c 8.743688
_cell_angle_alpha 90.000000
_cell_angle_beta 65.810060
_cell_angle_gamma 90.000000
_cell_volume 1977.913375
_symmetry_space_group_name_H-M "C 2/C"
_symmetry_group_IT_number 15
_symmetry_cell_setting 'monoclinic'
loop_
_space_group_symop_operation_xyz
x,y,z
-x,y,1/2-z
-x,-y,-z
x,-y,1/2+z
1/2+x,1/2+y,z
1/2-x,1/2+y,1/2-z
1/2-x,1/2-y,-z
1/2+x,1/2-y,1/2+z
loop_
_atom_site_type_symbol
_atom_site_label
_atom_site_fract_x
_atom_site_fract_y
_atom_site_fract_z
Si Si1 0.600527 0.201179 0.146639
Si Si2 0.097402 0.415326 0.315203
Si Si3 0.845802 0.042329 0.072632
Si Si4 0.500000 0.192196 0.750000
Si Si5 0.049525 0.105237 0.946526
Si Si6 0.308632 0.307497 0.894247
O O1 0.553839 0.301073 0.283483
O O2 0.617872 0.081598 0.253586
O O3 0.584865 0.114422 0.010554
O O4 0.647754 0.318318 0.050086
O O5 0.039376 0.402701 0.306883
O O6 0.145085 0.312407 0.194080
O O7 0.802651 0.087612 0.255343
O O8 0.900810 0.004764 0.091327
O O9 0.824944 0.896956 0.021767
O O10 0.541720 0.288434 0.599768
O O11 0.000000 0.000000 0.000000
O O12 0.250000 0.250000 0.000000
#
# Coordination Sequence:
#
# PCOD8153455 Si02
#       6
#     8   8   8   4   8   8
#     4  11  25  45  69 100 147 183 237 289 351 435
#     4  11  26  44  68 106 142 188 233 293 366 419
#     4  11  23  47  70 104 137 187 241 294 355 428
#     4  12  24  40  66 100 148 180 230 296 346 432
#     4  12  23  41  70 102 142 187 236 286 354 428
#     4  11  25  47  72 102 142 184 244 296 359 425
#
# _framework density 22.245664000000001
#
# number of rings (size 3 to 8) (size 9 to 14) (size 15 to 20)
#    0.000    0.727    3.636    4.364    0.000    9.455 
#    0.000    1.818    0.000    0.000    0.000    0.000 
#    0.000    0.000    0.000    0.000    0.000    0.000 
#
# Total GULP energy -272698.006166 kJ/mol
# GULP energy per Si atom -12395.363917 kJ/mol
# Density = 2.219503 g / cm^3
# Si number density = 22.245664 Si / 1000 Ang^3
#
#
#
# Elastic Constant Matrix: (Units=GPa)
#
#
# Indices 1 2 3 4 5 6 
#
# 1 82.3590 52.2588 56.2961 0.0000 -8.2502 0.0000
# 2 52.2588 130.4641 68.7735 0.0000 1.6503 0.0000
# 3 56.2961 68.7735 170.1126 0.0000 -7.6567 0.0000
# 4 0.0000 0.0000 0.0000 59.4225 0.0000 -1.0115
# 5 -8.2502 1.6503 -7.6567 0.0000 28.0345 0.0000
# 6 0.0000 0.0000 0.0000 -1.0115 0.0000 24.0382
#
#
#
# Elastic Compliance Matrix: (Units=1/GPa)
#
#
# Indices 1 2 3 4 5 6 
#
# 1 0.018717 -0.005601 -0.003712 0.000000 0.004824 0.000000
# 2 -0.005601 0.011495 -0.002934 0.000000 -0.003126 0.000000
# 3 -0.003712 -0.002934 0.008355 0.000000 0.001362 0.000000
# 4 0.000000 0.000000 0.000000 0.016841 0.000000 0.000709
# 5 0.004824 -0.003126 0.001362 0.000000 0.037646 0.000000
# 6 0.000000 0.000000 0.000000 0.000709 0.000000 0.041630
#
#
# Mechanical properties :
#
#
# Convention : Reuss Voigt Hill
#
# Bulk Modulus (GPa) = 71.07071 81.95472 76.51272
# Shear Modulus (GPa) = 30.51203 36.00618 33.25911
#
# Velocity S-wave (km/s) = 3.70752 4.02751 3.87082
# Velocity P-wave (km/s) = 7.09543 7.65170 7.37881
#
# Compressibility (1/GPa) = 0.01407049
#
# Stress axis : x y z
#
# Youngs Moduli (GPa) = 53.42733 86.99482 119.69436
#
# Poissons Ratio (x) = 0.48729 0.44436
# Poissons Ratio (y) = 0.29926 0.35121
# Poissons Ratio (z) = 0.19835 0.25527
#
# Static dielectric constant tensor:
#      x y z
#    x 26.162290 0.000000 20.928540 
#    y 0.000000 4.099110 0.000000 
#    z 20.928540 0.000000 23.453580 
# 
# 
# High freq. dielectric constant tensor:
#      x y z
#    x 1.832790 0.000000 0.005540 
#    y 0.000000 1.895800 0.000000 
#    z 0.005540 0.000000 1.903980 
# 
# From -- ./inp_files/68499.got.cif
#   From: 2010.06.25/outbox.cif.g09.slc.cpg/sg15_35_cif.got.tgz:68499.got - 2010.06.28 07:06:18.
