data_PCOD8153766
_publ_section_title
;
Structure prediction by ZEFSAII (Michael W. Deem and Ramdas Pophale) SiO2 
 PCOD8153766
Probable space group: C 2/C
;
_chemical_formula_sum "Si O2"
_cell_formula_units_Z 40
_cell_length_a 8.428867
_cell_length_b 15.814819
_cell_length_c 14.528176
_cell_angle_alpha 90.000000
_cell_angle_beta 117.636152
_cell_angle_gamma 90.000000
_cell_volume 1715.673530
_symmetry_space_group_name_H-M "C 2/C"
_symmetry_group_IT_number 15
_symmetry_cell_setting 'monoclinic'
loop_
_space_group_symop_operation_xyz
x,y,z
-x,y,1/2-z
-x,-y,-z
x,-y,1/2+z
1/2+x,1/2+y,z
1/2-x,1/2+y,1/2-z
1/2-x,1/2-y,-z
1/2+x,1/2-y,1/2+z
loop_
_atom_site_type_symbol
_atom_site_label
_atom_site_fract_x
_atom_site_fract_y
_atom_site_fract_z
Si Si1 0.153559 0.699082 0.864285
Si Si2 0.854710 0.533143 0.531849
Si Si3 0.271594 0.136511 0.079855
Si Si4 0.956549 0.873220 0.633471
Si Si5 0.979974 0.197986 0.640949
O O1 0.082470 0.620539 0.905010
O O2 0.166763 0.789754 0.920464
O O3 0.340537 0.677932 0.866637
O O4 0.000000 0.719586 0.750000
O O5 0.841736 0.459395 0.604226
O O6 0.657696 0.547377 0.434243
O O7 0.000000 0.500000 0.500000
O O8 0.436228 0.201717 0.134347
O O9 0.138685 0.146630 0.129083
O O10 0.179896 0.150744 0.955264
O O11 0.000000 0.893201 0.750000
O O12 0.000000 0.162089 0.750000
#
# Coordination Sequence:
#
# PCOD8153766 Si02
#       5
#     8   8   8   8   8
#     4  11  25  44  70 100 137 184 230 278 344 419
#     4  12  27  43  67 101 144 179 227 289 347 405
#     4  11  26  45  71 104 135 180 231 288 348 404
#     4  11  24  46  73 100 138 182 232 282 345 409
#     4  11  24  44  76  99 138 179 235 282 347 412
#
# _framework density 23.314457999999998
#
# number of rings (size 3 to 8) (size 9 to 14) (size 15 to 20)
#    0.000    0.800    2.000    4.800    8.400    3.200 
#    0.000    0.000    0.000    0.000    0.000    0.000 
#    0.000    0.000    0.000    0.000    0.000    0.000 
#
# Total GULP energy -248036.319843 kJ/mol
# GULP energy per Si atom -12401.815992 kJ/mol
# Density = 2.326139 g / cm^3
# Si number density = 23.314458 Si / 1000 Ang^3
#
#
#
# Elastic Constant Matrix: (Units=GPa)
#
#
# Indices 1 2 3 4 5 6 
#
# 1 111.3126 19.7543 7.4920 0.0000 -17.9470 0.0000
# 2 19.7543 103.0296 5.9380 0.0000 -13.2901 0.0000
# 3 7.4920 5.9380 59.5632 0.0000 -17.6498 0.0000
# 4 0.0000 0.0000 0.0000 24.8630 0.0000 -2.9212
# 5 -17.9470 -13.2901 -17.6498 0.0000 39.9108 0.0000
# 6 0.0000 0.0000 0.0000 -2.9212 0.0000 42.4056
#
#
#
# Elastic Compliance Matrix: (Units=1/GPa)
#
#
# Indices 1 2 3 4 5 6 
#
# 1 0.009870 -0.001379 0.000086 0.000000 0.004017 0.000000
# 2 -0.001379 0.010334 -0.000024 0.000000 0.002810 0.000000
# 3 0.000086 -0.000024 0.019322 0.000000 0.008575 0.000000
# 4 0.000000 0.000000 0.000000 0.040549 0.000000 0.002793
# 5 0.004017 0.002810 0.008575 0.000000 0.031591 0.000000
# 6 0.000000 0.000000 0.000000 0.002793 0.000000 0.023774
#
#
# Mechanical properties :
#
#
# Convention : Reuss Voigt Hill
#
# Bulk Modulus (GPa) = 27.10570 37.80823 32.45697
# Shear Modulus (GPa) = 33.25113 37.48395 35.36754
#
# Velocity S-wave (km/s) = 3.78061 4.01403 3.89907
# Velocity P-wave (km/s) = 5.54154 6.14289 5.84995
#
# Compressibility (1/GPa) = 0.03689261
#
# Stress axis : x y z
#
# Youngs Moduli (GPa) = 101.31295 96.76503 51.75581
#
# Poissons Ratio (x) = 0.13346 -0.00447
# Poissons Ratio (y) = 0.13974 0.00124
# Poissons Ratio (z) = -0.00876 0.00232
#
# Static dielectric constant tensor:
#      x y z
#    x 4.076610 0.000000 0.044550 
#    y 0.000000 4.420070 0.000000 
#    z 0.044550 0.000000 4.311790 
# 
# 
# High freq. dielectric constant tensor:
#      x y z
#    x 1.922990 0.000000 -0.001550 
#    y 0.000000 1.928510 0.000000 
#    z -0.001550 0.000000 1.931120 
# 
# From -- ./inp_files/133295.got.cif
#   From: 2010.06.25/outbox.cif.g09.slc.cpg/sg15_67_cif.got.tgz:133295.got - 2010.06.28 07:06:18.
