data_PCOD8153496
_publ_section_title
;
Structure prediction by ZEFSAII (Michael W. Deem and Ramdas Pophale) SiO2 
 PCOD8153496
Probable space group: C 2/C
;
_chemical_formula_sum "Si O2"
_cell_formula_units_Z 32
_cell_length_a 11.055956
_cell_length_b 9.375650
_cell_length_c 13.306591
_cell_angle_alpha 90.000000
_cell_angle_beta 79.074058
_cell_angle_gamma 90.000000
_cell_volume 1354.315384
_symmetry_space_group_name_H-M "C 2/C"
_symmetry_group_IT_number 15
_symmetry_cell_setting 'monoclinic'
loop_
_space_group_symop_operation_xyz
x,y,z
-x,y,1/2-z
-x,-y,-z
x,-y,1/2+z
1/2+x,1/2+y,z
1/2-x,1/2+y,1/2-z
1/2-x,1/2-y,-z
1/2+x,1/2-y,1/2+z
loop_
_atom_site_type_symbol
_atom_site_label
_atom_site_fract_x
_atom_site_fract_y
_atom_site_fract_z
Si Si1 0.995728 0.492684 0.639816
Si Si2 0.892257 0.195468 0.202103
Si Si3 0.233111 0.354403 0.910488
Si Si4 0.236620 0.091270 0.465481
O O1 0.939590 0.653065 0.651961
O O2 0.910744 0.393938 0.583082
O O3 0.000000 0.426693 0.750000
O O4 0.134051 0.486988 0.577747
O O5 0.780378 0.214468 0.298924
O O6 0.851774 0.090711 0.118111
O O7 0.000000 0.120548 0.250000
O O8 0.250000 0.250000 0.000000
O O9 0.312404 0.495395 0.933239
O O10 0.250000 0.250000 0.500000
#
# Coordination Sequence:
#
# PCOD8153496 Si02
#       4
#     8   8   8   8
#     4  11  23  49  77 103 153 202 241 314 380 439
#     4  11  26  48  73 106 152 196 252 309 377 446
#     4  12  26  44  76 113 149 199 255 309 377 457
#     4  12  26  47  78 110 146 201 254 305 387 451
#
# _framework density 23.628177000000001
#
# number of rings (size 3 to 8) (size 9 to 14) (size 15 to 20)
#    0.000    0.500    5.000    3.750    3.500    1.000 
#    0.000    0.000    0.000    0.000    0.000    0.000 
#    0.000    0.000    0.000    0.000    0.000    0.000 
#
# Total GULP energy -198252.996462 kJ/mol
# GULP energy per Si atom -12390.812279 kJ/mol
# Density = 2.357440 g / cm^3
# Si number density = 23.628177 Si / 1000 Ang^3
#
#
#
# Elastic Constant Matrix: (Units=GPa)
#
#
# Indices 1 2 3 4 5 6 
#
# 1 137.1684 37.5305 34.6021 0.0000 33.3606 0.0000
# 2 37.5305 122.9944 38.8669 0.0000 10.2105 0.0000
# 3 34.6021 38.8669 117.4178 0.0000 35.3072 0.0000
# 4 0.0000 0.0000 0.0000 52.1121 0.0000 7.8258
# 5 33.3606 10.2105 35.3072 0.0000 53.9583 0.0000
# 6 0.0000 0.0000 0.0000 7.8258 0.0000 2.2413
#
#
#
# Elastic Compliance Matrix: (Units=1/GPa)
#
#
# Indices 1 2 3 4 5 6 
#
# 1 0.009237 -0.002254 -0.000482 0.000000 -0.004969 0.000000
# 2 -0.002254 0.009634 -0.002983 0.000000 0.001522 0.000000
# 3 -0.000482 -0.002983 0.011686 0.000000 -0.006784 0.000000
# 4 0.000000 0.000000 0.000000 0.040343 0.000000 -0.140860
# 5 -0.004969 0.001522 -0.006784 0.000000 0.025756 0.000000
# 6 0.000000 0.000000 0.000000 -0.140860 0.000000 0.937986
#
#
# Mechanical properties :
#
#
# Convention : Reuss Voigt Hill
#
# Bulk Modulus (GPa) = 52.29889 66.61994 59.45942
# Shear Modulus (GPa) = 4.75081 39.43443 22.09262
#
# Velocity S-wave (km/s) = 1.41951 4.08972 3.06111
# Velocity P-wave (km/s) = 4.98687 7.11037 6.14110
#
# Compressibility (1/GPa) = 0.01912087
#
# Stress axis : x y z
#
# Youngs Moduli (GPa) = 108.25941 103.79536 85.57338
#
# Poissons Ratio (x) = 0.23394 0.04123
# Poissons Ratio (y) = 0.24400 0.25523
# Poissons Ratio (z) = 0.05216 0.30958
#
# Static dielectric constant tensor:
#      x y z
#    x 4.472860 0.000000 0.221110 
#    y 0.000000 -0.054410 0.000000 
#    z 0.221110 0.000000 4.557720 
# 
# 
# High freq. dielectric constant tensor:
#      x y z
#    x 1.929620 0.000000 0.021750 
#    y 0.000000 1.916840 0.000000 
#    z 0.021750 0.000000 1.971300 
# 
# From -- ./inp_files/140784.got.cif
#   From: 2010.06.25/outbox.cif.g09.slc.cpg/sg15_71_cif.got.tgz:140784.got - 2010.06.28 07:06:18.
