data_PCOD8153625
_publ_section_title
;
Structure prediction by ZEFSAII (Michael W. Deem and Ramdas Pophale) SiO2 
 PCOD8153625
Probable space group: C 2/C
;
_chemical_formula_sum "Si O2"
_cell_formula_units_Z 28
_cell_length_a 6.897270
_cell_length_b 22.290372
_cell_length_c 7.901743
_cell_angle_alpha 90.000000
_cell_angle_beta 85.172757
_cell_angle_gamma 90.000000
_cell_volume 1210.526344
_symmetry_space_group_name_H-M "C 2/C"
_symmetry_group_IT_number 15
_symmetry_cell_setting 'monoclinic'
loop_
_space_group_symop_operation_xyz
x,y,z
-x,y,1/2-z
-x,-y,-z
x,-y,1/2+z
1/2+x,1/2+y,z
1/2-x,1/2+y,1/2-z
1/2-x,1/2-y,-z
1/2+x,1/2-y,1/2+z
loop_
_atom_site_type_symbol
_atom_site_label
_atom_site_fract_x
_atom_site_fract_y
_atom_site_fract_z
Si Si1 0.000000 0.736268 0.250000
Si Si2 0.559182 0.565582 0.437229
Si Si3 0.212610 0.158906 0.879303
Si Si4 0.614498 0.856932 0.500612
O O1 0.114272 0.775083 0.385732
O O2 0.843222 0.695203 0.364399
O O3 0.500000 0.576485 0.250000
O O4 0.500000 0.500000 0.500000
O O5 0.456758 0.611685 0.572105
O O6 0.791722 0.580077 0.438387
O O7 0.295377 0.155265 0.686153
O O8 0.379241 0.143635 0.004122
#
# Coordination Sequence:
#
# PCOD8153625 Si02
#       4
#     4   8   8   8
#     4  12  22  44  70 106 152 182 230 282 352 414
#     4  12  26  47  72  97 137 182 236 289 348 414
#     4  11  24  43  69 103 142 185 231 285 346 414
#     4  11  24  43  68 105 140 185 230 286 346 410
#
# _framework density 23.130434999999999
#
# number of rings (size 3 to 8) (size 9 to 14) (size 15 to 20)
#    0.000    0.571    2.857    5.143    0.000    1.143 
#    0.000    2.857    0.000    0.000    0.000    0.000 
#    0.000    0.000    0.000    0.000    0.000    0.000 
#
# Total GULP energy -173449.954098 kJ/mol
# GULP energy per Si atom -12389.282436 kJ/mol
# Density = 2.307779 g / cm^3
# Si number density = 23.130435 Si / 1000 Ang^3
#
#
#
# Elastic Constant Matrix: (Units=GPa)
#
#
# Indices 1 2 3 4 5 6 
#
# 1 151.3881 71.0938 25.6778 0.0000 31.7763 0.0000
# 2 71.0938 160.5923 45.0898 0.0000 14.3965 0.0000
# 3 25.6778 45.0898 106.2619 0.0000 -1.1634 0.0000
# 4 0.0000 0.0000 0.0000 35.6925 0.0000 -3.8174
# 5 31.7763 14.3965 -1.1634 0.0000 29.3135 0.0000
# 6 0.0000 0.0000 0.0000 -3.8174 0.0000 44.2732
#
#
#
# Elastic Compliance Matrix: (Units=1/GPa)
#
#
# Indices 1 2 3 4 5 6 
#
# 1 0.010448 -0.003426 -0.001177 0.000000 -0.009690 0.000000
# 2 -0.003426 0.008592 -0.002825 0.000000 -0.000618 0.000000
# 3 -0.001177 -0.002825 0.010928 0.000000 0.003097 0.000000
# 4 0.000000 0.000000 0.000000 0.028278 0.000000 0.002438
# 5 -0.009690 -0.000618 0.003097 0.000000 0.045044 0.000000
# 6 0.000000 0.000000 0.000000 0.002438 0.000000 0.022797
#
#
# Mechanical properties :
#
#
# Convention : Reuss Voigt Hill
#
# Bulk Modulus (GPa) = 66.17239 77.99611 72.08425
# Shear Modulus (GPa) = 34.25114 40.28125 37.26620
#
# Velocity S-wave (km/s) = 3.85227 4.17763 4.01825
# Velocity P-wave (km/s) = 6.96111 7.55404 7.26363
#
# Compressibility (1/GPa) = 0.01511204
#
# Stress axis : x y z
#
# Youngs Moduli (GPa) = 95.71153 116.38443 91.51102
#
# Poissons Ratio (x) = 0.39876 0.10771
# Poissons Ratio (y) = 0.32793 0.25850
# Poissons Ratio (z) = 0.11265 0.32876
#
# Static dielectric constant tensor:
#      x y z
#    x 5.466030 0.000000 0.488590 
#    y 0.000000 3.959490 0.000000 
#    z 0.488590 0.000000 4.459550 
# 
# 
# High freq. dielectric constant tensor:
#      x y z
#    x 1.920360 0.000000 0.005270 
#    y 0.000000 1.895180 0.000000 
#    z 0.005270 0.000000 1.936150 
# 
# From -- ./inp_files/21523.got.cif
#   From: 2010.06.25/outbox.cif.g09.slc.cpg/sg15_11_cif.got.tgz:21523.got - 2010.06.28 07:06:18.
