data_PCOD8153400
_publ_section_title
;
Structure prediction by ZEFSAII (Michael W. Deem and Ramdas Pophale) SiO2 
 PCOD8153400
Probable space group: C 2/C
;
_chemical_formula_sum "Si O2"
_cell_formula_units_Z 56
_cell_length_a 10.607403
_cell_length_b 26.785817
_cell_length_c 10.931934
_cell_angle_alpha 90.000000
_cell_angle_beta 52.600223
_cell_angle_gamma 90.000000
_cell_volume 2467.513220
_symmetry_space_group_name_H-M "C 2/C"
_symmetry_group_IT_number 15
_symmetry_cell_setting 'monoclinic'
loop_
_space_group_symop_operation_xyz
x,y,z
-x,y,1/2-z
-x,-y,-z
x,-y,1/2+z
1/2+x,1/2+y,z
1/2-x,1/2+y,1/2-z
1/2-x,1/2-y,-z
1/2+x,1/2-y,1/2+z
loop_
_atom_site_type_symbol
_atom_site_label
_atom_site_fract_x
_atom_site_fract_y
_atom_site_fract_z
Si Si1 0.048774 0.635942 0.456548
Si Si2 0.664068 0.062910 0.589217
Si Si3 0.702475 0.378307 0.085644
Si Si4 0.314317 0.321949 0.632312
Si Si5 0.602588 0.220946 0.800318
Si Si6 0.359538 0.358558 0.109398
Si Si7 0.589993 0.517176 0.571951
O O1 0.142998 0.596715 0.483019
O O2 0.167147 0.649005 0.277500
O O3 0.885702 0.609805 0.510716
O O4 0.011884 0.686875 0.550400
O O5 0.500000 0.051456 0.750000
O O6 0.780914 0.090435 0.613742
O O7 0.741720 0.010135 0.513131
O O8 0.601739 0.366969 0.268715
O O9 0.627422 0.423584 0.049728
O O10 0.705589 0.327847 0.002274
O O11 0.317207 0.264194 0.667128
O O12 0.484689 0.347133 0.563229
O O13 0.500000 0.244180 0.750000
O O14 0.741487 0.187714 0.660339
O O15 0.500000 0.502733 0.750000
O O16 0.500000 0.500000 0.500000
#
# Coordination Sequence:
#
# PCOD8153400 Si02
#       7
#     8   8   8   8   8   8   8
#     4  11  25  44  72 103 145 186 244 292 360 436
#     4  12  24  47  73 104 138 193 234 296 372 433
#     4  11  25  51  68  98 153 193 228 299 371 434
#     4  12  26  38  71 107 138 189 241 294 346 426
#     4  11  23  46  68 102 147 193 238 295 368 436
#     4  11  23  46  73  97 149 189 232 299 368 424
#     4  12  29  50  78 112 145 187 254 309 372 440
#
# _framework density 22.694914000000001
#
# number of rings (size 3 to 8) (size 9 to 14) (size 15 to 20)
#    0.000    0.571    4.286    4.286    6.000    5.143 
#    0.000    5.714    0.000    0.000    0.000    0.000 
#    0.000    0.000    0.000    0.000    0.000    0.000 
#
# Total GULP energy -347214.269701 kJ/mol
# GULP energy per Si atom -12400.509632 kJ/mol
# Density = 2.264326 g / cm^3
# Si number density = 22.694914 Si / 1000 Ang^3
#
#
#
# Elastic Constant Matrix: (Units=GPa)
#
#
# Indices 1 2 3 4 5 6 
#
# 1 77.3945 17.5902 19.0663 0.0000 18.6912 0.0000
# 2 17.5902 90.1901 19.5401 0.0000 4.8500 0.0000
# 3 19.0663 19.5401 106.2564 0.0000 -18.9716 0.0000
# 4 0.0000 0.0000 0.0000 14.7611 0.0000 2.0724
# 5 18.6912 4.8500 -18.9716 0.0000 46.1910 0.0000
# 6 0.0000 0.0000 0.0000 2.0724 0.0000 40.8388
#
#
#
# Elastic Compliance Matrix: (Units=1/GPa)
#
#
# Indices 1 2 3 4 5 6 
#
# 1 0.016276 -0.001873 -0.004011 0.000000 -0.008037 0.000000
# 2 -0.001873 0.011984 -0.002112 0.000000 -0.001368 0.000000
# 3 -0.004011 -0.002112 0.011707 0.000000 0.006653 0.000000
# 4 0.000000 0.000000 0.000000 0.068232 0.000000 -0.003463
# 5 -0.008037 -0.001368 0.006653 0.000000 0.027777 0.000000
# 6 0.000000 0.000000 0.000000 -0.003463 0.000000 0.024662
#
#
# Mechanical properties :
#
#
# Convention : Reuss Voigt Hill
#
# Bulk Modulus (GPa) = 41.71024 42.91491 42.31258
# Shear Modulus (GPa) = 27.08239 34.86780 30.97509
#
# Velocity S-wave (km/s) = 3.45820 3.92391 3.69839
# Velocity P-wave (km/s) = 5.86209 6.28331 6.07635
#
# Compressibility (1/GPa) = 0.02397493
#
# Stress axis : x y z
#
# Youngs Moduli (GPa) = 61.44203 83.44366 85.41789
#
# Poissons Ratio (x) = 0.15630 0.34260
# Poissons Ratio (y) = 0.11509 0.18040
# Poissons Ratio (z) = 0.24643 0.17623
#
# Static dielectric constant tensor:
#      x y z
#    x 3.727190 0.000000 0.247980 
#    y 0.000000 3.987660 0.000000 
#    z 0.247980 0.000000 3.947800 
# 
# 
# High freq. dielectric constant tensor:
#      x y z
#    x 1.916030 0.000000 -0.011740 
#    y 0.000000 1.887000 0.000000 
#    z -0.011740 0.000000 1.903700 
# 
# From -- ./inp_files/91983.got.cif
#   From: 2010.06.25/outbox.cif.g09.slc.cpg/sg15_46_cif.got.tgz:91983.got - 2010.06.28 07:06:18.
