data_PCOD8153199
_publ_section_title
;
Structure prediction by ZEFSAII (Michael W. Deem and Ramdas Pophale) SiO2 
 PCOD8153199
Probable space group: C 2/C
;
_chemical_formula_sum "Si O2"
_cell_formula_units_Z 44
_cell_length_a 7.857011
_cell_length_b 15.413085
_cell_length_c 17.242621
_cell_angle_alpha 90.000000
_cell_angle_beta 104.670714
_cell_angle_gamma 90.000000
_cell_volume 2020.017361
_symmetry_space_group_name_H-M "C 2/C"
_symmetry_group_IT_number 15
_symmetry_cell_setting 'monoclinic'
loop_
_space_group_symop_operation_xyz
x,y,z
-x,y,1/2-z
-x,-y,-z
x,-y,1/2+z
1/2+x,1/2+y,z
1/2-x,1/2+y,1/2-z
1/2-x,1/2-y,-z
1/2+x,1/2-y,1/2+z
loop_
_atom_site_type_symbol
_atom_site_label
_atom_site_fract_x
_atom_site_fract_y
_atom_site_fract_z
Si Si1 0.758272 0.003551 0.401218
Si Si2 0.315714 0.607526 0.694904
Si Si3 0.696095 0.845982 0.015912
Si Si4 0.500000 0.936296 0.250000
Si Si5 0.286650 0.849232 0.989644
Si Si6 0.929010 0.929311 0.665880
O O1 0.756544 0.084780 0.459212
O O2 0.924284 0.018301 0.365518
O O3 0.583281 0.996185 0.328109
O O4 0.785444 0.913795 0.452165
O O5 0.500000 0.643893 0.750000
O O6 0.296146 0.645474 0.607838
O O7 0.307879 0.503350 0.689554
O O8 0.150179 0.628223 0.732249
O O9 0.750000 0.750000 0.000000
O O10 0.491822 0.864126 0.003794
O O11 0.186323 0.865669 0.898065
O O12 0.250000 0.750000 0.000000
O O13 0.000000 0.876543 0.750000
#
# Coordination Sequence:
#
# PCOD8153199 Si02
#       6
#     8   8   8   4   8   8
#     4  12  24  44  74  99 145 181 236 287 353 415
#     4  11  23  44  73 103 139 181 237 288 353 413
#     4  12  27  46  70 104 139 188 239 284 351 422
#     4  12  22  42  74 108 134 194 224 298 354 408
#     4  12  26  45  70 103 140 184 233 287 351 422
#     4  11  23  43  73 103 137 183 234 290 352 412
#
# _framework density 21.781991999999999
#
# number of rings (size 3 to 8) (size 9 to 14) (size 15 to 20)
#    0.000    0.364    7.273    3.273    2.545    0.000 
#    3.273    1.818    0.000    0.000    0.000    0.000 
#    0.000    0.000    0.000    0.000    0.000    0.000 
#
# Total GULP energy -272726.627164 kJ/mol
# GULP energy per Si atom -12396.664871 kJ/mol
# Density = 2.173242 g / cm^3
# Si number density = 21.781992 Si / 1000 Ang^3
#
#
#
# Elastic Constant Matrix: (Units=GPa)
#
#
# Indices 1 2 3 4 5 6 
#
# 1 92.0642 -0.8217 49.7160 0.0000 12.8756 0.0000
# 2 -0.8217 100.0164 61.2990 0.0000 8.3772 0.0000
# 3 49.7160 61.2990 210.5846 0.0000 30.6500 0.0000
# 4 0.0000 0.0000 0.0000 23.1310 0.0000 -0.4586
# 5 12.8756 8.3772 30.6500 0.0000 47.0108 0.0000
# 6 0.0000 0.0000 0.0000 -0.4586 0.0000 15.4840
#
#
#
# Elastic Compliance Matrix: (Units=1/GPa)
#
#
# Indices 1 2 3 4 5 6 
#
# 1 0.013028 0.002413 -0.003531 0.000000 -0.001696 0.000000
# 2 0.002413 0.012618 -0.004220 0.000000 -0.000158 0.000000
# 3 -0.003531 -0.004220 0.007248 0.000000 -0.003007 0.000000
# 4 0.000000 0.000000 0.000000 0.043258 0.000000 0.001281
# 5 -0.001696 -0.000158 -0.003007 0.000000 0.023725 0.000000
# 6 0.000000 0.000000 0.000000 0.001281 0.000000 0.064621
#
#
# Mechanical properties :
#
#
# Convention : Reuss Voigt Hill
#
# Bulk Modulus (GPa) = 45.00762 69.22799 57.11780
# Shear Modulus (GPa) = 27.38564 36.62328 32.00446
#
# Velocity S-wave (km/s) = 3.54963 4.10488 3.83731
# Velocity P-wave (km/s) = 6.12434 7.37007 6.77589
#
# Compressibility (1/GPa) = 0.02221846
#
# Stress axis : x y z
#
# Youngs Moduli (GPa) = 76.75973 79.25457 137.96429
#
# Poissons Ratio (x) = -0.19127 0.48720
# Poissons Ratio (y) = -0.18525 0.58215
# Poissons Ratio (z) = 0.27106 0.33442
#
# Static dielectric constant tensor:
#      x y z
#    x 4.274580 0.000000 0.183360 
#    y 0.000000 3.551900 0.000000 
#    z 0.183360 0.000000 4.498920 
# 
# 
# High freq. dielectric constant tensor:
#      x y z
#    x 1.875620 0.000000 0.003970 
#    y 0.000000 1.821620 0.000000 
#    z 0.003970 0.000000 1.888870 
# 
# From -- ./inp_files/188972.got.cif
#   From: 2010.06.25/outbox.cif.g09.slc.cpg/sg15_95_cif.got.tgz:188972.got - 2010.06.28 07:06:18.
