data_PCOD8153371
_publ_section_title
;
Structure prediction by ZEFSAII (Michael W. Deem and Ramdas Pophale) SiO2 
 PCOD8153371
Probable space group: C 2/C
;
_chemical_formula_sum "Si O2"
_cell_formula_units_Z 64
_cell_length_a 27.843599
_cell_length_b 9.013567
_cell_length_c 14.334434
_cell_angle_alpha 90.000000
_cell_angle_beta 130.634793
_cell_angle_gamma 90.000000
_cell_volume 2730.067718
_symmetry_space_group_name_H-M "C 2/C"
_symmetry_group_IT_number 15
_symmetry_cell_setting 'monoclinic'
loop_
_space_group_symop_operation_xyz
x,y,z
-x,y,1/2-z
-x,-y,-z
x,-y,1/2+z
1/2+x,1/2+y,z
1/2-x,1/2+y,1/2-z
1/2-x,1/2-y,-z
1/2+x,1/2-y,1/2+z
loop_
_atom_site_type_symbol
_atom_site_label
_atom_site_fract_x
_atom_site_fract_y
_atom_site_fract_z
Si Si1 0.696378 0.693658 0.002479
Si Si2 0.814292 0.314970 0.118104
Si Si3 0.502082 0.057579 0.360232
Si Si4 0.510051 0.746631 0.160409
Si Si5 0.701097 0.065340 0.251872
Si Si6 0.384491 0.472622 0.719823
Si Si7 0.858345 0.490313 0.505456
Si Si8 0.421074 0.738085 0.885176
O O1 0.732031 0.646902 0.143045
O O2 0.648473 0.827772 0.958642
O O3 0.750000 0.750000 0.000000
O O4 0.654834 0.556750 0.910530
O O5 0.799906 0.425735 0.182324
O O6 0.849932 0.176583 0.209701
O O7 0.750000 0.250000 0.000000
O O8 0.854496 0.388543 0.083641
O O9 0.500000 0.109348 0.250000
O O10 0.575947 0.009686 0.470082
O O11 0.477018 0.193229 0.391224
O O12 0.462583 0.907732 0.343477
O O13 0.500000 0.810209 0.250000
O O14 0.548509 0.595912 0.226106
O O15 0.447078 0.708789 0.021901
O O16 0.641924 0.167637 0.200836
O O17 0.698651 0.020172 0.139955
O O18 0.399321 0.576879 0.824728
#
# Coordination Sequence:
#
# PCOD8153371 Si02
#       8
#     8   8   8   8   8   8   8   8
#     4  12  24  50  73 103 145 194 242 312 369 434
#     4  12  25  48  71 107 149 194 238 302 380 430
#     4  11  23  45  74 104 142 194 250 296 363 450
#     4  11  25  46  68 105 149 193 240 303 373 442
#     4  12  26  47  77 108 147 193 250 301 370 455
#     4  12  25  43  74 101 145 192 242 303 373 430
#     4  12  27  47  75 109 142 196 249 301 370 448
#     4  12  25  47  74 109 146 196 244 311 368 441
#
# _framework density 23.442641999999999
#
# number of rings (size 3 to 8) (size 9 to 14) (size 15 to 20)
#    0.000    0.250    5.000    4.500    3.500    1.500 
#    2.250    0.000    0.000    0.000    0.000    0.000 
#    0.000    0.000    0.000    0.000    0.000    0.000 
#
# Total GULP energy -396456.492380 kJ/mol
# GULP energy per Si atom -12389.265387 kJ/mol
# Density = 2.338929 g / cm^3
# Si number density = 23.442642 Si / 1000 Ang^3
#
#
#
# Elastic Constant Matrix: (Units=GPa)
#
#
# Indices 1 2 3 4 5 6 
#
# 1 49.9716 37.6496 17.9098 0.0000 7.8043 0.0000
# 2 37.6496 155.8767 47.3529 0.0000 8.4033 0.0000
# 3 17.9098 47.3529 148.5762 0.0000 5.8761 0.0000
# 4 0.0000 0.0000 0.0000 49.6059 0.0000 6.0610
# 5 7.8043 8.4033 5.8761 0.0000 35.7340 0.0000
# 6 0.0000 0.0000 0.0000 6.0610 0.0000 -6.1986
#
#
#
# Elastic Compliance Matrix: (Units=1/GPa)
#
#
# Indices 1 2 3 4 5 6 
#
# 1 0.025208 -0.005533 -0.001116 0.000000 -0.004021 0.000000
# 2 -0.005533 0.008379 -0.001986 0.000000 -0.000435 0.000000
# 3 -0.001116 -0.001986 0.007519 0.000000 -0.000526 0.000000
# 4 0.000000 0.000000 0.000000 0.018008 0.000000 0.017608
# 5 -0.004021 -0.000435 -0.000526 0.000000 0.029051 0.000000
# 6 0.000000 0.000000 0.000000 0.017608 0.000000 -0.144110
#
#
# Mechanical properties :
#
#
# Convention : Reuss Voigt Hill
#
# Bulk Modulus (GPa) = 41.95525 62.24993 52.10259
# Shear Modulus (GPa) = -162.70583 32.59574 -65.05505
#
# Velocity S-wave (km/s) = -8.34006 3.73291 -5.27361
# Velocity P-wave (km/s) = 8.64906 6.72245 3.84805
#
# Compressibility (1/GPa) = 0.02383492
#
# Stress axis : x y z
#
# Youngs Moduli (GPa) = 39.67027 119.35301 132.99794
#
# Poissons Ratio (x) = 0.66034 0.14846
# Poissons Ratio (y) = 0.21948 0.26416
# Poissons Ratio (z) = 0.04428 0.23706
#
# Static dielectric constant tensor:
#      x y z
#    x 4.106000 0.000000 0.153890 
#    y 0.000000 4.606770 0.000000 
#    z 0.153890 0.000000 4.831320 
# 
# 
# High freq. dielectric constant tensor:
#      x y z
#    x 1.893600 0.000000 0.011460 
#    y 0.000000 1.946030 0.000000 
#    z 0.011460 0.000000 1.954190 
# 
# From -- ./inp_files/181188.got.cif
#   From: 2010.06.25/outbox.cif.g09.slc.cpg/sg15_91_cif.got.tgz:181188.got - 2010.06.28 07:06:18.
