data_PCOD8153121
_publ_section_title
;
Structure prediction by ZEFSAII (Michael W. Deem and Ramdas Pophale) SiO2 
 PCOD8153121
Probable space group: C 2/C
;
_chemical_formula_sum "Si O2"
_cell_formula_units_Z 48
_cell_length_a 12.038588
_cell_length_b 21.658032
_cell_length_c 8.093880
_cell_angle_alpha 90.000000
_cell_angle_beta 90.206146
_cell_angle_gamma 90.000000
_cell_volume 2110.320866
_symmetry_space_group_name_H-M "C 2/C"
_symmetry_group_IT_number 15
_symmetry_cell_setting 'monoclinic'
loop_
_space_group_symop_operation_xyz
x,y,z
-x,y,1/2-z
-x,-y,-z
x,-y,1/2+z
1/2+x,1/2+y,z
1/2-x,1/2+y,1/2-z
1/2-x,1/2-y,-z
1/2+x,1/2-y,1/2+z
loop_
_atom_site_type_symbol
_atom_site_label
_atom_site_fract_x
_atom_site_fract_y
_atom_site_fract_z
Si Si1 0.790821 0.684252 0.936307
Si Si2 0.142082 0.909860 0.561668
Si Si3 0.525919 0.181876 0.062169
Si Si4 0.627438 0.527032 0.743238
Si Si5 0.750257 0.634381 0.578981
Si Si6 0.956713 0.186767 0.068374
O O1 0.743636 0.637097 0.073422
O O2 0.744357 0.672741 0.751660
O O3 0.750000 0.750000 0.000000
O O4 0.921756 0.672409 0.939800
O O5 0.172271 0.961034 0.425515
O O6 0.033719 0.869878 0.510793
O O7 0.129729 0.952297 0.723342
O O8 0.500000 0.162855 0.250000
O O9 0.625733 0.138981 0.994336
O O10 0.546516 0.255361 0.055060
O O11 0.500000 0.549903 0.750000
O O12 0.706052 0.565081 0.615968
O O13 0.670239 0.663386 0.437479
O O14 0.000000 0.207175 0.250000
#
# Coordination Sequence:
#
# PCOD8153121 Si02
#       6
#     8   8   8   8   8   8
#     4  11  23  45  73 101 146 190 238 296 361 433
#     4  11  25  40  72 102 145 181 236 295 360 425
#     4  12  27  44  70 101 144 189 240 296 359 432
#     4  11  23  43  66 104 140 182 230 297 354 424
#     4  11  26  45  67 102 145 188 237 297 356 432
#     4  12  25  41  68 103 140 183 237 294 361 424
#
# _framework density 22.745356999999998
#
# number of rings (size 3 to 8) (size 9 to 14) (size 15 to 20)
#    0.000    0.667    3.333    4.000    7.000    0.000 
#    0.000    0.833    0.000    0.000    0.000    0.000 
#    0.000    0.000    0.000    0.000    0.000    0.000 
#
# Total GULP energy -297337.591596 kJ/mol
# GULP energy per Si atom -12389.066316 kJ/mol
# Density = 2.269359 g / cm^3
# Si number density = 22.745357 Si / 1000 Ang^3
#
#
#
# Elastic Constant Matrix: (Units=GPa)
#
#
# Indices 1 2 3 4 5 6 
#
# 1 159.8211 44.9231 10.8369 0.0000 -14.8027 0.0000
# 2 44.9231 118.3898 14.7637 0.0000 -23.2059 0.0000
# 3 10.8369 14.7637 60.0208 0.0000 -18.3266 0.0000
# 4 0.0000 0.0000 0.0000 26.1623 0.0000 -5.9955
# 5 -14.8027 -23.2059 -18.3266 0.0000 37.7908 0.0000
# 6 0.0000 0.0000 0.0000 -5.9955 0.0000 26.7742
#
#
#
# Elastic Compliance Matrix: (Units=1/GPa)
#
#
# Indices 1 2 3 4 5 6 
#
# 1 0.007063 -0.002419 -0.000339 0.000000 0.001117 0.000000
# 2 -0.002419 0.010453 -0.000544 0.000000 0.005207 0.000000
# 3 -0.000339 -0.000544 0.019618 0.000000 0.009047 0.000000
# 4 0.000000 0.000000 0.000000 0.040291 0.000000 0.009022
# 5 0.001117 0.005207 0.009047 0.000000 0.034484 0.000000
# 6 0.000000 0.000000 0.000000 0.009022 0.000000 0.039370
#
#
# Mechanical properties :
#
#
# Convention : Reuss Voigt Hill
#
# Bulk Modulus (GPa) = 32.75534 53.25322 43.00428
# Shear Modulus (GPa) = 29.75112 35.99265 32.87188
#
# Velocity S-wave (km/s) = 3.62056 3.98228 3.80572
# Velocity P-wave (km/s) = 5.64890 6.67895 6.18540
#
# Compressibility (1/GPa) = 0.03052938
#
# Stress axis : x y z
#
# Youngs Moduli (GPa) = 141.57529 95.66483 50.97257
#
# Poissons Ratio (x) = 0.23141 0.01730
# Poissons Ratio (y) = 0.34247 0.02775
# Poissons Ratio (z) = 0.04804 0.05209
#
# Static dielectric constant tensor:
#      x y z
#    x 4.234560 0.000000 -0.016440 
#    y 0.000000 4.128020 0.000000 
#    z -0.016440 0.000000 4.115560 
# 
# 
# High freq. dielectric constant tensor:
#      x y z
#    x 1.891250 0.000000 -0.001640 
#    y 0.000000 1.892210 0.000000 
#    z -0.001640 0.000000 1.904810 
# 
# From -- ./inp_files/32026.got.cif
#   From: 2010.06.25/outbox.cif.g09.slc.cpg/sg15_17_cif.got.tgz:32026.got - 2010.06.28 07:06:18.
