data_PCOD8153114
_publ_section_title
;
Structure prediction by ZEFSAII (Michael W. Deem and Ramdas Pophale) SiO2 
 PCOD8153114
Probable space group: C 2/C
;
_chemical_formula_sum "Si O2"
_cell_formula_units_Z 48
_cell_length_a 22.606984
_cell_length_b 9.343712
_cell_length_c 12.416885
_cell_angle_alpha 90.000000
_cell_angle_beta 118.007942
_cell_angle_gamma 90.000000
_cell_volume 2315.675190
_symmetry_space_group_name_H-M "C 2/C"
_symmetry_group_IT_number 15
_symmetry_cell_setting 'monoclinic'
loop_
_space_group_symop_operation_xyz
x,y,z
-x,y,1/2-z
-x,-y,-z
x,-y,1/2+z
1/2+x,1/2+y,z
1/2-x,1/2+y,1/2-z
1/2-x,1/2-y,-z
1/2+x,1/2-y,1/2+z
loop_
_atom_site_type_symbol
_atom_site_label
_atom_site_fract_x
_atom_site_fract_y
_atom_site_fract_z
Si Si1 0.895691 0.583219 0.927635
Si Si2 0.724163 0.905111 0.745859
Si Si3 0.982190 0.348463 0.110897
Si Si4 0.183016 0.111764 0.772715
Si Si5 0.930979 0.939151 0.479737
Si Si6 0.664549 0.348603 0.501221
O O1 0.846977 0.487123 0.810665
O O2 0.948375 0.661330 0.895279
O O3 0.938110 0.488115 0.047485
O O4 0.851258 0.697450 0.955230
O O5 0.712161 0.735912 0.718543
O O6 0.768112 0.973358 0.686145
O O7 0.768805 0.922679 0.892422
O O8 0.000000 0.350534 0.250000
O O9 0.937388 0.212287 0.043604
O O10 0.111104 0.068480 0.666267
O O11 0.176985 0.177879 0.886135
O O12 0.897797 0.045041 0.538121
O O13 0.000000 0.000000 0.500000
#
# Coordination Sequence:
#
# PCOD8153114 Si02
#       6
#     8   8   8   8   8   8
#     4  11  24  44  64  98 136 168 221 269 317 396
#     4  11  23  43  65  96 130 164 219 272 314 392
#     4  11  26  42  66  97 133 175 214 270 326 381
#     4  11  25  44  69  94 129 174 216 270 328 386
#     4  11  24  45  64  98 133 164 221 273 317 392
#     4  11  25  42  71  95 128 178 215 264 334 386
#
# _framework density 20.728296
#
# number of rings (size 3 to 8) (size 9 to 14) (size 15 to 20)
#    0.000    1.000    5.000    0.500    4.667    0.000 
#    0.000    1.667    0.000    0.000    0.000    0.000 
#    0.000    0.000    0.000    0.000    0.000    0.000 
#
# Total GULP energy -297609.425965 kJ/mol
# GULP energy per Si atom -12400.392749 kJ/mol
# Density = 2.068112 g / cm^3
# Si number density = 20.728296 Si / 1000 Ang^3
#
#
#
# Elastic Constant Matrix: (Units=GPa)
#
#
# Indices 1 2 3 4 5 6 
#
# 1 90.9244 31.4375 40.0764 0.0000 9.1895 0.0000
# 2 31.4375 74.3641 23.1055 0.0000 -14.3307 0.0000
# 3 40.0764 23.1055 93.1192 0.0000 -4.0236 0.0000
# 4 0.0000 0.0000 0.0000 30.3061 0.0000 8.4410
# 5 9.1895 -14.3307 -4.0236 0.0000 34.0105 0.0000
# 6 0.0000 0.0000 0.0000 8.4410 0.0000 32.5949
#
#
#
# Elastic Compliance Matrix: (Units=1/GPa)
#
#
# Indices 1 2 3 4 5 6 
#
# 1 0.016764 -0.006823 -0.005872 0.000000 -0.008099 0.000000
# 2 -0.006823 0.018556 -0.001256 0.000000 0.009514 0.000000
# 3 -0.005872 -0.001256 0.013693 0.000000 0.002677 0.000000
# 4 0.000000 0.000000 0.000000 0.035562 0.000000 -0.009209
# 5 -0.008099 0.009514 0.002677 0.000000 0.035917 0.000000
# 6 0.000000 0.000000 0.000000 -0.009209 0.000000 0.033065
#
#
# Mechanical properties :
#
#
# Convention : Reuss Voigt Hill
#
# Bulk Modulus (GPa) = 47.37116 49.73852 48.55484
# Shear Modulus (GPa) = 26.52579 30.30153 28.41366
#
# Velocity S-wave (km/s) = 3.58116 3.82755 3.70640
# Velocity P-wave (km/s) = 6.32476 6.60160 6.46466
#
# Compressibility (1/GPa) = 0.02110989
#
# Stress axis : x y z
#
# Youngs Moduli (GPa) = 59.65158 53.89169 73.02777
#
# Poissons Ratio (x) = 0.36773 0.42880
# Poissons Ratio (y) = 0.40703 0.09176
# Poissons Ratio (z) = 0.35026 0.06771
#
# Static dielectric constant tensor:
#      x y z
#    x 3.912950 0.000000 0.285990 
#    y 0.000000 4.064070 0.000000 
#    z 0.285990 0.000000 3.630560 
# 
# 
# High freq. dielectric constant tensor:
#      x y z
#    x 1.819980 0.000000 0.026620 
#    y 0.000000 1.824570 0.000000 
#    z 0.026620 0.000000 1.800860 
# 
# From -- ./inp_files/116799.got.cif
#   From: 2010.06.25/outbox.cif.g09.slc.cpg/sg15_59_cif.got.tgz:116799.got - 2010.06.28 07:06:18.
