data_PCOD8153655
_publ_section_title
;
Structure prediction by ZEFSAII (Michael W. Deem and Ramdas Pophale) SiO2 
 PCOD8153655
Probable space group: C 2/C
;
_chemical_formula_sum "Si O2"
_cell_formula_units_Z 40
_cell_length_a 29.382212
_cell_length_b 7.587796
_cell_length_c 9.068116
_cell_angle_alpha 90.000000
_cell_angle_beta 133.534514
_cell_angle_gamma 90.000000
_cell_volume 1465.652450
_symmetry_space_group_name_H-M "C 2/C"
_symmetry_group_IT_number 15
_symmetry_cell_setting 'monoclinic'
loop_
_space_group_symop_operation_xyz
x,y,z
-x,y,1/2-z
-x,-y,-z
x,-y,1/2+z
1/2+x,1/2+y,z
1/2-x,1/2+y,1/2-z
1/2-x,1/2-y,-z
1/2+x,1/2-y,1/2+z
loop_
_atom_site_type_symbol
_atom_site_label
_atom_site_fract_x
_atom_site_fract_y
_atom_site_fract_z
Si Si1 0.223548 0.865696 0.297094
Si Si2 0.519922 0.273502 0.452874
Si Si3 0.817414 0.497785 0.790645
Si Si4 0.052578 0.625123 0.975907
Si Si5 0.155226 0.841240 0.834383
O O1 0.228413 0.660719 0.375409
O O2 0.292216 0.929117 0.391160
O O3 0.191537 0.008070 0.328666
O O4 0.179227 0.843902 0.053981
O O5 0.500000 0.350494 0.250000
O O6 0.455859 0.267742 0.409111
O O7 0.579794 0.377884 0.653284
O O8 0.541343 0.073090 0.500160
O O9 0.824953 0.653700 0.691706
O O10 0.880514 0.380840 0.955477
O O11 0.000000 0.695077 0.750000
#
# Coordination Sequence:
#
# PCOD8153655 Si02
#       5
#     8   8   8   8   8
#     4  12  26  46  70 108 142 194 233 294 362 418
#     4   9  19  39  66  98 134 178 227 288 348 412
#     4  11  24  43  73 102 143 185 237 294 350 425
#     4   9  18  37  67 101 131 177 228 284 352 414
#     4  11  26  47  71 106 148 183 243 292 355 432
#
# _framework density 27.291598
#
# number of rings (size 3 to 8) (size 9 to 14) (size 15 to 20)
#    0.000    1.600    2.000    1.800    0.000    8.800 
#    0.000    5.000    0.000    0.000    0.000    0.000 
#    0.000    0.000    0.000    0.000    0.000    0.000 
#
# Total GULP energy -247786.773271 kJ/mol
# GULP energy per Si atom -12389.338664 kJ/mol
# Density = 2.722948 g / cm^3
# Si number density = 27.291598 Si / 1000 Ang^3
#
#
#
# Elastic Constant Matrix: (Units=GPa)
#
#
# Indices 1 2 3 4 5 6 
#
# 1 171.6763 61.8285 56.2499 0.0000 26.7707 0.0000
# 2 61.8285 137.4921 49.5492 0.0000 -10.4628 0.0000
# 3 56.2499 49.5492 93.6380 0.0000 10.7488 0.0000
# 4 0.0000 0.0000 0.0000 34.7761 0.0000 -7.6936
# 5 26.7707 -10.4628 10.7488 0.0000 35.9682 0.0000
# 6 0.0000 0.0000 0.0000 -7.6936 0.0000 -86.4534
#
#
#
# Elastic Compliance Matrix: (Units=1/GPa)
#
#
# Indices 1 2 3 4 5 6 
#
# 1 0.009141 -0.003657 -0.002747 0.000000 -0.007046 0.000000
# 2 -0.003657 0.011100 -0.004515 0.000000 0.007300 0.000000
# 3 -0.002747 -0.004515 0.015155 0.000000 -0.003798 0.000000
# 4 0.000000 0.000000 0.000000 0.028200 0.000000 -0.002510
# 5 -0.007046 0.007300 -0.003798 0.000000 0.036305 0.000000
# 6 0.000000 0.000000 0.000000 -0.002510 0.000000 -0.011344
#
#
# Mechanical properties :
#
#
# Convention : Reuss Voigt Hill
#
# Bulk Modulus (GPa) = 73.75811 82.00686 77.88248
# Shear Modulus (GPa) = 43.51074 12.53675 28.02374
#
# Velocity S-wave (km/s) = 3.99719 2.14560 3.20789
# Velocity P-wave (km/s) = 6.95615 6.02094 6.50537
#
# Compressibility (1/GPa) = 0.01355783
#
# Stress axis : x y z
#
# Youngs Moduli (GPa) = 109.40105 90.08928 65.98554
#
# Poissons Ratio (x) = 0.32942 0.18128
# Poissons Ratio (y) = 0.40003 0.29793
# Poissons Ratio (z) = 0.30055 0.40676
#
# Static dielectric constant tensor:
#      x y z
#    x 6.120840 0.000000 0.202880 
#    y 0.000000 5.017760 0.000000 
#    z 0.202880 0.000000 5.513370 
# 
# 
# High freq. dielectric constant tensor:
#      x y z
#    x 2.115620 0.000000 -0.002650 
#    y 0.000000 2.107010 0.000000 
#    z -0.002650 0.000000 2.115100 
# 
# From -- ./inp_files/68446.got.cif
#   From: 2010.06.25/outbox.cif.g09.slc.cpg/sg15_35_cif.got.tgz:68446.got - 2010.06.28 07:06:18.
