data_PCOD8153274
_publ_section_title
;
Structure prediction by ZEFSAII (Michael W. Deem and Ramdas Pophale) SiO2 
 PCOD8153274
Probable space group: C 2/C
;
_chemical_formula_sum "Si O2"
_cell_formula_units_Z 56
_cell_length_a 11.647754
_cell_length_b 27.409024
_cell_length_c 8.716974
_cell_angle_alpha 90.000000
_cell_angle_beta 63.749884
_cell_angle_gamma 90.000000
_cell_volume 2495.927136
_symmetry_space_group_name_H-M "C 2/C"
_symmetry_group_IT_number 15
_symmetry_cell_setting 'monoclinic'
loop_
_space_group_symop_operation_xyz
x,y,z
-x,y,1/2-z
-x,-y,-z
x,-y,1/2+z
1/2+x,1/2+y,z
1/2-x,1/2+y,1/2-z
1/2-x,1/2-y,-z
1/2+x,1/2-y,1/2+z
loop_
_atom_site_type_symbol
_atom_site_label
_atom_site_fract_x
_atom_site_fract_y
_atom_site_fract_z
Si Si1 0.263084 0.696588 0.555486
Si Si2 0.557577 0.183120 0.915694
Si Si3 0.240538 0.853733 0.992129
Si Si4 0.862803 0.043368 0.406450
Si Si5 0.006780 0.216611 0.576258
Si Si6 0.309361 0.123060 0.122590
Si Si7 0.133971 0.939301 0.232227
O O1 0.250000 0.750000 0.500000
O O2 0.128355 0.678706 0.709797
O O3 0.374803 0.688301 0.614360
O O4 0.288246 0.662725 0.393000
O O5 0.656594 0.183035 0.999012
O O6 0.507421 0.238900 0.955204
O O7 0.453881 0.139901 0.995216
O O8 0.118826 0.823165 0.004472
O O9 0.226706 0.894994 0.132395
O O10 0.297685 0.880574 0.810973
O O11 0.737951 0.071807 0.418500
O O12 0.870236 0.049960 0.584751
O O13 0.000000 0.059223 0.250000
O O14 0.831777 0.987699 0.383410
O O15 0.000000 0.238947 0.750000
O O16 0.000000 0.919247 0.250000
#
# Coordination Sequence:
#
# PCOD8153274 Si02
#       7
#     8   8   8   8   8   8   8
#     4  12  26  44  66  98 137 183 237 298 349 415
#     4  12  26  46  65  97 141 189 233 290 347 431
#     4  12  25  43  71  98 138 184 238 289 350 418
#     4  11  24  44  72 106 143 181 233 296 359 418
#     4  12  25  42  68  96 134 184 243 288 352 406
#     4  12  26  42  67  99 142 184 229 284 358 424
#     4  11  23  44  71 106 140 179 235 300 354 417
#
# _framework density 22.436553
#
# number of rings (size 3 to 8) (size 9 to 14) (size 15 to 20)
#    0.000    0.286    2.857    7.714    4.000    1.143 
#    0.000    0.714    0.000    1.714    0.000    0.000 
#    0.000    0.000    0.000    0.000    0.000    0.000 
#
# Total GULP energy -347105.848649 kJ/mol
# GULP energy per Si atom -12396.637452 kJ/mol
# Density = 2.238549 g / cm^3
# Si number density = 22.436553 Si / 1000 Ang^3
#
#
#
# Elastic Constant Matrix: (Units=GPa)
#
#
# Indices 1 2 3 4 5 6 
#
# 1 96.9379 22.3681 37.5017 0.0000 -17.1801 0.0000
# 2 22.3681 76.4146 34.5654 0.0000 -15.2126 0.0000
# 3 37.5017 34.5654 136.6360 0.0000 15.2149 0.0000
# 4 0.0000 0.0000 0.0000 31.6247 0.0000 18.3936
# 5 -17.1801 -15.2126 15.2149 0.0000 38.9024 0.0000
# 6 0.0000 0.0000 0.0000 18.3936 0.0000 11.7810
#
#
#
# Elastic Compliance Matrix: (Units=1/GPa)
#
#
# Indices 1 2 3 4 5 6 
#
# 1 0.013455 -0.000451 -0.004413 0.000000 0.007492 0.000000
# 2 -0.000451 0.017285 -0.005206 0.000000 0.008596 0.000000
# 3 -0.004413 -0.005206 0.010759 0.000000 -0.008193 0.000000
# 4 0.000000 0.000000 0.000000 0.343996 0.000000 -0.537077
# 5 0.007492 0.008596 -0.008193 0.000000 0.035579 0.000000
# 6 0.000000 0.000000 0.000000 -0.537077 0.000000 0.923415
#
#
# Mechanical properties :
#
#
# Convention : Reuss Voigt Hill
#
# Bulk Modulus (GPa) = 46.81898 55.42878 51.12388
# Shear Modulus (GPa) = 3.64498 30.83185 17.23842
#
# Velocity S-wave (km/s) = 1.27597 3.71101 2.77486
# Velocity P-wave (km/s) = 4.80452 6.56662 5.75343
#
# Compressibility (1/GPa) = 0.02135886
#
# Stress axis : x y z
#
# Youngs Moduli (GPa) = 74.32254 57.85460 92.94370
#
# Poissons Ratio (x) = 0.02609 0.41016
# Poissons Ratio (y) = 0.03351 0.48387
# Poissons Ratio (z) = 0.32799 0.30119
#
# Static dielectric constant tensor:
#      x y z
#    x 4.237120 0.000000 -0.018460 
#    y 0.000000 4.014840 0.000000 
#    z -0.018460 0.000000 3.651690 
# 
# 
# High freq. dielectric constant tensor:
#      x y z
#    x 1.896710 0.000000 0.020490 
#    y 0.000000 1.876000 0.000000 
#    z 0.020490 0.000000 1.893580 
# 
# From -- ./inp_files/35570.got.cif
#   From: 2010.06.25/outbox.cif.g09.slc.cpg/sg15_18_cif.got.tgz:35570.got - 2010.06.28 07:06:18.
