data_PCOD8153549
_publ_section_title
;
Structure prediction by ZEFSAII (Michael W. Deem and Ramdas Pophale) SiO2 
 PCOD8153549
Probable space group: C 2/C
;
_chemical_formula_sum "Si O2"
_cell_formula_units_Z 40
_cell_length_a 17.642716
_cell_length_b 7.750047
_cell_length_c 12.909915
_cell_angle_alpha 90.000000
_cell_angle_beta 80.084506
_cell_angle_gamma 90.000000
_cell_volume 1738.829820
_symmetry_space_group_name_H-M "C 2/C"
_symmetry_group_IT_number 15
_symmetry_cell_setting 'monoclinic'
loop_
_space_group_symop_operation_xyz
x,y,z
-x,y,1/2-z
-x,-y,-z
x,-y,1/2+z
1/2+x,1/2+y,z
1/2-x,1/2+y,1/2-z
1/2-x,1/2-y,-z
1/2+x,1/2-y,1/2+z
loop_
_atom_site_type_symbol
_atom_site_label
_atom_site_fract_x
_atom_site_fract_y
_atom_site_fract_z
Si Si1 0.434675 0.362283 0.035534
Si Si2 0.794964 0.752297 0.384119
Si Si3 0.038207 0.356148 0.640772
Si Si4 0.076807 0.749557 0.681999
Si Si5 0.186197 0.963330 0.782335
O O1 0.477067 0.183725 0.063160
O O2 0.369641 0.424344 0.130834
O O3 0.500000 0.500000 0.000000
O O4 0.396174 0.331040 0.933160
O O5 0.750000 0.750000 0.500000
O O6 0.882611 0.739769 0.399516
O O7 0.784611 0.926571 0.321729
O O8 0.763309 0.591972 0.324268
O O9 0.057734 0.552267 0.662334
O O10 0.000000 0.267666 0.750000
O O11 0.000000 0.835228 0.750000
O O12 0.143947 0.789829 0.749396
#
# Coordination Sequence:
#
# PCOD8153549 Si02
#       5
#     8   8   8   8   8
#     4  12  23  42  73 104 140 186 246 301 358 433
#     4  12  27  46  72 104 148 191 242 302 368 436
#     4  11  24  46  71 103 139 187 243 295 358 436
#     4  11  24  41  70 104 140 184 242 298 360 430
#     4  12  25  46  70 104 150 192 238 302 367 430
#
# _framework density 23.003978
#
# number of rings (size 3 to 8) (size 9 to 14) (size 15 to 20)
#    0.000    0.400    4.000    5.400    0.000    1.600 
#    0.000    4.000    0.000    0.000    0.000    0.000 
#    0.000    0.000    0.000    0.000    0.000    0.000 
#
# Total GULP energy -247890.757620 kJ/mol
# GULP energy per Si atom -12394.537881 kJ/mol
# Density = 2.295162 g / cm^3
# Si number density = 23.003978 Si / 1000 Ang^3
#
#
#
# Elastic Constant Matrix: (Units=GPa)
#
#
# Indices 1 2 3 4 5 6 
#
# 1 89.4717 9.9954 29.7282 0.0000 2.1118 0.0000
# 2 9.9954 80.9729 24.8995 0.0000 -3.6542 0.0000
# 3 29.7282 24.8995 140.4623 0.0000 -8.5483 0.0000
# 4 0.0000 0.0000 0.0000 33.5895 0.0000 8.0930
# 5 2.1118 -3.6542 -8.5483 0.0000 40.2631 0.0000
# 6 0.0000 0.0000 0.0000 8.0930 0.0000 38.6226
#
#
#
# Elastic Compliance Matrix: (Units=1/GPa)
#
#
# Indices 1 2 3 4 5 6 
#
# 1 0.012125 -0.000783 -0.002503 0.000000 -0.001238 0.000000
# 2 -0.000783 0.013132 -0.002114 0.000000 0.000784 0.000000
# 3 -0.002503 -0.002114 0.008125 0.000000 0.001664 0.000000
# 4 0.000000 0.000000 0.000000 0.031354 0.000000 -0.006570
# 5 -0.001238 0.000784 0.001664 0.000000 0.025326 0.000000
# 6 0.000000 0.000000 0.000000 -0.006570 0.000000 0.027268
#
#
# Mechanical properties :
#
#
# Convention : Reuss Voigt Hill
#
# Bulk Modulus (GPa) = 44.28354 48.90590 46.59472
# Shear Modulus (GPa) = 36.85725 38.91395 37.88560
#
# Velocity S-wave (km/s) = 4.00711 4.11739 4.06262
# Velocity P-wave (km/s) = 6.37976 6.62645 6.50427
#
# Compressibility (1/GPa) = 0.02258175
#
# Stress axis : x y z
#
# Youngs Moduli (GPa) = 82.47429 76.14952 123.07436
#
# Poissons Ratio (x) = 0.05963 0.30803
# Poissons Ratio (y) = 0.06458 0.26024
# Poissons Ratio (z) = 0.20641 0.16102
#
# Static dielectric constant tensor:
#      x y z
#    x 4.283960 0.000000 0.054810 
#    y 0.000000 4.132250 0.000000 
#    z 0.054810 0.000000 5.382220 
# 
# 
# High freq. dielectric constant tensor:
#      x y z
#    x 1.907370 0.000000 0.000950 
#    y 0.000000 1.903270 0.000000 
#    z 0.000950 0.000000 1.928270 
# 
# From -- ./inp_files/102682.got.cif
#   From: 2010.06.25/outbox.cif.g09.slc.cpg/sg15_52_cif.got.tgz:102682.got - 2010.06.28 07:06:18.
