data_PCOD8153812
_publ_section_title
;
Structure prediction by ZEFSAII (Michael W. Deem and Ramdas Pophale) SiO2 
 PCOD8153812
Probable space group: C 2/C
;
_chemical_formula_sum "Si O2"
_cell_formula_units_Z 56
_cell_length_a 31.909365
_cell_length_b 14.344839
_cell_length_c 12.948378
_cell_angle_alpha 90.000000
_cell_angle_beta 25.351271
_cell_angle_gamma 90.000000
_cell_volume 2537.710669
_symmetry_space_group_name_H-M "C 2/C"
_symmetry_group_IT_number 15
_symmetry_cell_setting 'monoclinic'
loop_
_space_group_symop_operation_xyz
x,y,z
-x,y,1/2-z
-x,-y,-z
x,-y,1/2+z
1/2+x,1/2+y,z
1/2-x,1/2+y,1/2-z
1/2-x,1/2-y,-z
1/2+x,1/2-y,1/2+z
loop_
_atom_site_type_symbol
_atom_site_label
_atom_site_fract_x
_atom_site_fract_y
_atom_site_fract_z
Si Si1 0.051515 0.295272 0.833056
Si Si2 0.544456 0.611761 0.457109
Si Si3 0.932929 0.556073 0.499115
Si Si4 0.064940 0.073674 0.009348
Si Si5 0.273149 0.295280 0.268090
Si Si6 0.238393 0.828243 0.438647
Si Si7 0.417983 0.844695 0.518290
O O1 0.159074 0.302128 0.546603
O O2 0.052217 0.277077 0.954125
O O3 0.996080 0.394297 0.946863
O O4 0.987197 0.212368 0.924158
O O5 0.465672 0.595016 0.541101
O O6 0.553465 0.539161 0.532654
O O7 0.650831 0.606323 0.169377
O O8 0.832464 0.609593 0.709270
O O9 0.906100 0.449884 0.584519
O O10 0.000000 0.563846 0.250000
O O11 0.000000 0.112324 0.250000
O O12 0.172070 0.117196 0.797018
O O13 0.290920 0.287563 0.106561
O O14 0.313632 0.194902 0.214394
O O15 0.250000 0.750000 0.500000
O O16 0.500000 0.834248 0.250000
#
# Coordination Sequence:
#
# PCOD8153812 Si02
#       7
#     8   8   8   8   8   8   8
#     4  12  24  46  71 102 142 182 234 288 352 419
#     4  11  25  42  71 102 136 183 231 294 355 415
#     4  11  25  46  66 102 145 181 232 291 351 423
#     4  11  24  45  71 100 140 181 235 294 351 419
#     4  12  25  45  74 102 139 185 237 293 349 422
#     4  12  25  45  71 101 141 184 237 286 355 423
#     4  11  25  44  72 102 137 184 234 286 351 415
#
# _framework density 22.067132999999998
#
# number of rings (size 3 to 8) (size 9 to 14) (size 15 to 20)
#    0.000    0.571    5.714    2.143    2.000    2.857 
#    2.571    0.000    0.000    0.000    0.000    0.000 
#    0.000    0.000    0.000    0.000    0.000    0.000 
#
# Total GULP energy -346966.357549 kJ/mol
# GULP energy per Si atom -12391.655627 kJ/mol
# Density = 2.201691 g / cm^3
# Si number density = 22.067133 Si / 1000 Ang^3
#
#
#
# Elastic Constant Matrix: (Units=GPa)
#
#
# Indices 1 2 3 4 5 6 
#
# 1 98.6026 38.7874 21.7450 0.0000 -3.0048 0.0000
# 2 38.7874 149.3716 39.3660 0.0000 -19.9614 0.0000
# 3 21.7450 39.3660 91.5754 0.0000 -21.1527 0.0000
# 4 0.0000 0.0000 0.0000 15.5494 0.0000 6.4316
# 5 -3.0048 -19.9614 -21.1527 0.0000 38.3904 0.0000
# 6 0.0000 0.0000 0.0000 6.4316 0.0000 30.3290
#
#
#
# Elastic Compliance Matrix: (Units=1/GPa)
#
#
# Indices 1 2 3 4 5 6 
#
# 1 0.011588 -0.002705 -0.001953 0.000000 -0.001575 0.000000
# 2 -0.002705 0.008388 -0.002297 0.000000 0.002884 0.000000
# 3 -0.001953 -0.002297 0.013819 0.000000 0.006267 0.000000
# 4 0.000000 0.000000 0.000000 0.070494 0.000000 -0.014949
# 5 -0.001575 0.002884 0.006267 0.000000 0.030877 0.000000
# 6 0.000000 0.000000 0.000000 -0.014949 0.000000 0.036142
#
#
# Mechanical properties :
#
#
# Convention : Reuss Voigt Hill
#
# Bulk Modulus (GPa) = 50.28967 59.92736 55.10852
# Shear Modulus (GPa) = 26.06238 32.83050 29.44644
#
# Velocity S-wave (km/s) = 3.44037 3.86133 3.65691
# Velocity P-wave (km/s) = 6.21453 6.86262 6.54660
#
# Compressibility (1/GPa) = 0.01988480
#
# Stress axis : x y z
#
# Youngs Moduli (GPa) = 86.29268 119.21828 72.36554
#
# Poissons Ratio (x) = 0.32249 0.14132
# Poissons Ratio (y) = 0.23343 0.16625
# Poissons Ratio (z) = 0.16851 0.27388
#
# Static dielectric constant tensor:
#      x y z
#    x 4.236880 0.000000 -0.082070 
#    y 0.000000 4.709890 0.000000 
#    z -0.082070 0.000000 3.830620 
# 
# 
# High freq. dielectric constant tensor:
#      x y z
#    x 1.871920 0.000000 -0.000100 
#    y 0.000000 1.877160 0.000000 
#    z -0.000100 0.000000 1.873450 
# 
# From -- ./inp_files/126988.got.cif
#   From: 2010.06.25/outbox.cif.g09.slc.cpg/sg15_64_cif.got.tgz:126988.got - 2010.06.28 07:06:18.
