data_PCOD8153775
_publ_section_title
;
Structure prediction by ZEFSAII (Michael W. Deem and Ramdas Pophale) SiO2 
 PCOD8153775
Probable space group: C 2/C
;
_chemical_formula_sum "Si O2"
_cell_formula_units_Z 40
_cell_length_a 32.047449
_cell_length_b 5.704477
_cell_length_c 9.507967
_cell_angle_alpha 90.000000
_cell_angle_beta 79.321672
_cell_angle_gamma 90.000000
_cell_volume 1708.088572
_symmetry_space_group_name_H-M "C 2/C"
_symmetry_group_IT_number 15
_symmetry_cell_setting 'monoclinic'
loop_
_space_group_symop_operation_xyz
x,y,z
-x,y,1/2-z
-x,-y,-z
x,-y,1/2+z
1/2+x,1/2+y,z
1/2-x,1/2+y,1/2-z
1/2-x,1/2-y,-z
1/2+x,1/2-y,1/2+z
loop_
_atom_site_type_symbol
_atom_site_label
_atom_site_fract_x
_atom_site_fract_y
_atom_site_fract_z
Si Si1 0.395269 0.106639 0.562908
Si Si2 0.403284 0.727443 0.351842
Si Si3 0.027754 0.901156 0.109228
Si Si4 0.225461 0.131123 0.757539
Si Si5 0.671156 0.428599 0.027431
O O1 0.400260 0.087313 0.727199
O O2 0.436179 0.232678 0.471952
O O3 0.350362 0.223862 0.551460
O O4 0.395376 0.843511 0.508035
O O5 0.449690 0.614525 0.322834
O O6 0.365681 0.542609 0.354824
O O7 0.000000 0.775285 0.250000
O O8 0.000000 0.000000 0.000000
O O9 0.251968 0.372064 0.764252
O O10 0.204114 0.176158 0.619062
O O11 0.192976 0.114768 0.908258
#
# Coordination Sequence:
#
# PCOD8153775 Si02
#       5
#     8   8   8   8   8
#     4  11  26  43  70 101 136 190 236 289 363 429
#     4  11  26  43  70 102 135 190 238 287 363 431
#     4  11  24  45  66  97 143 178 234 298 355 426
#     4  12  28  47  74 109 146 193 245 305 377 435
#     4  11  26  46  70  99 147 186 239 299 354 449
#
# _framework density 23.41799
#
# number of rings (size 3 to 8) (size 9 to 14) (size 15 to 20)
#    0.000    0.800    4.000    1.200   11.200    1.600 
#    0.000    0.000    0.000    0.000    0.000    0.000 
#    0.000    0.000    0.000    0.000    0.000    0.000 
#
# Total GULP energy -247902.992515 kJ/mol
# GULP energy per Si atom -12395.149626 kJ/mol
# Density = 2.336469 g / cm^3
# Si number density = 23.417990 Si / 1000 Ang^3
#
#
#
# Elastic Constant Matrix: (Units=GPa)
#
#
# Indices 1 2 3 4 5 6 
#
# 1 125.2452 24.9369 30.1282 0.0000 3.9884 0.0000
# 2 24.9369 69.0090 -8.4912 0.0000 -4.3088 0.0000
# 3 30.1282 -8.4912 95.4798 0.0000 5.9982 0.0000
# 4 0.0000 0.0000 0.0000 37.7193 0.0000 3.4001
# 5 3.9884 -4.3088 5.9982 0.0000 34.5378 0.0000
# 6 0.0000 0.0000 0.0000 3.4001 0.0000 16.6125
#
#
#
# Elastic Compliance Matrix: (Units=1/GPa)
#
#
# Indices 1 2 3 4 5 6 
#
# 1 0.009599 -0.003940 -0.003315 0.000000 -0.001024 0.000000
# 2 -0.003940 0.016359 0.002569 0.000000 0.002050 0.000000
# 3 -0.003315 0.002569 0.011833 0.000000 -0.001352 0.000000
# 4 0.000000 0.000000 0.000000 0.027010 0.000000 -0.005528
# 5 -0.001024 0.002050 -0.001352 0.000000 0.029563 0.000000
# 6 0.000000 0.000000 0.000000 -0.005528 0.000000 0.061327
#
#
# Mechanical properties :
#
#
# Convention : Reuss Voigt Hill
#
# Bulk Modulus (GPa) = 35.18808 42.54241 38.86525
# Shear Modulus (GPa) = 28.64750 33.98460 31.31605
#
# Velocity S-wave (km/s) = 3.50138 3.81362 3.66083
# Velocity P-wave (km/s) = 5.60401 6.13169 5.87378
#
# Compressibility (1/GPa) = 0.02841871
#
# Stress axis : x y z
#
# Youngs Moduli (GPa) = 104.17792 61.12873 84.51035
#
# Poissons Ratio (x) = 0.24088 0.28015
# Poissons Ratio (y) = 0.41051 -0.21715
# Poissons Ratio (z) = 0.34535 -0.15707
#
# Static dielectric constant tensor:
#      x y z
#    x 4.515570 0.000000 -0.038930 
#    y 0.000000 3.982790 0.000000 
#    z -0.038930 0.000000 4.281110 
# 
# 
# High freq. dielectric constant tensor:
#      x y z
#    x 1.946000 0.000000 0.001870 
#    y 0.000000 1.906250 0.000000 
#    z 0.001870 0.000000 1.944000 
# 
# From -- ./inp_files/124934.got.cif
#   From: 2010.06.25/outbox.cif.g09.slc.cpg/sg15_63_cif.got.tgz:124934.got - 2010.06.28 07:06:18.
