data_PCOD8153201
_publ_section_title
;
Structure prediction by ZEFSAII (Michael W. Deem and Ramdas Pophale) SiO2 
 PCOD8153201
Probable space group: C 2/C
;
_chemical_formula_sum "Si O2"
_cell_formula_units_Z 52
_cell_length_a 14.802048
_cell_length_b 12.474450
_cell_length_c 13.903364
_cell_angle_alpha 90.000000
_cell_angle_beta 117.829752
_cell_angle_gamma 90.000000
_cell_volume 2270.292040
_symmetry_space_group_name_H-M "C 2/C"
_symmetry_group_IT_number 15
_symmetry_cell_setting 'monoclinic'
loop_
_space_group_symop_operation_xyz
x,y,z
-x,y,1/2-z
-x,-y,-z
x,-y,1/2+z
1/2+x,1/2+y,z
1/2-x,1/2+y,1/2-z
1/2-x,1/2-y,-z
1/2+x,1/2-y,1/2+z
loop_
_atom_site_type_symbol
_atom_site_label
_atom_site_fract_x
_atom_site_fract_y
_atom_site_fract_z
Si Si1 0.607090 0.269219 0.997582
Si Si2 0.924089 0.925490 0.877774
Si Si3 0.725798 0.262346 0.765034
Si Si4 0.000000 0.086642 0.750000
Si Si5 0.202198 0.978013 0.019681
Si Si6 0.394040 0.887763 0.166425
Si Si7 0.207894 0.171112 0.897229
O O1 0.496297 0.326972 0.948357
O O2 0.596061 0.157716 0.936862
O O3 0.663101 0.242007 0.127348
O O4 0.681187 0.354350 0.977629
O O5 0.816972 0.880758 0.780763
O O6 0.893425 0.988329 0.960452
O O7 0.975209 0.007649 0.827518
O O8 0.633588 0.211601 0.779556
O O9 0.733523 0.194105 0.671212
O O10 0.086476 0.173302 0.820418
O O11 0.308166 0.979646 0.132135
O O12 0.223629 0.047949 0.936791
O O13 0.500000 0.941406 0.250000
O O14 0.250000 0.250000 0.000000
#
# Coordination Sequence:
#
# PCOD8153201 Si02
#       7
#     8   8   8   4   8   8   8
#     4  11  23  43  73 106 134 175 233 294 343 404
#     4  12  23  44  74 105 135 180 240 287 340 410
#     4  11  24  41  68 104 142 176 223 291 352 405
#     4  12  26  42  78 102 126 190 246 280 344 408
#     4  11  24  42  68 100 142 178 232 289 334 415
#     4  11  23  46  69 101 138 181 227 289 355 409
#     4  12  27  46  64 100 147 183 226 284 349 411
#
# _framework density 22.904541999999999
#
# number of rings (size 3 to 8) (size 9 to 14) (size 15 to 20)
#    0.000    0.615    4.615    5.077    4.308    0.000 
#    1.385    2.308    0.000    0.000    0.000    0.000 
#    0.000    0.000    0.000    0.000    0.000    0.000 
#
# Total GULP energy -322178.247074 kJ/mol
# GULP energy per Si atom -12391.471041 kJ/mol
# Density = 2.285241 g / cm^3
# Si number density = 22.904542 Si / 1000 Ang^3
#
#
#
# Elastic Constant Matrix: (Units=GPa)
#
#
# Indices 1 2 3 4 5 6 
#
# 1 96.8267 8.4302 33.6426 0.0000 12.7831 0.0000
# 2 8.4302 31.4691 12.7046 0.0000 -0.7464 0.0000
# 3 33.6426 12.7046 115.3539 0.0000 6.5133 0.0000
# 4 0.0000 0.0000 0.0000 37.5673 0.0000 12.7814
# 5 12.7831 -0.7464 6.5133 0.0000 50.4537 0.0000
# 6 0.0000 0.0000 0.0000 12.7814 0.0000 39.1992
#
#
#
# Elastic Compliance Matrix: (Units=1/GPa)
#
#
# Indices 1 2 3 4 5 6 
#
# 1 0.011933 -0.002004 -0.003110 0.000000 -0.002652 0.000000
# 2 -0.002004 0.033640 -0.003201 0.000000 0.001419 0.000000
# 3 -0.003110 -0.003201 0.009959 0.000000 -0.000545 0.000000
# 4 0.000000 0.000000 0.000000 0.029940 0.000000 -0.009762
# 5 -0.002652 0.001419 -0.000545 0.000000 0.020583 0.000000
# 6 0.000000 0.000000 0.000000 -0.009762 0.000000 0.028694
#
#
# Mechanical properties :
#
#
# Convention : Reuss Voigt Hill
#
# Bulk Modulus (GPa) = 25.70490 39.24493 32.47491
# Shear Modulus (GPa) = 30.42366 38.03552 34.22959
#
# Velocity S-wave (km/s) = 3.64851 4.07948 3.87000
# Velocity P-wave (km/s) = 5.38478 6.27382 5.84623
#
# Compressibility (1/GPa) = 0.03890309
#
# Stress axis : x y z
#
# Youngs Moduli (GPa) = 83.80300 29.72663 100.40973
#
# Poissons Ratio (x) = 0.05957 0.31225
# Poissons Ratio (y) = 0.16795 0.32137
# Poissons Ratio (z) = 0.26060 0.09514
#
# Static dielectric constant tensor:
#      x y z
#    x 4.183660 0.000000 0.331630 
#    y 0.000000 3.917180 0.000000 
#    z 0.331630 0.000000 4.510350 
# 
# 
# High freq. dielectric constant tensor:
#      x y z
#    x 1.900870 0.000000 0.019630 
#    y 0.000000 1.878250 0.000000 
#    z 0.019630 0.000000 1.926100 
# 
# From -- ./inp_files/152674.got.cif
#   From: 2010.06.25/outbox.cif.g09.slc.cpg/sg15_77_cif.got.tgz:152674.got - 2010.06.28 07:06:18.
