data_PCOD8153426
_publ_section_title
;
Structure prediction by ZEFSAII (Michael W. Deem and Ramdas Pophale) SiO2 
 PCOD8153426
Probable space group: C 2/C
;
_chemical_formula_sum "Si O2"
_cell_formula_units_Z 32
_cell_length_a 13.937825
_cell_length_b 11.077800
_cell_length_c 9.575251
_cell_angle_alpha 90.000000
_cell_angle_beta 105.727096
_cell_angle_gamma 90.000000
_cell_volume 1423.076214
_symmetry_space_group_name_H-M "C 2/C"
_symmetry_group_IT_number 15
_symmetry_cell_setting 'monoclinic'
loop_
_space_group_symop_operation_xyz
x,y,z
-x,y,1/2-z
-x,-y,-z
x,-y,1/2+z
1/2+x,1/2+y,z
1/2-x,1/2+y,1/2-z
1/2-x,1/2-y,-z
1/2+x,1/2-y,1/2+z
loop_
_atom_site_type_symbol
_atom_site_label
_atom_site_fract_x
_atom_site_fract_y
_atom_site_fract_z
Si Si1 0.078509 0.239547 0.668215
Si Si2 0.065750 0.969971 0.655136
Si Si3 0.473134 0.881014 0.399952
Si Si4 0.285081 0.733003 0.357640
O O1 0.101125 0.101213 0.720559
O O2 0.033608 0.268464 0.495975
O O3 0.189680 0.292248 0.721511
O O4 0.000000 0.294801 0.750000
O O5 0.000000 0.904856 0.750000
O O6 0.156558 0.890386 0.641501
O O7 0.000000 0.000000 0.500000
O O8 0.500000 0.901848 0.250000
O O9 0.355533 0.848230 0.351590
O O10 0.500000 0.000000 0.500000
O O11 0.250000 0.750000 0.500000
#
# Coordination Sequence:
#
# PCOD8153426 Si02
#       4
#     8   8   8   8
#     4  11  24  47  73 107 146 190 243 299 362 433
#     4  11  23  46  72 103 143 182 239 299 351 427
#     4  12  28  49  72 106 151 190 243 305 362 439
#     4  12  25  45  76 107 146 193 237 296 371 424
#
# _framework density 22.486497
#
# number of rings (size 3 to 8) (size 9 to 14) (size 15 to 20)
#    0.000    0.500    5.000    3.000    3.500    1.000 
#    0.000    0.000    0.000    0.000    0.000    0.000 
#    0.000    0.000    0.000    0.000    0.000    0.000 
#
# Total GULP energy -198286.188222 kJ/mol
# GULP energy per Si atom -12392.886764 kJ/mol
# Density = 2.243532 g / cm^3
# Si number density = 22.486497 Si / 1000 Ang^3
#
#
#
# Elastic Constant Matrix: (Units=GPa)
#
#
# Indices 1 2 3 4 5 6 
#
# 1 189.0100 60.7303 88.0223 0.0000 4.5192 0.0000
# 2 60.7303 96.8812 19.5544 0.0000 -9.5069 0.0000
# 3 88.0223 19.5544 148.8705 0.0000 -11.5398 0.0000
# 4 0.0000 0.0000 0.0000 35.7782 0.0000 2.3699
# 5 4.5192 -9.5069 -11.5398 0.0000 57.5706 0.0000
# 6 0.0000 0.0000 0.0000 2.3699 0.0000 43.1452
#
#
#
# Elastic Compliance Matrix: (Units=1/GPa)
#
#
# Indices 1 2 3 4 5 6 
#
# 1 0.009343 -0.005090 -0.005056 0.000000 -0.002587 0.000000
# 2 -0.005090 0.013504 0.001462 0.000000 0.002923 0.000000
# 3 -0.005056 0.001462 0.009715 0.000000 0.002586 0.000000
# 4 0.000000 0.000000 0.000000 0.028052 0.000000 -0.001541
# 5 -0.002587 0.002923 0.002586 0.000000 0.018574 0.000000
# 6 0.000000 0.000000 0.000000 -0.001541 0.000000 0.023262
#
#
# Mechanical properties :
#
#
# Convention : Reuss Voigt Hill
#
# Bulk Modulus (GPa) = 65.81280 85.70842 75.76061
# Shear Modulus (GPa) = 40.03779 45.06243 42.55011
#
# Velocity S-wave (km/s) = 4.22421 4.48144 4.35472
# Velocity P-wave (km/s) = 7.28856 8.06077 7.68437
#
# Compressibility (1/GPa) = 0.01519461
#
# Stress axis : x y z
#
# Youngs Moduli (GPa) = 107.03719 74.05129 102.93318
#
# Poissons Ratio (x) = 0.37691 0.52043
# Poissons Ratio (y) = 0.54480 -0.15051
# Poissons Ratio (z) = 0.54117 -0.10828
#
# Static dielectric constant tensor:
#      x y z
#    x 4.525250 0.000000 0.269500 
#    y 0.000000 3.537750 0.000000 
#    z 0.269500 0.000000 4.221460 
# 
# 
# High freq. dielectric constant tensor:
#      x y z
#    x 1.891200 0.000000 0.002580 
#    y 0.000000 1.892260 0.000000 
#    z 0.002580 0.000000 1.896050 
# 
# From -- ./inp_files/84163.got.cif
#   From: 2010.06.25/outbox.cif.g09.slc.cpg/sg15_43_cif.got.tgz:84163.got - 2010.06.28 07:06:18.
