data_PCOD8153796
_publ_section_title
;
Structure prediction by ZEFSAII (Michael W. Deem and Ramdas Pophale) SiO2 
 PCOD8153796
Probable space group: C 2/C
;
_chemical_formula_sum "Si O2"
_cell_formula_units_Z 48
_cell_length_a 9.164200
_cell_length_b 11.777304
_cell_length_c 20.134516
_cell_angle_alpha 90.000000
_cell_angle_beta 114.457699
_cell_angle_gamma 90.000000
_cell_volume 1978.110400
_symmetry_space_group_name_H-M "C 2/C"
_symmetry_group_IT_number 15
_symmetry_cell_setting 'monoclinic'
loop_
_space_group_symop_operation_xyz
x,y,z
-x,y,1/2-z
-x,-y,-z
x,-y,1/2+z
1/2+x,1/2+y,z
1/2-x,1/2+y,1/2-z
1/2-x,1/2-y,-z
1/2+x,1/2-y,1/2+z
loop_
_atom_site_type_symbol
_atom_site_label
_atom_site_fract_x
_atom_site_fract_y
_atom_site_fract_z
Si Si1 0.392692 0.288898 0.601845
Si Si2 0.206253 0.926638 0.094665
Si Si3 0.657041 0.537541 0.957714
Si Si4 0.292030 0.000776 0.751853
Si Si5 0.000000 0.691111 0.250000
Si Si6 0.000000 0.118239 0.250000
Si Si7 0.788440 0.675336 0.865266
O O1 0.266948 0.186696 0.567545
O O2 0.332117 0.407171 0.562365
O O3 0.400889 0.300971 0.683060
O O4 0.567200 0.264916 0.601916
O O5 0.311589 0.951042 0.180451
O O6 0.221081 0.033770 0.046161
O O7 0.020548 0.909646 0.078882
O O8 0.772245 0.611850 0.932680
O O9 0.400449 0.888765 0.781556
O O10 0.107906 0.965348 0.726062
O O11 0.343612 0.090472 0.817065
O O12 0.119695 0.767872 0.315357
#
# Coordination Sequence:
#
# PCOD8153796 Si02
#       7
#     8   8   8   8   4   4   8
#     4  12  24  44  67 100 131 174 223 272 332 391
#     4  11  24  45  69  95 137 181 215 274 338 384
#     4  11  25  45  66  98 137 174 226 272 322 403
#     4  12  23  44  66  96 134 167 221 274 326 394
#     4  12  25  41  66 102 128 168 219 275 334 384
#     4  12  21  41  70  92 132 164 217 281 316 392
#     4  12  25  41  71  98 129 177 220 270 336 388
#
# _framework density 24.265581999999998
#
# number of rings (size 3 to 8) (size 9 to 14) (size 15 to 20)
#    0.000    0.333    5.000    4.000    2.333    0.667 
#    0.000    9.167    0.000    0.000    0.000    0.000 
#    0.000    0.000    0.000    0.000    0.000    0.000 
#
# Total GULP energy -297644.476260 kJ/mol
# GULP energy per Si atom -12401.853177 kJ/mol
# Density = 2.421035 g / cm^3
# Si number density = 24.265582 Si / 1000 Ang^3
#
#
#
# Elastic Constant Matrix: (Units=GPa)
#
#
# Indices 1 2 3 4 5 6 
#
# 1 93.4012 34.4978 9.4926 0.0000 -21.0280 0.0000
# 2 34.4978 79.3806 -9.0755 0.0000 -7.1298 0.0000
# 3 9.4926 -9.0755 43.2722 0.0000 -27.1663 0.0000
# 4 0.0000 0.0000 0.0000 25.8209 0.0000 -2.7648
# 5 -21.0280 -7.1298 -27.1663 0.0000 30.3651 0.0000
# 6 0.0000 0.0000 0.0000 -2.7648 0.0000 55.0592
#
#
#
# Elastic Compliance Matrix: (Units=1/GPa)
#
#
# Indices 1 2 3 4 5 6 
#
# 1 0.014959 -0.005046 0.003239 0.000000 0.012072 0.000000
# 2 -0.005046 0.017060 0.011420 0.000000 0.010728 0.000000
# 3 0.003239 0.011420 0.063617 0.000000 0.061840 0.000000
# 4 0.000000 0.000000 0.000000 0.038938 0.000000 0.001955
# 5 0.012072 0.010728 0.061840 0.000000 0.099137 0.000000
# 6 0.000000 0.000000 0.000000 0.001955 0.000000 0.018260
#
#
# Mechanical properties :
#
#
# Convention : Reuss Voigt Hill
#
# Bulk Modulus (GPa) = 8.70618 31.76485 20.23552
# Shear Modulus (GPa) = 18.44793 34.32498 26.38645
#
# Velocity S-wave (km/s) = 2.76026 3.76514 3.30116
# Velocity P-wave (km/s) = 3.70868 5.65867 4.78408
#
# Compressibility (1/GPa) = 0.11486092
#
# Stress axis : x y z
#
# Youngs Moduli (GPa) = 66.84910 58.61718 15.71902
#
# Poissons Ratio (x) = 0.29581 -0.05091
# Poissons Ratio (y) = 0.33735 -0.17951
# Poissons Ratio (z) = -0.21651 -0.66941
#
# Static dielectric constant tensor:
#      x y z
#    x 4.315730 0.000000 -0.190430 
#    y 0.000000 4.376260 0.000000 
#    z -0.190430 0.000000 4.612580 
# 
# 
# High freq. dielectric constant tensor:
#      x y z
#    x 1.965040 0.000000 -0.011890 
#    y 0.000000 1.967140 0.000000 
#    z -0.011890 0.000000 1.962170 
# 
# From -- ./inp_files/263582.got.cif
#   From: 2010.06.25/outbox.cif.g09.slc.cpg/sg15_132_cif.got.tgz:263582.got - 2010.06.28 07:06:18.
