data_PCOD8153935
_publ_section_title
;
Structure prediction by ZEFSAII (Michael W. Deem and Ramdas Pophale) SiO2 
 PCOD8153935
Probable space group: C 2/C
;
_chemical_formula_sum "Si O2"
_cell_formula_units_Z 48
_cell_length_a 11.242830
_cell_length_b 11.273773
_cell_length_c 17.218216
_cell_angle_alpha 90.000000
_cell_angle_beta 67.041256
_cell_angle_gamma 90.000000
_cell_volume 2009.517400
_symmetry_space_group_name_H-M "C 2/C"
_symmetry_group_IT_number 15
_symmetry_cell_setting 'monoclinic'
loop_
_space_group_symop_operation_xyz
x,y,z
-x,y,1/2-z
-x,-y,-z
x,-y,1/2+z
1/2+x,1/2+y,z
1/2-x,1/2+y,1/2-z
1/2-x,1/2-y,-z
1/2+x,1/2-y,1/2+z
loop_
_atom_site_type_symbol
_atom_site_label
_atom_site_fract_x
_atom_site_fract_y
_atom_site_fract_z
Si Si1 0.534300 0.054243 0.825599
Si Si2 0.513616 0.632373 0.971238
Si Si3 0.352129 0.714798 0.150888
Si Si4 0.777994 0.925312 0.809606
Si Si5 0.710624 0.199922 0.590973
Si Si6 0.892707 0.166522 0.838489
O O1 0.500000 0.003786 0.750000
O O2 0.622459 0.172875 0.798342
O O3 0.397341 0.097400 0.896106
O O4 0.620850 0.953894 0.848854
O O5 0.660706 0.644066 0.906060
O O6 0.431427 0.670827 0.918229
O O7 0.500000 0.500000 0.000000
O O8 0.469842 0.706621 0.059164
O O9 0.330086 0.596967 0.208535
O O10 0.221886 0.738599 0.136679
O O11 0.825005 0.811217 0.845861
O O12 0.852179 0.033984 0.827631
O O13 0.750000 0.250000 0.500000
O O14 0.000000 0.209740 0.750000
#
# Coordination Sequence:
#
# PCOD8153935 Si02
#       6
#     8   8   8   8   8   8
#     4  11  25  45  72 106 136 187 245 285 357 432
#     4  12  26  44  69 102 139 183 233 289 362 422
#     4  11  24  47  68 100 141 186 232 294 355 417
#     4  11  26  45  74 100 139 188 234 292 355 427
#     4  12  25  46  71 101 141 182 231 297 353 421
#     4  11  25  44  69 102 138 183 236 285 350 431
#
# _framework density 23.886330000000001
#
# number of rings (size 3 to 8) (size 9 to 14) (size 15 to 20)
#    0.000    0.667    3.333    3.500    7.000    2.667 
#    3.000    0.000    0.000    0.000    0.000    0.000 
#    0.000    0.000    0.000    0.000    0.000    0.000 
#
# Total GULP energy -297412.948994 kJ/mol
# GULP energy per Si atom -12392.206208 kJ/mol
# Density = 2.383196 g / cm^3
# Si number density = 23.886330 Si / 1000 Ang^3
#
#
#
# Elastic Constant Matrix: (Units=GPa)
#
#
# Indices 1 2 3 4 5 6 
#
# 1 101.7253 -7.4765 13.1575 0.0000 -11.4371 0.0000
# 2 -7.4765 41.4888 6.2027 0.0000 -2.2492 0.0000
# 3 13.1575 6.2027 98.2265 0.0000 -1.7643 0.0000
# 4 0.0000 0.0000 0.0000 25.5656 0.0000 -6.5107
# 5 -11.4371 -2.2492 -1.7643 0.0000 47.1123 0.0000
# 6 0.0000 0.0000 0.0000 -6.5107 0.0000 36.9251
#
#
#
# Elastic Compliance Matrix: (Units=1/GPa)
#
#
# Indices 1 2 3 4 5 6 
#
# 1 0.010482 0.002254 -0.001500 0.000000 0.002596 0.000000
# 2 0.002254 0.024875 -0.001843 0.000000 0.001666 0.000000
# 3 -0.001500 -0.001843 0.010497 0.000000 -0.000059 0.000000
# 4 0.000000 0.000000 0.000000 0.040954 0.000000 0.007221
# 5 0.002596 0.001666 -0.000059 0.000000 0.021933 0.000000
# 6 0.000000 0.000000 0.000000 0.007221 0.000000 0.028355
#
#
# Mechanical properties :
#
#
# Convention : Reuss Voigt Hill
#
# Bulk Modulus (GPa) = 22.89578 29.46755 26.18167
# Shear Modulus (GPa) = 32.50298 37.22441 34.86369
#
# Velocity S-wave (km/s) = 3.69282 3.95194 3.82457
# Velocity P-wave (km/s) = 5.27149 5.76082 5.52158
#
# Compressibility (1/GPa) = 0.04367617
#
# Stress axis : x y z
#
# Youngs Moduli (GPa) = 95.40248 40.20127 95.26760
#
# Poissons Ratio (x) = -0.09061 0.14288
# Poissons Ratio (y) = -0.21502 0.17556
# Poissons Ratio (z) = 0.14308 0.07408
#
# Static dielectric constant tensor:
#      x y z
#    x 6.013540 0.000000 -1.214800 
#    y 0.000000 4.088820 0.000000 
#    z -1.214800 0.000000 5.790980 
# 
# 
# High freq. dielectric constant tensor:
#      x y z
#    x 1.973160 0.000000 0.005210 
#    y 0.000000 1.938310 0.000000 
#    z 0.005210 0.000000 1.939590 
# 
# From -- ./inp_files/196504.got.cif
#   From: 2010.06.25/outbox.cif.g09.slc.cpg/sg15_99_cif.got.tgz:196504.got - 2010.06.28 07:06:18.
