data_PCOD8153530
_publ_section_title
;
Structure prediction by ZEFSAII (Michael W. Deem and Ramdas Pophale) SiO2 
 PCOD8153530
Probable space group: C 2/C
;
_chemical_formula_sum "Si O2"
_cell_formula_units_Z 48
_cell_length_a 24.778893
_cell_length_b 8.461671
_cell_length_c 11.483886
_cell_angle_alpha 90.000000
_cell_angle_beta 120.744909
_cell_angle_gamma 90.000000
_cell_volume 2069.419102
_symmetry_space_group_name_H-M "C 2/C"
_symmetry_group_IT_number 15
_symmetry_cell_setting 'monoclinic'
loop_
_space_group_symop_operation_xyz
x,y,z
-x,y,1/2-z
-x,-y,-z
x,-y,1/2+z
1/2+x,1/2+y,z
1/2-x,1/2+y,1/2-z
1/2-x,1/2-y,-z
1/2+x,1/2-y,1/2+z
loop_
_atom_site_type_symbol
_atom_site_label
_atom_site_fract_x
_atom_site_fract_y
_atom_site_fract_z
Si Si1 0.901781 0.482461 0.837563
Si Si2 0.799670 0.694817 0.812672
Si Si3 0.984823 0.342963 0.114274
Si Si4 0.174679 0.031591 0.738604
Si Si5 0.948412 0.986973 0.543166
Si Si6 0.618094 0.280184 0.377798
O O1 0.832646 0.554596 0.775200
O O2 0.904161 0.360703 0.732146
O O3 0.951314 0.629147 0.888187
O O4 0.922189 0.395560 0.978454
O O5 0.727918 0.651861 0.754840
O O6 0.800611 0.851887 0.734337
O O7 0.833952 0.712766 0.974417
O O8 0.971709 0.164235 0.140032
O O9 0.000000 0.439223 0.250000
O O10 0.118784 0.047511 0.586253
O O11 0.152577 0.081335 0.843111
O O12 0.941918 0.138623 0.622497
O O13 0.000000 0.000000 0.500000
#
# Coordination Sequence:
#
# PCOD8153530 Si02
#       6
#     8   8   8   8   8   8
#     4  11  24  47  71 106 147 189 241 297 366 437
#     4  11  25  46  73 104 148 186 245 307 362 435
#     4  11  24  40  70 103 144 183 240 293 360 422
#     4  11  24  46  72 104 144 194 241 301 366 432
#     4  11  26  45  70 105 147 189 238 296 362 434
#     4  11  24  47  75 105 144 195 241 301 375 429
#
# _framework density 23.194917
#
# number of rings (size 3 to 8) (size 9 to 14) (size 15 to 20)
#    0.000    1.000    1.667    4.500    4.667    2.667 
#    6.000    4.167    0.000    0.000    0.000    0.000 
#    0.000    0.000    0.000    0.000    0.000    0.000 
#
# Total GULP energy -297433.173440 kJ/mol
# GULP energy per Si atom -12393.048893 kJ/mol
# Density = 2.314212 g / cm^3
# Si number density = 23.194917 Si / 1000 Ang^3
#
#
#
# Elastic Constant Matrix: (Units=GPa)
#
#
# Indices 1 2 3 4 5 6 
#
# 1 137.5287 65.8594 40.2204 0.0000 -6.1349 0.0000
# 2 65.8594 136.2201 61.2883 0.0000 -9.0274 0.0000
# 3 40.2204 61.2883 100.8274 0.0000 -7.2649 0.0000
# 4 0.0000 0.0000 0.0000 20.2066 0.0000 -3.8812
# 5 -6.1349 -9.0274 -7.2649 0.0000 34.3754 0.0000
# 6 0.0000 0.0000 0.0000 -3.8812 0.0000 57.7551
#
#
#
# Elastic Compliance Matrix: (Units=1/GPa)
#
#
# Indices 1 2 3 4 5 6 
#
# 1 0.009606 -0.004002 -0.001372 0.000000 0.000373 0.000000
# 2 -0.004002 0.011836 -0.005510 0.000000 0.001230 0.000000
# 3 -0.001372 -0.005510 0.013904 0.000000 0.001247 0.000000
# 4 0.000000 0.000000 0.000000 0.050136 0.000000 0.003369
# 5 0.000373 0.001230 0.001247 0.000000 0.029744 0.000000
# 6 0.000000 0.000000 0.000000 0.003369 0.000000 0.017541
#
#
# Mechanical properties :
#
#
# Convention : Reuss Voigt Hill
#
# Bulk Modulus (GPa) = 73.64653 78.81249 76.22951
# Shear Modulus (GPa) = 31.43454 36.28131 33.85792
#
# Velocity S-wave (km/s) = 3.68534 3.95928 3.82476
# Velocity P-wave (km/s) = 7.06605 7.41305 7.24163
#
# Compressibility (1/GPa) = 0.01357837
#
# Stress axis : x y z
#
# Youngs Moduli (GPa) = 104.10573 84.48524 71.92024
#
# Poissons Ratio (x) = 0.33811 0.09869
# Poissons Ratio (y) = 0.41663 0.39627
# Poissons Ratio (z) = 0.14285 0.46550
#
# Static dielectric constant tensor:
#      x y z
#    x 4.272170 0.000000 -0.100130 
#    y 0.000000 6.499220 0.000000 
#    z -0.100130 0.000000 4.243730 
# 
# 
# High freq. dielectric constant tensor:
#      x y z
#    x 1.917430 0.000000 -0.001070 
#    y 0.000000 1.926530 0.000000 
#    z -0.001070 0.000000 1.922670 
# 
# From -- ./inp_files/116798.got.cif
#   From: 2010.06.25/outbox.cif.g09.slc.cpg/sg15_59_cif.got.tgz:116798.got - 2010.06.28 07:06:18.
