data_PCOD8153204
_publ_section_title
;
Structure prediction by ZEFSAII (Michael W. Deem and Ramdas Pophale) SiO2 
 PCOD8153204
Probable space group: C 2/C
;
_chemical_formula_sum "Si O2"
_cell_formula_units_Z 40
_cell_length_a 10.116141
_cell_length_b 10.893236
_cell_length_c 20.473420
_cell_angle_alpha 90.000000
_cell_angle_beta 42.478945
_cell_angle_gamma 90.000000
_cell_volume 1523.601171
_symmetry_space_group_name_H-M "C 2/C"
_symmetry_group_IT_number 15
_symmetry_cell_setting 'monoclinic'
loop_
_space_group_symop_operation_xyz
x,y,z
-x,y,1/2-z
-x,-y,-z
x,-y,1/2+z
1/2+x,1/2+y,z
1/2-x,1/2+y,1/2-z
1/2-x,1/2-y,-z
1/2+x,1/2-y,1/2+z
loop_
_atom_site_type_symbol
_atom_site_label
_atom_site_fract_x
_atom_site_fract_y
_atom_site_fract_z
Si Si1 0.664950 0.704494 0.841741
Si Si2 0.542313 0.702870 0.371065
Si Si3 0.731855 0.608071 0.520828
Si Si4 0.301433 0.025549 0.353957
Si Si5 0.635689 0.881823 0.965106
O O1 0.780582 0.760073 0.739869
O O2 0.498857 0.608408 0.876646
O O3 0.798809 0.620156 0.839681
O O4 0.580485 0.821198 0.914693
O O5 0.615451 0.600299 0.395309
O O6 0.488190 0.823386 0.431525
O O7 0.364524 0.646755 0.394799
O O8 0.750000 0.750000 0.500000
O O9 0.794308 0.531983 0.434467
O O10 0.859020 0.537009 0.532813
O O11 0.500000 0.081290 0.250000
#
# Coordination Sequence:
#
# PCOD8153204 Si02
#       5
#     8   8   8   8   8
#     4  12  24  45  74 106 141 189 250 297 368 441
#     4  11  23  43  73 108 138 188 242 302 362 438
#     4  12  26  46  68 106 147 187 239 306 365 445
#     4  12  23  45  71 102 144 189 242 306 366 433
#     4  11  23  45  74 104 141 188 244 294 370 437
#
# _framework density 26.253589000000002
#
# number of rings (size 3 to 8) (size 9 to 14) (size 15 to 20)
#    0.000    0.400    4.000    7.200    0.000    0.800 
#    3.600    0.000    0.000    0.000    0.000    0.000 
#    0.000    0.000    0.000    0.000    0.000    0.000 
#
# Total GULP energy -247974.657878 kJ/mol
# GULP energy per Si atom -12398.732894 kJ/mol
# Density = 2.619383 g / cm^3
# Si number density = 26.253589 Si / 1000 Ang^3
#
#
#
# Elastic Constant Matrix: (Units=GPa)
#
#
# Indices 1 2 3 4 5 6 
#
# 1 117.4273 57.2287 19.5172 0.0001 0.3755 -0.0001
# 2 57.2287 179.4549 41.3754 0.0001 1.6384 -0.0001
# 3 19.5172 41.3754 135.2414 0.0006 -2.1457 -0.0003
# 4 0.0001 0.0001 0.0006 32.6263 -0.0002 2.3147
# 5 0.3755 1.6384 -2.1457 -0.0002 36.5521 0.0001
# 6 -0.0001 -0.0001 -0.0003 2.3147 0.0001 55.7546
#
#
#
# Elastic Compliance Matrix: (Units=1/GPa)
#
#
# Indices 1 2 3 4 5 6 
#
# 1 0.010115 -0.003109 -0.000509 0.000000 0.000006 0.000000
# 2 -0.003109 0.006956 -0.001685 0.000000 -0.000379 0.000000
# 3 -0.000509 -0.001685 0.007992 0.000000 0.000550 0.000000
# 4 0.000000 0.000000 0.000000 0.030741 0.000000 -0.001276
# 5 0.000006 -0.000379 0.000550 0.000000 0.027407 0.000000
# 6 0.000000 0.000000 0.000000 -0.001276 0.000000 0.017989
#
#
# Mechanical properties :
#
#
# Convention : Reuss Voigt Hill
#
# Bulk Modulus (GPa) = 69.16694 74.26290 71.71492
# Shear Modulus (GPa) = 42.87257 45.92010 44.39634
#
# Velocity S-wave (km/s) = 4.04545 4.18676 4.11671
# Velocity P-wave (km/s) = 6.94433 7.19167 7.06908
#
# Compressibility (1/GPa) = 0.01445777
#
# Stress axis : x y z
#
# Youngs Moduli (GPa) = 98.85893 143.76425 125.12578
#
# Poissons Ratio (x) = 0.44691 0.06365
# Poissons Ratio (y) = 0.30731 0.21089
# Poissons Ratio (z) = 0.05029 0.24231
#
# Static dielectric constant tensor:
#      x y z
#    x 5.262030 0.000000 -0.319980 
#    y 0.000000 5.023440 0.000000 
#    z -0.319980 0.000000 4.450640 
# 
# 
# High freq. dielectric constant tensor:
#      x y z
#    x 2.082300 0.000000 -0.033240 
#    y 0.000000 2.083020 0.000000 
#    z -0.033240 0.000000 2.047050 
# 
# From -- ./inp_files/142099.got.cif
#   From: 2010.06.25/outbox.cif.g09.slc.cpg/sg15_72_cif.got.tgz:142099.got - 2010.06.28 07:06:18.
