data_PCOD8153880
_publ_section_title
;
Structure prediction by ZEFSAII (Michael W. Deem and Ramdas Pophale) SiO2 
 PCOD8153880
Probable space group: C 2/C
;
_chemical_formula_sum "Si O2"
_cell_formula_units_Z 40
_cell_length_a 24.714036
_cell_length_b 12.445371
_cell_length_c 11.253084
_cell_angle_alpha 90.000000
_cell_angle_beta 148.317955
_cell_angle_gamma 90.000000
_cell_volume 1817.824440
_symmetry_space_group_name_H-M "C 2/C"
_symmetry_group_IT_number 15
_symmetry_cell_setting 'monoclinic'
loop_
_space_group_symop_operation_xyz
x,y,z
-x,y,1/2-z
-x,-y,-z
x,-y,1/2+z
1/2+x,1/2+y,z
1/2-x,1/2+y,1/2-z
1/2-x,1/2-y,-z
1/2+x,1/2-y,1/2+z
loop_
_atom_site_type_symbol
_atom_site_label
_atom_site_fract_x
_atom_site_fract_y
_atom_site_fract_z
Si Si1 0.485831 0.081452 0.087764
Si Si2 0.864788 0.224500 0.688751
Si Si3 0.796321 0.266450 0.214534
Si Si4 0.382823 0.421564 0.011011
Si Si5 0.388931 0.344348 0.486197
O O1 0.500000 0.030227 0.250000
O O2 0.571139 0.175865 0.244714
O O3 0.370842 0.129903 0.860805
O O4 0.500000 0.000000 0.000000
O O5 0.750000 0.250000 0.500000
O O6 0.845457 0.127538 0.563235
O O7 0.918777 0.183586 0.907859
O O8 0.863253 0.160226 0.366528
O O9 0.699900 0.268552 0.125415
O O10 0.750000 0.250000 0.000000
O O11 0.500000 0.446601 0.250000
O O12 0.335418 0.538182 0.896038
O O13 0.500000 0.327723 0.750000
#
# Coordination Sequence:
#
# PCOD8153880 Si02
#       5
#     8   8   8   8   8
#     4  12  27  49  75 106 145 194 242 295 363 431
#     4  12  23  47  72  99 144 184 232 294 355 423
#     4  12  25  45  68 102 143 178 232 296 352 423
#     4  11  24  46  70  96 138 182 233 283 358 416
#     4  11  27  41  71 107 133 185 237 288 355 420
#
# _framework density 22.004327
#
# number of rings (size 3 to 8) (size 9 to 14) (size 15 to 20)
#    0.000    0.400    6.000    1.200    5.600    5.600 
#    0.000    0.000    0.000    0.000    0.000    0.000 
#    0.000    0.000    0.000    0.000    0.000    0.000 
#
# Total GULP energy -247780.585670 kJ/mol
# GULP energy per Si atom -12389.029284 kJ/mol
# Density = 2.195424 g / cm^3
# Si number density = 22.004327 Si / 1000 Ang^3
#
#
#
# Elastic Constant Matrix: (Units=GPa)
#
#
# Indices 1 2 3 4 5 6 
#
# 1 115.2338 20.7605 35.9675 0.0000 -21.6201 0.0000
# 2 20.7605 67.4968 18.4846 0.0000 -11.1944 0.0000
# 3 35.9675 18.4846 109.4591 0.0000 -21.1650 0.0000
# 4 0.0000 0.0000 0.0000 33.9325 0.0000 -4.3599
# 5 -21.6201 -11.1944 -21.1650 0.0000 62.9472 0.0000
# 6 0.0000 0.0000 0.0000 -4.3599 0.0000 43.3548
#
#
#
# Elastic Compliance Matrix: (Units=1/GPa)
#
#
# Indices 1 2 3 4 5 6 
#
# 1 0.010290 -0.002076 -0.002587 0.000000 0.002295 0.000000
# 2 -0.002076 0.016194 -0.001747 0.000000 0.001580 0.000000
# 3 -0.002587 -0.001747 0.010748 0.000000 0.002415 0.000000
# 4 0.000000 0.000000 0.000000 0.029856 0.000000 0.003002
# 5 0.002295 0.001580 0.002415 0.000000 0.017767 0.000000
# 6 0.000000 0.000000 0.000000 0.003002 0.000000 0.023367
#
#
# Mechanical properties :
#
#
# Convention : Reuss Voigt Hill
#
# Bulk Modulus (GPa) = 40.96290 49.17942 45.07116
# Shear Modulus (GPa) = 38.70546 42.51204 40.60875
#
# Velocity S-wave (km/s) = 4.19859 4.40020 4.30058
# Velocity P-wave (km/s) = 6.49310 6.94364 6.72215
#
# Compressibility (1/GPa) = 0.02441234
#
# Stress axis : x y z
#
# Youngs Moduli (GPa) = 97.18098 61.74942 93.04230
#
# Poissons Ratio (x) = 0.12818 0.24069
# Poissons Ratio (y) = 0.20174 0.16257
# Poissons Ratio (z) = 0.25139 0.10789
#
# Static dielectric constant tensor:
#      x y z
#    x 3.604600 0.000000 -0.037820 
#    y 0.000000 2.810690 0.000000 
#    z -0.037820 0.000000 4.180430 
# 
# 
# High freq. dielectric constant tensor:
#      x y z
#    x 1.882370 0.000000 -0.003950 
#    y 0.000000 1.853810 0.000000 
#    z -0.003950 0.000000 1.887920 
# 
# From -- ./inp_files/122764.got.cif
#   From: 2010.06.25/outbox.cif.g09.slc.cpg/sg15_62_cif.got.tgz:122764.got - 2010.06.28 07:06:18.
