data_PCOD8153520
_publ_section_title
;
Structure prediction by ZEFSAII (Michael W. Deem and Ramdas Pophale) SiO2 
 PCOD8153520
Probable space group: C 2/C
;
_chemical_formula_sum "Si O2"
_cell_formula_units_Z 44
_cell_length_a 29.703461
_cell_length_b 8.986021
_cell_length_c 9.332359
_cell_angle_alpha 90.000000
_cell_angle_beta 124.109291
_cell_angle_gamma 90.000000
_cell_volume 2062.434734
_symmetry_space_group_name_H-M "C 2/C"
_symmetry_group_IT_number 15
_symmetry_cell_setting 'monoclinic'
loop_
_space_group_symop_operation_xyz
x,y,z
-x,y,1/2-z
-x,-y,-z
x,-y,1/2+z
1/2+x,1/2+y,z
1/2-x,1/2+y,1/2-z
1/2-x,1/2-y,-z
1/2+x,1/2-y,1/2+z
loop_
_atom_site_type_symbol
_atom_site_label
_atom_site_fract_x
_atom_site_fract_y
_atom_site_fract_z
Si Si1 0.587847 0.883000 0.682963
Si Si2 0.500000 0.820586 0.750000
Si Si3 0.652498 0.458845 0.613960
Si Si4 0.086078 0.286223 0.123844
Si Si5 0.309260 0.686621 0.588682
Si Si6 0.440325 0.331149 0.622391
O O1 0.543978 0.912612 0.732358
O O2 0.644504 0.814651 0.843521
O O3 0.562728 0.766839 0.526096
O O4 0.598952 0.038939 0.622472
O O5 0.463358 0.730916 0.568721
O O6 0.638731 0.313285 0.683326
O O7 0.681655 0.584523 0.757456
O O8 0.691909 0.412862 0.555790
O O9 0.597589 0.524841 0.448432
O O10 0.073270 0.271442 0.267311
O O11 0.250000 0.750000 0.500000
O O12 0.500000 0.398155 0.750000
#
# Coordination Sequence:
#
# PCOD8153520 Si02
#       6
#     8   4   8   8   8   8
#     4  11  25  41  68 101 138 181 226 280 335 406
#     4  12  22  38  68 102 144 182 220 274 340 406
#     4  11  25  47  70 101 133 178 229 283 341 407
#     4  12  24  40  66 102 143 179 227 274 339 404
#     4  11  26  51  72  98 135 176 234 285 342 400
#     4  11  24  40  65 101 142 182 220 274 340 410
#
# _framework density 21.334009999999999
#
# number of rings (size 3 to 8) (size 9 to 14) (size 15 to 20)
#    0.000    0.727    5.455    1.636    3.818    2.182 
#    3.273    1.818    0.000    0.000    0.000    0.000 
#    0.000    0.000    0.000    0.000    0.000    0.000 
#
# Total GULP energy -272741.266914 kJ/mol
# GULP energy per Si atom -12397.330314 kJ/mol
# Density = 2.128545 g / cm^3
# Si number density = 21.334010 Si / 1000 Ang^3
#
#
#
# Elastic Constant Matrix: (Units=GPa)
#
#
# Indices 1 2 3 4 5 6 
#
# 1 142.5858 64.5873 63.6943 0.0000 8.8593 0.0000
# 2 64.5873 98.7391 29.2776 0.0000 8.5113 0.0000
# 3 63.6943 29.2776 97.2759 0.0000 -1.8241 0.0000
# 4 0.0000 0.0000 0.0000 23.9322 0.0000 -4.1247
# 5 8.8593 8.5113 -1.8241 0.0000 36.2952 0.0000
# 6 0.0000 0.0000 0.0000 -4.1247 0.0000 34.2179
#
#
#
# Elastic Compliance Matrix: (Units=1/GPa)
#
#
# Indices 1 2 3 4 5 6 
#
# 1 0.012971 -0.006348 -0.006620 0.000000 -0.002010 0.000000
# 2 -0.006348 0.014514 -0.000247 0.000000 -0.001866 0.000000
# 3 -0.006620 -0.000247 0.014734 0.000000 0.002414 0.000000
# 4 0.000000 0.000000 0.000000 0.042671 0.000000 0.005144
# 5 -0.002010 -0.001866 0.002414 0.000000 0.028602 0.000000
# 6 0.000000 0.000000 0.000000 0.005144 0.000000 0.029845
#
#
# Mechanical properties :
#
#
# Convention : Reuss Voigt Hill
#
# Bulk Modulus (GPa) = 63.33417 72.63548 67.98483
# Shear Modulus (GPa) = 28.56638 30.95850 29.76244
#
# Velocity S-wave (km/s) = 3.66321 3.81351 3.73912
# Velocity P-wave (km/s) = 6.90243 7.31513 7.11178
#
# Compressibility (1/GPa) = 0.01578926
#
# Stress axis : x y z
#
# Youngs Moduli (GPa) = 77.09382 68.89722 67.86865
#
# Poissons Ratio (x) = 0.43739 0.44931
# Poissons Ratio (y) = 0.48943 0.01674
# Poissons Ratio (z) = 0.51038 0.01699
#
# Static dielectric constant tensor:
#      x y z
#    x 3.747900 0.000000 -0.171560 
#    y 0.000000 3.668840 0.000000 
#    z -0.171560 0.000000 4.007410 
# 
# 
# High freq. dielectric constant tensor:
#      x y z
#    x 1.826490 0.000000 -0.020680 
#    y 0.000000 1.832530 0.000000 
#    z -0.020680 0.000000 1.846300 
# 
# From -- ./inp_files/68523.got.cif
#   From: 2010.06.25/outbox.cif.g09.slc.cpg/sg15_35_cif.got.tgz:68523.got - 2010.06.28 07:06:18.
