data_PCOD8153535
_publ_section_title
;
Structure prediction by ZEFSAII (Michael W. Deem and Ramdas Pophale) SiO2 
 PCOD8153535
Probable space group: C 2/C
;
_chemical_formula_sum "Si O2"
_cell_formula_units_Z 64
_cell_length_a 14.241229
_cell_length_b 23.207551
_cell_length_c 16.777756
_cell_angle_alpha 90.000000
_cell_angle_beta 145.596091
_cell_angle_gamma 90.000000
_cell_volume 3133.119874
_symmetry_space_group_name_H-M "C 2/C"
_symmetry_group_IT_number 15
_symmetry_cell_setting 'monoclinic'
loop_
_space_group_symop_operation_xyz
x,y,z
-x,y,1/2-z
-x,-y,-z
x,-y,1/2+z
1/2+x,1/2+y,z
1/2-x,1/2+y,1/2-z
1/2-x,1/2-y,-z
1/2+x,1/2-y,1/2+z
loop_
_atom_site_type_symbol
_atom_site_label
_atom_site_fract_x
_atom_site_fract_y
_atom_site_fract_z
Si Si1 0.548346 0.465989 0.200977
Si Si2 0.668870 0.828197 0.999489
Si Si3 0.123253 0.803085 0.505229
Si Si4 0.675695 0.881991 0.748010
Si Si5 0.360377 0.045846 0.429467
Si Si6 0.322769 0.495963 0.919907
Si Si7 0.438307 0.904833 0.291831
Si Si8 0.703474 0.360015 0.246510
O O1 0.500000 0.435492 0.250000
O O2 0.683517 0.515486 0.308806
O O3 0.606646 0.421008 0.173609
O O4 0.374954 0.493698 0.049009
O O5 0.663264 0.763951 0.031619
O O6 0.496494 0.852692 0.845156
O O7 0.796410 0.833751 0.015797
O O8 0.725974 0.865176 0.114710
O O9 0.185702 0.833721 0.630855
O O10 0.923992 0.808296 0.358766
O O11 0.661182 0.898810 0.644444
O O12 0.714603 0.940237 0.822003
O O13 0.408791 0.069131 0.550779
O O14 0.500000 0.000000 0.500000
O O15 0.203335 0.548973 0.823296
O O16 0.500000 0.500000 0.000000
O O17 0.500000 0.879801 0.250000
O O18 0.350436 0.855345 0.284059
#
# Coordination Sequence:
#
# PCOD8153535 Si02
#       8
#     8   8   8   8   8   8   8   8
#     4  12  23  37  60  89 126 164 198 242 300 369
#     4  11  24  41  62  92 128 157 206 255 312 375
#     4  11  24  41  62  94 124 162 202 256 312 378
#     4  12  21  37  63  88 126 169 204 247 308 377
#     4  12  21  41  59  88 128 163 203 254 302 366
#     4  12  21  40  59  88 127 163 203 247 296 371
#     4  12  25  41  62  88 121 165 212 254 299 363
#     4  12  22  40  63  86 123 165 201 251 308 359
#
# _framework density 20.426924
#
# number of rings (size 3 to 8) (size 9 to 14) (size 15 to 20)
#    0.000    0.250    7.500    3.000    0.000    3.000 
#    2.250    0.000    0.000    0.750    0.000    0.000 
#    0.000    0.000    0.000    0.000    0.000    0.000 
#
# Total GULP energy -396615.465059 kJ/mol
# GULP energy per Si atom -12394.233283 kJ/mol
# Density = 2.038043 g / cm^3
# Si number density = 20.426924 Si / 1000 Ang^3
#
#
#
# Elastic Constant Matrix: (Units=GPa)
#
#
# Indices 1 2 3 4 5 6 
#
# 1 107.5292 22.5845 29.1478 -0.0001 -12.1178 0.0000
# 2 22.5845 43.8950 7.7889 0.0000 0.8059 0.0000
# 3 29.1478 7.7889 115.1700 -0.0002 -12.1713 -0.0001
# 4 -0.0001 0.0000 -0.0002 33.8861 -0.0001 4.0476
# 5 -12.1178 0.8059 -12.1713 -0.0001 31.8647 0.0000
# 6 0.0000 0.0000 -0.0001 4.0476 0.0000 22.0671
#
#
#
# Elastic Compliance Matrix: (Units=1/GPa)
#
#
# Indices 1 2 3 4 5 6 
#
# 1 0.011468 -0.005589 -0.002135 0.000000 0.003687 0.000000
# 2 -0.005589 0.025829 -0.000652 0.000000 -0.003028 0.000000
# 3 -0.002135 -0.000652 0.009569 0.000000 0.002860 0.000000
# 4 0.000000 0.000000 0.000000 0.030172 0.000000 -0.005534
# 5 0.003687 -0.003028 0.002860 0.000000 0.033954 0.000000
# 6 0.000000 0.000000 0.000000 -0.005534 0.000000 0.046331
#
#
# Mechanical properties :
#
#
# Convention : Reuss Voigt Hill
#
# Bulk Modulus (GPa) = 33.20755 42.84853 38.02804
# Shear Modulus (GPa) = 27.15722 31.36846 29.26284
#
# Velocity S-wave (km/s) = 3.65016 3.92298 3.78903
# Velocity P-wave (km/s) = 5.83583 6.44529 6.14812
#
# Compressibility (1/GPa) = 0.03011364
#
# Stress axis : x y z
#
# Youngs Moduli (GPa) = 87.20010 38.71662 104.49952
#
# Poissons Ratio (x) = 0.21640 0.22307
# Poissons Ratio (y) = 0.48738 0.06816
# Poissons Ratio (z) = 0.18615 0.02525
#
# Static dielectric constant tensor:
#      x y z
#    x 3.954610 0.000000 -0.163810 
#    y 0.000000 3.500200 0.000000 
#    z -0.163810 0.000000 4.279170 
# 
# 
# High freq. dielectric constant tensor:
#      x y z
#    x 1.777990 0.000000 -0.008920 
#    y 0.000000 1.770770 0.000000 
#    z -0.008920 0.000000 1.832730 
# 
# From -- ./inp_files/207360.got.cif
#   From: 2010.06.25/outbox.cif.g09.slc.cpg/sg15_104_cif.got.tgz:207360.got - 2010.06.28 07:06:18.
