data_PCOD8153946
_publ_section_title
;
Structure prediction by ZEFSAII (Michael W. Deem and Ramdas Pophale) SiO2 
 PCOD8153946
Probable space group: C 2/C
;
_chemical_formula_sum "Si O2"
_cell_formula_units_Z 44
_cell_length_a 23.086300
_cell_length_b 6.614560
_cell_length_c 21.626650
_cell_angle_alpha 90.000000
_cell_angle_beta 142.007950
_cell_angle_gamma 90.000000
_cell_volume 2032.868963
_symmetry_space_group_name_H-M "C 2/C"
_symmetry_group_IT_number 15
_symmetry_cell_setting 'monoclinic'
loop_
_space_group_symop_operation_xyz
x,y,z
-x,y,1/2-z
-x,-y,-z
x,-y,1/2+z
1/2+x,1/2+y,z
1/2-x,1/2+y,1/2-z
1/2-x,1/2-y,-z
1/2+x,1/2-y,1/2+z
loop_
_atom_site_type_symbol
_atom_site_label
_atom_site_fract_x
_atom_site_fract_y
_atom_site_fract_z
Si Si1 0.286913 0.139029 0.901051
Si Si2 0.500000 0.953396 0.750000
Si Si3 0.911326 0.970623 0.509752
Si Si4 0.095994 0.616697 0.089185
Si Si5 0.420442 0.720275 0.798194
Si Si6 0.843042 0.340243 0.050474
O O1 0.173907 0.126390 0.809830
O O2 0.318707 0.008890 0.868629
O O3 0.328957 0.363903 0.932826
O O4 0.324175 0.040581 0.995120
O O5 0.480867 0.820588 0.794666
O O6 0.589541 0.096264 0.836582
O O7 0.913291 0.839005 0.448900
O O8 0.892314 0.829864 0.551888
O O9 0.013479 0.064693 0.609090
O O10 0.115159 0.624697 0.178819
O O11 0.000000 0.500000 0.000000
O O12 0.750000 0.250000 0.000000
#
# Coordination Sequence:
#
# PCOD8153946 Si02
#       6
#     8   4   8   8   8   8
#     4  11  26  46  70 105 139 183 239 293 352 424
#     4  12  26  48  70 106 142 190 234 292 356 428
#     4  11  24  47  70 101 140 186 228 296 359 406
#     4  11  24  47  70 103 143 180 237 299 349 419
#     4  12  26  43  76 100 143 189 233 286 359 425
#     4  11  26  46  70 102 143 184 239 293 347 429
#
# _framework density 21.644289000000001
#
# number of rings (size 3 to 8) (size 9 to 14) (size 15 to 20)
#    0.000    0.727    3.636    2.727    7.636    1.455 
#    3.273    0.000    0.000    0.000    0.000    0.000 
#    0.000    0.000    0.000    0.000    0.000    0.000 
#
# Total GULP energy -272871.132710 kJ/mol
# GULP energy per Si atom -12403.233305 kJ/mol
# Density = 2.159503 g / cm^3
# Si number density = 21.644289 Si / 1000 Ang^3
#
#
#
# Elastic Constant Matrix: (Units=GPa)
#
#
# Indices 1 2 3 4 5 6 
#
# 1 117.3428 38.9187 36.4389 -0.0001 -5.9073 0.0002
# 2 38.9187 105.7831 30.3735 0.0000 -1.4731 -0.0010
# 3 36.4389 30.3735 103.5521 -0.0002 15.9662 0.0000
# 4 -0.0001 0.0000 -0.0002 23.0165 0.0000 14.9163
# 5 -5.9073 -1.4731 15.9662 0.0000 47.5368 0.0000
# 6 0.0002 -0.0010 0.0000 14.9163 0.0000 30.3409
#
#
#
# Elastic Compliance Matrix: (Units=1/GPa)
#
#
# Indices 1 2 3 4 5 6 
#
# 1 0.010619 -0.002947 -0.003229 0.000000 0.002313 0.000000
# 2 -0.002947 0.011231 -0.002377 0.000000 0.000780 0.000001
# 3 -0.003229 -0.002377 0.012195 0.000000 -0.004571 0.000000
# 4 0.000000 0.000000 0.000000 0.063762 0.000000 -0.031347
# 5 0.002313 0.000780 -0.004571 0.000000 0.022883 0.000000
# 6 0.000000 0.000001 0.000000 -0.031347 0.000000 0.048370
#
#
# Mechanical properties :
#
#
# Convention : Reuss Voigt Hill
#
# Bulk Modulus (GPa) = 59.03877 59.79336 59.41606
# Shear Modulus (GPa) = 26.06708 34.90865 30.48786
#
# Velocity S-wave (km/s) = 3.47412 4.02037 3.75719
# Velocity P-wave (km/s) = 6.59005 7.01688 6.80681
#
# Compressibility (1/GPa) = 0.01693802
#
# Stress axis : x y z
#
# Youngs Moduli (GPa) = 94.17407 89.03761 81.99957
#
# Poissons Ratio (x) = 0.26244 0.26475
# Poissons Ratio (y) = 0.27758 0.19495
# Poissons Ratio (z) = 0.30405 0.21168
#
# Static dielectric constant tensor:
#      x y z
#    x 2.892110 0.000000 0.638540 
#    y 0.000000 4.157500 0.000000 
#    z 0.638540 0.000000 3.544000 
# 
# 
# High freq. dielectric constant tensor:
#      x y z
#    x 1.869110 0.000000 0.001200 
#    y 0.000000 1.852070 0.000000 
#    z 0.001200 0.000000 1.855490 
# 
# From -- ./inp_files/281269.got.cif
#   From: 2010.06.25/outbox.cif.g09.slc.cpg/sg15_141_cif.got.tgz:281269.got - 2010.06.28 07:06:18.
