data_PCOD8153733
_publ_section_title
;
Structure prediction by ZEFSAII (Michael W. Deem and Ramdas Pophale) SiO2 
 PCOD8153733
Probable space group: C 2/C
;
_chemical_formula_sum "Si O2"
_cell_formula_units_Z 56
_cell_length_a 25.918514
_cell_length_b 9.008970
_cell_length_c 17.251632
_cell_angle_alpha 90.000000
_cell_angle_beta 139.754456
_cell_angle_gamma 90.000000
_cell_volume 2602.503864
_symmetry_space_group_name_H-M "C 2/C"
_symmetry_group_IT_number 15
_symmetry_cell_setting 'monoclinic'
loop_
_space_group_symop_operation_xyz
x,y,z
-x,y,1/2-z
-x,-y,-z
x,-y,1/2+z
1/2+x,1/2+y,z
1/2-x,1/2+y,1/2-z
1/2-x,1/2-y,-z
1/2+x,1/2-y,1/2+z
loop_
_atom_site_type_symbol
_atom_site_label
_atom_site_fract_x
_atom_site_fract_y
_atom_site_fract_z
Si Si1 0.292228 0.259737 0.268625
Si Si2 0.804474 0.084302 0.235901
Si Si3 0.052240 0.614484 0.110045
Si Si4 0.746898 0.923988 0.508428
Si Si5 0.089599 0.410142 0.824726
Si Si6 0.163277 0.860990 0.502182
Si Si7 0.552599 0.614327 0.011950
O O1 0.265246 0.197863 0.321171
O O2 0.304000 0.435708 0.288383
O O3 0.375751 0.176303 0.357423
O O4 0.227248 0.230074 0.126699
O O5 0.803736 0.039036 0.146155
O O6 0.885145 0.170245 0.351571
O O7 0.089616 0.558306 0.232885
O O8 0.000000 0.500000 0.000000
O O9 0.996668 0.747445 0.074365
O O10 0.750000 0.750000 0.500000
O O11 0.656828 0.971949 0.428469
O O12 0.785973 0.012503 0.482434
O O13 0.000000 0.447615 0.750000
O O14 0.119593 0.248275 0.889687
O O15 0.097948 0.938537 0.484607
O O16 0.500000 0.500000 0.000000
#
# Coordination Sequence:
#
# PCOD8153733 Si02
#       7
#     8   8   8   8   8   8   8
#     4  11  24  44  72 100 140 191 239 287 353 435
#     4  11  26  43  71 100 142 183 239 283 357 425
#     4  12  27  43  70 104 144 183 234 297 363 423
#     4  12  28  45  72 108 145 185 243 302 360 424
#     4  12  25  48  75 103 142 188 248 293 362 433
#     4  11  24  47  75 100 138 197 248 286 353 441
#     4  11  25  45  68 103 140 183 234 294 353 422
#
# _framework density 21.517738999999999
#
# number of rings (size 3 to 8) (size 9 to 14) (size 15 to 20)
#    0.000    0.571    5.714    1.286   12.000    0.000 
#    0.000    0.714    0.000    0.000    0.000    0.000 
#    0.000    0.000    0.000    0.000    0.000    0.000 
#
# Total GULP energy -346925.593051 kJ/mol
# GULP energy per Si atom -12390.199752 kJ/mol
# Density = 2.146876 g / cm^3
# Si number density = 21.517739 Si / 1000 Ang^3
#
#
#
# Elastic Constant Matrix: (Units=GPa)
#
#
# Indices 1 2 3 4 5 6 
#
# 1 107.4335 26.1172 28.9216 0.0000 17.6851 0.0000
# 2 26.1172 78.0138 11.0614 0.0000 4.6724 0.0000
# 3 28.9216 11.0614 98.5990 0.0000 -0.9871 0.0000
# 4 0.0000 0.0000 0.0000 30.4734 0.0000 -2.3654
# 5 17.6851 4.6724 -0.9871 0.0000 43.9120 0.0000
# 6 0.0000 0.0000 0.0000 -2.3654 0.0000 37.3017
#
#
#
# Elastic Compliance Matrix: (Units=1/GPa)
#
#
# Indices 1 2 3 4 5 6 
#
# 1 0.011648 -0.003195 -0.003102 0.000000 -0.004421 0.000000
# 2 -0.003195 0.013991 -0.000635 0.000000 -0.000216 0.000000
# 3 -0.003102 -0.000635 0.011139 0.000000 0.001567 0.000000
# 4 0.000000 0.000000 0.000000 0.032978 0.000000 0.002091
# 5 -0.004421 -0.000216 0.001567 0.000000 0.024611 0.000000
# 6 0.000000 0.000000 0.000000 0.002091 0.000000 0.026941
#
#
# Mechanical properties :
#
#
# Convention : Reuss Voigt Hill
#
# Bulk Modulus (GPa) = 43.64175 46.24962 44.94568
# Shear Modulus (GPa) = 35.01179 36.86716 35.93948
#
# Velocity S-wave (km/s) = 4.03812 4.14374 4.09127
# Velocity P-wave (km/s) = 6.48596 6.66592 6.57656
#
# Compressibility (1/GPa) = 0.02291384
#
# Stress axis : x y z
#
# Youngs Moduli (GPa) = 85.85448 71.47610 89.77471
#
# Poissons Ratio (x) = 0.22834 0.27852
# Poissons Ratio (y) = 0.27428 0.05697
# Poissons Ratio (z) = 0.26635 0.04536
#
# Static dielectric constant tensor:
#      x y z
#    x 4.107790 0.000000 0.144320 
#    y 0.000000 3.779170 0.000000 
#    z 0.144320 0.000000 4.419230 
# 
# 
# High freq. dielectric constant tensor:
#      x y z
#    x 1.854480 0.000000 0.007070 
#    y 0.000000 1.829640 0.000000 
#    z 0.007070 0.000000 1.863870 
# 
# From -- ./inp_files/218494.got.cif
#   From: 2010.06.25/outbox.cif.g09.slc.cpg/sg15_110_cif.got.tgz:218494.got - 2010.06.28 07:06:18.
