data_PCOD8153275
_publ_section_title
;
Structure prediction by ZEFSAII (Michael W. Deem and Ramdas Pophale) SiO2 
 PCOD8153275
Probable space group: C 2/C
;
_chemical_formula_sum "Si O2"
_cell_formula_units_Z 40
_cell_length_a 10.811515
_cell_length_b 14.237419
_cell_length_c 12.438050
_cell_angle_alpha 90.000000
_cell_angle_beta 103.048429
_cell_angle_gamma 90.000000
_cell_volume 1865.130143
_symmetry_space_group_name_H-M "C 2/C"
_symmetry_group_IT_number 15
_symmetry_cell_setting 'monoclinic'
loop_
_space_group_symop_operation_xyz
x,y,z
-x,y,1/2-z
-x,-y,-z
x,-y,1/2+z
1/2+x,1/2+y,z
1/2-x,1/2+y,1/2-z
1/2-x,1/2-y,-z
1/2+x,1/2-y,1/2+z
loop_
_atom_site_type_symbol
_atom_site_label
_atom_site_fract_x
_atom_site_fract_y
_atom_site_fract_z
Si Si1 0.795232 0.019502 0.228626
Si Si2 0.474761 0.571364 0.088203
Si Si3 0.702339 0.177771 0.774338
Si Si4 0.591766 0.835722 0.670377
Si Si5 0.018339 0.713411 0.926557
O O1 0.898330 0.078391 0.315909
O O2 0.654225 0.063011 0.206459
O O3 0.850410 0.026112 0.119322
O O4 0.786775 0.914011 0.270191
O O5 0.445463 0.677548 0.045885
O O6 0.500000 0.500000 0.000000
O O7 0.795449 0.262474 0.815613
O O8 0.617895 0.165062 0.864746
O O9 0.620359 0.201011 0.652287
O O10 0.500000 0.808657 0.750000
O O11 0.517982 0.838313 0.541975
#
# Coordination Sequence:
#
# PCOD8153275 Si02
#       5
#     8   8   8   8   8
#     4  11  25  43  65 103 135 171 228 280 329 405
#     4  11  23  44  71  97 129 180 233 276 333 389
#     4  11  24  46  69  98 137 176 230 276 340 401
#     4  12  27  43  66 101 140 176 228 276 338 408
#     4  11  24  47  71  93 137 188 216 283 344 396
#
# _framework density 21.446224999999998
#
# number of rings (size 3 to 8) (size 9 to 14) (size 15 to 20)
#    0.000    0.800    4.000    3.000   11.200    3.200 
#    0.000    0.000    0.000    0.000    0.000    0.000 
#    0.000    0.000    0.000    0.000    0.000    0.000 
#
# Total GULP energy -248057.547318 kJ/mol
# GULP energy per Si atom -12402.877366 kJ/mol
# Density = 2.139741 g / cm^3
# Si number density = 21.446225 Si / 1000 Ang^3
#
#
#
# Elastic Constant Matrix: (Units=GPa)
#
#
# Indices 1 2 3 4 5 6 
#
# 1 69.8584 0.7453 33.0706 0.0000 -1.9466 0.0000
# 2 0.7453 70.1273 6.5378 0.0000 -6.7898 0.0000
# 3 33.0706 6.5378 125.4479 0.0000 -5.6422 0.0000
# 4 0.0000 0.0000 0.0000 27.3557 0.0000 2.0636
# 5 -1.9466 -6.7898 -5.6422 0.0000 31.0115 0.0000
# 6 0.0000 0.0000 0.0000 2.0636 0.0000 37.7953
#
#
#
# Elastic Compliance Matrix: (Units=1/GPa)
#
#
# Indices 1 2 3 4 5 6 
#
# 1 0.016362 0.000257 -0.004313 0.000000 0.000299 0.000000
# 2 0.000257 0.014621 -0.000691 0.000000 0.003092 0.000000
# 3 -0.004313 -0.000691 0.009201 0.000000 0.001252 0.000000
# 4 0.000000 0.000000 0.000000 0.036707 0.000000 -0.002004
# 5 0.000299 0.003092 0.001252 0.000000 0.033170 0.000000
# 6 0.000000 0.000000 0.000000 -0.002004 0.000000 0.026568
#
#
# Mechanical properties :
#
#
# Convention : Reuss Voigt Hill
#
# Bulk Modulus (GPa) = 32.58397 38.46010 35.52204
# Shear Modulus (GPa) = 31.97923 34.23784 33.10853
#
# Velocity S-wave (km/s) = 3.86571 3.99990 3.93338
# Velocity P-wave (km/s) = 5.92885 6.26932 6.10146
#
# Compressibility (1/GPa) = 0.03068993
#
# Stress axis : x y z
#
# Youngs Moduli (GPa) = 61.11655 68.39577 108.68582
#
# Poissons Ratio (x) = -0.01759 0.46880
# Poissons Ratio (y) = -0.01572 0.07507
# Poissons Ratio (z) = 0.26362 0.04724
#
# Static dielectric constant tensor:
#      x y z
#    x 3.930180 0.000000 -0.225080 
#    y 0.000000 3.727990 0.000000 
#    z -0.225080 0.000000 5.796970 
# 
# 
# High freq. dielectric constant tensor:
#      x y z
#    x 1.844950 0.000000 0.004200 
#    y 0.000000 1.841230 0.000000 
#    z 0.004200 0.000000 1.846910 
# 
# From -- ./inp_files/85649.got.cif
#   From: 2010.06.25/outbox.cif.g09.slc.cpg/sg15_43_cif.got.tgz:85649.got - 2010.06.28 07:06:18.
