data_PCOD8153113
_publ_section_title
;
Structure prediction by ZEFSAII (Michael W. Deem and Ramdas Pophale) SiO2 
 PCOD8153113
Probable space group: C 2/C
;
_chemical_formula_sum "Si O2"
_cell_formula_units_Z 60
_cell_length_a 12.957614
_cell_length_b 24.388425
_cell_length_c 9.350172
_cell_angle_alpha 90.000000
_cell_angle_beta 105.893584
_cell_angle_gamma 90.000000
_cell_volume 2841.845831
_symmetry_space_group_name_H-M "C 2/C"
_symmetry_group_IT_number 15
_symmetry_cell_setting 'monoclinic'
loop_
_space_group_symop_operation_xyz
x,y,z
-x,y,1/2-z
-x,-y,-z
x,-y,1/2+z
1/2+x,1/2+y,z
1/2-x,1/2+y,1/2-z
1/2-x,1/2-y,-z
1/2+x,1/2-y,1/2+z
loop_
_atom_site_type_symbol
_atom_site_label
_atom_site_fract_x
_atom_site_fract_y
_atom_site_fract_z
Si Si1 0.000000 0.564896 0.250000
Si Si2 0.117430 0.382582 0.312420
Si Si3 0.297603 0.697048 0.944562
Si Si4 0.801126 0.170431 0.446245
Si Si5 0.620126 0.614037 0.289134
Si Si6 0.381310 0.247553 0.207067
Si Si7 0.175389 0.541303 0.091962
Si Si8 0.669367 0.920582 0.031271
O O1 0.089334 0.531597 0.188921
O O2 0.070202 0.598864 0.391715
O O3 0.195909 0.331675 0.335691
O O4 0.123771 0.416820 0.460270
O O5 0.141610 0.420633 0.186862
O O6 0.000000 0.356993 0.250000
O O7 0.374723 0.715408 0.846089
O O8 0.250000 0.750000 0.000000
O O9 0.359803 0.654942 0.070809
O O10 0.880738 0.149190 0.355650
O O11 0.699699 0.196574 0.324225
O O12 0.862693 0.215654 0.560323
O O13 0.767574 0.119646 0.534477
O O14 0.500000 0.588120 0.250000
O O15 0.710591 0.566409 0.311832
O O16 0.500000 0.222274 0.250000
O O17 0.198196 0.484589 0.016533
#
# Coordination Sequence:
#
# PCOD8153113 Si02
#       8
#     4   8   8   8   8   8   8   8
#     4  12  22  38  70  96 134 172 210 270 332 386
#     4  11  24  40  62  96 135 170 209 266 332 390
#     4  11  23  43  65  96 128 166 215 267 322 388
#     4  11  24  43  66  96 126 169 217 269 321 388
#     4  11  24  45  69  93 130 174 224 269 319 383
#     4  11  24  43  66  93 129 166 212 267 330 389
#     4  11  25  40  65 100 133 175 216 267 330 390
#     4  12  24  40  65  97 135 167 216 268 324 393
#
# _framework density 21.113038
#
# number of rings (size 3 to 8) (size 9 to 14) (size 15 to 20)
#    0.000    0.800    5.333    2.000    2.800    1.600 
#    0.000    1.333    0.000    0.000    0.000    0.000 
#    0.000    0.000    0.000    0.000    0.000    0.000 
#
# Total GULP energy -371884.811682 kJ/mol
# GULP energy per Si atom -12396.160389 kJ/mol
# Density = 2.106498 g / cm^3
# Si number density = 21.113038 Si / 1000 Ang^3
#
#
#
# Elastic Constant Matrix: (Units=GPa)
#
#
# Indices 1 2 3 4 5 6 
#
# 1 126.1857 24.7050 32.4540 0.0000 4.7173 0.0000
# 2 24.7050 63.2964 6.3552 0.0000 0.4273 0.0000
# 3 32.4540 6.3552 93.1379 0.0000 -7.3633 0.0000
# 4 0.0000 0.0000 0.0000 29.3162 0.0000 -4.1422
# 5 4.7173 0.4273 -7.3633 0.0000 33.3565 0.0000
# 6 0.0000 0.0000 0.0000 -4.1422 0.0000 16.6081
#
#
#
# Elastic Compliance Matrix: (Units=1/GPa)
#
#
# Indices 1 2 3 4 5 6 
#
# 1 0.009492 -0.003366 -0.003237 0.000000 -0.002014 0.000000
# 2 -0.003366 0.017108 0.000026 0.000000 0.000263 0.000000
# 3 -0.003237 0.000026 0.012110 0.000000 0.003131 0.000000
# 4 0.000000 0.000000 0.000000 0.035357 0.000000 0.008818
# 5 -0.002014 0.000263 0.003131 0.000000 0.030952 0.000000
# 6 0.000000 0.000000 0.000000 0.008818 0.000000 0.062411
#
#
# Mechanical properties :
#
#
# Convention : Reuss Voigt Hill
#
# Bulk Modulus (GPa) = 39.12852 45.51650 42.32251
# Shear Modulus (GPa) = 26.44083 30.46322 28.45203
#
# Velocity S-wave (km/s) = 3.54269 3.80262 3.67496
# Velocity P-wave (km/s) = 5.94200 6.39416 6.17222
#
# Compressibility (1/GPa) = 0.02555680
#
# Stress axis : x y z
#
# Youngs Moduli (GPa) = 105.35602 58.45198 82.57382
#
# Poissons Ratio (x) = 0.19675 0.26728
# Poissons Ratio (y) = 0.35463 -0.00217
# Poissons Ratio (z) = 0.34103 -0.00154
#
# Static dielectric constant tensor:
#      x y z
#    x 3.748370 0.000000 -0.029570 
#    y 0.000000 3.553630 0.000000 
#    z -0.029570 0.000000 4.044590 
# 
# 
# High freq. dielectric constant tensor:
#      x y z
#    x 1.819220 0.000000 -0.005950 
#    y 0.000000 1.814880 0.000000 
#    z -0.005950 0.000000 1.847460 
# 
# From -- ./inp_files/35272.got.cif
#   From: 2010.06.25/outbox.cif.g09.slc.cpg/sg15_18_cif.got.tgz:35272.got - 2010.06.28 07:06:18.
