data_PCOD8153568
_publ_section_title
;
Structure prediction by ZEFSAII (Michael W. Deem and Ramdas Pophale) SiO2 
 PCOD8153568
Probable space group: C 2/C
;
_chemical_formula_sum "Si O2"
_cell_formula_units_Z 52
_cell_length_a 11.569478
_cell_length_b 20.763844
_cell_length_c 13.079292
_cell_angle_alpha 90.000000
_cell_angle_beta 125.254188
_cell_angle_gamma 90.000000
_cell_volume 2565.752711
_symmetry_space_group_name_H-M "C 2/C"
_symmetry_group_IT_number 15
_symmetry_cell_setting 'monoclinic'
loop_
_space_group_symop_operation_xyz
x,y,z
-x,y,1/2-z
-x,-y,-z
x,-y,1/2+z
1/2+x,1/2+y,z
1/2-x,1/2+y,1/2-z
1/2-x,1/2-y,-z
1/2+x,1/2-y,1/2+z
loop_
_atom_site_type_symbol
_atom_site_label
_atom_site_fract_x
_atom_site_fract_y
_atom_site_fract_z
Si Si1 0.836200 0.176560 0.922601
Si Si2 0.648985 0.890288 0.177076
Si Si3 0.865337 0.682654 0.489911
Si Si4 0.159858 0.915785 0.809468
Si Si5 0.226276 0.535579 0.514293
Si Si6 0.500000 0.017119 0.750000
Si Si7 0.429469 0.432156 0.950214
O O1 0.770449 0.158354 0.778982
O O2 0.900979 0.247984 0.958968
O O3 0.706710 0.180238 0.936015
O O4 0.959184 0.125478 0.011750
O O5 0.703953 0.926638 0.106490
O O6 0.616923 0.939938 0.252258
O O7 0.513062 0.852067 0.073269
O O8 0.760189 0.646186 0.359955
O O9 0.171002 0.941679 0.699716
O O10 0.000000 0.893952 0.750000
O O11 0.207668 0.966580 0.920589
O O12 0.333217 0.578770 0.501283
O O13 0.081083 0.525277 0.376874
O O14 0.500000 0.500000 0.000000
#
# Coordination Sequence:
#
# PCOD8153568 Si02
#       7
#     8   8   8   8   8   4   8
#     4  11  24  42  69  94 129 176 218 277 322 388
#     4  12  24  43  67  99 134 172 221 275 341 392
#     4  11  24  42  65  98 126 173 225 268 325 383
#     4  12  22  40  66  97 129 170 218 272 329 392
#     4  12  26  40  67 101 136 175 211 279 343 406
#     4  12  22  44  64 102 136 166 220 272 340 400
#     4  12  24  42  67  99 133 167 222 271 335 394
#
# _framework density 20.266956
#
# number of rings (size 3 to 8) (size 9 to 14) (size 15 to 20)
#    0.000    0.308    6.154    3.231    4.308    0.000 
#    0.000    0.769    3.385    0.000    0.000    0.000 
#    0.000    0.000    0.000    0.000    0.000    0.000 
#
# Total GULP energy -322396.005410 kJ/mol
# GULP energy per Si atom -12399.846362 kJ/mol
# Density = 2.022083 g / cm^3
# Si number density = 20.266956 Si / 1000 Ang^3
#
#
#
# Elastic Constant Matrix: (Units=GPa)
#
#
# Indices 1 2 3 4 5 6 
#
# 1 70.0085 26.3422 27.6924 0.0000 -13.1863 0.0000
# 2 26.3422 113.5938 46.9958 0.0000 0.5518 0.0000
# 3 27.6924 46.9958 136.3558 0.0000 -2.5273 0.0000
# 4 0.0000 0.0000 0.0000 40.1879 0.0000 7.4483
# 5 -13.1863 0.5518 -2.5273 0.0000 40.1890 0.0000
# 6 0.0000 0.0000 0.0000 7.4483 0.0000 26.4925
#
#
#
# Elastic Compliance Matrix: (Units=1/GPa)
#
#
# Indices 1 2 3 4 5 6 
#
# 1 0.017444 -0.003091 -0.002373 0.000000 0.005617 0.000000
# 2 -0.003091 0.010820 -0.003127 0.000000 -0.001359 0.000000
# 3 -0.002373 -0.003127 0.008890 0.000000 -0.000177 0.000000
# 4 0.000000 0.000000 0.000000 0.026251 0.000000 -0.007380
# 5 0.005617 -0.001359 -0.000177 0.000000 0.026733 0.000000
# 6 0.000000 0.000000 0.000000 -0.007380 0.000000 0.039822
#
#
# Mechanical properties :
#
#
# Convention : Reuss Voigt Hill
#
# Bulk Modulus (GPa) = 50.06856 58.00208 54.03532
# Shear Modulus (GPa) = 32.51015 35.96904 34.23960
#
# Velocity S-wave (km/s) = 4.00946 4.21736 4.11473
# Velocity P-wave (km/s) = 6.79651 7.23851 7.02099
#
# Compressibility (1/GPa) = 0.01997261
#
# Stress axis : x y z
#
# Youngs Moduli (GPa) = 57.32781 92.41984 112.48415
#
# Poissons Ratio (x) = 0.28563 0.26696
# Poissons Ratio (y) = 0.17717 0.35171
# Poissons Ratio (z) = 0.13606 0.28898
#
# Static dielectric constant tensor:
#      x y z
#    x 3.752620 0.000000 -0.098870 
#    y 0.000000 3.179960 0.000000 
#    z -0.098870 0.000000 4.036920 
# 
# 
# High freq. dielectric constant tensor:
#      x y z
#    x 1.781760 0.000000 0.004080 
#    y 0.000000 1.778520 0.000000 
#    z 0.004080 0.000000 1.814560 
# 
# From -- ./inp_files/89483.got.cif
#   From: 2010.06.25/outbox.cif.g09.slc.cpg/sg15_45_cif.got.tgz:89483.got - 2010.06.28 07:06:18.
