data_PCOD8153343
_publ_section_title
;
Structure prediction by ZEFSAII (Michael W. Deem and Ramdas Pophale) SiO2 
 PCOD8153343
Probable space group: C 2/C
;
_chemical_formula_sum "Si O2"
_cell_formula_units_Z 56
_cell_length_a 11.074967
_cell_length_b 11.172185
_cell_length_c 21.696898
_cell_angle_alpha 90.000000
_cell_angle_beta 63.431491
_cell_angle_gamma 90.000000
_cell_volume 2401.099152
_symmetry_space_group_name_H-M "C 2/C"
_symmetry_group_IT_number 15
_symmetry_cell_setting 'monoclinic'
loop_
_space_group_symop_operation_xyz
x,y,z
-x,y,1/2-z
-x,-y,-z
x,-y,1/2+z
1/2+x,1/2+y,z
1/2-x,1/2+y,1/2-z
1/2-x,1/2-y,-z
1/2+x,1/2-y,1/2+z
loop_
_atom_site_type_symbol
_atom_site_label
_atom_site_fract_x
_atom_site_fract_y
_atom_site_fract_z
Si Si1 0.847215 0.353081 0.286316
Si Si2 0.604572 0.365400 0.425345
Si Si3 0.894534 0.386358 0.818261
Si Si4 0.962141 0.363579 0.938194
Si Si5 0.801056 0.488782 0.070552
Si Si6 0.668052 0.783873 0.343709
Si Si7 0.543666 0.402737 0.576737
O O1 0.745657 0.313573 0.364580
O O2 0.855012 0.496054 0.288822
O O3 0.783311 0.306433 0.237180
O O4 0.000000 0.299618 0.250000
O O5 0.478590 0.280534 0.434193
O O6 0.619807 0.372183 0.495520
O O7 0.572885 0.497509 0.406238
O O8 0.957322 0.417634 0.870529
O O9 0.768479 0.301338 0.858137
O O10 0.000000 0.316831 0.750000
O O11 0.090589 0.405249 0.949159
O O12 0.827239 0.405970 0.004335
O O13 0.826280 0.412209 0.125948
O O14 0.652730 0.546607 0.100494
O O15 0.521478 0.719456 0.381363
#
# Coordination Sequence:
#
# PCOD8153343 Si02
#       7
#     8   8   8   8   8   8   8
#     4  11  25  43  69  99 143 188 233 293 361 440
#     4  11  23  46  72 105 142 190 244 299 364 438
#     4  11  23  45  70  94 137 188 233 288 357 439
#     4  11  24  43  72 102 138 187 236 284 371 431
#     4  11  25  43  68 108 146 179 232 307 357 439
#     4  12  25  46  70 109 141 187 246 301 367 445
#     4  11  25  44  74 111 143 186 248 305 370 439
#
# _framework density 23.322651
#
# number of rings (size 3 to 8) (size 9 to 14) (size 15 to 20)
#    0.000    0.857    2.857    4.286    4.000    2.857 
#    0.000    0.000    0.000    0.000    0.000    0.000 
#    0.000    0.000    0.000    0.000    0.000    0.000 
#
# Total GULP energy -347172.684311 kJ/mol
# GULP energy per Si atom -12399.024440 kJ/mol
# Density = 2.326957 g / cm^3
# Si number density = 23.322651 Si / 1000 Ang^3
#
#
#
# Elastic Constant Matrix: (Units=GPa)
#
#
# Indices 1 2 3 4 5 6 
#
# 1 96.8143 28.4355 35.2080 0.0000 -6.5284 0.0000
# 2 28.4355 74.8086 27.1616 0.0000 8.7386 0.0000
# 3 35.2080 27.1616 139.6569 0.0000 -3.5607 0.0000
# 4 0.0000 0.0000 0.0000 28.6705 0.0000 0.2299
# 5 -6.5284 8.7386 -3.5607 0.0000 34.0656 0.0000
# 6 0.0000 0.0000 0.0000 0.2299 0.0000 36.1163
#
#
#
# Elastic Compliance Matrix: (Units=1/GPa)
#
#
# Indices 1 2 3 4 5 6 
#
# 1 0.012659 -0.004380 -0.002255 0.000000 0.003314 0.000000
# 2 -0.004380 0.016462 -0.002232 0.000000 -0.005296 0.000000
# 3 -0.002255 -0.002232 0.008188 0.000000 0.000996 0.000000
# 4 0.000000 0.000000 0.000000 0.034881 0.000000 -0.000222
# 5 0.003314 -0.005296 0.000996 0.000000 0.031453 0.000000
# 6 0.000000 0.000000 0.000000 -0.000222 0.000000 0.027690
#
#
# Mechanical properties :
#
#
# Convention : Reuss Voigt Hill
#
# Bulk Modulus (GPa) = 51.08816 54.76554 52.92685
# Shear Modulus (GPa) = 32.13528 34.46880 33.30204
#
# Velocity S-wave (km/s) = 3.71598 3.84853 3.78283
# Velocity P-wave (km/s) = 6.35325 6.57882 6.46702
#
# Compressibility (1/GPa) = 0.01957401
#
# Stress axis : x y z
#
# Youngs Moduli (GPa) = 78.99450 60.74774 122.12304
#
# Poissons Ratio (x) = 0.26609 0.27539
# Poissons Ratio (y) = 0.34601 0.27262
# Poissons Ratio (z) = 0.17813 0.13561
#
# Static dielectric constant tensor:
#      x y z
#    x 4.090340 0.000000 -0.246080 
#    y 0.000000 4.100160 0.000000 
#    z -0.246080 0.000000 4.172720 
# 
# 
# High freq. dielectric constant tensor:
#      x y z
#    x 1.916360 0.000000 -0.005400 
#    y 0.000000 1.920650 0.000000 
#    z -0.005400 0.000000 1.923930 
# 
# From -- ./inp_files/237554.got.cif
#   From: 2010.06.25/outbox.cif.g09.slc.cpg/sg15_119_cif.got.tgz:237554.got - 2010.06.28 07:06:18.
