data_PCOD8153932
_publ_section_title
;
Structure prediction by ZEFSAII (Michael W. Deem and Ramdas Pophale) SiO2 
 PCOD8153932
Probable space group: C 2/C
;
_chemical_formula_sum "Si O2"
_cell_formula_units_Z 52
_cell_length_a 15.927297
_cell_length_b 12.584743
_cell_length_c 14.781074
_cell_angle_alpha 90.000000
_cell_angle_beta 57.188000
_cell_angle_gamma 90.000000
_cell_volume 2490.037684
_symmetry_space_group_name_H-M "C 2/C"
_symmetry_group_IT_number 15
_symmetry_cell_setting 'monoclinic'
loop_
_space_group_symop_operation_xyz
x,y,z
-x,y,1/2-z
-x,-y,-z
x,-y,1/2+z
1/2+x,1/2+y,z
1/2-x,1/2+y,1/2-z
1/2-x,1/2-y,-z
1/2+x,1/2-y,1/2+z
loop_
_atom_site_type_symbol
_atom_site_label
_atom_site_fract_x
_atom_site_fract_y
_atom_site_fract_z
Si Si1 0.506367 0.831268 0.523847
Si Si2 0.643573 0.989859 0.361962
Si Si3 0.254045 0.563793 0.137462
Si Si4 0.394802 0.226064 0.355399
Si Si5 0.695459 0.551343 0.586152
Si Si6 0.000000 0.940926 0.750000
Si Si7 0.467532 0.389983 0.568569
O O1 0.405062 0.892586 0.608515
O O2 0.582366 0.831533 0.563650
O O3 0.480244 0.710285 0.511092
O O4 0.560406 0.896837 0.411245
O O5 0.710736 0.976390 0.232686
O O6 0.709584 0.980749 0.412401
O O7 0.163768 0.645383 0.174319
O O8 0.348189 0.622512 0.128882
O O9 0.289117 0.505166 0.024552
O O10 0.500000 0.262637 0.250000
O O11 0.319325 0.322918 0.417209
O O12 0.598361 0.511127 0.693988
O O13 0.998226 0.877489 0.656131
O O14 0.500000 0.500000 0.500000
#
# Coordination Sequence:
#
# PCOD8153932 Si02
#       7
#     8   8   8   8   8   4   8
#     4  11  24  47  66 100 137 182 219 288 343 412
#     4  11  25  43  69  97 143 172 221 279 354 407
#     4  12  23  39  68 102 131 171 228 288 343 400
#     4  12  22  39  72 103 129 174 241 294 341 391
#     4  12  23  42  67 101 129 176 231 287 327 405
#     4  12  24  42  64  92 136 176 218 264 354 402
#     4  12  25  45  68  99 137 178 232 288 338 408
#
# _framework density 20.883217999999999
#
# number of rings (size 3 to 8) (size 9 to 14) (size 15 to 20)
#    0.000    0.308    8.462    1.385    0.000    0.000 
#    5.538    0.769    0.000    0.000    0.000    0.000 
#    0.000    0.000    0.000    0.000    0.000    0.000 
#
# Total GULP energy -322348.345902 kJ/mol
# GULP energy per Si atom -12398.013304 kJ/mol
# Density = 2.083569 g / cm^3
# Si number density = 20.883218 Si / 1000 Ang^3
#
#
#
# Elastic Constant Matrix: (Units=GPa)
#
#
# Indices 1 2 3 4 5 6 
#
# 1 113.3449 35.5134 20.1664 0.0000 14.6867 0.0000
# 2 35.5134 103.2943 35.8089 0.0000 -0.9320 0.0000
# 3 20.1664 35.8089 120.5130 0.0000 11.1503 0.0000
# 4 0.0000 0.0000 0.0000 29.0190 0.0000 -0.9494
# 5 14.6867 -0.9320 11.1503 0.0000 36.1589 0.0000
# 6 0.0000 0.0000 0.0000 -0.9494 0.0000 19.1615
#
#
#
# Elastic Compliance Matrix: (Units=1/GPa)
#
#
# Indices 1 2 3 4 5 6 
#
# 1 0.010547 -0.003557 -0.000312 0.000000 -0.004279 0.000000
# 2 -0.003557 0.012052 -0.003241 0.000000 0.002755 0.000000
# 3 -0.000312 -0.003241 0.009582 0.000000 -0.002912 0.000000
# 4 0.000000 0.000000 0.000000 0.034516 0.000000 0.001710
# 5 -0.004279 0.002755 -0.002912 0.000000 0.030363 0.000000
# 6 0.000000 0.000000 0.000000 0.001710 0.000000 0.052273
#
#
# Mechanical properties :
#
#
# Convention : Reuss Voigt Hill
#
# Bulk Modulus (GPa) = 55.67159 57.79216 56.73188
# Shear Modulus (GPa) = 29.49159 33.24546 31.36852
#
# Velocity S-wave (km/s) = 3.76202 3.99428 3.87989
# Velocity P-wave (km/s) = 6.75180 7.00046 6.87725
#
# Compressibility (1/GPa) = 0.01796248
#
# Stress axis : x y z
#
# Youngs Moduli (GPa) = 94.81380 82.97247 104.35702
#
# Poissons Ratio (x) = 0.29509 0.03258
# Poissons Ratio (y) = 0.33721 0.33821
# Poissons Ratio (z) = 0.02960 0.26890
#
# Static dielectric constant tensor:
#      x y z
#    x 4.248010 0.000000 -0.331730 
#    y 0.000000 3.488450 0.000000 
#    z -0.331730 0.000000 4.227140 
# 
# 
# High freq. dielectric constant tensor:
#      x y z
#    x 1.829870 0.000000 -0.006930 
#    y 0.000000 1.784680 0.000000 
#    z -0.006930 0.000000 1.836280 
# 
# From -- ./inp_files/160791.got.cif
#   From: 2010.06.25/outbox.cif.g09.slc.cpg/sg15_81_cif.got.tgz:160791.got - 2010.06.28 07:06:18.
