data_PCOD8153580
_publ_section_title
;
Structure prediction by ZEFSAII (Michael W. Deem and Ramdas Pophale) SiO2 
 PCOD8153580
Probable space group: C 2/C
;
_chemical_formula_sum "Si O2"
_cell_formula_units_Z 48
_cell_length_a 17.559980
_cell_length_b 9.781386
_cell_length_c 19.472110
_cell_angle_alpha 90.000000
_cell_angle_beta 43.583355
_cell_angle_gamma 90.000000
_cell_volume 2305.761922
_symmetry_space_group_name_H-M "C 2/C"
_symmetry_group_IT_number 15
_symmetry_cell_setting 'monoclinic'
loop_
_space_group_symop_operation_xyz
x,y,z
-x,y,1/2-z
-x,-y,-z
x,-y,1/2+z
1/2+x,1/2+y,z
1/2-x,1/2+y,1/2-z
1/2-x,1/2-y,-z
1/2+x,1/2-y,1/2+z
loop_
_atom_site_type_symbol
_atom_site_label
_atom_site_fract_x
_atom_site_fract_y
_atom_site_fract_z
Si Si1 0.269095 0.890857 0.898960
Si Si2 0.136632 0.639586 0.016834
Si Si3 0.232319 0.412544 0.864212
Si Si4 0.172069 0.181710 0.994011
Si Si5 0.545050 0.738692 0.294141
Si Si6 0.897075 0.531589 0.185501
O O1 0.346636 0.853997 0.912445
O O2 0.345127 0.881657 0.781744
O O3 0.167242 0.784237 0.961744
O O4 0.220558 0.040867 0.936500
O O5 0.009806 0.601601 0.085541
O O6 0.219469 0.527633 0.930946
O O7 0.360662 0.374531 0.774545
O O8 0.188527 0.467711 0.820877
O O9 0.165130 0.278793 0.931980
O O10 0.050068 0.160709 0.102423
O O11 0.250000 0.250000 0.000000
O O12 0.500000 0.787957 0.250000
O O13 0.584221 0.874227 0.307345
#
# Coordination Sequence:
#
# PCOD8153580 Si02
#       6
#     8   8   8   8   8   8
#     4  11  24  42  69 100 134 176 236 278 336 415
#     4  11  24  44  67  97 141 181 223 285 342 412
#     4  12  26  41  68 103 136 170 231 289 333 397
#     4  12  21  43  71 100 127 176 243 279 324 414
#     4  12  23  43  77  99 132 187 238 276 333 420
#     4  12  25  42  69  98 139 182 219 284 357 400
#
# _framework density 20.817412999999998
#
# number of rings (size 3 to 8) (size 9 to 14) (size 15 to 20)
#    0.000    0.333    6.667    2.000    2.333    1.333 
#    0.000    3.333    0.000    0.000    0.000    0.000 
#    0.000    0.000    0.000    0.000    0.000    0.000 
#
# Total GULP energy -297726.190399 kJ/mol
# GULP energy per Si atom -12405.257933 kJ/mol
# Density = 2.077003 g / cm^3
# Si number density = 20.817413 Si / 1000 Ang^3
#
#
#
# Elastic Constant Matrix: (Units=GPa)
#
#
# Indices 1 2 3 4 5 6 
#
# 1 99.6939 27.5667 41.4074 0.0000 -3.8638 0.0000
# 2 27.5667 115.2134 31.1859 0.0000 -7.8049 0.0000
# 3 41.4074 31.1859 134.6763 0.0000 -19.3015 0.0000
# 4 0.0000 0.0000 0.0000 30.8855 0.0000 -0.5601
# 5 -3.8638 -7.8049 -19.3015 0.0000 25.0975 0.0000
# 6 0.0000 0.0000 0.0000 -0.5601 0.0000 25.6260
#
#
#
# Elastic Compliance Matrix: (Units=1/GPa)
#
#
# Indices 1 2 3 4 5 6 
#
# 1 0.011953 -0.002034 -0.003407 0.000000 -0.001412 0.000000
# 2 -0.002034 0.009649 -0.001375 0.000000 0.001630 0.000000
# 3 -0.003407 -0.001375 0.009727 0.000000 0.006528 0.000000
# 4 0.000000 0.000000 0.000000 0.032391 0.000000 0.000708
# 5 -0.001412 0.001630 0.006528 0.000000 0.045155 0.000000
# 6 0.000000 0.000000 0.000000 0.000708 0.000000 0.039038
#
#
# Mechanical properties :
#
#
# Convention : Reuss Voigt Hill
#
# Bulk Modulus (GPa) = 56.50535 61.10041 58.80288
# Shear Modulus (GPa) = 29.86096 32.95003 31.40549
#
# Velocity S-wave (km/s) = 3.79149 3.98277 3.88831
# Velocity P-wave (km/s) = 6.80951 7.11086 6.96181
#
# Compressibility (1/GPa) = 0.01769744
#
# Stress axis : x y z
#
# Youngs Moduli (GPa) = 83.65958 103.63945 102.80948
#
# Poissons Ratio (x) = 0.21076 0.35023
# Poissons Ratio (y) = 0.17013 0.14141
# Poissons Ratio (z) = 0.28499 0.14256
#
# Static dielectric constant tensor:
#      x y z
#    x 3.647570 0.000000 0.019540 
#    y 0.000000 3.890680 0.000000 
#    z 0.019540 0.000000 4.165530 
# 
# 
# High freq. dielectric constant tensor:
#      x y z
#    x 1.802780 0.000000 0.003120 
#    y 0.000000 1.813950 0.000000 
#    z 0.003120 0.000000 1.838030 
# 
# From -- ./inp_files/251781.got.cif
#   From: 2010.06.25/outbox.cif.g09.slc.cpg/sg15_126_cif.got.tgz:251781.got - 2010.06.28 07:06:18.
