data_PCOD8153579
_publ_section_title
;
Structure prediction by ZEFSAII (Michael W. Deem and Ramdas Pophale) SiO2 
 PCOD8153579
Probable space group: C 2/C
;
_chemical_formula_sum "Si O2"
_cell_formula_units_Z 36
_cell_length_a 6.305882
_cell_length_b 21.456611
_cell_length_c 12.353445
_cell_angle_alpha 90.000000
_cell_angle_beta 100.901937
_cell_angle_gamma 90.000000
_cell_volume 1641.290492
_symmetry_space_group_name_H-M "C 2/C"
_symmetry_group_IT_number 15
_symmetry_cell_setting 'monoclinic'
loop_
_space_group_symop_operation_xyz
x,y,z
-x,y,1/2-z
-x,-y,-z
x,-y,1/2+z
1/2+x,1/2+y,z
1/2-x,1/2+y,1/2-z
1/2-x,1/2-y,-z
1/2+x,1/2-y,1/2+z
loop_
_atom_site_type_symbol
_atom_site_label
_atom_site_fract_x
_atom_site_fract_y
_atom_site_fract_z
Si Si1 0.000000 0.400911 0.250000
Si Si2 0.032424 0.790207 0.957884
Si Si3 0.008399 0.922213 0.626528
Si Si4 0.801235 0.803747 0.157554
Si Si5 0.694222 0.991610 0.441395
O O1 0.172791 0.361934 0.195426
O O2 0.147792 0.441274 0.343488
O O3 0.080538 0.852115 0.894686
O O4 0.871904 0.751052 0.867998
O O5 0.250000 0.750000 0.000000
O O6 0.909504 0.816247 0.051757
O O7 0.000000 0.941374 0.750000
O O8 0.872594 0.968684 0.541513
O O9 0.249479 0.940932 0.607965
O O10 0.000000 0.781301 0.250000
O O11 0.500000 0.000000 0.500000
#
# Coordination Sequence:
#
# PCOD8153579 Si02
#       5
#     4   8   8   8   8
#     4  12  24  44  72 100 140 188 242 290 360 430
#     4  11  25  44  66 100 141 182 236 293 355 419
#     4  11  25  42  67  99 138 177 231 292 346 417
#     4  11  24  42  68  99 134 186 233 291 346 424
#     4  11  24  45  68 100 137 183 233 289 356 417
#
# _framework density 21.933959000000002
#
# number of rings (size 3 to 8) (size 9 to 14) (size 15 to 20)
#    0.000    0.889    0.000    6.667    4.667    6.222 
#    2.000    0.000    0.000    0.000    0.000    0.000 
#    0.000    0.000    0.000    0.000    0.000    0.000 
#
# Total GULP energy -223036.209420 kJ/mol
# GULP energy per Si atom -12390.900523 kJ/mol
# Density = 2.188404 g / cm^3
# Si number density = 21.933959 Si / 1000 Ang^3
#
#
#
# Elastic Constant Matrix: (Units=GPa)
#
#
# Indices 1 2 3 4 5 6 
#
# 1 129.5352 61.3315 48.8735 0.0000 -7.1741 0.0000
# 2 61.3315 130.2343 64.0637 0.0000 -4.8338 0.0000
# 3 48.8735 64.0637 145.5500 0.0000 6.4286 0.0000
# 4 0.0000 0.0000 0.0000 77.3870 0.0000 0.6010
# 5 -7.1741 -4.8338 6.4286 0.0000 49.2176 0.0000
# 6 0.0000 0.0000 0.0000 0.6010 0.0000 38.2296
#
#
#
# Elastic Compliance Matrix: (Units=1/GPa)
#
#
# Indices 1 2 3 4 5 6 
#
# 1 0.010336 -0.003932 -0.001800 0.000000 0.001355 0.000000
# 2 -0.003932 0.011413 -0.003749 0.000000 0.001037 0.000000
# 3 -0.001800 -0.003749 0.009206 0.000000 -0.001833 0.000000
# 4 0.000000 0.000000 0.000000 0.012924 0.000000 -0.000203
# 5 0.001355 0.001037 -0.001833 0.000000 0.020857 0.000000
# 6 0.000000 0.000000 0.000000 -0.000203 0.000000 0.026161
#
#
# Mechanical properties :
#
#
# Convention : Reuss Voigt Hill
#
# Bulk Modulus (GPa) = 83.38023 83.76187 83.57105
# Shear Modulus (GPa) = 43.91581 48.37023 46.14302
#
# Velocity S-wave (km/s) = 4.47943 4.70112 4.59161
# Velocity P-wave (km/s) = 8.05298 8.23034 8.14214
#
# Compressibility (1/GPa) = 0.01199325
#
# Stress axis : x y z
#
# Youngs Moduli (GPa) = 96.75276 87.62213 108.62608
#
# Poissons Ratio (x) = 0.34450 0.19552
# Poissons Ratio (y) = 0.38040 0.40723
# Poissons Ratio (z) = 0.17414 0.32849
#
# Static dielectric constant tensor:
#      x y z
#    x 3.772150 0.000000 0.119170 
#    y 0.000000 3.885350 0.000000 
#    z 0.119170 0.000000 4.012930 
# 
# 
# High freq. dielectric constant tensor:
#      x y z
#    x 1.876570 0.000000 -0.001720 
#    y 0.000000 1.859230 0.000000 
#    z -0.001720 0.000000 1.885860 
# 
# From -- ./inp_files/72468.got.cif
#   From: 2010.06.25/outbox.cif.g09.slc.cpg/sg15_37_cif.got.tgz:72468.got - 2010.06.28 07:06:18.
