data_PCOD8153256
_publ_section_title
;
Structure prediction by ZEFSAII (Michael W. Deem and Ramdas Pophale) SiO2 
 PCOD8153256
Probable space group: C 2/C
;
_chemical_formula_sum "Si O2"
_cell_formula_units_Z 60
_cell_length_a 8.748603
_cell_length_b 10.544872
_cell_length_c 29.146521
_cell_angle_alpha 90.000000
_cell_angle_beta 84.188812
_cell_angle_gamma 90.000000
_cell_volume 2675.032931
_symmetry_space_group_name_H-M "C 2/C"
_symmetry_group_IT_number 15
_symmetry_cell_setting 'monoclinic'
loop_
_space_group_symop_operation_xyz
x,y,z
-x,y,1/2-z
-x,-y,-z
x,-y,1/2+z
1/2+x,1/2+y,z
1/2-x,1/2+y,1/2-z
1/2-x,1/2-y,-z
1/2+x,1/2-y,1/2+z
loop_
_atom_site_type_symbol
_atom_site_label
_atom_site_fract_x
_atom_site_fract_y
_atom_site_fract_z
Si Si1 0.372549 0.560543 0.412372
Si Si2 0.667633 0.665476 0.825632
Si Si3 0.980236 0.586800 0.804488
Si Si4 0.084083 0.707362 0.888457
Si Si5 0.500000 0.561710 0.750000
Si Si6 0.956206 0.456197 0.551412
Si Si7 0.426044 0.287792 0.408149
Si Si8 0.235717 0.929481 0.685860
O O1 0.497393 0.671807 0.413869
O O2 0.216212 0.600783 0.442299
O O3 0.426137 0.425931 0.433544
O O4 0.340983 0.525625 0.359576
O O5 0.799956 0.555520 0.823415
O O6 0.537060 0.646516 0.792394
O O7 0.583289 0.705122 0.874394
O O8 0.778117 0.780227 0.808034
O O9 0.000000 0.620373 0.750000
O O10 0.041325 0.700863 0.835773
O O11 0.084150 0.466268 0.815722
O O12 0.028932 0.576982 0.914998
O O13 0.266187 0.728118 0.885877
O O14 0.648724 0.481398 0.732796
O O15 0.000000 0.500000 0.500000
O O16 0.064864 0.336312 0.560120
#
# Coordination Sequence:
#
# PCOD8153256 Si02
#       8
#     8   8   8   8   4   8   8   8
#     4  11  23  44  69  99 145 178 224 288 351 409
#     4  12  25  40  66  91 136 185 231 285 340 396
#     4  12  23  41  64  96 136 185 232 279 334 406
#     4  11  24  45  70 102 144 183 226 289 354 413
#     4  12  26  40  60  98 130 184 244 278 328 404
#     4  11  25  48  75 101 138 182 233 293 357 432
#     4  11  23  46  69 102 136 180 230 282 354 418
#     4  12  24  44  60  94 138 182 233 286 329 405
#
# _framework density 22.429631000000001
#
# number of rings (size 3 to 8) (size 9 to 14) (size 15 to 20)
#    0.000    0.533    8.000    0.000    1.867    5.867 
#    0.000    1.333    0.000    0.000    0.000    0.000 
#    0.000    0.000    0.000    0.000    0.000    0.000 
#
# Total GULP energy -371714.672015 kJ/mol
# GULP energy per Si atom -12390.489067 kJ/mol
# Density = 2.237858 g / cm^3
# Si number density = 22.429631 Si / 1000 Ang^3
#
#
#
# Elastic Constant Matrix: (Units=GPa)
#
#
# Indices 1 2 3 4 5 6 
#
# 1 119.1590 39.4999 20.7703 0.0000 -9.5202 0.0000
# 2 39.4999 117.8964 14.8663 0.0000 4.5715 0.0000
# 3 20.7703 14.8663 81.4577 0.0000 -7.6405 0.0000
# 4 0.0000 0.0000 0.0000 22.5238 0.0000 -1.8621
# 5 -9.5202 4.5715 -7.6405 0.0000 24.0157 0.0000
# 6 0.0000 0.0000 0.0000 -1.8621 0.0000 36.3219
#
#
#
# Elastic Compliance Matrix: (Units=1/GPa)
#
#
# Indices 1 2 3 4 5 6 
#
# 1 0.010108 -0.003348 -0.001578 0.000000 0.004142 0.000000
# 2 -0.003348 0.009908 -0.001294 0.000000 -0.003625 0.000000
# 3 -0.001578 -0.001294 0.013275 0.000000 0.003844 0.000000
# 4 0.000000 0.000000 0.000000 0.044587 0.000000 0.002286
# 5 0.004142 -0.003625 0.003844 0.000000 0.045195 0.000000
# 6 0.000000 0.000000 0.000000 0.002286 0.000000 0.027649
#
#
# Mechanical properties :
#
#
# Convention : Reuss Voigt Hill
#
# Bulk Modulus (GPa) = 47.96126 52.08735 50.02430
# Shear Modulus (GPa) = 29.39240 32.79739 31.09489
#
# Velocity S-wave (km/s) = 3.62391 3.82807 3.72739
# Velocity P-wave (km/s) = 6.24017 6.54307 6.39341
#
# Compressibility (1/GPa) = 0.02085016
#
# Stress axis : x y z
#
# Youngs Moduli (GPa) = 98.93128 100.93259 75.32701
#
# Poissons Ratio (x) = 0.33795 0.11885
# Poissons Ratio (y) = 0.33125 0.09751
# Poissons Ratio (z) = 0.15609 0.13065
#
# Static dielectric constant tensor:
#      x y z
#    x 4.215940 0.000000 -0.148860 
#    y 0.000000 4.157870 0.000000 
#    z -0.148860 0.000000 3.751640 
# 
# 
# High freq. dielectric constant tensor:
#      x y z
#    x 1.898920 0.000000 -0.014720 
#    y 0.000000 1.886130 0.000000 
#    z -0.014720 0.000000 1.854140 
# 
# From -- ./inp_files/307137.got.cif
#   From: 2010.06.25/outbox.cif.g09.slc.cpg/sg15_154_cif.got.tgz:307137.got - 2010.06.28 07:06:18.
