data_PCOD8153264
_publ_section_title
;
Structure prediction by ZEFSAII (Michael W. Deem and Ramdas Pophale) SiO2 
 PCOD8153264
Probable space group: C 2/C
;
_chemical_formula_sum "Si O2"
_cell_formula_units_Z 56
_cell_length_a 27.283161
_cell_length_b 9.022771
_cell_length_c 12.016935
_cell_angle_alpha 90.000000
_cell_angle_beta 116.324742
_cell_angle_gamma 90.000000
_cell_volume 2651.424800
_symmetry_space_group_name_H-M "C 2/C"
_symmetry_group_IT_number 15
_symmetry_cell_setting 'monoclinic'
loop_
_space_group_symop_operation_xyz
x,y,z
-x,y,1/2-z
-x,-y,-z
x,-y,1/2+z
1/2+x,1/2+y,z
1/2-x,1/2+y,1/2-z
1/2-x,1/2-y,-z
1/2+x,1/2-y,1/2+z
loop_
_atom_site_type_symbol
_atom_site_label
_atom_site_fract_x
_atom_site_fract_y
_atom_site_fract_z
Si Si1 0.954310 0.864442 0.289257
Si Si2 0.311979 0.228847 0.846777
Si Si3 0.140748 0.661238 0.376277
Si Si4 0.619365 0.157192 0.941449
Si Si5 0.989226 0.666092 0.525415
Si Si6 0.701626 0.106733 0.214265
Si Si7 0.592612 0.673802 0.208690
O O1 0.911548 0.766434 0.178176
O O2 0.984135 0.769653 0.413303
O O3 0.000000 0.923787 0.250000
O O4 0.923933 0.002839 0.314465
O O5 0.263953 0.342193 0.770417
O O6 0.367887 0.294407 0.854685
O O7 0.299483 0.070521 0.778845
O O8 0.318315 0.212662 0.985537
O O9 0.118632 0.496594 0.374161
O O10 0.172632 0.675060 0.292691
O O11 0.565382 0.173995 0.959073
O O12 0.623000 0.290292 0.855898
O O13 0.671609 0.167376 0.074258
O O14 0.000000 0.500000 0.500000
O O15 0.039735 0.720966 0.650000
#
# Coordination Sequence:
#
# PCOD8153264 Si02
#       7
#     8   8   8   8   8   8   8
#     4  12  25  42  68 103 141 180 223 280 341 408
#     4  11  26  45  72  99 137 180 227 287 339 408
#     4  11  23  47  68 101 135 175 234 276 342 408
#     4  11  23  44  70  97 136 177 225 281 338 410
#     4  12  23  42  71  98 139 179 226 277 336 410
#     4  11  24  46  70 101 134 178 233 281 343 406
#     4  12  26  44  64 105 142 177 226 279 343 404
#
# _framework density 21.120719999999999
#
# number of rings (size 3 to 8) (size 9 to 14) (size 15 to 20)
#    0.000    0.571    2.857    6.429    2.000    2.857 
#    0.000    0.000    0.000    0.000    0.000    0.000 
#    0.000    0.000    0.000    0.000    0.000    0.000 
#
# Total GULP energy -347447.410572 kJ/mol
# GULP energy per Si atom -12408.836092 kJ/mol
# Density = 2.107265 g / cm^3
# Si number density = 21.120720 Si / 1000 Ang^3
#
#
#
# Elastic Constant Matrix: (Units=GPa)
#
#
# Indices 1 2 3 4 5 6 
#
# 1 49.6774 19.0924 12.6460 0.0000 11.4807 0.0000
# 2 19.0924 111.8977 49.7723 0.0000 1.6946 0.0000
# 3 12.6460 49.7723 96.5659 0.0000 4.1247 0.0000
# 4 0.0000 0.0000 0.0000 25.6196 0.0000 4.0308
# 5 11.4807 1.6946 4.1247 0.0000 34.0292 0.0000
# 6 0.0000 0.0000 0.0000 4.0308 0.0000 40.2574
#
#
#
# Elastic Compliance Matrix: (Units=1/GPa)
#
#
# Indices 1 2 3 4 5 6 
#
# 1 0.023468 -0.003460 -0.000964 0.000000 -0.007628 0.000000
# 2 -0.003460 0.012106 -0.005841 0.000000 0.001272 0.000000
# 3 -0.000964 -0.005841 0.013536 0.000000 -0.001025 0.000000
# 4 0.000000 0.000000 0.000000 0.039657 0.000000 -0.003971
# 5 -0.007628 0.001272 -0.001025 0.000000 0.032021 0.000000
# 6 0.000000 0.000000 0.000000 -0.003971 0.000000 0.025238
#
#
# Mechanical properties :
#
#
# Convention : Reuss Voigt Hill
#
# Bulk Modulus (GPa) = 34.98923 46.79581 40.89252
# Shear Modulus (GPa) = 28.39576 31.75658 30.07617
#
# Velocity S-wave (km/s) = 3.67065 3.88180 3.77770
# Velocity P-wave (km/s) = 5.87939 6.50351 6.19931
#
# Compressibility (1/GPa) = 0.02858022
#
# Stress axis : x y z
#
# Youngs Moduli (GPa) = 42.61126 82.60483 73.87605
#
# Poissons Ratio (x) = 0.28580 0.07123
# Poissons Ratio (y) = 0.14743 0.43150
# Poissons Ratio (z) = 0.04109 0.48249
#
# Static dielectric constant tensor:
#      x y z
#    x 3.770860 0.000000 -0.018600 
#    y 0.000000 3.836920 0.000000 
#    z -0.018600 0.000000 4.028470 
# 
# 
# High freq. dielectric constant tensor:
#      x y z
#    x 1.833780 0.000000 -0.002050 
#    y 0.000000 1.830710 0.000000 
#    z -0.002050 0.000000 1.843250 
# 
# From -- ./inp_files/125966.got.cif
#   From: 2010.06.25/outbox.cif.g09.slc.cpg/sg15_63_cif.got.tgz:125966.got - 2010.06.28 07:06:18.
