data_PCOD8153208
_publ_section_title
;
Structure prediction by ZEFSAII (Michael W. Deem and Ramdas Pophale) SiO2 
 PCOD8153208
Probable space group: C 2/C
;
_chemical_formula_sum "Si O2"
_cell_formula_units_Z 52
_cell_length_a 17.137818
_cell_length_b 9.117711
_cell_length_c 20.555596
_cell_angle_alpha 90.000000
_cell_angle_beta 132.853162
_cell_angle_gamma 90.000000
_cell_volume 2354.692091
_symmetry_space_group_name_H-M "C 2/C"
_symmetry_group_IT_number 15
_symmetry_cell_setting 'monoclinic'
loop_
_space_group_symop_operation_xyz
x,y,z
-x,y,1/2-z
-x,-y,-z
x,-y,1/2+z
1/2+x,1/2+y,z
1/2-x,1/2+y,1/2-z
1/2-x,1/2-y,-z
1/2+x,1/2-y,1/2+z
loop_
_atom_site_type_symbol
_atom_site_label
_atom_site_fract_x
_atom_site_fract_y
_atom_site_fract_z
Si Si1 0.946934 0.117496 0.595618
Si Si2 0.581637 0.435010 0.598491
Si Si3 0.755529 0.082865 0.982564
Si Si4 0.115815 0.414419 0.000777
Si Si5 0.316577 0.012439 0.192910
Si Si6 0.000000 0.721333 0.250000
Si Si7 0.084332 0.610096 0.627120
O O1 0.907875 0.242433 0.523200
O O2 0.938860 0.177470 0.663876
O O3 0.875265 0.973180 0.541918
O O4 0.066609 0.056046 0.648146
O O5 0.500000 0.500000 0.500000
O O6 0.702431 0.415201 0.642752
O O7 0.543374 0.276077 0.600768
O O8 0.750000 0.250000 0.000000
O O9 0.689407 0.076616 0.877807
O O10 0.712813 0.970232 0.012623
O O11 0.015934 0.506386 0.919260
O O12 0.141520 0.437692 0.091796
O O13 0.339754 0.907382 0.267348
O O14 0.410937 0.130227 0.238498
#
# Coordination Sequence:
#
# PCOD8153208 Si02
#       7
#     8   8   8   8   8   4   8
#     4  12  25  46  73 104 148 194 251 302 387 450
#     4  12  26  46  73 109 147 195 246 317 377 450
#     4  12  26  44  74 106 150 199 245 310 386 456
#     4  11  23  43  74 103 148 196 248 299 385 450
#     4  12  26  46  76 106 154 191 255 316 378 445
#     4  12  28  48  74 114 142 204 256 326 370 458
#     4  11  25  43  73 108 148 191 254 308 377 450
#
# _framework density 22.083566000000001
#
# number of rings (size 3 to 8) (size 9 to 14) (size 15 to 20)
#    0.000    0.308    6.154    1.385    4.308    2.462 
#    0.000    0.000    0.000    0.000    0.000    0.000 
#    0.000    0.000    0.000    0.000    0.000    0.000 
#
# Total GULP energy -322341.501059 kJ/mol
# GULP energy per Si atom -12397.750041 kJ/mol
# Density = 2.203330 g / cm^3
# Si number density = 22.083566 Si / 1000 Ang^3
#
#
#
# Elastic Constant Matrix: (Units=GPa)
#
#
# Indices 1 2 3 4 5 6 
#
# 1 117.4156 46.6849 34.4812 0.0000 0.7386 0.0000
# 2 46.6849 152.1844 44.3204 0.0000 6.9855 0.0000
# 3 34.4812 44.3204 136.0226 0.0000 -22.4354 0.0000
# 4 0.0000 0.0000 0.0000 32.4627 0.0000 -1.1740
# 5 0.7386 6.9855 -22.4354 0.0000 40.5918 0.0000
# 6 0.0000 0.0000 0.0000 -1.1740 0.0000 34.5546
#
#
#
# Elastic Compliance Matrix: (Units=1/GPa)
#
#
# Indices 1 2 3 4 5 6 
#
# 1 0.010067 -0.002510 -0.001863 0.000000 -0.000781 0.000000
# 2 -0.002510 0.008190 -0.002484 0.000000 -0.002736 0.000000
# 3 -0.001863 -0.002484 0.009583 0.000000 0.005758 0.000000
# 4 0.000000 0.000000 0.000000 0.030843 0.000000 0.001048
# 5 -0.000781 -0.002736 0.005758 0.000000 0.028303 0.000000
# 6 0.000000 0.000000 0.000000 0.001048 0.000000 0.028975
#
#
# Mechanical properties :
#
#
# Convention : Reuss Voigt Hill
#
# Bulk Modulus (GPa) = 70.78746 72.95506 71.87126
# Shear Modulus (GPa) = 37.20749 40.19756 38.70252
#
# Velocity S-wave (km/s) = 4.10914 4.27106 4.19089
# Velocity P-wave (km/s) = 7.39171 7.57828 7.48557
#
# Compressibility (1/GPa) = 0.01412680
#
# Stress axis : x y z
#
# Youngs Moduli (GPa) = 99.33829 122.10350 104.35265
#
# Poissons Ratio (x) = 0.30644 0.19440
# Poissons Ratio (y) = 0.24931 0.25917
# Poissons Ratio (z) = 0.18506 0.30326
#
# Static dielectric constant tensor:
#      x y z
#    x 4.422620 0.000000 -0.131080 
#    y 0.000000 4.037130 0.000000 
#    z -0.131080 0.000000 3.965910 
# 
# 
# High freq. dielectric constant tensor:
#      x y z
#    x 1.886290 0.000000 -0.015170 
#    y 0.000000 1.871540 0.000000 
#    z -0.015170 0.000000 1.865630 
# 
# From -- ./inp_files/247867.got.cif
#   From: 2010.06.25/outbox.cif.g09.slc.cpg/sg15_124_cif.got.tgz:247867.got - 2010.06.28 07:06:18.
