data_PCOD8153851
_publ_section_title
;
Structure prediction by ZEFSAII (Michael W. Deem and Ramdas Pophale) SiO2 
 PCOD8153851
Probable space group: C 2/C
;
_chemical_formula_sum "Si O2"
_cell_formula_units_Z 64
_cell_length_a 16.738585
_cell_length_b 7.867706
_cell_length_c 16.500669
_cell_angle_alpha 90.000000
_cell_angle_beta 76.089905
_cell_angle_gamma 90.000000
_cell_volume 2109.317118
_symmetry_space_group_name_H-M "C 2/C"
_symmetry_group_IT_number 15
_symmetry_cell_setting 'monoclinic'
loop_
_space_group_symop_operation_xyz
x,y,z
-x,y,1/2-z
-x,-y,-z
x,-y,1/2+z
1/2+x,1/2+y,z
1/2-x,1/2+y,1/2-z
1/2-x,1/2-y,-z
1/2+x,1/2-y,1/2+z
loop_
_atom_site_type_symbol
_atom_site_label
_atom_site_fract_x
_atom_site_fract_y
_atom_site_fract_z
Si Si1 0.312197 0.451411 0.441508
Si Si2 0.298137 0.360689 0.766091
Si Si3 0.915825 0.998060 0.067925
Si Si4 0.585187 0.665875 0.772210
Si Si5 0.155655 0.592674 0.419114
Si Si6 0.887399 0.701624 0.901652
Si Si7 0.930750 0.331538 0.166828
Si Si8 0.182817 0.386241 0.653003
O O1 0.337278 0.471337 0.529495
O O2 0.214175 0.468520 0.458402
O O3 0.355498 0.611684 0.380736
O O4 0.337456 0.266200 0.405229
O O5 0.338906 0.545252 0.776991
O O6 0.217977 0.316827 0.839977
O O7 0.362334 0.194062 0.756841
O O8 0.269558 0.371035 0.678685
O O9 0.890134 0.713721 0.001409
O O10 0.920966 0.142092 0.134093
O O11 0.000000 0.000000 0.000000
O O12 0.500000 0.607614 0.750000
O O13 0.584299 0.671471 0.872499
O O14 0.607940 0.858835 0.738029
O O15 0.087850 0.478388 0.392085
O O16 0.820993 0.560506 0.894829
O O17 0.973005 0.652793 0.836153
#
# Coordination Sequence:
#
# PCOD8153851 Si02
#       8
#     8   8   8   8   8   8   8   8
#     4  12  26  53  83 127 174 231 293 362 454 528
#     4  11  26  50  85 122 171 234 291 356 447 528
#     4  11  24  45  86 123 167 232 289 358 449 531
#     4  11  26  49  81 120 167 227 291 355 441 534
#     4  12  27  50  81 127 175 225 302 367 439 532
#     4  12  30  51  88 130 175 226 298 371 448 529
#     4  11  25  52  82 127 172 230 292 366 442 532
#     4  12  28  55  86 126 174 232 297 370 437 535
#
# _framework density 30.341576
#
# number of rings (size 3 to 8) (size 9 to 14) (size 15 to 20)
#    0.000    0.500    3.750    2.250    7.000    4.000 
#    0.000    1.250    0.000    1.500    0.000    0.000 
#    0.000    0.000    0.000    0.000    0.000    0.000 
#
# Total GULP energy -396741.877907 kJ/mol
# GULP energy per Si atom -12398.183685 kJ/mol
# Density = 3.027252 g / cm^3
# Si number density = 30.341576 Si / 1000 Ang^3
#
#
#
# Elastic Constant Matrix: (Units=GPa)
#
#
# Indices 1 2 3 4 5 6 
#
# 1 150.4731 15.4902 20.0200 0.0000 13.8056 0.0000
# 2 15.4902 109.0543 32.4798 0.0000 12.4828 0.0000
# 3 20.0200 32.4798 140.2266 0.0000 1.1618 0.0000
# 4 0.0000 0.0000 0.0000 52.7803 0.0000 7.0130
# 5 13.8056 12.4828 1.1618 0.0000 65.7632 0.0000
# 6 0.0000 0.0000 0.0000 7.0130 0.0000 37.2138
#
#
#
# Elastic Compliance Matrix: (Units=1/GPa)
#
#
# Indices 1 2 3 4 5 6 
#
# 1 0.006940 -0.000582 -0.000845 0.000000 -0.001332 0.000000
# 2 -0.000582 0.010123 -0.002247 0.000000 -0.001760 0.000000
# 3 -0.000845 -0.002247 0.007769 0.000000 0.000467 0.000000
# 4 0.000000 0.000000 0.000000 0.019433 0.000000 -0.003662
# 5 -0.001332 -0.001760 0.000467 0.000000 0.015811 0.000000
# 6 0.000000 0.000000 0.000000 -0.003662 0.000000 0.027562
#
#
# Mechanical properties :
#
#
# Convention : Reuss Voigt Hill
#
# Bulk Modulus (GPa) = 57.19489 59.52600 58.36044
# Shear Modulus (GPa) = 49.59631 53.26906 51.43268
#
# Velocity S-wave (km/s) = 4.04740 4.19459 4.12165
# Velocity P-wave (km/s) = 6.38226 6.56663 6.47510
#
# Compressibility (1/GPa) = 0.01748408
#
# Stress axis : x y z
#
# Youngs Moduli (GPa) = 144.08816 98.78449 128.72363
#
# Poissons Ratio (x) = 0.05746 0.10878
# Poissons Ratio (y) = 0.08381 0.28926
# Poissons Ratio (z) = 0.12177 0.22198
#
# Static dielectric constant tensor:
#      x y z
#    x 4.661650 0.000000 2.125610 
#    y 0.000000 6.966490 0.000000 
#    z 2.125610 0.000000 2.875300 
# 
# 
# High freq. dielectric constant tensor:
#      x y z
#    x 2.241950 0.000000 0.012880 
#    y 0.000000 2.249520 0.000000 
#    z 0.012880 0.000000 2.302360 
# 
# From -- ./inp_files/276308.got.cif
#   From: 2010.06.25/outbox.cif.g09.slc.cpg/sg15_139_cif.got.tgz:276308.got - 2010.06.28 07:06:18.
