data_PCOD8153187
_publ_section_title
;
Structure prediction by ZEFSAII (Michael W. Deem and Ramdas Pophale) SiO2 
 PCOD8153187
Probable space group: C 2/C
;
_chemical_formula_sum "Si O2"
_cell_formula_units_Z 48
_cell_length_a 11.357266
_cell_length_b 11.195512
_cell_length_c 18.116187
_cell_angle_alpha 90.000000
_cell_angle_beta 66.961557
_cell_angle_gamma 90.000000
_cell_volume 2119.760673
_symmetry_space_group_name_H-M "C 2/C"
_symmetry_group_IT_number 15
_symmetry_cell_setting 'monoclinic'
loop_
_space_group_symop_operation_xyz
x,y,z
-x,y,1/2-z
-x,-y,-z
x,-y,1/2+z
1/2+x,1/2+y,z
1/2-x,1/2+y,1/2-z
1/2-x,1/2-y,-z
1/2+x,1/2-y,1/2+z
loop_
_atom_site_type_symbol
_atom_site_label
_atom_site_fract_x
_atom_site_fract_y
_atom_site_fract_z
Si Si1 0.728032 0.075693 0.546664
Si Si2 0.281298 0.655730 0.800470
Si Si3 0.150247 0.308100 0.580115
Si Si4 0.574085 0.341518 0.384168
Si Si5 0.499881 0.210487 0.667811
Si Si6 0.887467 0.961192 0.871359
O O1 0.850300 0.120834 0.562017
O O2 0.612324 0.165375 0.587801
O O3 0.767503 0.078425 0.451369
O O4 0.678291 0.946562 0.583615
O O5 0.344558 0.750602 0.839887
O O6 0.326844 0.679058 0.706430
O O7 0.326084 0.522197 0.813247
O O8 0.129712 0.674529 0.841578
O O9 0.250000 0.250000 0.500000
O O10 0.006915 0.281292 0.584000
O O11 0.470499 0.443845 0.395543
O O12 0.500000 0.153020 0.750000
O O13 0.520264 0.352344 0.672405
#
# Coordination Sequence:
#
# PCOD8153187 Si02
#       6
#     8   8   8   8   8   8
#     4  12  25  43  69 105 135 179 231 286 348 412
#     4  11  24  46  70  99 138 183 231 282 349 420
#     4  11  23  43  72 102 132 176 234 289 343 410
#     4  11  23  44  71  97 137 180 231 283 348 413
#     4  12  26  45  65 102 143 179 230 283 353 419
#     4  11  24  43  71  97 134 184 230 282 346 416
#
# _framework density 22.644065000000001
#
# number of rings (size 3 to 8) (size 9 to 14) (size 15 to 20)
#    0.000    0.667    5.000    5.000    2.333    3.333 
#    3.000    0.000    0.000    0.000    0.000    0.000 
#    0.000    0.000    0.000    0.000    0.000    0.000 
#
# Total GULP energy -297668.016309 kJ/mol
# GULP energy per Si atom -12402.834013 kJ/mol
# Density = 2.259253 g / cm^3
# Si number density = 22.644065 Si / 1000 Ang^3
#
#
#
# Elastic Constant Matrix: (Units=GPa)
#
#
# Indices 1 2 3 4 5 6 
#
# 1 138.9967 47.4745 -6.9519 0.0000 -13.9340 0.0000
# 2 47.4745 79.6046 -11.4945 0.0000 7.4149 0.0000
# 3 -6.9519 -11.4945 66.8058 0.0000 -10.3346 0.0000
# 4 0.0000 0.0000 0.0000 28.7486 0.0000 -6.9366
# 5 -13.9340 7.4149 -10.3346 0.0000 32.6322 0.0000
# 6 0.0000 0.0000 0.0000 -6.9366 0.0000 35.7891
#
#
#
# Elastic Compliance Matrix: (Units=1/GPa)
#
#
# Indices 1 2 3 4 5 6 
#
# 1 0.010034 -0.006419 0.000871 0.000000 0.006019 0.000000
# 2 -0.006419 0.017161 0.001322 0.000000 -0.006221 0.000000
# 3 0.000871 0.001322 0.016086 0.000000 0.005166 0.000000
# 4 0.000000 0.000000 0.000000 0.036491 0.000000 0.007073
# 5 0.006019 -0.006221 0.005166 0.000000 0.036264 0.000000
# 6 0.000000 0.000000 0.000000 0.007073 0.000000 0.029312
#
#
# Mechanical properties :
#
#
# Convention : Reuss Voigt Hill
#
# Bulk Modulus (GPa) = 28.71191 38.16258 33.43724
# Shear Modulus (GPa) = 30.22818 36.52592 33.37705
#
# Velocity S-wave (km/s) = 3.65763 4.02063 3.84342
# Velocity P-wave (km/s) = 5.52674 6.20031 5.87319
#
# Compressibility (1/GPa) = 0.03482876
#
# Stress axis : x y z
#
# Youngs Moduli (GPa) = 99.66461 58.27328 62.16585
#
# Poissons Ratio (x) = 0.37404 -0.05413
# Poissons Ratio (y) = 0.63972 -0.08220
# Poissons Ratio (z) = -0.08679 -0.07705
#
# Static dielectric constant tensor:
#      x y z
#    x 4.242090 0.000000 -0.161590 
#    y 0.000000 4.453760 0.000000 
#    z -0.161590 0.000000 4.122140 
# 
# 
# High freq. dielectric constant tensor:
#      x y z
#    x 1.895080 0.000000 -0.012460 
#    y 0.000000 1.890340 0.000000 
#    z -0.012460 0.000000 1.906040 
# 
# From -- ./inp_files/196517.got.cif
#   From: 2010.06.25/outbox.cif.g09.slc.cpg/sg15_99_cif.got.tgz:196517.got - 2010.06.28 07:06:18.
