data_PCOD8153768
_publ_section_title
;
Structure prediction by ZEFSAII (Michael W. Deem and Ramdas Pophale) SiO2 
 PCOD8153768
Probable space group: C 2/C
;
_chemical_formula_sum "Si O2"
_cell_formula_units_Z 40
_cell_length_a 14.889851
_cell_length_b 9.931869
_cell_length_c 17.595786
_cell_angle_alpha 90.000000
_cell_angle_beta 40.313672
_cell_angle_gamma 90.000000
_cell_volume 1683.508539
_symmetry_space_group_name_H-M "C 2/C"
_symmetry_group_IT_number 15
_symmetry_cell_setting 'monoclinic'
loop_
_space_group_symop_operation_xyz
x,y,z
-x,y,1/2-z
-x,-y,-z
x,-y,1/2+z
1/2+x,1/2+y,z
1/2-x,1/2+y,1/2-z
1/2-x,1/2-y,-z
1/2+x,1/2-y,1/2+z
loop_
_atom_site_type_symbol
_atom_site_label
_atom_site_fract_x
_atom_site_fract_y
_atom_site_fract_z
Si Si1 0.942295 0.355209 0.956729
Si Si2 0.265981 0.540476 0.479277
Si Si3 0.664748 0.074840 0.813358
Si Si4 0.848043 0.270339 0.328289
Si Si5 0.977669 0.050105 0.600377
O O1 0.069545 0.450433 0.848324
O O2 0.985154 0.205000 0.910864
O O3 0.803978 0.399921 0.000128
O O4 0.908688 0.359782 0.067215
O O5 0.182432 0.593953 0.605659
O O6 0.249083 0.647213 0.420119
O O7 0.425657 0.527888 0.402295
O O8 0.674206 0.195026 0.745436
O O9 0.820389 0.021537 0.728492
O O10 0.000000 0.220573 0.250000
O O11 0.000000 0.000000 0.500000
#
# Coordination Sequence:
#
# PCOD8153768 Si02
#       5
#     8   8   8   8   8
#     4  11  28  48  73 109 155 194 250 303 382 440
#     4  11  26  47  72 111 143 195 248 305 369 450
#     4  11  27  46  74 111 146 197 241 315 365 447
#     4  11  24  44  77 102 150 192 248 296 382 442
#     4  12  28  46  76 109 148 195 252 310 375 439
#
# _framework density 23.759903000000001
#
# number of rings (size 3 to 8) (size 9 to 14) (size 15 to 20)
#    0.000    0.800    4.000    0.600   14.000    0.000 
#    0.000    0.000    0.000    0.000    0.000    0.000 
#    0.000    0.000    0.000    0.000    0.000    0.000 
#
# Total GULP energy -248057.532283 kJ/mol
# GULP energy per Si atom -12402.876614 kJ/mol
# Density = 2.370582 g / cm^3
# Si number density = 23.759903 Si / 1000 Ang^3
#
#
#
# Elastic Constant Matrix: (Units=GPa)
#
#
# Indices 1 2 3 4 5 6 
#
# 1 122.7887 35.2492 40.0518 0.0000 -11.5264 0.0000
# 2 35.2492 91.7343 28.3761 0.0000 9.7001 0.0000
# 3 40.0518 28.3761 108.0673 0.0000 -6.2322 0.0000
# 4 0.0000 0.0000 0.0000 24.6759 0.0000 0.9869
# 5 -11.5264 9.7001 -6.2322 0.0000 40.2838 0.0000
# 6 0.0000 0.0000 0.0000 0.9869 0.0000 39.6952
#
#
#
# Elastic Compliance Matrix: (Units=1/GPa)
#
#
# Indices 1 2 3 4 5 6 
#
# 1 0.010353 -0.003493 -0.002725 0.000000 0.003382 0.000000
# 2 -0.003493 0.013514 -0.002522 0.000000 -0.004644 0.000000
# 3 -0.002725 -0.002522 0.011014 0.000000 0.001531 0.000000
# 4 0.000000 0.000000 0.000000 0.040566 0.000000 -0.001009
# 5 0.003382 -0.004644 0.001531 0.000000 0.027147 0.000000
# 6 0.000000 0.000000 0.000000 -0.001009 0.000000 0.025217
#
#
# Mechanical properties :
#
#
# Convention : Reuss Voigt Hill
#
# Bulk Modulus (GPa) = 57.46446 58.88274 58.17360
# Shear Modulus (GPa) = 33.09275 35.52519 34.30897
#
# Velocity S-wave (km/s) = 3.73607 3.87094 3.80410
# Velocity P-wave (km/s) = 6.54591 6.69441 6.62058
#
# Compressibility (1/GPa) = 0.01740206
#
# Stress axis : x y z
#
# Youngs Moduli (GPa) = 96.58987 73.99558 90.79454
#
# Poissons Ratio (x) = 0.25846 0.24740
# Poissons Ratio (y) = 0.33738 0.22897
# Poissons Ratio (z) = 0.26319 0.18660
#
# Static dielectric constant tensor:
#      x y z
#    x 4.351300 0.000000 -0.153840 
#    y 0.000000 4.157900 0.000000 
#    z -0.153840 0.000000 4.357520 
# 
# 
# High freq. dielectric constant tensor:
#      x y z
#    x 1.943020 0.000000 -0.006480 
#    y 0.000000 1.940500 0.000000 
#    z -0.006480 0.000000 1.951570 
# 
# From -- ./inp_files/203792.got.cif
#   From: 2010.06.25/outbox.cif.g09.slc.cpg/sg15_102_cif.got.tgz:203792.got - 2010.06.28 07:06:18.
