data_PCOD8153771
_publ_section_title
;
Structure prediction by ZEFSAII (Michael W. Deem and Ramdas Pophale) SiO2 
 PCOD8153771
Probable space group: C 2/C
;
_chemical_formula_sum "Si O2"
_cell_formula_units_Z 44
_cell_length_a 20.145106
_cell_length_b 8.623201
_cell_length_c 14.349727
_cell_angle_alpha 90.000000
_cell_angle_beta 129.146636
_cell_angle_gamma 90.000000
_cell_volume 1933.222679
_symmetry_space_group_name_H-M "C 2/C"
_symmetry_group_IT_number 15
_symmetry_cell_setting 'monoclinic'
loop_
_space_group_symop_operation_xyz
x,y,z
-x,y,1/2-z
-x,-y,-z
x,-y,1/2+z
1/2+x,1/2+y,z
1/2-x,1/2+y,1/2-z
1/2-x,1/2-y,-z
1/2+x,1/2-y,1/2+z
loop_
_atom_site_type_symbol
_atom_site_label
_atom_site_fract_x
_atom_site_fract_y
_atom_site_fract_z
Si Si1 0.868543 0.863271 0.390321
Si Si2 0.356787 0.345970 0.006396
Si Si3 0.000000 0.444524 0.250000
Si Si4 0.001406 0.633525 0.077214
Si Si5 0.176939 0.656394 0.988286
Si Si6 0.216284 0.873309 0.371587
O O1 0.824118 0.728070 0.409443
O O2 0.811580 0.928534 0.255374
O O3 0.950304 0.787140 0.413453
O O4 0.889075 0.004881 0.477794
O O5 0.407647 0.194112 0.019160
O O6 0.362877 0.378163 0.123917
O O7 0.256575 0.300854 0.900158
O O8 0.039372 0.552939 0.203477
O O9 0.919207 0.339211 0.142575
O O10 0.000000 0.500000 0.000000
O O11 0.250000 0.750000 0.000000
O O12 0.207911 0.481561 0.023375
#
# Coordination Sequence:
#
# PCOD8153771 Si02
#       6
#     8   8   4   8   8   8
#     4  12  25  44  73 113 146 191 257 310 373 448
#     4  11  24  45  66 106 149 188 253 305 373 440
#     4  12  26  50  80 104 160 194 254 308 372 462
#     4  12  25  46  72 103 149 197 249 302 378 445
#     4  12  26  50  77 114 148 203 249 310 378 444
#     4  11  24  45  74 103 149 197 245 308 375 449
#
# _framework density 22.759923000000001
#
# number of rings (size 3 to 8) (size 9 to 14) (size 15 to 20)
#    0.000    0.364    5.455    2.727    2.545    4.364 
#    3.273    0.000    0.000    0.000    0.000    0.000 
#    0.000    0.000    0.000    0.000    0.000    0.000 
#
# Total GULP energy -272623.934747 kJ/mol
# GULP energy per Si atom -12391.997034 kJ/mol
# Density = 2.270812 g / cm^3
# Si number density = 22.759923 Si / 1000 Ang^3
#
#
#
# Elastic Constant Matrix: (Units=GPa)
#
#
# Indices 1 2 3 4 5 6 
#
# 1 133.6333 54.6061 64.4230 0.0000 -14.3117 0.0000
# 2 54.6061 109.4390 48.1214 0.0000 -7.1867 0.0000
# 3 64.4230 48.1214 142.7875 0.0000 -24.8013 0.0000
# 4 0.0000 0.0000 0.0000 34.8356 0.0000 -11.3981
# 5 -14.3117 -7.1867 -24.8013 0.0000 42.7890 0.0000
# 6 0.0000 0.0000 0.0000 -11.3981 0.0000 61.9658
#
#
#
# Elastic Compliance Matrix: (Units=1/GPa)
#
#
# Indices 1 2 3 4 5 6 
#
# 1 0.010795 -0.003822 -0.003410 0.000000 0.000992 0.000000
# 2 -0.003822 0.012084 -0.002466 0.000000 -0.000678 0.000000
# 3 -0.003410 -0.002466 0.010122 0.000000 0.004312 0.000000
# 4 0.000000 0.000000 0.000000 0.030545 0.000000 0.005618
# 5 0.000992 -0.000678 0.004312 0.000000 0.026088 0.000000
# 6 0.000000 0.000000 0.000000 0.005618 0.000000 0.017171
#
#
# Mechanical properties :
#
#
# Convention : Reuss Voigt Hill
#
# Bulk Modulus (GPa) = 73.49971 80.01785 76.75878
# Shear Modulus (GPa) = 38.24487 42.49869 40.37178
#
# Velocity S-wave (km/s) = 4.10367 4.32587 4.21623
# Velocity P-wave (km/s) = 7.40385 7.75787 7.58293
#
# Compressibility (1/GPa) = 0.01360549
#
# Stress axis : x y z
#
# Youngs Moduli (GPa) = 92.63454 82.75256 98.79337
#
# Poissons Ratio (x) = 0.31626 0.33691
# Poissons Ratio (y) = 0.35402 0.24363
# Poissons Ratio (z) = 0.31591 0.20407
#
# Static dielectric constant tensor:
#      x y z
#    x 4.323330 0.000000 -0.337290 
#    y 0.000000 4.088090 0.000000 
#    z -0.337290 0.000000 4.174270 
# 
# 
# High freq. dielectric constant tensor:
#      x y z
#    x 1.912050 0.000000 -0.029030 
#    y 0.000000 1.904040 0.000000 
#    z -0.029030 0.000000 1.888410 
# 
# From -- ./inp_files/110142.got.cif
#   From: 2010.06.25/outbox.cif.g09.slc.cpg/sg15_56_cif.got.tgz:110142.got - 2010.06.28 07:06:18.
