data_PCOD8153363
_publ_section_title
;
Structure prediction by ZEFSAII (Michael W. Deem and Ramdas Pophale) SiO2 
 PCOD8153363
Probable space group: C 2/C
;
_chemical_formula_sum "Si O2"
_cell_formula_units_Z 36
_cell_length_a 13.206874
_cell_length_b 12.221670
_cell_length_c 12.255802
_cell_angle_alpha 90.000000
_cell_angle_beta 131.319918
_cell_angle_gamma 90.000000
_cell_volume 1485.704015
_symmetry_space_group_name_H-M "C 2/C"
_symmetry_group_IT_number 15
_symmetry_cell_setting 'monoclinic'
loop_
_space_group_symop_operation_xyz
x,y,z
-x,y,1/2-z
-x,-y,-z
x,-y,1/2+z
1/2+x,1/2+y,z
1/2-x,1/2+y,1/2-z
1/2-x,1/2-y,-z
1/2+x,1/2-y,1/2+z
loop_
_atom_site_type_symbol
_atom_site_label
_atom_site_fract_x
_atom_site_fract_y
_atom_site_fract_z
Si Si1 0.971199 0.334522 0.545911
Si Si2 0.809643 0.856282 0.482205
Si Si3 0.067203 0.570945 0.904264
Si Si4 0.172753 0.838887 0.260828
Si Si5 0.500000 0.480830 0.750000
O O1 0.997880 0.455787 0.609549
O O2 0.812641 0.302495 0.420722
O O3 0.045606 0.334379 0.480803
O O4 0.053261 0.251973 0.682500
O O5 0.750000 0.750000 0.500000
O O6 0.720598 0.950918 0.478384
O O7 0.790602 0.860561 0.338940
O O8 0.956955 0.898078 0.621622
O O9 0.000000 0.623256 0.750000
O O10 0.117867 0.946558 0.280154
#
# Coordination Sequence:
#
# PCOD8153363 Si02
#       5
#     8   8   8   8   4
#     4  11  26  45  73 111 145 192 238 303 364 440
#     4  12  26  47  77 105 141 193 249 302 366 439
#     4  11  23  45  73 107 142 185 246 297 365 429
#     4  12  27  48  75 108 151 193 247 300 372 432
#     4  12  30  50  70 110 150 192 242 312 374 436
#
# _framework density 24.230937000000001
#
# number of rings (size 3 to 8) (size 9 to 14) (size 15 to 20)
#    0.000    0.444    6.667    0.667    6.222    2.667 
#    0.000    0.000    0.000    0.000    0.000    0.000 
#    0.000    0.000    0.000    0.000    0.000    0.000 
#
# Total GULP energy -223004.708773 kJ/mol
# GULP energy per Si atom -12389.150487 kJ/mol
# Density = 2.417579 g / cm^3
# Si number density = 24.230937 Si / 1000 Ang^3
#
#
#
# Elastic Constant Matrix: (Units=GPa)
#
#
# Indices 1 2 3 4 5 6 
#
# 1 98.5681 12.1705 5.9485 0.0000 5.2268 0.0000
# 2 12.1705 78.2531 22.7775 0.0000 6.4235 0.0000
# 3 5.9485 22.7775 95.7273 0.0000 26.7672 0.0000
# 4 0.0000 0.0000 0.0000 43.1445 0.0000 1.3747
# 5 5.2268 6.4235 26.7672 0.0000 41.7998 0.0000
# 6 0.0000 0.0000 0.0000 1.3747 0.0000 21.9669
#
#
#
# Elastic Compliance Matrix: (Units=1/GPa)
#
#
# Indices 1 2 3 4 5 6 
#
# 1 0.010390 -0.001534 0.000020 0.000000 -0.001077 0.000000
# 2 -0.001534 0.013956 -0.003264 0.000000 0.000137 0.000000
# 3 0.000020 -0.003264 0.013499 0.000000 -0.008145 0.000000
# 4 0.000000 0.000000 0.000000 0.023224 0.000000 -0.001453
# 5 -0.001077 0.000137 -0.008145 0.000000 0.029253 0.000000
# 6 0.000000 0.000000 0.000000 -0.001453 0.000000 0.045614
#
#
# Mechanical properties :
#
#
# Convention : Reuss Voigt Hill
#
# Bulk Modulus (GPa) = 35.34579 39.37126 37.35853
# Shear Modulus (GPa) = 32.27424 36.82573 34.54998
#
# Velocity S-wave (km/s) = 3.65354 3.90267 3.78016
# Velocity P-wave (km/s) = 5.69355 6.04908 5.87401
#
# Compressibility (1/GPa) = 0.02829191
#
# Stress axis : x y z
#
# Youngs Moduli (GPa) = 96.24190 71.65215 74.07780
#
# Poissons Ratio (x) = 0.10988 -0.00150
# Poissons Ratio (y) = 0.14759 0.24178
# Poissons Ratio (z) = -0.00195 0.23386
#
# Static dielectric constant tensor:
#      x y z
#    x 5.525230 0.000000 0.646140 
#    y 0.000000 4.097360 0.000000 
#    z 0.646140 0.000000 4.717260 
# 
# 
# High freq. dielectric constant tensor:
#      x y z
#    x 1.981310 0.000000 0.001960 
#    y 0.000000 1.956110 0.000000 
#    z 0.001960 0.000000 1.969390 
# 
# From -- ./inp_files/95496.got.cif
#   From: 2010.06.25/outbox.cif.g09.slc.cpg/sg15_48_cif.got.tgz:95496.got - 2010.06.28 07:06:18.
