data_PCOD8153918
_publ_section_title
;
Structure prediction by ZEFSAII (Michael W. Deem and Ramdas Pophale) SiO2 
 PCOD8153918
Probable space group: C 2/C
;
_chemical_formula_sum "Si O2"
_cell_formula_units_Z 48
_cell_length_a 12.950126
_cell_length_b 15.596344
_cell_length_c 26.708897
_cell_angle_alpha 90.000000
_cell_angle_beta 158.164162
_cell_angle_gamma 90.000000
_cell_volume 2006.483491
_symmetry_space_group_name_H-M "C 2/C"
_symmetry_group_IT_number 15
_symmetry_cell_setting 'monoclinic'
loop_
_space_group_symop_operation_xyz
x,y,z
-x,y,1/2-z
-x,-y,-z
x,-y,1/2+z
1/2+x,1/2+y,z
1/2-x,1/2+y,1/2-z
1/2-x,1/2-y,-z
1/2+x,1/2-y,1/2+z
loop_
_atom_site_type_symbol
_atom_site_label
_atom_site_fract_x
_atom_site_fract_y
_atom_site_fract_z
Si Si1 0.032897 0.042895 0.068339
Si Si2 0.500000 0.259999 0.750000
Si Si3 0.128025 0.690985 0.534862
Si Si4 0.000000 0.663452 0.250000
Si Si5 0.825783 0.572649 0.853549
Si Si6 0.344831 0.451636 0.076410
Si Si7 0.914044 0.681326 0.607155
O O1 0.315608 0.099114 0.201271
O O2 0.009896 0.966404 0.098547
O O3 0.781174 0.104955 0.964610
O O4 0.000000 0.000000 0.000000
O O5 0.548193 0.211338 0.719582
O O6 0.206223 0.308389 0.611718
O O7 0.286937 0.780033 0.619922
O O8 0.222324 0.617579 0.615596
O O9 0.237849 0.648323 0.532209
O O10 0.554762 0.519803 0.715353
O O11 0.841587 0.648071 0.818495
O O12 0.092086 0.514295 0.971825
O O13 0.750000 0.750000 0.500000
#
# Coordination Sequence:
#
# PCOD8153918 Si02
#       7
#     8   4   8   4   8   8   8
#     4  11  28  49  74 113 155 205 261 322 396 472
#     4  12  26  45  79 112 158 206 266 310 396 471
#     4  12  25  49  79 116 155 206 266 326 388 470
#     4  12  24  51  79 106 162 206 252 338 392 455
#     4  11  24  46  74 111 158 200 264 327 391 466
#     4  11  27  45  76 109 154 206 260 318 402 461
#     4  11  24  48  75 110 158 204 258 327 387 465
#
# _framework density 23.922450000000001
#
# number of rings (size 3 to 8) (size 9 to 14) (size 15 to 20)
#    0.000    0.667    5.000    0.500    9.333    0.000 
#    3.000    1.667    0.000    0.000    0.000    0.000 
#    0.000    0.000    0.000    0.000    0.000    0.000 
#
# Total GULP energy -297336.976232 kJ/mol
# GULP energy per Si atom -12389.040676 kJ/mol
# Density = 2.386800 g / cm^3
# Si number density = 23.922450 Si / 1000 Ang^3
#
#
#
# Elastic Constant Matrix: (Units=GPa)
#
#
# Indices 1 2 3 4 5 6 
#
# 1 102.9913 53.2699 32.4483 -0.0101 -1.1610 -0.0024
# 2 53.2699 100.5319 42.3676 -0.0193 5.1710 -0.0040
# 3 32.4483 42.3676 155.9376 -0.0415 6.4112 -0.0116
# 4 -0.0101 -0.0193 -0.0415 23.4705 -0.0174 -0.9361
# 5 -1.1610 5.1710 6.4112 -0.0174 43.5698 -0.0126
# 6 -0.0024 -0.0040 -0.0116 -0.9361 -0.0126 49.3948
#
#
#
# Elastic Compliance Matrix: (Units=1/GPa)
#
#
# Indices 1 2 3 4 5 6 
#
# 1 0.013581 -0.006833 -0.001024 -0.000001 0.001324 0.000000
# 2 -0.006833 0.014706 -0.002510 0.000004 -0.001558 0.000000
# 3 -0.001024 -0.002510 0.007341 0.000010 -0.000810 0.000001
# 4 -0.000001 0.000004 0.000010 0.042639 0.000015 0.000808
# 5 0.001324 -0.001558 -0.000810 0.000015 0.023291 0.000006
# 6 0.000000 0.000000 0.000001 0.000808 0.000006 0.020260
#
#
# Mechanical properties :
#
#
# Convention : Reuss Voigt Hill
#
# Bulk Modulus (GPa) = 67.13745 68.40359 67.77052
# Shear Modulus (GPa) = 33.89461 38.71201 36.30331
#
# Velocity S-wave (km/s) = 3.76819 4.02709 3.89979
# Velocity P-wave (km/s) = 6.85988 7.09078 6.97629
#
# Compressibility (1/GPa) = 0.01489482
#
# Stress axis : x y z
#
# Youngs Moduli (GPa) = 73.63055 68.00168 136.22090
#
# Poissons Ratio (x) = 0.46466 0.13949
# Poissons Ratio (y) = 0.50312 0.34185
# Poissons Ratio (z) = 0.07540 0.17065
#
# Static dielectric constant tensor:
#      x y z
#    x 5.390920 -0.000090 -0.529850 
#    y -0.000090 4.592960 -0.000020 
#    z -0.529850 -0.000020 5.134700 
# 
# 
# High freq. dielectric constant tensor:
#      x y z
#    x 1.964450 0.000000 0.016480 
#    y 0.000000 1.939430 -0.000010 
#    z 0.016480 -0.000010 1.964740 
# 
# From -- ./inp_files/314178.got.cif
#   From: 2010.06.25/outbox.cif.g09.slc.cpg/sg15_158_cif.got.tgz:314178.got - 2010.06.28 07:06:18.
