data_PCOD8153074
_publ_section_title
;
Structure prediction by ZEFSAII (Michael W. Deem and Ramdas Pophale) SiO2 
 PCOD8153074
Probable space group: C 2/C
;
_chemical_formula_sum "Si O2"
_cell_formula_units_Z 52
_cell_length_a 9.307974
_cell_length_b 23.241058
_cell_length_c 17.918369
_cell_angle_alpha 90.000000
_cell_angle_beta 37.071535
_cell_angle_gamma 90.000000
_cell_volume 2336.636634
_symmetry_space_group_name_H-M "C 2/C"
_symmetry_group_IT_number 15
_symmetry_cell_setting 'monoclinic'
loop_
_space_group_symop_operation_xyz
x,y,z
-x,y,1/2-z
-x,-y,-z
x,-y,1/2+z
1/2+x,1/2+y,z
1/2-x,1/2+y,1/2-z
1/2-x,1/2-y,-z
1/2+x,1/2-y,1/2+z
loop_
_atom_site_type_symbol
_atom_site_label
_atom_site_fract_x
_atom_site_fract_y
_atom_site_fract_z
Si Si1 0.125664 0.185649 0.124290
Si Si2 0.529542 0.638222 0.880671
Si Si3 0.741582 0.538251 0.880998
Si Si4 0.710183 0.444299 0.109113
Si Si5 0.000000 0.793384 0.250000
Si Si6 0.789594 0.564261 0.023770
Si Si7 0.546269 0.726329 0.454567
O O1 0.000000 0.209168 0.250000
O O2 0.953786 0.192762 0.124042
O O3 0.177933 0.118227 0.112271
O O4 0.366401 0.221205 0.018664
O O5 0.700845 0.585340 0.833030
O O6 0.281707 0.605365 0.959265
O O7 0.621522 0.671039 0.767928
O O8 0.509038 0.682409 0.956428
O O9 0.792091 0.574711 0.934551
O O10 0.000000 0.506876 0.750000
O O11 0.500000 0.500000 0.000000
O O12 0.500000 0.424249 0.250000
O O13 0.946843 0.446763 0.057533
O O14 0.641387 0.506355 0.103134
O O15 0.800496 0.752914 0.368756
#
# Coordination Sequence:
#
# PCOD8153074 Si02
#       7
#     8   8   8   8   4   8   8
#     4  11  24  46  69  99 142 186 241 298 370 442
#     4  12  24  45  72 104 147 192 244 304 369 441
#     4  12  27  48  74 111 152 195 246 307 376 451
#     4  11  23  42  70 106 139 185 237 296 371 446
#     4  12  26  44  72 104 144 188 246 300 368 444
#     4  11  24  44  71 102 142 188 237 301 366 443
#     4  11  26  45  69 105 139 191 245 301 370 434
#
# _framework density 22.254207999999998
#
# number of rings (size 3 to 8) (size 9 to 14) (size 15 to 20)
#    0.000    0.615    3.846    3.692    2.154    1.846 
#    1.385    0.000    0.000    0.000    0.000    0.000 
#    0.000    0.000    0.000    0.000    0.000    0.000 
#
# Total GULP energy -322120.796546 kJ/mol
# GULP energy per Si atom -12389.261406 kJ/mol
# Density = 2.220356 g / cm^3
# Si number density = 22.254208 Si / 1000 Ang^3
#
#
#
# Elastic Constant Matrix: (Units=GPa)
#
#
# Indices 1 2 3 4 5 6 
#
# 1 118.3770 34.9613 33.1180 -0.0030 20.4078 -0.0008
# 2 34.9613 116.9462 22.5632 -0.0008 2.1278 -0.0018
# 3 33.1180 22.5632 92.0142 -0.0155 0.0639 0.0032
# 4 -0.0030 -0.0008 -0.0155 30.7334 0.0036 8.2323
# 5 20.4078 2.1278 0.0639 0.0036 40.1126 -0.0014
# 6 -0.0008 -0.0018 0.0032 8.2323 -0.0014 31.6362
#
#
#
# Elastic Compliance Matrix: (Units=1/GPa)
#
#
# Indices 1 2 3 4 5 6 
#
# 1 0.011095 -0.002568 -0.003360 0.000000 -0.005503 0.000000
# 2 -0.002568 0.009579 -0.001425 -0.000001 0.000801 0.000001
# 3 -0.003360 -0.001425 0.012425 0.000007 0.001765 -0.000003
# 4 0.000000 -0.000001 0.000007 0.034976 -0.000003 -0.009101
# 5 -0.005503 0.000801 0.001765 -0.000003 0.027684 0.000002
# 6 0.000000 0.000001 -0.000003 -0.009101 0.000002 0.033978
#
#
# Mechanical properties :
#
#
# Convention : Reuss Voigt Hill
#
# Bulk Modulus (GPa) = 54.36865 56.51361 55.44113
# Shear Modulus (GPa) = 33.20618 36.27608 34.74113
#
# Velocity S-wave (km/s) = 3.86700 4.04180 3.95537
# Velocity P-wave (km/s) = 6.66499 6.87250 6.76954
#
# Compressibility (1/GPa) = 0.01839295
#
# Stress axis : x y z
#
# Youngs Moduli (GPa) = 90.13255 104.39321 80.48092
#
# Poissons Ratio (x) = 0.26813 0.27038
# Poissons Ratio (y) = 0.23150 0.11469
# Poissons Ratio (z) = 0.30281 0.14877
#
# Static dielectric constant tensor:
#      x y z
#    x 4.452050 0.000000 0.114890 
#    y 0.000000 4.229970 0.000010 
#    z 0.114890 0.000010 3.863530 
# 
# 
# High freq. dielectric constant tensor:
#      x y z
#    x 1.902760 0.000000 0.013490 
#    y 0.000000 1.884340 0.000000 
#    z 0.013490 0.000000 1.850480 
# 
# From -- ./inp_files/193677.got.cif
#   From: 2010.06.25/outbox.cif.g09.slc.cpg/sg15_97_cif.got.tgz:193677.got - 2010.06.28 07:06:18.
