data_PCOD8153986
_publ_section_title
;
Structure prediction by ZEFSAII (Michael W. Deem and Ramdas Pophale) SiO2 
 PCOD8153986
Probable space group: C 2/C
;
_chemical_formula_sum "Si O2"
_cell_formula_units_Z 40
_cell_length_a 8.038537
_cell_length_b 17.280655
_cell_length_c 11.867996
_cell_angle_alpha 90.000000
_cell_angle_beta 86.147875
_cell_angle_gamma 90.000000
_cell_volume 1644.872810
_symmetry_space_group_name_H-M "C 2/C"
_symmetry_group_IT_number 15
_symmetry_cell_setting 'monoclinic'
loop_
_space_group_symop_operation_xyz
x,y,z
-x,y,1/2-z
-x,-y,-z
x,-y,1/2+z
1/2+x,1/2+y,z
1/2-x,1/2+y,1/2-z
1/2-x,1/2-y,-z
1/2+x,1/2-y,1/2+z
loop_
_atom_site_type_symbol
_atom_site_label
_atom_site_fract_x
_atom_site_fract_y
_atom_site_fract_z
Si Si1 0.321693 0.792703 0.221242
Si Si2 0.688017 0.613075 0.269378
Si Si3 0.171139 0.531441 0.439555
Si Si4 0.677486 0.327601 0.446778
Si Si5 0.188866 0.123138 0.520605
O O1 0.500000 0.826891 0.250000
O O2 0.313808 0.703572 0.253634
O O3 0.181971 0.828355 0.310477
O O4 0.290282 0.814374 0.091819
O O5 0.500000 0.581117 0.250000
O O6 0.825652 0.570105 0.185055
O O7 0.759605 0.604781 0.392908
O O8 0.221588 0.597347 0.523380
O O9 0.304085 0.460736 0.420845
O O10 0.000000 0.500000 0.500000
O O11 0.750000 0.250000 0.500000
O O12 0.489681 0.339439 0.495081
#
# Coordination Sequence:
#
# PCOD8153986 Si02
#       5
#     8   8   8   8   8
#     4  11  24  47  78 117 161 209 271 338 401 492
#     4  11  24  49  78 112 160 212 270 333 404 496
#     4  12  28  49  75 118 162 209 272 344 407 478
#     4  12  24  50  80 112 162 215 267 332 404 497
#     4  12  27  47  82 112 156 216 273 329 422 477
#
# _framework density 24.317988
#
# number of rings (size 3 to 8) (size 9 to 14) (size 15 to 20)
#    0.000    0.400    4.000    4.200    2.800    2.400 
#    3.600    0.000    0.000    0.000    0.000    0.000 
#    0.000    0.000    0.000    0.000    0.000    0.000 
#
# Total GULP energy -247811.603600 kJ/mol
# GULP energy per Si atom -12390.580180 kJ/mol
# Density = 2.426264 g / cm^3
# Si number density = 24.317988 Si / 1000 Ang^3
#
#
#
# Elastic Constant Matrix: (Units=GPa)
#
#
# Indices 1 2 3 4 5 6 
#
# 1 111.9385 77.5279 65.8660 0.0000 1.5911 0.0000
# 2 77.5279 117.5003 30.2623 0.0000 -3.9654 0.0000
# 3 65.8660 30.2623 197.8921 0.0000 -7.7737 0.0000
# 4 0.0000 0.0000 0.0000 49.7187 0.0000 -1.6602
# 5 1.5911 -3.9654 -7.7737 0.0000 36.0147 0.0000
# 6 0.0000 0.0000 0.0000 -1.6602 0.0000 38.2978
#
#
#
# Elastic Compliance Matrix: (Units=1/GPa)
#
#
# Indices 1 2 3 4 5 6 
#
# 1 0.020514 -0.012343 -0.005072 0.000000 -0.003360 0.000000
# 2 -0.012343 0.016302 0.001722 0.000000 0.002712 0.000000
# 3 -0.005072 0.001722 0.006550 0.000000 0.001827 0.000000
# 4 0.000000 0.000000 0.000000 0.020142 0.000000 0.000873
# 5 -0.003360 0.002712 0.001827 0.000000 0.028608 0.000000
# 6 0.000000 0.000000 0.000000 0.000873 0.000000 0.026149
#
#
# Mechanical properties :
#
#
# Convention : Reuss Voigt Hill
#
# Bulk Modulus (GPa) = 83.47251 86.07148 84.77200
# Shear Modulus (GPa) = 32.54229 41.71791 37.13010
#
# Velocity S-wave (km/s) = 3.66211 4.14637 3.91174
# Velocity P-wave (km/s) = 7.23058 7.64161 7.43894
#
# Compressibility (1/GPa) = 0.01197999
#
# Stress axis : x y z
#
# Youngs Moduli (GPa) = 48.74652 61.34040 152.66962
#
# Poissons Ratio (x) = 0.75709 0.77441
# Poissons Ratio (y) = 0.60165 -0.26283
# Poissons Ratio (z) = 0.24727 -0.10560
#
# Static dielectric constant tensor:
#      x y z
#    x 7.049300 0.000000 0.823600 
#    y 0.000000 4.579020 0.000000 
#    z 0.823600 0.000000 4.949340 
# 
# 
# High freq. dielectric constant tensor:
#      x y z
#    x 1.947490 0.000000 -0.004460 
#    y 0.000000 1.977960 0.000000 
#    z -0.004460 0.000000 1.986300 
# 
# From -- ./inp_files/76786.got.cif
#   From: 2010.06.25/outbox.cif.g09.slc.cpg/sg15_39_cif.got.tgz:76786.got - 2010.06.28 07:06:18.
