data_PCOD8153284
_publ_section_title
;
Structure prediction by ZEFSAII (Michael W. Deem and Ramdas Pophale) SiO2 
 PCOD8153284
Probable space group: C 2/C
;
_chemical_formula_sum "Si O2"
_cell_formula_units_Z 36
_cell_length_a 20.938386
_cell_length_b 9.416950
_cell_length_c 14.269903
_cell_angle_alpha 90.000000
_cell_angle_beta 143.772475
_cell_angle_gamma 90.000000
_cell_volume 1662.865101
_symmetry_space_group_name_H-M "C 2/C"
_symmetry_group_IT_number 15
_symmetry_cell_setting 'monoclinic'
loop_
_space_group_symop_operation_xyz
x,y,z
-x,y,1/2-z
-x,-y,-z
x,-y,1/2+z
1/2+x,1/2+y,z
1/2-x,1/2+y,1/2-z
1/2-x,1/2-y,-z
1/2+x,1/2-y,1/2+z
loop_
_atom_site_type_symbol
_atom_site_label
_atom_site_fract_x
_atom_site_fract_y
_atom_site_fract_z
Si Si1 0.223957 0.156965 0.556328
Si Si2 0.500000 0.466014 0.750000
Si Si3 0.345414 0.359672 0.837687
Si Si4 0.580439 0.621677 0.662123
Si Si5 0.229873 0.652066 0.386991
O O1 0.250000 0.250000 0.500000
O O2 0.094191 0.130581 0.409681
O O3 0.272436 0.238903 0.703614
O O4 0.290576 0.012272 0.614936
O O5 0.557417 0.563271 0.739704
O O6 0.326107 0.519945 0.774545
O O7 0.328885 0.349455 0.929776
O O8 0.474699 0.353779 0.972346
O O9 0.624615 0.781758 0.714906
O O10 0.250000 0.750000 0.500000
#
# Coordination Sequence:
#
# PCOD8153284 Si02
#       5
#     8   4   8   8   8
#     4  12  25  43  70 103 138 181 233 288 346 413
#     4  12  22  48  72  96 142 192 222 280 362 412
#     4  11  24  42  69 104 134 183 231 284 348 414
#     4  11  23  44  72  97 139 188 225 279 358 413
#     4  12  23  41  69 100 139 182 236 284 341 416
#
# _framework density 21.649381000000002
#
# number of rings (size 3 to 8) (size 9 to 14) (size 15 to 20)
#    0.000    0.444    6.667    1.333    3.111    0.889 
#    0.000    5.556    0.000    0.000    0.000    0.000 
#    0.000    0.000    0.000    0.000    0.000    0.000 
#
# Total GULP energy -223003.820597 kJ/mol
# GULP energy per Si atom -12389.101144 kJ/mol
# Density = 2.160011 g / cm^3
# Si number density = 21.649381 Si / 1000 Ang^3
#
#
#
# Elastic Constant Matrix: (Units=GPa)
#
#
# Indices 1 2 3 4 5 6 
#
# 1 116.7197 53.9232 20.8341 0.0000 -12.3145 0.0000
# 2 53.9232 182.1850 71.5332 0.0000 4.9660 0.0000
# 3 20.8341 71.5332 100.9363 0.0000 6.4327 0.0000
# 4 0.0000 0.0000 0.0000 43.4989 0.0000 4.4511
# 5 -12.3145 4.9660 6.4327 0.0000 36.2736 0.0000
# 6 0.0000 0.0000 0.0000 4.4511 0.0000 33.9213
#
#
#
# Elastic Compliance Matrix: (Units=1/GPa)
#
#
# Indices 1 2 3 4 5 6 
#
# 1 0.010474 -0.003132 -0.000199 0.000000 0.004020 0.000000
# 2 -0.003132 0.008542 -0.005325 0.000000 -0.001288 0.000000
# 3 -0.000199 -0.005325 0.013836 0.000000 -0.001792 0.000000
# 4 0.000000 0.000000 0.000000 0.023302 0.000000 -0.003058
# 5 0.004020 -0.001288 -0.001792 0.000000 0.029427 0.000000
# 6 0.000000 0.000000 0.000000 -0.003058 0.000000 0.029881
#
#
# Mechanical properties :
#
#
# Convention : Reuss Voigt Hill
#
# Bulk Modulus (GPa) = 64.34494 76.93575 70.64035
# Shear Modulus (GPa) = 36.24417 39.64214 37.94315
#
# Velocity S-wave (km/s) = 4.09607 4.28378 4.19097
# Velocity P-wave (km/s) = 7.22193 7.75125 7.49127
#
# Compressibility (1/GPa) = 0.01554124
#
# Stress axis : x y z
#
# Youngs Moduli (GPa) = 95.47561 117.07196 72.27368
#
# Poissons Ratio (x) = 0.36662 0.01436
# Poissons Ratio (y) = 0.29899 0.38486
# Poissons Ratio (z) = 0.01897 0.62341
#
# Static dielectric constant tensor:
#      x y z
#    x 3.941030 0.000000 -0.127730 
#    y 0.000000 -0.574080 0.000000 
#    z -0.127730 0.000000 3.382640 
# 
# 
# High freq. dielectric constant tensor:
#      x y z
#    x 1.851570 0.000000 -0.018500 
#    y 0.000000 1.850910 0.000000 
#    z -0.018500 0.000000 1.856770 
# 
# From -- ./inp_files/159064.got.cif
#   From: 2010.06.25/outbox.cif.g09.slc.cpg/sg15_80_cif.got.tgz:159064.got - 2010.06.28 07:06:18.
