data_PCOD8153060
_publ_section_title
;
Structure prediction by ZEFSAII (Michael W. Deem and Ramdas Pophale) SiO2 
 PCOD8153060
Probable space group: C 2/C
;
_chemical_formula_sum "Si O2"
_cell_formula_units_Z 44
_cell_length_a 7.948402
_cell_length_b 11.494861
_cell_length_c 23.292140
_cell_angle_alpha 90.000000
_cell_angle_beta 64.874774
_cell_angle_gamma 90.000000
_cell_volume 1926.747348
_symmetry_space_group_name_H-M "C 2/C"
_symmetry_group_IT_number 15
_symmetry_cell_setting 'monoclinic'
loop_
_space_group_symop_operation_xyz
x,y,z
-x,y,1/2-z
-x,-y,-z
x,-y,1/2+z
1/2+x,1/2+y,z
1/2-x,1/2+y,1/2-z
1/2-x,1/2-y,-z
1/2+x,1/2-y,1/2+z
loop_
_atom_site_type_symbol
_atom_site_label
_atom_site_fract_x
_atom_site_fract_y
_atom_site_fract_z
Si Si1 0.670942 0.624047 0.499580
Si Si2 0.209888 0.032152 0.098003
Si Si3 0.297862 0.401052 0.637699
Si Si4 0.383536 0.852827 0.157631
Si Si5 0.000000 0.542960 0.750000
Si Si6 0.721956 0.281964 0.438788
O O1 0.750000 0.750000 0.500000
O O2 0.760065 0.530288 0.530076
O O3 0.711792 0.583926 0.429382
O O4 0.449830 0.630703 0.543764
O O5 0.310245 0.157884 0.088262
O O6 0.988901 0.048811 0.135416
O O7 0.281031 0.957491 0.140558
O O8 0.280240 0.265313 0.656091
O O9 0.124905 0.464154 0.690970
O O10 0.371657 0.876306 0.227764
O O11 0.600777 0.849706 0.110332
O O12 0.750000 0.250000 0.500000
#
# Coordination Sequence:
#
# PCOD8153060 Si02
#       6
#     8   8   8   8   4   8
#     4  12  23  42  71 108 142 171 220 291 353 413
#     4  11  24  42  75 100 140 176 222 287 360 392
#     4  11  26  47  66 104 136 181 234 279 335 418
#     4  11  26  48  69 101 135 185 232 281 343 412
#     4  12  30  46  70  90 144 188 234 276 330 412
#     4  11  23  42  69 107 139 168 223 286 344 419
#
# _framework density 22.836414000000001
#
# number of rings (size 3 to 8) (size 9 to 14) (size 15 to 20)
#    0.000    0.727    5.455    1.636    5.091    6.545 
#    0.000    0.000    0.000    0.000    0.000    0.000 
#    0.000    0.000    0.000    0.000    0.000    0.000 
#
# Total GULP energy -272901.580343 kJ/mol
# GULP energy per Si atom -12404.617288 kJ/mol
# Density = 2.278444 g / cm^3
# Si number density = 22.836414 Si / 1000 Ang^3
#
#
#
# Elastic Constant Matrix: (Units=GPa)
#
#
# Indices 1 2 3 4 5 6 
#
# 1 61.3208 26.2836 42.3031 0.0000 24.8407 0.0000
# 2 26.2836 104.9585 43.1898 0.0000 12.7299 0.0000
# 3 42.3031 43.1898 72.5107 0.0000 9.8506 0.0000
# 4 0.0000 0.0000 0.0000 33.3818 0.0000 1.7865
# 5 24.8407 12.7299 9.8506 0.0000 45.9724 0.0000
# 6 0.0000 0.0000 0.0000 1.7865 0.0000 49.2560
#
#
#
# Elastic Compliance Matrix: (Units=1/GPa)
#
#
# Indices 1 2 3 4 5 6 
#
# 1 0.035175 0.000832 -0.018955 0.000000 -0.015175 0.000000
# 2 0.000832 0.012811 -0.007800 0.000000 -0.002326 0.000000
# 3 -0.018955 -0.007800 0.028645 0.000000 0.006264 0.000000
# 4 0.000000 0.000000 0.000000 0.030015 0.000000 -0.001089
# 5 -0.015175 -0.002326 0.006264 0.000000 0.029254 0.000000
# 6 0.000000 0.000000 0.000000 -0.001089 0.000000 0.020342
#
#
# Mechanical properties :
#
#
# Convention : Reuss Voigt Hill
#
# Bulk Modulus (GPa) = 40.34878 51.37146 45.86012
# Shear Modulus (GPa) = 23.11082 34.18961 28.65022
#
# Velocity S-wave (km/s) = 3.18467 3.87350 3.54585
# Velocity P-wave (km/s) = 5.58836 6.52301 6.07369
#
# Compressibility (1/GPa) = 0.02478390
#
# Stress axis : x y z
#
# Youngs Moduli (GPa) = 28.42920 78.05806 34.91050
#
# Poissons Ratio (x) = -0.06495 0.66174
# Poissons Ratio (y) = -0.02365 0.27231
# Poissons Ratio (z) = 0.53889 0.60886
#
# Static dielectric constant tensor:
#      x y z
#    x 4.351010 0.000000 0.140410 
#    y 0.000000 4.713040 0.000000 
#    z 0.140410 0.000000 3.885580 
# 
# 
# High freq. dielectric constant tensor:
#      x y z
#    x 1.901830 0.000000 0.004570 
#    y 0.000000 1.930430 0.000000 
#    z 0.004570 0.000000 1.884960 
# 
# From -- ./inp_files/230254.got.cif
#   From: 2010.06.25/outbox.cif.g09.slc.cpg/sg15_116_cif.got.tgz:230254.got - 2010.06.28 07:06:18.
