data_PCOD8153430
_publ_section_title
;
Structure prediction by ZEFSAII (Michael W. Deem and Ramdas Pophale) SiO2 
 PCOD8153430
Probable space group: C 2/C
;
_chemical_formula_sum "Si O2"
_cell_formula_units_Z 56
_cell_length_a 11.329418
_cell_length_b 13.660974
_cell_length_c 19.289290
_cell_angle_alpha 90.000000
_cell_angle_beta 65.658125
_cell_angle_gamma 90.000000
_cell_volume 2720.023391
_symmetry_space_group_name_H-M "C 2/C"
_symmetry_group_IT_number 15
_symmetry_cell_setting 'monoclinic'
loop_
_space_group_symop_operation_xyz
x,y,z
-x,y,1/2-z
-x,-y,-z
x,-y,1/2+z
1/2+x,1/2+y,z
1/2-x,1/2+y,1/2-z
1/2-x,1/2-y,-z
1/2+x,1/2-y,1/2+z
loop_
_atom_site_type_symbol
_atom_site_label
_atom_site_fract_x
_atom_site_fract_y
_atom_site_fract_z
Si Si1 0.426153 0.465908 0.409395
Si Si2 0.740795 0.417913 0.442103
Si Si3 0.559343 0.270559 0.417384
Si Si4 0.244916 0.913343 0.173186
Si Si5 0.632704 0.785028 0.750232
Si Si6 0.495937 0.895239 0.465774
Si Si7 0.711761 0.531997 0.315953
O O1 0.361253 0.517746 0.490329
O O2 0.454262 0.352426 0.420784
O O3 0.328369 0.473783 0.368811
O O4 0.556959 0.523038 0.358305
O O5 0.673588 0.317977 0.434520
O O6 0.864243 0.384925 0.455253
O O7 0.780515 0.481947 0.365528
O O8 0.623099 0.219298 0.335378
O O9 0.490017 0.187090 0.478801
O O10 0.156470 0.821995 0.214253
O O11 0.385391 0.879140 0.114614
O O12 0.266104 0.981023 0.234240
O O13 0.500000 0.826486 0.750000
O O14 0.750075 0.854519 0.698004
O O15 0.500000 0.000000 0.500000
#
# Coordination Sequence:
#
# PCOD8153430 Si02
#       7
#     8   8   8   8   8   8   8
#     4  11  23  46  73  95 135 183 228 279 338 415
#     4  11  25  46  69  97 139 183 225 282 344 410
#     4  11  24  47  67  99 138 177 226 282 342 409
#     4  12  24  46  69 101 139 178 230 279 343 411
#     4  12  25  43  71 101 136 176 226 289 341 408
#     4  12  27  43  67 102 137 180 227 283 342 406
#     4  11  25  43  71 101 132 176 229 281 344 408
#
# _framework density 20.588058
#
# number of rings (size 3 to 8) (size 9 to 14) (size 15 to 20)
#    0.000    0.571    5.714    3.429    8.000    0.571 
#    0.000    0.000    0.000    0.000    0.000    0.000 
#    0.000    0.000    0.000    0.000    0.000    0.000 
#
# Total GULP energy -347390.269461 kJ/mol
# GULP energy per Si atom -12406.795338 kJ/mol
# Density = 2.054120 g / cm^3
# Si number density = 20.588058 Si / 1000 Ang^3
#
#
#
# Elastic Constant Matrix: (Units=GPa)
#
#
# Indices 1 2 3 4 5 6 
#
# 1 83.7292 26.2122 46.8422 0.0000 -3.5539 0.0000
# 2 26.2122 70.9149 23.9100 0.0000 10.6363 0.0000
# 3 46.8422 23.9100 115.7489 0.0000 12.5818 0.0000
# 4 0.0000 0.0000 0.0000 25.7091 0.0000 -11.6606
# 5 -3.5539 10.6363 12.5818 0.0000 32.1344 0.0000
# 6 0.0000 0.0000 0.0000 -11.6606 0.0000 20.3174
#
#
#
# Elastic Compliance Matrix: (Units=1/GPa)
#
#
# Indices 1 2 3 4 5 6 
#
# 1 0.017602 -0.005179 -0.006738 0.000000 0.006299 0.000000
# 2 -0.005179 0.017179 -0.000807 0.000000 -0.005943 0.000000
# 3 -0.006738 -0.000807 0.012100 0.000000 -0.005216 0.000000
# 4 0.000000 0.000000 0.000000 0.052585 0.000000 0.030180
# 5 0.006299 -0.005943 -0.005216 0.000000 0.035825 0.000000
# 6 0.000000 0.000000 0.000000 0.030180 0.000000 0.066540
#
#
# Mechanical properties :
#
#
# Convention : Reuss Voigt Hill
#
# Bulk Modulus (GPa) = 46.65734 51.59133 49.12433
# Shear Modulus (GPa) = 21.32905 27.19408 24.26156
#
# Velocity S-wave (km/s) = 3.22217 3.63832 3.43655
# Velocity P-wave (km/s) = 6.04605 6.53935 6.29753
#
# Compressibility (1/GPa) = 0.02143286
#
# Stress axis : x y z
#
# Youngs Moduli (GPa) = 56.81312 58.21026 82.64616
#
# Poissons Ratio (x) = 0.30147 0.55687
# Poissons Ratio (y) = 0.29424 0.06668
# Poissons Ratio (z) = 0.38281 0.04696
#
# Static dielectric constant tensor:
#      x y z
#    x 3.772360 0.000000 0.059390 
#    y 0.000000 3.683660 0.000000 
#    z 0.059390 0.000000 3.979530 
# 
# 
# High freq. dielectric constant tensor:
#      x y z
#    x 1.807660 0.000000 0.008110 
#    y 0.000000 1.804720 0.000000 
#    z 0.008110 0.000000 1.824940 
# 
# From -- ./inp_files/198218.got.cif
#   From: 2010.06.25/outbox.cif.g09.slc.cpg/sg15_100_cif.got.tgz:198218.got - 2010.06.28 07:06:18.
