data_PCOD8153150
_publ_section_title
;
Structure prediction by ZEFSAII (Michael W. Deem and Ramdas Pophale) SiO2 
 PCOD8153150
Probable space group: C 2/C
;
_chemical_formula_sum "Si O2"
_cell_formula_units_Z 44
_cell_length_a 13.474784
_cell_length_b 11.503377
_cell_length_c 25.068588
_cell_angle_alpha 90.000000
_cell_angle_beta 146.825964
_cell_angle_gamma 90.000000
_cell_volume 2126.230841
_symmetry_space_group_name_H-M "C 2/C"
_symmetry_group_IT_number 15
_symmetry_cell_setting 'monoclinic'
loop_
_space_group_symop_operation_xyz
x,y,z
-x,y,1/2-z
-x,-y,-z
x,-y,1/2+z
1/2+x,1/2+y,z
1/2-x,1/2+y,1/2-z
1/2-x,1/2-y,-z
1/2+x,1/2-y,1/2+z
loop_
_atom_site_type_symbol
_atom_site_label
_atom_site_fract_x
_atom_site_fract_y
_atom_site_fract_z
Si Si1 0.500000 0.339367 0.250000
Si Si2 0.602487 0.982371 0.199441
Si Si3 0.746044 0.626373 0.027721
Si Si4 0.770103 0.849923 0.854160
Si Si5 0.454391 0.735130 0.107288
Si Si6 0.492591 0.502782 0.837221
O O1 0.357635 0.258984 0.216237
O O2 0.411235 0.421709 0.165433
O O3 0.536129 0.849402 0.171883
O O4 0.774210 0.983965 0.236987
O O5 0.439888 0.064091 0.105015
O O6 0.674065 0.032207 0.288676
O O7 0.699584 0.639379 0.069249
O O8 0.750000 0.750000 0.000000
O O9 0.582522 0.546462 0.932852
O O10 0.949686 0.816106 0.902754
O O11 0.465152 0.632136 0.155497
O O12 0.250000 0.750000 0.000000
#
# Coordination Sequence:
#
# PCOD8153150 Si02
#       6
#     4   8   8   8   8   8
#     4  12  20  46  66 102 128 180 234 270 332 414
#     4  11  23  43  68  98 137 174 222 280 337 398
#     4  12  23  44  72 100 129 183 237 271 330 417
#     4  11  23  43  75  94 134 185 228 275 332 415
#     4  11  24  46  64 101 142 171 220 291 340 389
#     4  11  25  42  69  97 140 177 221 284 340 400
#
# _framework density 20.693897
#
# number of rings (size 3 to 8) (size 9 to 14) (size 15 to 20)
#    0.000    0.727    7.273    0.000    2.545    2.909 
#    9.818    2.727    0.000    0.000    0.000    0.000 
#    0.000    0.000    0.000    0.000    0.000    0.000 
#
# Total GULP energy -272648.970661 kJ/mol
# GULP energy per Si atom -12393.135030 kJ/mol
# Density = 2.064680 g / cm^3
# Si number density = 20.693897 Si / 1000 Ang^3
#
#
#
# Elastic Constant Matrix: (Units=GPa)
#
#
# Indices 1 2 3 4 5 6 
#
# 1 77.9487 50.4115 46.9535 -0.0002 -4.4002 0.0000
# 2 50.4115 197.4837 71.0010 -0.0001 -7.0058 0.0000
# 3 46.9535 71.0010 114.0017 -0.0009 10.1931 0.0000
# 4 -0.0002 -0.0001 -0.0009 47.8802 -0.0003 -4.1894
# 5 -4.4002 -7.0058 10.1931 -0.0003 44.7406 -0.0001
# 6 0.0000 0.0000 0.0000 -4.1894 -0.0001 32.9561
#
#
#
# Elastic Compliance Matrix: (Units=1/GPa)
#
#
# Indices 1 2 3 4 5 6 
#
# 1 0.018309 -0.002276 -0.006382 0.000000 0.002898 0.000000
# 2 -0.002276 0.006986 -0.003564 0.000000 0.001682 0.000000
# 3 -0.006382 -0.003564 0.014011 0.000000 -0.004378 0.000000
# 4 0.000000 0.000000 0.000000 0.021120 0.000000 0.002685
# 5 0.002898 0.001682 -0.004378 0.000000 0.023897 0.000000
# 6 0.000000 0.000000 0.000000 0.002685 0.000000 0.030685
#
#
# Mechanical properties :
#
#
# Convention : Reuss Voigt Hill
#
# Bulk Modulus (GPa) = 67.28711 80.68510 73.98611
# Shear Modulus (GPa) = 34.62448 39.85327 37.23888
#
# Velocity S-wave (km/s) = 4.09488 4.39321 4.24667
# Velocity P-wave (km/s) = 7.41238 8.05035 7.73794
#
# Compressibility (1/GPa) = 0.01486169
#
# Stress axis : x y z
#
# Youngs Moduli (GPa) = 54.61726 143.15084 71.37080
#
# Poissons Ratio (x) = 0.32585 0.45552
# Poissons Ratio (y) = 0.12433 0.25433
# Poissons Ratio (z) = 0.34859 0.51012
#
# Static dielectric constant tensor:
#      x y z
#    x 3.418160 0.000000 0.236570 
#    y 0.000000 4.203420 0.000000 
#    z 0.236570 0.000000 3.785240 
# 
# 
# High freq. dielectric constant tensor:
#      x y z
#    x 1.794720 0.000000 0.012840 
#    y 0.000000 1.837280 0.000000 
#    z 0.012840 0.000000 1.809580 
# 
# From -- ./inp_files/151735.got.cif
#   From: 2010.06.25/outbox.cif.g09.slc.cpg/sg15_76_cif.got.tgz:151735.got - 2010.06.28 07:06:18.
