data_PCOD8153726
_publ_section_title
;
Structure prediction by ZEFSAII (Michael W. Deem and Ramdas Pophale) SiO2 
 PCOD8153726
Probable space group: C 2/C
;
_chemical_formula_sum "Si O2"
_cell_formula_units_Z 40
_cell_length_a 9.330722
_cell_length_b 23.012919
_cell_length_c 8.176533
_cell_angle_alpha 90.000000
_cell_angle_beta 95.961683
_cell_angle_gamma 90.000000
_cell_volume 1746.227929
_symmetry_space_group_name_H-M "C 2/C"
_symmetry_group_IT_number 15
_symmetry_cell_setting 'monoclinic'
loop_
_space_group_symop_operation_xyz
x,y,z
-x,y,1/2-z
-x,-y,-z
x,-y,1/2+z
1/2+x,1/2+y,z
1/2-x,1/2+y,1/2-z
1/2-x,1/2-y,-z
1/2+x,1/2-y,1/2+z
loop_
_atom_site_type_symbol
_atom_site_label
_atom_site_fract_x
_atom_site_fract_y
_atom_site_fract_z
Si Si1 0.424385 0.250589 0.557835
Si Si2 0.042313 0.628120 0.070752
Si Si3 0.465834 0.370582 0.933610
Si Si4 0.215848 0.059637 0.558015
Si Si5 0.220593 0.566901 0.561008
O O1 0.500000 0.246421 0.750000
O O2 0.250000 0.250000 0.500000
O O3 0.486403 0.195469 0.468802
O O4 0.484384 0.309450 0.479075
O O5 0.000000 0.613679 0.250000
O O6 0.203200 0.608868 0.040580
O O7 0.944523 0.586082 0.948319
O O8 0.500000 0.362294 0.750000
O O9 0.548360 0.428226 0.004984
O O10 0.300601 0.384608 0.957684
O O11 0.224790 0.068365 0.750378
O O12 0.265837 0.996123 0.515780
#
# Coordination Sequence:
#
# PCOD8153726 Si02
#       5
#     8   8   8   8   8
#     4  11  25  48  77 105 147 192 240 301 362 431
#     4  12  26  45  71 102 141 185 241 296 361 428
#     4  11  24  44  71 101 143 184 240 292 359 425
#     4  12  24  46  68 100 144 181 239 293 363 432
#     4  12  26  42  71 103 137 190 234 299 357 432
#
# _framework density 22.906517999999998
#
# number of rings (size 3 to 8) (size 9 to 14) (size 15 to 20)
#    0.000    0.400    2.000    7.200    2.800    2.400 
#    0.000    0.000    0.000    0.000    0.000    0.000 
#    0.000    0.000    0.000    0.000    0.000    0.000 
#
# Total GULP energy -247840.576454 kJ/mol
# GULP energy per Si atom -12392.028823 kJ/mol
# Density = 2.285438 g / cm^3
# Si number density = 22.906518 Si / 1000 Ang^3
#
#
#
# Elastic Constant Matrix: (Units=GPa)
#
#
# Indices 1 2 3 4 5 6 
#
# 1 67.3474 20.6766 21.2123 0.0000 12.6155 0.0000
# 2 20.6766 154.0902 9.8006 0.0000 -4.1379 0.0000
# 3 21.2123 9.8006 83.2709 0.0000 -11.9292 0.0000
# 4 0.0000 0.0000 0.0000 16.4573 0.0000 5.8460
# 5 12.6155 -4.1379 -11.9292 0.0000 41.8180 0.0000
# 6 0.0000 0.0000 0.0000 5.8460 0.0000 35.9711
#
#
#
# Elastic Compliance Matrix: (Units=1/GPa)
#
#
# Indices 1 2 3 4 5 6 
#
# 1 0.018723 -0.002359 -0.005562 0.000000 -0.007468 0.000000
# 2 -0.002359 0.006844 -0.000006 0.000000 0.001387 0.000000
# 3 -0.005562 -0.000006 0.014249 0.000000 0.005742 0.000000
# 4 0.000000 0.000000 0.000000 0.064486 0.000000 -0.010480
# 5 -0.007468 0.001387 0.005742 0.000000 0.027942 0.000000
# 6 0.000000 0.000000 0.000000 -0.010480 0.000000 0.029503
#
#
# Mechanical properties :
#
#
# Convention : Reuss Voigt Hill
#
# Bulk Modulus (GPa) = 41.73132 45.34305 43.53719
# Shear Modulus (GPa) = 26.94129 35.71721 31.32925
#
# Velocity S-wave (km/s) = 3.43321 3.95303 3.70226
# Velocity P-wave (km/s) = 5.82869 6.37754 6.10928
#
# Compressibility (1/GPa) = 0.02396282
#
# Stress axis : x y z
#
# Youngs Moduli (GPa) = 53.40883 146.11564 70.17990
#
# Poissons Ratio (x) = 0.34472 0.39033
# Poissons Ratio (y) = 0.12600 0.00041
# Poissons Ratio (z) = 0.29705 0.00084
#
# Static dielectric constant tensor:
#      x y z
#    x 4.546290 0.000000 0.296750 
#    y 0.000000 4.450560 0.000000 
#    z 0.296750 0.000000 4.146650 
# 
# 
# High freq. dielectric constant tensor:
#      x y z
#    x 1.915220 0.000000 0.010670 
#    y 0.000000 1.923290 0.000000 
#    z 0.010670 0.000000 1.903630 
# 
# From -- ./inp_files/23594.got.cif
#   From: 2010.06.25/outbox.cif.g09.slc.cpg/sg15_12_cif.got.tgz:23594.got - 2010.06.28 07:06:18.
