data_PCOD8153329
_publ_section_title
;
Structure prediction by ZEFSAII (Michael W. Deem and Ramdas Pophale) SiO2 
 PCOD8153329
Probable space group: C 2/C
;
_chemical_formula_sum "Si O2"
_cell_formula_units_Z 52
_cell_length_a 17.299170
_cell_length_b 8.733535
_cell_length_c 16.281003
_cell_angle_alpha 90.000000
_cell_angle_beta 66.946313
_cell_angle_gamma 90.000000
_cell_volume 2263.339014
_symmetry_space_group_name_H-M "C 2/C"
_symmetry_group_IT_number 15
_symmetry_cell_setting 'monoclinic'
loop_
_space_group_symop_operation_xyz
x,y,z
-x,y,1/2-z
-x,-y,-z
x,-y,1/2+z
1/2+x,1/2+y,z
1/2-x,1/2+y,1/2-z
1/2-x,1/2-y,-z
1/2+x,1/2-y,1/2+z
loop_
_atom_site_type_symbol
_atom_site_label
_atom_site_fract_x
_atom_site_fract_y
_atom_site_fract_z
Si Si1 0.330041 0.899721 0.826275
Si Si2 0.568288 0.798289 0.920813
Si Si3 0.500000 0.085013 0.750000
Si Si4 0.804343 0.844400 0.741662
Si Si5 0.584972 0.376406 0.252244
Si Si6 0.064360 0.653221 0.893451
Si Si7 0.736612 0.672126 0.919409
O O1 0.288035 0.892841 0.752086
O O2 0.356336 0.723107 0.836181
O O3 0.416952 0.986497 0.791588
O O4 0.263020 0.990378 0.912513
O O5 0.551784 0.739133 0.836306
O O6 0.641867 0.698384 0.931373
O O7 0.586271 0.979142 0.908250
O O8 0.486674 0.769433 0.011057
O O9 0.510488 0.178529 0.831046
O O10 0.847602 0.741658 0.653046
O O11 0.799584 0.748798 0.827462
O O12 0.858972 0.993510 0.732680
O O13 0.500000 0.447385 0.250000
O O14 0.750000 0.750000 0.000000
#
# Coordination Sequence:
#
# PCOD8153329 Si02
#       7
#     8   8   4   8   8   8   8
#     4  12  22  45  71  98 140 189 230 288 355 427
#     4  11  23  45  68 104 137 190 236 293 348 428
#     4  12  20  42  72 100 126 190 238 278 350 430
#     4  12  25  45  71 104 142 187 231 296 360 420
#     4  12  25  43  71 103 143 187 235 290 360 427
#     4  11  25  42  74  99 142 185 239 286 360 421
#     4  12  25  44  73 105 140 183 243 296 347 427
#
# _framework density 22.974905
#
# number of rings (size 3 to 8) (size 9 to 14) (size 15 to 20)
#    0.000    0.308    6.923    0.923    3.231    1.846 
#    2.769    0.769    0.000    0.000    0.000    0.000 
#    0.000    0.000    0.000    0.000    0.000    0.000 
#
# Total GULP energy -322219.838728 kJ/mol
# GULP energy per Si atom -12393.070720 kJ/mol
# Density = 2.292261 g / cm^3
# Si number density = 22.974905 Si / 1000 Ang^3
#
#
#
# Elastic Constant Matrix: (Units=GPa)
#
#
# Indices 1 2 3 4 5 6 
#
# 1 112.6521 3.4900 -10.5076 0.0000 -9.7716 0.0000
# 2 3.4900 51.5227 9.5260 0.0000 -16.0613 0.0000
# 3 -10.5076 9.5260 85.7245 0.0000 -15.7341 0.0000
# 4 0.0000 0.0000 0.0000 26.0170 0.0000 -1.0900
# 5 -9.7716 -16.0613 -15.7341 0.0000 34.8097 0.0000
# 6 0.0000 0.0000 0.0000 -1.0900 0.0000 25.9324
#
#
#
# Elastic Compliance Matrix: (Units=1/GPa)
#
#
# Indices 1 2 3 4 5 6 
#
# 1 0.009340 0.000125 0.001770 0.000000 0.003479 0.000000
# 2 0.000125 0.022705 -0.000631 0.000000 0.010226 0.000000
# 3 0.001770 -0.000631 0.013075 0.000000 0.006116 0.000000
# 4 0.000000 0.000000 0.000000 0.038504 0.000000 0.001618
# 5 0.003479 0.010226 0.006116 0.000000 0.037187 0.000000
# 6 0.000000 0.000000 0.000000 0.001618 0.000000 0.038630
#
#
# Mechanical properties :
#
#
# Convention : Reuss Voigt Hill
#
# Bulk Modulus (GPa) = 20.98791 28.32402 24.65597
# Shear Modulus (GPa) = 28.93591 33.84454 31.39022
#
# Velocity S-wave (km/s) = 3.55273 3.84227 3.70034
# Velocity P-wave (km/s) = 5.09747 5.66031 5.38625
#
# Compressibility (1/GPa) = 0.04764647
#
# Stress axis : x y z
#
# Youngs Moduli (GPa) = 107.06787 44.04335 76.48337
#
# Poissons Ratio (x) = -0.00550 -0.13534
# Poissons Ratio (y) = -0.01336 0.04825
# Poissons Ratio (z) = -0.18946 0.02778
#
# Static dielectric constant tensor:
#      x y z
#    x 5.426730 0.000000 0.171460 
#    y 0.000000 4.318580 0.000000 
#    z 0.171460 0.000000 4.385560 
# 
# 
# High freq. dielectric constant tensor:
#      x y z
#    x 1.920700 0.000000 -0.012790 
#    y 0.000000 1.905050 0.000000 
#    z -0.012790 0.000000 1.889410 
# 
# From -- ./inp_files/209475.got.cif
#   From: 2010.06.25/outbox.cif.g09.slc.cpg/sg15_105_cif.got.tgz:209475.got - 2010.06.28 07:06:18.
