data_PCOD8153944
_publ_section_title
;
Structure prediction by ZEFSAII (Michael W. Deem and Ramdas Pophale) SiO2 
 PCOD8153944
Probable space group: C 2/C
;
_chemical_formula_sum "Si O2"
_cell_formula_units_Z 56
_cell_length_a 25.874246
_cell_length_b 20.466925
_cell_length_c 15.563819
_cell_angle_alpha 90.000000
_cell_angle_beta 18.665038
_cell_angle_gamma 90.000000
_cell_volume 2637.751445
_symmetry_space_group_name_H-M "C 2/C"
_symmetry_group_IT_number 15
_symmetry_cell_setting 'monoclinic'
loop_
_space_group_symop_operation_xyz
x,y,z
-x,y,1/2-z
-x,-y,-z
x,-y,1/2+z
1/2+x,1/2+y,z
1/2-x,1/2+y,1/2-z
1/2-x,1/2-y,-z
1/2+x,1/2-y,1/2+z
loop_
_atom_site_type_symbol
_atom_site_label
_atom_site_fract_x
_atom_site_fract_y
_atom_site_fract_z
Si Si1 0.898725 0.021095 0.075743
Si Si2 0.301618 0.411008 0.419793
Si Si3 0.619992 0.037140 0.752163
Si Si4 0.691527 0.316136 0.944401
Si Si5 0.115717 0.612439 0.498047
Si Si6 0.689792 0.167759 0.938750
Si Si7 0.337834 0.399512 0.047947
O O1 0.726244 0.055173 0.367100
O O2 0.875894 0.963404 0.044026
O O3 0.009478 0.076770 0.856168
O O4 0.000000 0.000000 0.000000
O O5 0.219635 0.482067 0.544240
O O6 0.230622 0.362170 0.604010
O O7 0.284913 0.380697 0.351584
O O8 0.730644 0.083576 0.634992
O O9 0.516720 0.081619 0.853929
O O10 0.500000 0.000000 0.000000
O O11 0.768748 0.336308 0.731790
O O12 0.739945 0.241212 0.884694
O O13 0.500000 0.322216 0.250000
O O14 0.000000 0.648141 0.750000
O O15 0.745174 0.152919 0.753833
O O16 0.500000 0.155513 0.250000
O O17 0.500000 0.369538 0.750000
#
# Coordination Sequence:
#
# PCOD8153944 Si02
#       7
#     8   8   8   8   8   8   8
#     4  12  23  40  67  98 136 176 214 270 348 408
#     4  12  22  42  70  99 131 173 227 276 337 400
#     4  12  23  38  68 103 138 169 215 285 347 394
#     4  11  24  47  69  92 132 187 228 270 328 402
#     4  12  27  42  67 102 137 171 224 282 341 398
#     4  11  27  44  68  97 133 181 233 276 320 399
#     4  12  25  42  66 100 141 179 216 272 345 408
#
# _framework density 21.230202999999999
#
# number of rings (size 3 to 8) (size 9 to 14) (size 15 to 20)
#    0.000    0.286    7.143    2.143    0.000    0.571 
#    0.000    0.000    0.000    2.571    0.000    0.000 
#    0.000    0.000    0.000    0.000    0.000    0.000 
#
# Total GULP energy -347102.100221 kJ/mol
# GULP energy per Si atom -12396.503579 kJ/mol
# Density = 2.118188 g / cm^3
# Si number density = 21.230203 Si / 1000 Ang^3
#
#
#
# Elastic Constant Matrix: (Units=GPa)
#
#
# Indices 1 2 3 4 5 6 
#
# 1 87.4935 38.9931 43.7593 0.0207 -7.2887 -0.0022
# 2 38.9931 87.4909 36.6342 0.0088 2.6613 -0.0097
# 3 43.7593 36.6342 145.4210 -0.0447 17.1825 -0.0126
# 4 0.0207 0.0088 -0.0447 23.8769 -0.0046 3.3537
# 5 -7.2887 2.6613 17.1825 -0.0046 44.7577 0.0040
# 6 -0.0022 -0.0097 -0.0126 3.3537 0.0040 26.7056
#
#
#
# Elastic Compliance Matrix: (Units=1/GPa)
#
#
# Indices 1 2 3 4 5 6 
#
# 1 0.016384 -0.005759 -0.004018 -0.000019 0.004553 -0.000001
# 2 -0.005759 0.014812 -0.001869 -0.000005 -0.001101 0.000005
# 3 -0.004018 -0.001869 0.009030 0.000020 -0.004010 0.000001
# 4 -0.000019 -0.000005 0.000020 0.042634 -0.000006 -0.005354
# 5 0.004553 -0.001101 -0.004010 -0.000006 0.024689 -0.000005
# 6 -0.000001 0.000005 0.000001 -0.005354 -0.000005 0.038118
#
#
# Mechanical properties :
#
#
# Convention : Reuss Voigt Hill
#
# Bulk Modulus (GPa) = 59.04109 62.13096 60.58602
# Shear Modulus (GPa) = 28.63658 32.46927 30.55293
#
# Velocity S-wave (km/s) = 3.67667 3.91499 3.79770
# Velocity P-wave (km/s) = 6.77452 7.05443 6.91590
#
# Compressibility (1/GPa) = 0.01693736
#
# Stress axis : x y z
#
# Youngs Moduli (GPa) = 61.03335 67.51240 110.74135
#
# Poissons Ratio (x) = 0.38877 0.44492
# Poissons Ratio (y) = 0.35146 0.20692
# Poissons Ratio (z) = 0.24521 0.12615
#
# Static dielectric constant tensor:
#      x y z
#    x 3.841980 0.000010 0.141430 
#    y 0.000010 3.751070 0.000110 
#    z 0.141430 0.000110 4.424890 
# 
# 
# High freq. dielectric constant tensor:
#      x y z
#    x 1.839010 0.000000 0.004750 
#    y 0.000000 1.813330 0.000010 
#    z 0.004750 0.000010 1.851960 
# 
# From -- ./inp_files/174717.got.cif
#   From: 2010.06.25/outbox.cif.g09.slc.cpg/sg15_88_cif.got.tgz:174717.got - 2010.06.28 07:06:18.
