data_PCOD8153378
_publ_section_title
;
Structure prediction by ZEFSAII (Michael W. Deem and Ramdas Pophale) SiO2 
 PCOD8153378
Probable space group: C 2/C
;
_chemical_formula_sum "Si O2"
_cell_formula_units_Z 40
_cell_length_a 11.383957
_cell_length_b 17.781737
_cell_length_c 8.060755
_cell_angle_alpha 90.000000
_cell_angle_beta 97.702995
_cell_angle_gamma 90.000000
_cell_volume 1616.986419
_symmetry_space_group_name_H-M "C 2/C"
_symmetry_group_IT_number 15
_symmetry_cell_setting 'monoclinic'
loop_
_space_group_symop_operation_xyz
x,y,z
-x,y,1/2-z
-x,-y,-z
x,-y,1/2+z
1/2+x,1/2+y,z
1/2-x,1/2+y,1/2-z
1/2-x,1/2-y,-z
1/2+x,1/2-y,1/2+z
loop_
_atom_site_type_symbol
_atom_site_label
_atom_site_fract_x
_atom_site_fract_y
_atom_site_fract_z
Si Si1 0.826186 0.196354 0.130926
Si Si2 0.439562 0.709904 0.482905
Si Si3 0.512444 0.127234 0.437006
Si Si4 0.764724 0.901863 0.121951
Si Si5 0.714592 0.062761 0.984404
O O1 0.846733 0.232816 0.316967
O O2 0.949713 0.166893 0.076443
O O3 0.750000 0.250000 0.000000
O O4 0.752184 0.119617 0.139421
O O5 0.509146 0.782647 0.571066
O O6 0.373416 0.654581 0.599231
O O7 0.500000 0.093547 0.250000
O O8 0.643076 0.130310 0.533478
O O9 0.429232 0.073797 0.538178
O O10 0.765433 0.909888 0.319263
O O11 0.771810 0.982841 0.034732
#
# Coordination Sequence:
#
# PCOD8153378 Si02
#       5
#     8   8   8   8   8
#     4  11  23  45  75 102 146 188 243 298 363 434
#     4  11  26  44  72 109 143 189 242 301 360 434
#     4  12  25  44  73 105 146 190 246 302 361 432
#     4  12  27  45  71 108 144 192 247 299 370 435
#     4  12  26  47  73 101 149 194 240 303 366 439
#
# _framework density 24.737375
#
# number of rings (size 3 to 8) (size 9 to 14) (size 15 to 20)
#    0.000    0.400    2.000    6.600    5.600    0.800 
#    0.000    0.000    0.000    0.000    0.000    0.000 
#    0.000    0.000    0.000    0.000    0.000    0.000 
#
# Total GULP energy -247780.672115 kJ/mol
# GULP energy per Si atom -12389.033606 kJ/mol
# Density = 2.468107 g / cm^3
# Si number density = 24.737375 Si / 1000 Ang^3
#
#
#
# Elastic Constant Matrix: (Units=GPa)
#
#
# Indices 1 2 3 4 5 6 
#
# 1 61.2064 -9.6587 21.4700 0.0000 -9.6638 0.0000
# 2 -9.6587 74.5454 17.3634 0.0000 -4.9030 0.0000
# 3 21.4700 17.3634 125.6543 0.0000 -16.8082 0.0000
# 4 0.0000 0.0000 0.0000 12.3933 0.0000 -91.7757
# 5 -9.6638 -4.9030 -16.8082 0.0000 36.0792 0.0000
# 6 0.0000 0.0000 0.0000 -91.7757 0.0000 -283.4209
#
#
#
# Elastic Compliance Matrix: (Units=1/GPa)
#
#
# Indices 1 2 3 4 5 6 
#
# 1 0.018597 0.003397 -0.003113 0.000000 0.003993 0.000000
# 2 0.003397 0.014519 -0.002347 0.000000 0.001789 0.000000
# 3 -0.003113 -0.002347 0.009236 0.000000 0.003150 0.000000
# 4 0.000000 0.000000 0.000000 0.023746 0.000000 -0.007689
# 5 0.003993 0.001789 0.003150 0.000000 0.030497 0.000000
# 6 0.000000 0.000000 0.000000 -0.007689 0.000000 -0.001038
#
#
# Mechanical properties :
#
#
# Convention : Reuss Voigt Hill
#
# Bulk Modulus (GPa) = 26.16049 35.52839 30.84444
# Shear Modulus (GPa) = 44.47415 -31.50759 6.48328
#
# Velocity S-wave (km/s) = 4.24471 -3.57274 1.62066
# Velocity P-wave (km/s) = 5.88402 1.62046 3.99973
#
# Compressibility (1/GPa) = 0.03822558
#
# Stress axis : x y z
#
# Youngs Moduli (GPa) = 53.77331 68.87396 108.27246
#
# Poissons Ratio (x) = -0.23398 0.33704
# Poissons Ratio (y) = -0.18268 0.25416
# Poissons Ratio (z) = 0.16739 0.16168
#
# Static dielectric constant tensor:
#      x y z
#    x 4.547810 0.000000 0.088350 
#    y 0.000000 4.216640 0.000000 
#    z 0.088350 0.000000 4.452860 
# 
# 
# High freq. dielectric constant tensor:
#      x y z
#    x 1.991970 0.000000 0.002850 
#    y 0.000000 1.982690 0.000000 
#    z 0.002850 0.000000 1.987480 
# 
# From -- ./inp_files/29357.got.cif
#   From: 2010.06.25/outbox.cif.g09.slc.cpg/sg15_15_cif.got.tgz:29357.got - 2010.06.28 07:06:18.
