data_PCOD8153052
_publ_section_title
;
Structure prediction by ZEFSAII (Michael W. Deem and Ramdas Pophale) SiO2 
 PCOD8153052
Probable space group: C 2/C
;
_chemical_formula_sum "Si O2"
_cell_formula_units_Z 56
_cell_length_a 15.694503
_cell_length_b 11.823025
_cell_length_c 13.695747
_cell_angle_alpha 90.000000
_cell_angle_beta 81.642470
_cell_angle_gamma 90.000000
_cell_volume 2514.346794
_symmetry_space_group_name_H-M "C 2/C"
_symmetry_group_IT_number 15
_symmetry_cell_setting 'monoclinic'
loop_
_space_group_symop_operation_xyz
x,y,z
-x,y,1/2-z
-x,-y,-z
x,-y,1/2+z
1/2+x,1/2+y,z
1/2-x,1/2+y,1/2-z
1/2-x,1/2-y,-z
1/2+x,1/2-y,1/2+z
loop_
_atom_site_type_symbol
_atom_site_label
_atom_site_fract_x
_atom_site_fract_y
_atom_site_fract_z
Si Si1 0.463798 0.876180 0.018447
Si Si2 0.592153 0.197558 0.180809
Si Si3 0.195007 0.081938 0.674941
Si Si4 0.644330 0.805990 0.291376
Si Si5 0.226859 0.086535 0.316037
Si Si6 0.270236 0.438757 0.003437
Si Si7 0.122374 0.730423 0.572268
O O1 0.411621 0.883254 0.128303
O O2 0.535920 0.781469 0.024670
O O3 0.411058 0.839820 0.931544
O O4 0.500000 0.000000 0.000000
O O5 0.500000 0.174569 0.250000
O O6 0.614107 0.332068 0.182652
O O7 0.671456 0.123561 0.213018
O O8 0.264704 0.132555 0.739020
O O9 0.181078 0.957882 0.723971
O O10 0.234172 0.052525 0.562012
O O11 0.667187 0.693639 0.349878
O O12 0.603993 0.786770 0.190975
O O13 0.210580 0.986635 0.394017
O O14 0.182887 0.367420 0.018193
O O15 0.345978 0.356273 0.955420
#
# Coordination Sequence:
#
# PCOD8153052 Si02
#       7
#     8   8   8   8   8   8   8
#     4  12  27  43  67 102 146 181 223 296 355 407
#     4  11  28  45  68 107 140 177 236 288 350 416
#     4  11  23  44  71  99 134 183 228 289 347 411
#     4  11  23  44  69 102 135 178 243 275 346 420
#     4  11  23  44  73  98 133 190 227 292 336 418
#     4  11  23  42  69 101 135 185 243 271 353 409
#     4  11  24  40  69 102 137 185 230 291 335 427
#
# _framework density 22.272186000000001
#
# number of rings (size 3 to 8) (size 9 to 14) (size 15 to 20)
#    0.000    0.857    2.857    3.857    6.000    2.286 
#    2.571    1.429    0.000    0.000    0.000    0.000 
#    0.000    0.000    0.000    0.000    0.000    0.000 
#
# Total GULP energy -346933.866883 kJ/mol
# GULP energy per Si atom -12390.495246 kJ/mol
# Density = 2.222149 g / cm^3
# Si number density = 22.272186 Si / 1000 Ang^3
#
#
#
# Elastic Constant Matrix: (Units=GPa)
#
#
# Indices 1 2 3 4 5 6 
#
# 1 62.4718 33.6021 42.4416 0.0000 4.5333 0.0000
# 2 33.6021 106.6301 47.9768 0.0000 -1.8969 0.0000
# 3 42.4416 47.9768 102.3251 0.0000 -12.5594 0.0000
# 4 0.0000 0.0000 0.0000 45.9505 0.0000 1.7986
# 5 4.5333 -1.8969 -12.5594 0.0000 32.6199 0.0000
# 6 0.0000 0.0000 0.0000 1.7986 0.0000 35.1679
#
#
#
# Elastic Compliance Matrix: (Units=1/GPa)
#
#
# Indices 1 2 3 4 5 6 
#
# 1 0.025025 -0.003726 -0.009537 0.000000 -0.007366 0.000000
# 2 -0.003726 0.012513 -0.004375 0.000000 -0.000439 0.000000
# 3 -0.009537 -0.004375 0.016701 0.000000 0.007501 0.000000
# 4 0.000000 0.000000 0.000000 0.021806 0.000000 -0.001115
# 5 -0.007366 -0.000439 0.007501 0.000000 0.034542 0.000000
# 6 0.000000 0.000000 0.000000 -0.001115 0.000000 0.028492
#
#
# Mechanical properties :
#
#
# Convention : Reuss Voigt Hill
#
# Bulk Modulus (GPa) = 52.73684 57.71866 55.22775
# Shear Modulus (GPa) = 27.67371 32.57474 30.12422
#
# Velocity S-wave (km/s) = 3.52877 3.82851 3.68169
# Velocity P-wave (km/s) = 6.35080 6.74646 6.55162
#
# Compressibility (1/GPa) = 0.01896208
#
# Stress axis : x y z
#
# Youngs Moduli (GPa) = 39.96005 79.91500 59.87842
#
# Poissons Ratio (x) = 0.29778 0.57104
# Poissons Ratio (y) = 0.14890 0.26199
# Poissons Ratio (z) = 0.38109 0.34966
#
# Static dielectric constant tensor:
#      x y z
#    x 3.897070 0.000000 0.091280 
#    y 0.000000 4.284970 0.000000 
#    z 0.091280 0.000000 3.968880 
# 
# 
# High freq. dielectric constant tensor:
#      x y z
#    x 1.855010 0.000000 0.006760 
#    y 0.000000 1.893700 0.000000 
#    z 0.006760 0.000000 1.888640 
# 
# From -- ./inp_files/152604.got.cif
#   From: 2010.06.25/outbox.cif.g09.slc.cpg/sg15_77_cif.got.tgz:152604.got - 2010.06.28 07:06:18.
