data_PCOD8153277
_publ_section_title
;
Structure prediction by ZEFSAII (Michael W. Deem and Ramdas Pophale) SiO2 
 PCOD8153277
Probable space group: C 2/C
;
_chemical_formula_sum "Si O2"
_cell_formula_units_Z 36
_cell_length_a 11.330951
_cell_length_b 18.978148
_cell_length_c 7.370448
_cell_angle_alpha 90.000000
_cell_angle_beta 105.818481
_cell_angle_gamma 90.000000
_cell_volume 1524.922902
_symmetry_space_group_name_H-M "C 2/C"
_symmetry_group_IT_number 15
_symmetry_cell_setting 'monoclinic'
loop_
_space_group_symop_operation_xyz
x,y,z
-x,y,1/2-z
-x,-y,-z
x,-y,1/2+z
1/2+x,1/2+y,z
1/2-x,1/2+y,1/2-z
1/2-x,1/2-y,-z
1/2+x,1/2-y,1/2+z
loop_
_atom_site_type_symbol
_atom_site_label
_atom_site_fract_x
_atom_site_fract_y
_atom_site_fract_z
Si Si1 0.412452 0.808625 0.385141
Si Si2 0.301537 0.600407 0.848203
Si Si3 0.051247 0.848705 0.570626
Si Si4 0.751720 0.948118 0.728935
Si Si5 0.500000 0.099641 0.250000
O O1 0.500000 0.810409 0.250000
O O2 0.280546 0.839581 0.278203
O O3 0.395951 0.728731 0.448626
O O4 0.476288 0.852356 0.568033
O O5 0.297005 0.528213 0.732413
O O6 0.439851 0.629950 0.891243
O O7 0.255366 0.587257 0.033217
O O8 0.163032 0.903770 0.596260
O O9 0.000000 0.854137 0.750000
O O10 0.614757 0.950344 0.752796
#
# Coordination Sequence:
#
# PCOD8153277 Si02
#       5
#     8   8   8   8   4
#     4  11  24  44  71  99 140 179 223 282 338 403
#     4  11  23  44  71  98 139 179 225 282 339 400
#     4   9  23  43  70  98 136 183 224 278 343 399
#     4  11  24  42  68 101 138 178 229 278 338 403
#     4  12  26  42  68 106 138 176 232 276 336 410
#
# _framework density 23.607752999999999
#
# number of rings (size 3 to 8) (size 9 to 14) (size 15 to 20)
#    0.000    1.333    2.222    2.000    4.667    5.333 
#    4.000    0.000    0.000    0.000    0.000    0.000 
#    0.000    0.000    0.000    0.000    0.000    0.000 
#
# Total GULP energy -223301.629839 kJ/mol
# GULP energy per Si atom -12405.646102 kJ/mol
# Density = 2.355402 g / cm^3
# Si number density = 23.607753 Si / 1000 Ang^3
#
#
#
# Elastic Constant Matrix: (Units=GPa)
#
#
# Indices 1 2 3 4 5 6 
#
# 1 100.6096 65.1886 59.0046 0.0000 37.9467 0.0000
# 2 65.1886 184.1609 54.2253 0.0000 35.8578 0.0000
# 3 59.0046 54.2253 80.4333 0.0000 26.9470 0.0000
# 4 0.0000 0.0000 0.0000 42.0226 0.0000 19.1896
# 5 37.9467 35.8578 26.9470 0.0000 49.4011 0.0000
# 6 0.0000 0.0000 0.0000 19.1896 0.0000 40.9475
#
#
#
# Elastic Compliance Matrix: (Units=1/GPa)
#
#
# Indices 1 2 3 4 5 6 
#
# 1 0.021293 -0.002656 -0.011008 0.000000 -0.008424 0.000000
# 2 -0.002656 0.007482 -0.002398 0.000000 -0.002082 0.000000
# 3 -0.011008 -0.002398 0.022892 0.000000 -0.002291 0.000000
# 4 0.000000 0.000000 0.000000 0.030276 0.000000 -0.014188
# 5 -0.008424 -0.002082 -0.002291 0.000000 0.029474 0.000000
# 6 0.000000 0.000000 0.000000 -0.014188 0.000000 0.031071
#
#
# Mechanical properties :
#
#
# Convention : Reuss Voigt Hill
#
# Bulk Modulus (GPa) = 51.16701 80.22675 65.69688
# Shear Modulus (GPa) = 27.60525 38.92660 33.26592
#
# Velocity S-wave (km/s) = 3.42326 4.06506 3.75788
# Velocity P-wave (km/s) = 6.11112 7.48932 6.83505
#
# Compressibility (1/GPa) = 0.01954384
#
# Stress axis : x y z
#
# Youngs Moduli (GPa) = 46.96350 133.65968 43.68382
#
# Poissons Ratio (x) = 0.35499 0.48085
# Poissons Ratio (y) = 0.12473 0.10475
# Poissons Ratio (z) = 0.51695 0.32050
#
# Static dielectric constant tensor:
#      x y z
#    x 4.262840 0.000000 0.235660 
#    y 0.000000 4.320650 0.000000 
#    z 0.235660 0.000000 4.387710 
# 
# 
# High freq. dielectric constant tensor:
#      x y z
#    x 1.939480 0.000000 0.004550 
#    y 0.000000 1.937820 0.000000 
#    z 0.004550 0.000000 1.949310 
# 
# From -- ./inp_files/29421.got.cif
#   From: 2010.06.25/outbox.cif.g09.slc.cpg/sg15_15_cif.got.tgz:29421.got - 2010.06.28 07:06:18.
