data_PCOD8153229
_publ_section_title
;
Structure prediction by ZEFSAII (Michael W. Deem and Ramdas Pophale) SiO2 
 PCOD8153229
Probable space group: C 2/C
;
_chemical_formula_sum "Si O2"
_cell_formula_units_Z 48
_cell_length_a 16.478226
_cell_length_b 9.756025
_cell_length_c 13.192997
_cell_angle_alpha 90.000000
_cell_angle_beta 79.248677
_cell_angle_gamma 90.000000
_cell_volume 2083.701728
_symmetry_space_group_name_H-M "C 2/C"
_symmetry_group_IT_number 15
_symmetry_cell_setting 'monoclinic'
loop_
_space_group_symop_operation_xyz
x,y,z
-x,y,1/2-z
-x,-y,-z
x,-y,1/2+z
1/2+x,1/2+y,z
1/2-x,1/2+y,1/2-z
1/2-x,1/2-y,-z
1/2+x,1/2-y,1/2+z
loop_
_atom_site_type_symbol
_atom_site_label
_atom_site_fract_x
_atom_site_fract_y
_atom_site_fract_z
Si Si1 0.634167 0.418740 0.151049
Si Si2 0.850336 0.689922 0.075119
Si Si3 0.018832 0.158178 0.515950
Si Si4 0.740752 0.545404 0.956416
Si Si5 0.239517 0.688400 0.215629
Si Si6 0.418345 0.336155 0.713244
O O1 0.708408 0.331429 0.178666
O O2 0.587398 0.503595 0.250845
O O3 0.567876 0.322062 0.109587
O O4 0.671358 0.520177 0.058218
O O5 0.790688 0.821949 0.094805
O O6 0.828883 0.625016 0.190636
O O7 0.827749 0.582413 0.991275
O O8 0.943674 0.736459 0.039850
O O9 0.073732 0.196790 0.406888
O O10 0.000000 0.000000 0.500000
O O11 0.749330 0.418740 0.878566
O O12 0.325877 0.720700 0.256291
O O13 0.500000 0.271419 0.750000
#
# Coordination Sequence:
#
# PCOD8153229 Si02
#       6
#     8   8   8   8   8   8
#     4  12  24  43  73 104 141 181 241 299 355 425
#     4  11  25  43  71 104 148 183 233 300 353 416
#     4  12  22  42  68 105 141 177 236 299 345 409
#     4  11  23  44  66 104 140 187 233 287 360 423
#     4  12  25  42  71 106 141 190 234 286 361 437
#     4  12  24  41  68 106 134 177 242 295 348 409
#
# _framework density 23.035926
#
# number of rings (size 3 to 8) (size 9 to 14) (size 15 to 20)
#    0.000    0.333    6.667    2.500    2.333    0.000 
#    0.000    0.833    0.000    2.000    0.000    0.000 
#    0.000    0.000    0.000    0.000    0.000    0.000 
#
# Total GULP energy -297378.630964 kJ/mol
# GULP energy per Si atom -12390.776290 kJ/mol
# Density = 2.298350 g / cm^3
# Si number density = 23.035926 Si / 1000 Ang^3
#
#
#
# Elastic Constant Matrix: (Units=GPa)
#
#
# Indices 1 2 3 4 5 6 
#
# 1 171.1322 38.8113 46.6892 0.0000 9.1991 0.0000
# 2 38.8113 25.6806 17.2045 0.0000 -2.3527 0.0000
# 3 46.6892 17.2045 115.4025 0.0000 -8.6501 0.0000
# 4 0.0000 0.0000 0.0000 25.9441 0.0000 -1.5224
# 5 9.1991 -2.3527 -8.6501 0.0000 38.5001 0.0000
# 6 0.0000 0.0000 0.0000 -1.5224 0.0000 43.7221
#
#
#
# Elastic Compliance Matrix: (Units=1/GPa)
#
#
# Indices 1 2 3 4 5 6 
#
# 1 0.009704 -0.013538 -0.002180 0.000000 -0.003636 0.000000
# 2 -0.013538 0.062204 -0.003325 0.000000 0.006289 0.000000
# 3 -0.002180 -0.003325 0.010239 0.000000 0.002618 0.000000
# 4 0.000000 0.000000 0.000000 0.038623 0.000000 0.001345
# 5 -0.003636 0.006289 0.002618 0.000000 0.027815 0.000000
# 6 0.000000 0.000000 0.000000 0.001345 0.000000 0.022919
#
#
# Mechanical properties :
#
#
# Convention : Reuss Voigt Hill
#
# Bulk Modulus (GPa) = 22.69599 57.51392 40.10496
# Shear Modulus (GPa) = 22.29375 35.60062 28.94718
#
# Velocity S-wave (km/s) = 3.11429 3.93547 3.54872
# Velocity P-wave (km/s) = 4.77552 6.75809 5.85139
#
# Compressibility (1/GPa) = 0.04406064
#
# Stress axis : x y z
#
# Youngs Moduli (GPa) = 103.04956 16.07614 97.66267
#
# Poissons Ratio (x) = 0.21764 0.21293
# Poissons Ratio (y) = 1.39511 0.32471
# Poissons Ratio (z) = 0.22467 0.05345
#
# Static dielectric constant tensor:
#      x y z
#    x 4.607240 0.000000 0.481510 
#    y 0.000000 3.695270 0.000000 
#    z 0.481510 0.000000 4.920660 
# 
# 
# High freq. dielectric constant tensor:
#      x y z
#    x 1.920090 0.000000 0.005180 
#    y 0.000000 1.859490 0.000000 
#    z 0.005180 0.000000 1.934520 
# 
# From -- ./inp_files/151871.got.cif
#   From: 2010.06.25/outbox.cif.g09.slc.cpg/sg15_76_cif.got.tgz:151871.got - 2010.06.28 07:06:18.
