data_PCOD8153303
_publ_section_title
;
Structure prediction by ZEFSAII (Michael W. Deem and Ramdas Pophale) SiO2 
 PCOD8153303
Probable space group: C 2/C
;
_chemical_formula_sum "Si O2"
_cell_formula_units_Z 40
_cell_length_a 8.326128
_cell_length_b 18.344307
_cell_length_c 11.627530
_cell_angle_alpha 90.000000
_cell_angle_beta 84.563435
_cell_angle_gamma 90.000000
_cell_volume 1767.965840
_symmetry_space_group_name_H-M "C 2/C"
_symmetry_group_IT_number 15
_symmetry_cell_setting 'monoclinic'
loop_
_space_group_symop_operation_xyz
x,y,z
-x,y,1/2-z
-x,-y,-z
x,-y,1/2+z
1/2+x,1/2+y,z
1/2-x,1/2+y,1/2-z
1/2-x,1/2-y,-z
1/2+x,1/2-y,1/2+z
loop_
_atom_site_type_symbol
_atom_site_label
_atom_site_fract_x
_atom_site_fract_y
_atom_site_fract_z
Si Si1 0.817669 0.922442 0.926188
Si Si2 0.682334 0.132660 0.205183
Si Si3 0.288831 0.793494 0.166317
Si Si4 0.156225 0.914740 0.020026
Si Si5 0.147732 0.689885 0.576136
O O1 0.805232 0.888188 0.799534
O O2 0.815341 0.009516 0.915728
O O3 0.672559 0.888314 0.012543
O O4 0.982565 0.899896 0.976464
O O5 0.500000 0.116320 0.250000
O O6 0.705293 0.215510 0.164549
O O7 0.716229 0.083343 0.092258
O O8 0.176333 0.851015 0.110419
O O9 0.296666 0.818236 0.297055
O O10 0.459857 0.789079 0.088956
O O11 0.250000 0.750000 0.500000
#
# Coordination Sequence:
#
# PCOD8153303 Si02
#       5
#     8   8   8   8   8
#     4  11  26  48  71 100 146 189 227 295 356 420
#     4  12  26  45  72 104 142 185 233 295 355 416
#     4  11  26  44  72 108 138 183 240 291 348 423
#     4  11  27  46  72 104 141 187 241 283 355 431
#     4  11  23  44  74 102 142 186 229 293 352 415
#
# _framework density 22.624870999999999
#
# number of rings (size 3 to 8) (size 9 to 14) (size 15 to 20)
#    0.000    0.800    2.000    3.600    8.400    3.200 
#    0.000    0.000    0.000    0.000    0.000    0.000 
#    0.000    0.000    0.000    0.000    0.000    0.000 
#
# Total GULP energy -248074.860847 kJ/mol
# GULP energy per Si atom -12403.743042 kJ/mol
# Density = 2.257338 g / cm^3
# Si number density = 22.624871 Si / 1000 Ang^3
#
#
#
# Elastic Constant Matrix: (Units=GPa)
#
#
# Indices 1 2 3 4 5 6 
#
# 1 77.4569 47.0634 41.1766 0.0000 7.7920 0.0000
# 2 47.0634 137.5672 58.5079 0.0000 18.3569 0.0000
# 3 41.1766 58.5079 118.9987 0.0000 5.5106 0.0000
# 4 0.0000 0.0000 0.0000 39.5365 0.0000 5.0551
# 5 7.7920 18.3569 5.5106 0.0000 35.9650 0.0000
# 6 0.0000 0.0000 0.0000 5.0551 0.0000 36.9526
#
#
#
# Elastic Compliance Matrix: (Units=1/GPa)
#
#
# Indices 1 2 3 4 5 6 
#
# 1 0.017707 -0.004210 -0.004007 0.000000 -0.001073 0.000000
# 2 -0.004210 0.010810 -0.003671 0.000000 -0.004043 0.000000
# 3 -0.004007 -0.003671 0.011550 0.000000 0.000972 0.000000
# 4 0.000000 0.000000 0.000000 0.025743 0.000000 -0.003522
# 5 -0.001073 -0.004043 0.000972 0.000000 0.029952 0.000000
# 6 0.000000 0.000000 0.000000 -0.003522 0.000000 0.027543
#
#
# Mechanical properties :
#
#
# Convention : Reuss Voigt Hill
#
# Bulk Modulus (GPa) = 61.38691 69.72429 65.55560
# Shear Modulus (GPa) = 32.78407 34.97581 33.87994
#
# Velocity S-wave (km/s) = 3.81074 3.93606 3.87391
# Velocity P-wave (km/s) = 6.82303 7.17922 7.00339
#
# Compressibility (1/GPa) = 0.01629012
#
# Stress axis : x y z
#
# Youngs Moduli (GPa) = 56.47546 92.50400 86.58006
#
# Poissons Ratio (x) = 0.38946 0.34695
# Poissons Ratio (y) = 0.23777 0.31784
# Poissons Ratio (z) = 0.22631 0.33959
#
# Static dielectric constant tensor:
#      x y z
#    x 4.156630 0.000000 -0.063800 
#    y 0.000000 4.068830 0.000000 
#    z -0.063800 0.000000 4.390220 
# 
# 
# High freq. dielectric constant tensor:
#      x y z
#    x 1.896730 0.000000 0.002420 
#    y 0.000000 1.891890 0.000000 
#    z 0.002420 0.000000 1.913310 
# 
# From -- ./inp_files/76649.got.cif
#   From: 2010.06.25/outbox.cif.g09.slc.cpg/sg15_39_cif.got.tgz:76649.got - 2010.06.28 07:06:18.
