data_PCOD8153432
_publ_section_title
;
Structure prediction by ZEFSAII (Michael W. Deem and Ramdas Pophale) SiO2 
 PCOD8153432
Probable space group: C 2/C
;
_chemical_formula_sum "Si O2"
_cell_formula_units_Z 44
_cell_length_a 21.004493
_cell_length_b 8.416300
_cell_length_c 25.140283
_cell_angle_alpha 90.000000
_cell_angle_beta 24.184734
_cell_angle_gamma 90.000000
_cell_volume 1820.741652
_symmetry_space_group_name_H-M "C 2/C"
_symmetry_group_IT_number 15
_symmetry_cell_setting 'monoclinic'
loop_
_space_group_symop_operation_xyz
x,y,z
-x,y,1/2-z
-x,-y,-z
x,-y,1/2+z
1/2+x,1/2+y,z
1/2-x,1/2+y,1/2-z
1/2-x,1/2-y,-z
1/2+x,1/2-y,1/2+z
loop_
_atom_site_type_symbol
_atom_site_label
_atom_site_fract_x
_atom_site_fract_y
_atom_site_fract_z
Si Si1 0.097277 0.347984 0.410764
Si Si2 0.400006 0.591149 0.515091
Si Si3 0.602936 0.997822 0.298329
Si Si4 0.069962 0.158009 0.810721
Si Si5 0.706644 0.151073 0.482718
Si Si6 0.000000 0.931657 0.250000
O O1 0.148855 0.378232 0.310517
O O2 0.244423 0.357678 0.337271
O O3 0.000000 0.500000 0.500000
O O4 0.010260 0.173153 0.477153
O O5 0.258926 0.485092 0.644619
O O6 0.498225 0.486416 0.398793
O O7 0.318596 0.740029 0.549145
O O8 0.548386 0.174816 0.358599
O O9 0.455085 0.933561 0.378560
O O10 0.994371 0.170320 0.809068
O O11 0.750000 0.250000 0.500000
O O12 0.844665 0.033295 0.362977
#
# Coordination Sequence:
#
# PCOD8153432 Si02
#       6
#     8   8   8   8   8   4
#     4  11  27  47  76 105 144 192 250 301 367 439
#     4  11  26  47  76 106 148 193 245 305 369 435
#     4  11  28  46  75 107 146 192 242 305 374 434
#     4  12  27  46  71 108 149 192 242 302 366 439
#     4  11  23  46  74 103 142 195 247 298 365 439
#     4  12  26  46  74 104 150 192 248 302 360 434
#
# _framework density 24.165976000000001
#
# number of rings (size 3 to 8) (size 9 to 14) (size 15 to 20)
#    0.000    0.727    1.818    4.364   15.273    3.636 
#    0.000    0.000    0.000    0.000    0.000    0.000 
#    0.000    0.000    0.000    0.000    0.000    0.000 
#
# Total GULP energy -272725.693561 kJ/mol
# GULP energy per Si atom -12396.622435 kJ/mol
# Density = 2.411097 g / cm^3
# Si number density = 24.165976 Si / 1000 Ang^3
#
#
#
# Elastic Constant Matrix: (Units=GPa)
#
#
# Indices 1 2 3 4 5 6 
#
# 1 80.2623 7.2526 30.9552 0.0009 -29.0368 0.0004
# 2 7.2526 107.9643 37.0756 0.0063 -13.7080 -0.0012
# 3 30.9552 37.0756 130.7349 0.0081 -23.2490 -0.0017
# 4 0.0009 0.0063 0.0081 42.2516 0.0004 -6.3554
# 5 -29.0368 -13.7080 -23.2490 0.0004 36.9835 0.0000
# 6 0.0004 -0.0012 -0.0017 -6.3554 0.0000 39.0098
#
#
#
# Elastic Compliance Matrix: (Units=1/GPa)
#
#
# Indices 1 2 3 4 5 6 
#
# 1 0.017980 0.001242 -0.002271 0.000000 0.013149 0.000000
# 2 0.001242 0.010512 -0.002712 -0.000001 0.003166 0.000000
# 3 -0.002271 -0.002712 0.009525 -0.000001 0.003199 0.000000
# 4 0.000000 -0.000001 -0.000001 0.024262 -0.000002 0.003953
# 5 0.013149 0.003166 0.003199 -0.000002 0.040548 0.000000
# 6 0.000000 0.000000 0.000000 0.003953 0.000000 0.026279
#
#
# Mechanical properties :
#
#
# Convention : Reuss Voigt Hill
#
# Bulk Modulus (GPa) = 32.75049 52.16982 42.46016
# Shear Modulus (GPa) = 34.06771 39.89419 36.98095
#
# Velocity S-wave (km/s) = 3.75872 4.06746 3.91614
# Velocity P-wave (km/s) = 5.69377 6.61014 6.16900
#
# Compressibility (1/GPa) = 0.03053389
#
# Stress axis : x y z
#
# Youngs Moduli (GPa) = 55.61786 95.12668 104.98810
#
# Poissons Ratio (x) = -0.11811 0.23843
# Poissons Ratio (y) = -0.06905 0.28474
# Poissons Ratio (z) = 0.12631 0.25800
#
# Static dielectric constant tensor:
#      x y z
#    x 5.005880 0.000010 -0.113180 
#    y 0.000010 4.551660 0.000000 
#    z -0.113180 0.000000 4.185020 
# 
# 
# High freq. dielectric constant tensor:
#      x y z
#    x 1.960480 0.000000 -0.018030 
#    y 0.000000 1.972570 0.000000 
#    z -0.018030 0.000000 1.967210 
# 
# From -- ./inp_files/318556.got.cif
#   From: 2010.06.25/outbox.cif.g09.slc.cpg/sg15_160_cif.got.tgz:318556.got - 2010.06.28 07:06:18.
