data_PCOD8153688
_publ_section_title
;
Structure prediction by ZEFSAII (Michael W. Deem and Ramdas Pophale) SiO2 
 PCOD8153688
Probable space group: C 2/C
;
_chemical_formula_sum "Si O2"
_cell_formula_units_Z 48
_cell_length_a 14.968259
_cell_length_b 8.644882
_cell_length_c 27.956888
_cell_angle_alpha 90.000000
_cell_angle_beta 35.234000
_cell_angle_gamma 90.000000
_cell_volume 2087.048834
_symmetry_space_group_name_H-M "C 2/C"
_symmetry_group_IT_number 15
_symmetry_cell_setting 'monoclinic'
loop_
_space_group_symop_operation_xyz
x,y,z
-x,y,1/2-z
-x,-y,-z
x,-y,1/2+z
1/2+x,1/2+y,z
1/2-x,1/2+y,1/2-z
1/2-x,1/2-y,-z
1/2+x,1/2-y,1/2+z
loop_
_atom_site_type_symbol
_atom_site_label
_atom_site_fract_x
_atom_site_fract_y
_atom_site_fract_z
Si Si1 0.999223 0.705451 0.928304
Si Si2 0.227838 0.951638 0.147892
Si Si3 0.990901 0.175482 0.828807
Si Si4 0.246865 0.791602 0.389538
Si Si5 0.003154 0.535920 0.830529
Si Si6 0.643827 0.470302 0.348905
O O1 0.095773 0.603264 0.923957
O O2 0.951751 0.599357 0.904454
O O3 0.103319 0.849508 0.865782
O O4 0.842091 0.759053 0.022233
O O5 0.130479 0.874992 0.233197
O O6 0.166596 0.899412 0.122670
O O7 0.216939 0.136742 0.156254
O O8 0.020476 0.116871 0.869412
O O9 0.963543 0.357250 0.841836
O O10 0.409325 0.873813 0.330478
O O11 0.137584 0.902574 0.405254
O O12 0.185379 0.562318 0.745730
#
# Coordination Sequence:
#
# PCOD8153688 Si02
#       6
#     8   8   8   8   8   8
#     4  12  25  48  70 104 146 182 228 286 357 415
#     4  11  24  44  68 101 139 176 237 282 349 403
#     4  11  25  42  71 103 132 181 237 295 328 408
#     4  12  28  43  72 105 145 184 223 292 354 416
#     4  12  24  45  71 103 137 185 237 284 343 411
#     4  12  24  44  71 103 137 183 239 283 343 411
#
# _framework density 22.998985000000001
#
# number of rings (size 3 to 8) (size 9 to 14) (size 15 to 20)
#    0.000    0.333    3.333    5.000    9.333    0.000 
#    0.000    2.500    0.000    0.000    0.000    0.000 
#    0.000    0.000    0.000    0.000    0.000    0.000 
#
# Total GULP energy -297766.777201 kJ/mol
# GULP energy per Si atom -12406.949050 kJ/mol
# Density = 2.294664 g / cm^3
# Si number density = 22.998985 Si / 1000 Ang^3
#
#
#
# Elastic Constant Matrix: (Units=GPa)
#
#
# Indices 1 2 3 4 5 6 
#
# 1 137.4514 48.3427 8.1814 0.0000 0.0471 0.0016
# 2 48.3427 149.0636 12.7409 0.0001 -4.8856 0.0040
# 3 8.1814 12.7409 54.5045 -0.0002 15.8341 -0.0002
# 4 0.0000 0.0001 -0.0002 29.4623 -0.0001 3.0720
# 5 0.0471 -4.8856 15.8341 -0.0001 26.6242 -0.0003
# 6 0.0016 0.0040 -0.0002 3.0720 -0.0003 46.1715
#
#
#
# Elastic Compliance Matrix: (Units=1/GPa)
#
#
# Indices 1 2 3 4 5 6 
#
# 1 0.008233 -0.002626 -0.000578 0.000000 -0.000153 0.000000
# 2 -0.002626 0.007843 -0.002247 0.000000 0.002780 -0.000001
# 3 -0.000578 -0.002247 0.023063 0.000000 -0.014128 0.000000
# 4 0.000000 0.000000 0.000000 0.034179 0.000000 -0.002274
# 5 -0.000153 0.002780 -0.014128 0.000000 0.046472 0.000000
# 6 0.000000 -0.000001 0.000000 -0.002274 0.000000 0.021810
#
#
# Mechanical properties :
#
#
# Convention : Reuss Voigt Hill
#
# Bulk Modulus (GPa) = 35.41201 53.28329 44.34765
# Shear Modulus (GPa) = 30.88051 38.56855 34.72453
#
# Velocity S-wave (km/s) = 3.66825 4.09952 3.88987
# Velocity P-wave (km/s) = 5.77685 6.75471 6.28483
#
# Compressibility (1/GPa) = 0.02823900
#
# Stress axis : x y z
#
# Youngs Moduli (GPa) = 121.45897 127.49777 43.35898
#
# Poissons Ratio (x) = 0.33478 0.02505
# Poissons Ratio (y) = 0.31892 0.09743
# Poissons Ratio (z) = 0.07016 0.28648
#
# Static dielectric constant tensor:
#      x y z
#    x 4.436910 0.000000 -0.014980 
#    y 0.000000 4.239150 0.000000 
#    z -0.014980 0.000000 3.762990 
# 
# 
# High freq. dielectric constant tensor:
#      x y z
#    x 1.929630 0.000000 -0.000350 
#    y 0.000000 1.923960 0.000000 
#    z -0.000350 0.000000 1.886930 
# 
# From -- ./inp_files/295377.got.cif
#   From: 2010.06.25/outbox.cif.g09.slc.cpg/sg15_148_cif.got.tgz:295377.got - 2010.06.28 07:06:18.
