data_PCOD8153387
_publ_section_title
;
Structure prediction by ZEFSAII (Michael W. Deem and Ramdas Pophale) SiO2 
 PCOD8153387
Probable space group: C 2/C
;
_chemical_formula_sum "Si O2"
_cell_formula_units_Z 44
_cell_length_a 9.776495
_cell_length_b 21.353440
_cell_length_c 10.563269
_cell_angle_alpha 90.000000
_cell_angle_beta 115.497520
_cell_angle_gamma 90.000000
_cell_volume 1990.428517
_symmetry_space_group_name_H-M "C 2/C"
_symmetry_group_IT_number 15
_symmetry_cell_setting 'monoclinic'
loop_
_space_group_symop_operation_xyz
x,y,z
-x,y,1/2-z
-x,-y,-z
x,-y,1/2+z
1/2+x,1/2+y,z
1/2-x,1/2+y,1/2-z
1/2-x,1/2-y,-z
1/2+x,1/2-y,1/2+z
loop_
_atom_site_type_symbol
_atom_site_label
_atom_site_fract_x
_atom_site_fract_y
_atom_site_fract_z
Si Si1 0.303982 0.704401 0.787058
Si Si2 0.893972 0.442083 0.988646
Si Si3 0.090891 0.006959 0.907577
Si Si4 0.344258 0.841544 0.759398
Si Si5 0.877578 0.851097 0.057366
Si Si6 0.500000 0.857267 0.250000
O O1 0.321439 0.777611 0.828681
O O2 0.447677 0.666892 0.899791
O O3 0.301067 0.693875 0.632999
O O4 0.149901 0.684116 0.793559
O O5 0.741062 0.466825 0.990740
O O6 0.849230 0.402858 0.847283
O O7 0.000000 0.500000 0.000000
O O8 0.986796 0.399346 0.121095
O O9 0.133242 0.078565 0.894324
O O10 0.000000 0.980210 0.750000
O O11 0.000000 0.000000 0.000000
O O12 0.500000 0.835553 0.750000
O O13 0.205967 0.847237 0.608232
#
# Coordination Sequence:
#
# PCOD8153387 Si02
#       6
#     8   8   8   8   8   4
#     4  11  24  46  74 107 144 196 238 303 371 434
#     4  12  30  46  74 106 145 195 242 304 373 440
#     4  12  25  46  73 106 146 193 250 305 370 440
#     4  12  25  46  77 110 144 191 247 300 365 455
#     4  11  23  45  77 103 143 189 247 295 364 446
#     4  12  28  48  68 102 156 182 244 312 368 430
#
# _framework density 22.105793999999999
#
# number of rings (size 3 to 8) (size 9 to 14) (size 15 to 20)
#    0.000    0.364    3.636    6.000    8.909    0.727 
#    4.909    0.000    0.000    0.000    0.000    0.000 
#    0.000    0.000    0.000    0.000    0.000    0.000 
#
# Total GULP energy -272927.416503 kJ/mol
# GULP energy per Si atom -12405.791659 kJ/mol
# Density = 2.205548 g / cm^3
# Si number density = 22.105794 Si / 1000 Ang^3
#
#
#
# Elastic Constant Matrix: (Units=GPa)
#
#
# Indices 1 2 3 4 5 6 
#
# 1 166.0821 59.4287 46.4937 0.0000 8.3148 0.0000
# 2 59.4287 137.7172 34.6390 0.0000 3.0929 0.0000
# 3 46.4937 34.6390 134.4142 0.0000 9.3816 0.0000
# 4 0.0000 0.0000 0.0000 24.0466 0.0000 11.6753
# 5 8.3148 3.0929 9.3816 0.0000 32.3921 0.0000
# 6 0.0000 0.0000 0.0000 11.6753 0.0000 41.1345
#
#
#
# Elastic Compliance Matrix: (Units=1/GPa)
#
#
# Indices 1 2 3 4 5 6 
#
# 1 0.007588 -0.002789 -0.001825 0.000000 -0.001153 0.000000
# 2 -0.002789 0.008791 -0.001319 0.000000 0.000259 0.000000
# 3 -0.001825 -0.001319 0.008542 0.000000 -0.001880 0.000000
# 4 0.000000 0.000000 0.000000 0.048233 0.000000 -0.013690
# 5 -0.001153 0.000259 -0.001880 0.000000 0.031687 0.000000
# 6 0.000000 0.000000 0.000000 -0.013690 0.000000 0.028196
#
#
# Mechanical properties :
#
#
# Convention : Reuss Voigt Hill
#
# Bulk Modulus (GPa) = 76.60440 79.92624 78.26532
# Shear Modulus (GPa) = 33.49962 39.35810 36.42886
#
# Velocity S-wave (km/s) = 3.89707 4.22411 4.06388
# Velocity P-wave (km/s) = 7.41473 7.74761 7.58300
#
# Compressibility (1/GPa) = 0.01305408
#
# Stress axis : x y z
#
# Youngs Moduli (GPa) = 131.78784 113.75509 117.06753
#
# Poissons Ratio (x) = 0.31731 0.21369
# Poissons Ratio (y) = 0.36761 0.15437
# Poissons Ratio (z) = 0.24056 0.15000
#
# Static dielectric constant tensor:
#      x y z
#    x 4.009590 0.000000 0.390390 
#    y 0.000000 3.394310 0.000000 
#    z 0.390390 0.000000 4.006500 
# 
# 
# High freq. dielectric constant tensor:
#      x y z
#    x 1.875690 0.000000 0.015670 
#    y 0.000000 1.884620 0.000000 
#    z 0.015670 0.000000 1.873440 
# 
# From -- ./inp_files/78377.got.cif
#   From: 2010.06.25/outbox.cif.g09.slc.cpg/sg15_40_cif.got.tgz:78377.got - 2010.06.28 07:06:18.
