data_PCOD8153477
_publ_section_title
;
Structure prediction by ZEFSAII (Michael W. Deem and Ramdas Pophale) SiO2 
 PCOD8153477
Probable space group: C 2/C
;
_chemical_formula_sum "Si O2"
_cell_formula_units_Z 40
_cell_length_a 28.879574
_cell_length_b 9.259101
_cell_length_c 19.713157
_cell_angle_alpha 90.000000
_cell_angle_beta 19.714237
_cell_angle_gamma 90.000000
_cell_volume 1778.155365
_symmetry_space_group_name_H-M "C 2/C"
_symmetry_group_IT_number 15
_symmetry_cell_setting 'monoclinic'
loop_
_space_group_symop_operation_xyz
x,y,z
-x,y,1/2-z
-x,-y,-z
x,-y,1/2+z
1/2+x,1/2+y,z
1/2-x,1/2+y,1/2-z
1/2-x,1/2-y,-z
1/2+x,1/2-y,1/2+z
loop_
_atom_site_type_symbol
_atom_site_label
_atom_site_fract_x
_atom_site_fract_y
_atom_site_fract_z
Si Si1 0.926301 0.995612 0.420288
Si Si2 0.586761 0.805292 0.034487
Si Si3 0.854467 0.834812 0.308683
Si Si4 0.804804 0.368586 0.475983
Si Si5 0.370633 0.894815 0.671403
O O1 0.770274 0.969244 0.612651
O O2 0.000000 0.037186 0.250000
O O3 0.998234 0.858361 0.357504
O O4 0.946841 0.138637 0.437557
O O5 0.456600 0.902918 0.237107
O O6 0.693373 0.805182 0.950139
O O7 0.652564 0.866620 0.875960
O O8 0.750000 0.750000 0.500000
O O9 0.887068 0.749831 0.194014
O O10 0.786744 0.989876 0.390615
O O11 0.750000 0.250000 0.500000
O O12 0.500000 0.000000 0.500000
#
# Coordination Sequence:
#
# PCOD8153477 Si02
#       5
#     8   8   8   8   8
#     4  12  25  49  74 109 149 203 252 310 385 467
#     4  11  26  44  75 108 151 199 254 308 382 462
#     4  12  26  46  78 109 152 199 251 312 385 455
#     4  11  23  47  77 107 147 200 250 304 386 459
#     4  12  31  47  74 111 161 195 257 325 381 452
#
# _framework density 22.495221999999998
#
# number of rings (size 3 to 8) (size 9 to 14) (size 15 to 20)
#    0.000    0.400    6.000    1.200    8.400    4.000 
#    0.000    0.000    0.000    0.000    0.000    0.000 
#    0.000    0.000    0.000    0.000    0.000    0.000 
#
# Total GULP energy -247928.257029 kJ/mol
# GULP energy per Si atom -12396.412851 kJ/mol
# Density = 2.244402 g / cm^3
# Si number density = 22.495222 Si / 1000 Ang^3
#
#
#
# Elastic Constant Matrix: (Units=GPa)
#
#
# Indices 1 2 3 4 5 6 
#
# 1 136.9739 50.9644 36.6813 0.0001 5.5094 0.0000
# 2 50.9644 132.4508 54.9135 0.0007 -5.7050 0.0000
# 3 36.6813 54.9135 112.3799 0.0007 -20.2289 0.0000
# 4 0.0001 0.0007 0.0007 37.7188 0.0001 -0.1792
# 5 5.5094 -5.7050 -20.2289 0.0001 39.6292 0.0000
# 6 0.0000 0.0000 0.0000 -0.1792 0.0000 43.3223
#
#
#
# Elastic Compliance Matrix: (Units=1/GPa)
#
#
# Indices 1 2 3 4 5 6 
#
# 1 0.008976 -0.002701 -0.002097 0.000000 -0.002707 0.000000
# 2 -0.002701 0.010324 -0.004216 0.000000 -0.000290 0.000000
# 3 -0.002097 -0.004216 0.012758 0.000000 0.006197 0.000000
# 4 0.000000 0.000000 0.000000 0.026513 0.000000 0.000110
# 5 -0.002707 -0.000290 0.006197 0.000000 0.028732 0.000000
# 6 0.000000 0.000000 0.000000 0.000110 0.000000 0.023083
#
#
# Mechanical properties :
#
#
# Convention : Reuss Voigt Hill
#
# Bulk Modulus (GPa) = 71.26933 74.10255 72.68594
# Shear Modulus (GPa) = 37.56803 40.08375 38.82589
#
# Velocity S-wave (km/s) = 4.09105 4.22581 4.15898
# Velocity P-wave (km/s) = 7.35298 7.53810 7.44612
#
# Compressibility (1/GPa) = 0.01403128
#
# Stress axis : x y z
#
# Youngs Moduli (GPa) = 111.40610 96.85701 78.37932
#
# Poissons Ratio (x) = 0.26160 0.16440
# Poissons Ratio (y) = 0.30089 0.33042
# Poissons Ratio (z) = 0.23367 0.40831
#
# Static dielectric constant tensor:
#      x y z
#    x 4.281180 0.000000 -0.142530 
#    y 0.000000 4.472480 0.000000 
#    z -0.142530 0.000000 4.193760 
# 
# 
# High freq. dielectric constant tensor:
#      x y z
#    x 1.898220 0.000000 -0.003250 
#    y 0.000000 1.886300 0.000000 
#    z -0.003250 0.000000 1.891320 
# 
# From -- ./inp_files/102768.got.cif
#   From: 2010.06.25/outbox.cif.g09.slc.cpg/sg15_52_cif.got.tgz:102768.got - 2010.06.28 07:06:18.
