data_PCOD8153603
_publ_section_title
;
Structure prediction by ZEFSAII (Michael W. Deem and Ramdas Pophale) SiO2 
 PCOD8153603
Probable space group: C 2/C
;
_chemical_formula_sum "Si O2"
_cell_formula_units_Z 48
_cell_length_a 9.793970
_cell_length_b 9.229803
_cell_length_c 26.172328
_cell_angle_alpha 90.000000
_cell_angle_beta 89.587701
_cell_angle_gamma 90.000000
_cell_volume 2365.823334
_symmetry_space_group_name_H-M "C 2/C"
_symmetry_group_IT_number 15
_symmetry_cell_setting 'monoclinic'
loop_
_space_group_symop_operation_xyz
x,y,z
-x,y,1/2-z
-x,-y,-z
x,-y,1/2+z
1/2+x,1/2+y,z
1/2-x,1/2+y,1/2-z
1/2-x,1/2-y,-z
1/2+x,1/2-y,1/2+z
loop_
_atom_site_type_symbol
_atom_site_label
_atom_site_fract_x
_atom_site_fract_y
_atom_site_fract_z
Si Si1 0.262135 0.789727 0.691359
Si Si2 0.737398 0.544021 0.296102
Si Si3 0.050843 0.283407 0.636927
Si Si4 0.097930 0.387010 0.525149
Si Si5 0.400955 0.404494 0.534162
Si Si6 0.527812 0.452768 0.642272
O O1 0.225604 0.625540 0.706130
O O2 0.260711 0.890645 0.740649
O O3 0.408691 0.807478 0.665486
O O4 0.151051 0.842713 0.650912
O O5 0.831512 0.624874 0.336626
O O6 0.578848 0.560425 0.310993
O O7 0.036031 0.332346 0.578616
O O8 0.089767 0.114081 0.638256
O O9 0.245549 0.463195 0.532530
O O10 0.104714 0.258821 0.484542
O O11 0.000000 0.500000 0.500000
O O12 0.500000 0.500000 0.500000
O O13 0.450788 0.406369 0.591661
#
# Coordination Sequence:
#
# PCOD8153603 Si02
#       6
#     8   8   8   8   8   8
#     4  11  26  41  70  94 125 174 210 266 326 378
#     4  11  24  46  63  97 131 165 220 266 318 383
#     4  11  24  43  64  96 133 165 212 269 316 381
#     4  11  26  42  66  98 131 168 216 267 316 386
#     4  11  24  44  66  95 130 172 212 262 322 382
#     4  11  24  43  67  94 131 169 215 265 321 381
#
# _framework density 20.288919
#
# number of rings (size 3 to 8) (size 9 to 14) (size 15 to 20)
#    0.000    1.000    3.333    2.000    4.667    7.333 
#    0.000    0.000    0.000    0.000    0.000    0.000 
#    0.000    0.000    0.000    0.000    0.000    0.000 
#
# Total GULP energy -297722.642626 kJ/mol
# GULP energy per Si atom -12405.110109 kJ/mol
# Density = 2.024274 g / cm^3
# Si number density = 20.288919 Si / 1000 Ang^3
#
#
#
# Elastic Constant Matrix: (Units=GPa)
#
#
# Indices 1 2 3 4 5 6 
#
# 1 65.7930 42.9303 33.9321 0.0000 15.8710 0.0000
# 2 42.9303 107.4717 44.0066 0.0000 11.8150 0.0000
# 3 33.9321 44.0066 93.4820 0.0000 -4.6973 0.0000
# 4 0.0000 0.0000 0.0000 39.9967 0.0000 6.2464
# 5 15.8710 11.8150 -4.6973 0.0000 34.8941 0.0000
# 6 0.0000 0.0000 0.0000 6.2464 0.0000 37.2276
#
#
#
# Elastic Compliance Matrix: (Units=1/GPa)
#
#
# Indices 1 2 3 4 5 6 
#
# 1 0.025185 -0.006164 -0.006756 0.000000 -0.010277 0.000000
# 2 -0.006164 0.013842 -0.004403 0.000000 -0.002476 0.000000
# 3 -0.006756 -0.004403 0.015557 0.000000 0.006658 0.000000
# 4 0.000000 0.000000 0.000000 0.025675 0.000000 -0.004308
# 5 -0.010277 -0.002476 0.006658 0.000000 0.035067 0.000000
# 6 0.000000 0.000000 0.000000 -0.004308 0.000000 0.027585
#
#
# Mechanical properties :
#
#
# Convention : Reuss Voigt Hill
#
# Bulk Modulus (GPa) = 50.15772 56.49829 53.32800
# Shear Modulus (GPa) = 27.14386 32.14886 29.64636
#
# Velocity S-wave (km/s) = 3.66165 3.98496 3.82672
# Velocity P-wave (km/s) = 6.53088 7.00575 6.77248
#
# Compressibility (1/GPa) = 0.01993711
#
# Stress axis : x y z
#
# Youngs Moduli (GPa) = 39.70639 72.24284 64.27942
#
# Poissons Ratio (x) = 0.44529 0.43430
# Poissons Ratio (y) = 0.24474 0.28304
# Poissons Ratio (z) = 0.26827 0.31810
#
# Static dielectric constant tensor:
#      x y z
#    x 3.826900 0.000000 0.031240 
#    y 0.000000 3.813570 0.000000 
#    z 0.031240 0.000000 3.836200 
# 
# 
# High freq. dielectric constant tensor:
#      x y z
#    x 1.805990 0.000000 -0.000500 
#    y 0.000000 1.798780 0.000000 
#    z -0.000500 0.000000 1.810680 
# 
# From -- ./inp_files/306690.got.cif
#   From: 2010.06.25/outbox.cif.g09.slc.cpg/sg15_154_cif.got.tgz:306690.got - 2010.06.28 07:06:18.
