data_PCOD8153488
_publ_section_title
;
Structure prediction by ZEFSAII (Michael W. Deem and Ramdas Pophale) SiO2 
 PCOD8153488
Probable space group: C 2/C
;
_chemical_formula_sum "Si O2"
_cell_formula_units_Z 48
_cell_length_a 9.455532
_cell_length_b 25.380156
_cell_length_c 13.857124
_cell_angle_alpha 90.000000
_cell_angle_beta 137.043413
_cell_angle_gamma 90.000000
_cell_volume 2266.123333
_symmetry_space_group_name_H-M "C 2/C"
_symmetry_group_IT_number 15
_symmetry_cell_setting 'monoclinic'
loop_
_space_group_symop_operation_xyz
x,y,z
-x,y,1/2-z
-x,-y,-z
x,-y,1/2+z
1/2+x,1/2+y,z
1/2-x,1/2+y,1/2-z
1/2-x,1/2-y,-z
1/2+x,1/2-y,1/2+z
loop_
_atom_site_type_symbol
_atom_site_label
_atom_site_fract_x
_atom_site_fract_y
_atom_site_fract_z
Si Si1 0.598369 0.465390 0.466645
Si Si2 0.259900 0.630258 0.217270
Si Si3 0.548804 0.186653 0.938309
Si Si4 0.893060 0.859130 0.299121
Si Si5 0.934217 0.803280 0.509675
Si Si6 0.500000 0.462456 0.750000
Si Si7 0.000000 0.412176 0.750000
O O1 0.500000 0.500000 0.500000
O O2 0.446325 0.417144 0.364211
O O3 0.628428 0.501078 0.387532
O O4 0.821023 0.447693 0.615416
O O5 0.193817 0.666422 0.096300
O O6 0.457903 0.655597 0.366179
O O7 0.326340 0.572207 0.216468
O O8 0.075975 0.625703 0.202471
O O9 0.472000 0.245329 0.926414
O O10 0.355945 0.146918 0.831935
O O11 0.687476 0.191668 0.910123
O O12 0.975664 0.817168 0.418635
O O13 0.000000 0.847402 0.250000
#
# Coordination Sequence:
#
# PCOD8153488 Si02
#       7
#     8   8   8   8   8   4   4
#     4  12  26  47  68 102 139 181 235 288 345 414
#     4  12  24  45  69 104 138 181 230 285 347 412
#     4  11  25  43  76 103 135 190 232 283 343 409
#     4  12  25  45  67 106 146 177 232 294 342 418
#     4  11  23  48  70 102 143 182 235 283 340 419
#     4  12  24  46  72  97 137 176 232 288 334 412
#     4  12  26  46  70  93 145 182 220 290 354 404
#
# _framework density 21.181547999999999
#
# number of rings (size 3 to 8) (size 9 to 14) (size 15 to 20)
#    0.000    0.333    5.833    2.500    0.000    5.333 
#    3.000    0.000    0.000    0.000    0.000    0.000 
#    0.000    0.000    0.000    0.000    0.000    0.000 
#
# Total GULP energy -297688.879632 kJ/mol
# GULP energy per Si atom -12403.703318 kJ/mol
# Density = 2.113334 g / cm^3
# Si number density = 21.181548 Si / 1000 Ang^3
#
#
#
# Elastic Constant Matrix: (Units=GPa)
#
#
# Indices 1 2 3 4 5 6 
#
# 1 117.2596 69.8073 45.9228 0.0000 -5.8877 0.0000
# 2 69.8073 122.0300 47.7651 0.0000 -4.6596 0.0000
# 3 45.9228 47.7651 118.9488 0.0000 -3.1507 0.0000
# 4 0.0000 0.0000 0.0000 31.9019 0.0000 -8.5956
# 5 -5.8877 -4.6596 -3.1507 0.0000 39.7883 0.0000
# 6 0.0000 0.0000 0.0000 -8.5956 0.0000 36.3404
#
#
#
# Elastic Compliance Matrix: (Units=1/GPa)
#
#
# Indices 1 2 3 4 5 6 
#
# 1 0.013577 -0.006747 -0.002505 0.000000 0.001021 0.000000
# 2 -0.006747 0.013104 -0.002648 0.000000 0.000326 0.000000
# 3 -0.002505 -0.002648 0.010442 0.000000 0.000146 0.000000
# 4 0.000000 0.000000 0.000000 0.033480 0.000000 0.007919
# 5 0.001021 0.000326 0.000146 0.000000 0.025334 0.000000
# 6 0.000000 0.000000 0.000000 0.007919 0.000000 0.029391
#
#
# Mechanical properties :
#
#
# Convention : Reuss Voigt Hill
#
# Bulk Modulus (GPa) = 75.07186 76.13651 75.60418
# Shear Modulus (GPa) = 32.55874 34.58901 33.57387
#
# Velocity S-wave (km/s) = 3.92487 4.04540 3.98559
# Velocity P-wave (km/s) = 7.48723 7.60546 7.54658
#
# Compressibility (1/GPa) = 0.01332057
#
# Stress axis : x y z
#
# Youngs Moduli (GPa) = 73.65217 76.31522 95.77141
#
# Poissons Ratio (x) = 0.51492 0.23994
# Poissons Ratio (y) = 0.49695 0.25363
# Poissons Ratio (z) = 0.18452 0.20210
#
# Static dielectric constant tensor:
#      x y z
#    x 4.299260 0.000000 -0.230610 
#    y 0.000000 2.552680 0.000000 
#    z -0.230610 0.000000 3.845210 
# 
# 
# High freq. dielectric constant tensor:
#      x y z
#    x 1.840230 0.000000 -0.016660 
#    y 0.000000 1.835410 0.000000 
#    z -0.016660 0.000000 1.840810 
# 
# From -- ./inp_files/139083.got.cif
#   From: 2010.06.25/outbox.cif.g09.slc.cpg/sg15_70_cif.got.tgz:139083.got - 2010.06.28 07:06:18.
