data_PCOD8153375
_publ_section_title
;
Structure prediction by ZEFSAII (Michael W. Deem and Ramdas Pophale) SiO2 
 PCOD8153375
Probable space group: C 2/C
;
_chemical_formula_sum "Si O2"
_cell_formula_units_Z 40
_cell_length_a 25.144723
_cell_length_b 10.754849
_cell_length_c 12.957577
_cell_angle_alpha 90.000000
_cell_angle_beta 147.269181
_cell_angle_gamma 90.000000
_cell_volume 1894.635306
_symmetry_space_group_name_H-M "C 2/C"
_symmetry_group_IT_number 15
_symmetry_cell_setting 'monoclinic'
loop_
_space_group_symop_operation_xyz
x,y,z
-x,y,1/2-z
-x,-y,-z
x,-y,1/2+z
1/2+x,1/2+y,z
1/2-x,1/2+y,1/2-z
1/2-x,1/2-y,-z
1/2+x,1/2-y,1/2+z
loop_
_atom_site_type_symbol
_atom_site_label
_atom_site_fract_x
_atom_site_fract_y
_atom_site_fract_z
Si Si1 0.775868 0.641241 0.965143
Si Si2 0.890250 0.950350 0.816109
Si Si3 0.597615 0.284194 0.852029
Si Si4 0.595988 0.945370 0.207114
Si Si5 0.802380 0.724245 0.784704
O O1 0.678354 0.567400 0.774232
O O2 0.821836 0.697860 0.936186
O O3 0.750000 0.750000 0.000000
O O4 0.854201 0.553365 0.146640
O O5 0.865967 0.893644 0.664224
O O6 0.868404 0.844716 0.865770
O O7 0.000000 0.000000 0.000000
O O8 0.500000 0.331699 0.750000
O O9 0.566136 0.164077 0.735768
O O10 0.686793 0.249492 0.074350
O O11 0.666609 0.894597 0.232443
O O12 0.500000 0.000000 0.000000
#
# Coordination Sequence:
#
# PCOD8153375 Si02
#       5
#     8   8   8   8   8
#     4  12  28  43  72 106 138 178 241 291 346 418
#     4  11  24  47  70 103 142 181 232 288 351 422
#     4  11  23  45  74  97 134 197 229 277 365 413
#     4  11  26  45  70 101 143 184 237 287 347 424
#     4  11  25  48  71  97 145 189 227 293 355 413
#
# _framework density 21.112242999999999
#
# number of rings (size 3 to 8) (size 9 to 14) (size 15 to 20)
#    0.000    0.800    4.000    2.400   14.000    1.600 
#    0.000    0.000    0.000    0.000    0.000    0.000 
#    0.000    0.000    0.000    0.000    0.000    0.000 
#
# Total GULP energy -248117.520444 kJ/mol
# GULP energy per Si atom -12405.876022 kJ/mol
# Density = 2.106419 g / cm^3
# Si number density = 21.112243 Si / 1000 Ang^3
#
#
#
# Elastic Constant Matrix: (Units=GPa)
#
#
# Indices 1 2 3 4 5 6 
#
# 1 145.9240 62.3743 48.9067 0.0000 -14.5680 0.0000
# 2 62.3743 116.0019 49.1883 0.0000 -9.1009 0.0000
# 3 48.9067 49.1883 131.7457 0.0000 9.2131 0.0000
# 4 0.0000 0.0000 0.0000 40.1729 0.0000 5.1471
# 5 -14.5680 -9.1009 9.2131 0.0000 45.7765 0.0000
# 6 0.0000 0.0000 0.0000 5.1471 0.0000 34.1512
#
#
#
# Elastic Compliance Matrix: (Units=1/GPa)
#
#
# Indices 1 2 3 4 5 6 
#
# 1 0.009583 -0.003981 -0.002261 0.000000 0.002713 0.000000
# 2 -0.003981 0.012275 -0.003233 0.000000 0.001824 0.000000
# 3 -0.002261 -0.003233 0.009871 0.000000 -0.003349 0.000000
# 4 0.000000 0.000000 0.000000 0.025383 0.000000 -0.003826
# 5 0.002713 0.001824 -0.003349 0.000000 0.023745 0.000000
# 6 0.000000 0.000000 0.000000 -0.003826 0.000000 0.029858
#
#
# Mechanical properties :
#
#
# Convention : Reuss Voigt Hill
#
# Bulk Modulus (GPa) = 78.24965 79.40112 78.82538
# Shear Modulus (GPa) = 37.33441 39.56693 38.45067
#
# Velocity S-wave (km/s) = 4.20977 4.33381 4.27224
# Velocity P-wave (km/s) = 7.79575 7.92043 7.85834
#
# Compressibility (1/GPa) = 0.01277961
#
# Stress axis : x y z
#
# Youngs Moduli (GPa) = 104.34825 81.46503 101.30980
#
# Poissons Ratio (x) = 0.32435 0.22904
# Poissons Ratio (y) = 0.41546 0.32749
# Poissons Ratio (z) = 0.23590 0.26334
#
# Static dielectric constant tensor:
#      x y z
#    x 3.983710 0.000000 0.085770 
#    y 0.000000 3.931080 0.000000 
#    z 0.085770 0.000000 3.930330 
# 
# 
# High freq. dielectric constant tensor:
#      x y z
#    x 1.835560 0.000000 0.001420 
#    y 0.000000 1.836930 0.000000 
#    z 0.001420 0.000000 1.830540 
# 
# From -- ./inp_files/122850.got.cif
#   From: 2010.06.25/outbox.cif.g09.slc.cpg/sg15_62_cif.got.tgz:122850.got - 2010.06.28 07:06:18.
