data_PCOD8153709
_publ_section_title
;
Structure prediction by ZEFSAII (Michael W. Deem and Ramdas Pophale) SiO2 
 PCOD8153709
Probable space group: C 2/C
;
_chemical_formula_sum "Si O2"
_cell_formula_units_Z 48
_cell_length_a 21.051954
_cell_length_b 12.034049
_cell_length_c 9.161584
_cell_angle_alpha 90.000000
_cell_angle_beta 116.463870
_cell_angle_gamma 90.000000
_cell_volume 2077.793452
_symmetry_space_group_name_H-M "C 2/C"
_symmetry_group_IT_number 15
_symmetry_cell_setting 'monoclinic'
loop_
_space_group_symop_operation_xyz
x,y,z
-x,y,1/2-z
-x,-y,-z
x,-y,1/2+z
1/2+x,1/2+y,z
1/2-x,1/2+y,1/2-z
1/2-x,1/2-y,-z
1/2+x,1/2-y,1/2+z
loop_
_atom_site_type_symbol
_atom_site_label
_atom_site_fract_x
_atom_site_fract_y
_atom_site_fract_z
Si Si1 0.915538 0.628462 0.416488
Si Si2 0.285517 0.525360 0.137209
Si Si3 0.563521 0.248649 0.560328
Si Si4 0.628410 0.308339 0.926636
Si Si5 0.121608 0.959805 0.497073
Si Si6 0.871256 0.435411 0.549907
O O1 0.860807 0.714875 0.438210
O O2 0.927037 0.523871 0.537348
O O3 0.884254 0.583729 0.233450
O O4 0.988290 0.691592 0.460434
O O5 0.296677 0.642950 0.058991
O O6 0.310508 0.543026 0.326521
O O7 0.339908 0.434914 0.119548
O O8 0.205464 0.487354 0.052575
O O9 0.581042 0.255569 0.748993
O O10 0.562649 0.370399 0.483296
O O11 0.622960 0.178395 0.534671
O O12 0.586566 0.415969 0.953309
#
# Coordination Sequence:
#
# PCOD8153709 Si02
#       6
#     8   8   8   8   8   8
#     4  12  26  45  69  99 137 186 227 278 335 406
#     4   9  21  44  68 102 133 177 224 283 343 394
#     4  11  24  44  70 101 137 183 224 278 339 409
#     4   9  23  45  71 100 133 176 228 287 345 390
#     4   9  21  44  70 104 134 172 228 282 348 396
#     4  12  26  44  70  99 142 181 228 278 332 415
#
# _framework density 23.101431999999999
#
# number of rings (size 3 to 8) (size 9 to 14) (size 15 to 20)
#    1.000    0.667    0.000    3.500    2.333    3.333 
#    6.000    1.667    0.000    0.000    0.000    0.000 
#    0.000    0.000    0.000    0.000    0.000    0.000 
#
# Total GULP energy -297362.316624 kJ/mol
# GULP energy per Si atom -12390.096526 kJ/mol
# Density = 2.304885 g / cm^3
# Si number density = 23.101432 Si / 1000 Ang^3
#
#
#
# Elastic Constant Matrix: (Units=GPa)
#
#
# Indices 1 2 3 4 5 6 
#
# 1 57.6625 18.2057 26.8644 0.0000 -9.5974 0.0000
# 2 18.2057 121.1668 43.0294 0.0000 -26.7274 0.0000
# 3 26.8644 43.0294 55.8311 0.0000 -8.0152 0.0000
# 4 0.0000 0.0000 0.0000 34.1887 0.0000 -14.2463
# 5 -9.5974 -26.7274 -8.0152 0.0000 31.6625 0.0000
# 6 0.0000 0.0000 0.0000 -14.2463 0.0000 62.3946
#
#
#
# Elastic Compliance Matrix: (Units=1/GPa)
#
#
# Indices 1 2 3 4 5 6 
#
# 1 0.023197 0.001991 -0.011877 0.000000 0.005705 0.000000
# 2 0.001991 0.013655 -0.010108 0.000000 0.009571 0.000000
# 3 -0.011877 -0.010108 0.030793 0.000000 -0.004337 0.000000
# 4 0.000000 0.000000 0.000000 0.032325 0.000000 0.007381
# 5 0.005705 0.009571 -0.004337 0.000000 0.040294 0.000000
# 6 0.000000 0.000000 0.000000 0.007381 0.000000 0.017712
#
#
# Mechanical properties :
#
#
# Convention : Reuss Voigt Hill
#
# Bulk Modulus (GPa) = 36.15674 45.65106 40.90390
# Shear Modulus (GPa) = 24.13332 35.41988 29.77660
#
# Velocity S-wave (km/s) = 3.23564 3.91990 3.59409
# Velocity P-wave (km/s) = 5.44467 6.34756 5.91337
#
# Compressibility (1/GPa) = 0.02765736
#
# Stress axis : x y z
#
# Youngs Moduli (GPa) = 43.10965 73.23488 32.47443
#
# Poissons Ratio (x) = -0.14581 0.38570
# Poissons Ratio (y) = -0.08583 0.32824
# Poissons Ratio (z) = 0.51201 0.74024
#
# Static dielectric constant tensor:
#      x y z
#    x 4.069040 0.000000 -0.474210 
#    y 0.000000 4.465710 0.000000 
#    z -0.474210 0.000000 3.900710 
# 
# 
# High freq. dielectric constant tensor:
#      x y z
#    x 1.908030 0.000000 -0.030350 
#    y 0.000000 1.922160 0.000000 
#    z -0.030350 0.000000 1.901510 
# 
# From -- ./inp_files/111231.got.cif
#   From: 2010.06.25/outbox.cif.g09.slc.cpg/sg15_56_cif.got.tgz:111231.got - 2010.06.28 07:06:18.
