data_PCOD8153433
_publ_section_title
;
Structure prediction by ZEFSAII (Michael W. Deem and Ramdas Pophale) SiO2 
 PCOD8153433
Probable space group: C 2/C
;
_chemical_formula_sum "Si O2"
_cell_formula_units_Z 40
_cell_length_a 17.735705
_cell_length_b 14.274041
_cell_length_c 14.010737
_cell_angle_alpha 90.000000
_cell_angle_beta 151.047208
_cell_angle_gamma 90.000000
_cell_volume 1717.044044
_symmetry_space_group_name_H-M "C 2/C"
_symmetry_group_IT_number 15
_symmetry_cell_setting 'monoclinic'
loop_
_space_group_symop_operation_xyz
x,y,z
-x,y,1/2-z
-x,-y,-z
x,-y,1/2+z
1/2+x,1/2+y,z
1/2-x,1/2+y,1/2-z
1/2-x,1/2-y,-z
1/2+x,1/2-y,1/2+z
loop_
_atom_site_type_symbol
_atom_site_label
_atom_site_fract_x
_atom_site_fract_y
_atom_site_fract_z
Si Si1 0.559561 0.667777 0.716983
Si Si2 0.156265 0.546995 0.137450
Si Si3 0.238643 0.239968 0.201548
Si Si4 0.158958 0.901277 0.050158
Si Si5 0.667369 0.542677 0.349865
O O1 0.500000 0.713517 0.750000
O O2 0.720058 0.710758 0.853943
O O3 0.432985 0.693869 0.494942
O O4 0.587983 0.558855 0.768219
O O5 0.142515 0.654120 0.153943
O O6 0.302596 0.493202 0.345158
O O7 0.182028 0.543915 0.051543
O O8 0.000000 0.500000 0.000000
O O9 0.255277 0.311284 0.308935
O O10 0.223765 0.919684 0.015125
O O11 0.971108 0.888917 0.841833
#
# Coordination Sequence:
#
# PCOD8153433 Si02
#       5
#     8   8   8   8   8
#     4  12  23  45  71 105 137 188 241 294 351 431
#     4  12  25  44  66 105 151 188 231 304 362 420
#     4  12  25  41  72 106 141 183 244 296 357 426
#     4  11  23  46  74 105 134 192 242 294 356 423
#     4  11  23  46  77  95 142 195 244 281 358 439
#
# _framework density 23.295847999999999
#
# number of rings (size 3 to 8) (size 9 to 14) (size 15 to 20)
#    0.000    0.400    6.000    3.600    0.000    1.600 
#    0.000    2.000    0.000    0.000    0.000    0.000 
#    0.000    0.000    0.000    0.000    0.000    0.000 
#
# Total GULP energy -247936.297666 kJ/mol
# GULP energy per Si atom -12396.814883 kJ/mol
# Density = 2.324283 g / cm^3
# Si number density = 23.295848 Si / 1000 Ang^3
#
#
#
# Elastic Constant Matrix: (Units=GPa)
#
#
# Indices 1 2 3 4 5 6 
#
# 1 136.4437 17.3458 27.7691 0.0000 -11.7917 0.0000
# 2 17.3458 132.8413 38.6171 0.0000 -21.5417 0.0000
# 3 27.7691 38.6171 52.9683 0.0000 -9.3397 0.0000
# 4 0.0000 0.0000 0.0000 22.8985 0.0000 7.9700
# 5 -11.7917 -21.5417 -9.3397 0.0000 37.4286 0.0000
# 6 0.0000 0.0000 0.0000 7.9700 0.0000 23.2199
#
#
#
# Elastic Compliance Matrix: (Units=1/GPa)
#
#
# Indices 1 2 3 4 5 6 
#
# 1 0.008318 0.000484 -0.004396 0.000000 0.001802 0.000000
# 2 0.000484 0.010168 -0.006912 0.000000 0.004280 0.000000
# 3 -0.004396 -0.006912 0.026441 0.000000 0.001235 0.000000
# 4 0.000000 0.000000 0.000000 0.049596 0.000000 -0.017023
# 5 0.001802 0.004280 0.001235 0.000000 0.030057 0.000000
# 6 0.000000 0.000000 0.000000 -0.017023 0.000000 0.048910
#
#
# Mechanical properties :
#
#
# Convention : Reuss Voigt Hill
#
# Bulk Modulus (GPa) = 42.95766 54.41306 48.68536
# Shear Modulus (GPa) = 24.64308 32.61080 28.62694
#
# Velocity S-wave (km/s) = 3.25596 3.74552 3.50929
# Velocity P-wave (km/s) = 5.71096 6.48948 6.11263
#
# Compressibility (1/GPa) = 0.02327873
#
# Stress axis : x y z
#
# Youngs Moduli (GPa) = 120.22290 98.34807 37.82025
#
# Poissons Ratio (x) = -0.04760 0.16625
# Poissons Ratio (y) = -0.05819 0.26142
# Poissons Ratio (z) = 0.52848 0.67980
#
# Static dielectric constant tensor:
#      x y z
#    x 4.240150 0.000000 -0.152140 
#    y 0.000000 4.232690 0.000000 
#    z -0.152140 0.000000 3.976860 
# 
# 
# High freq. dielectric constant tensor:
#      x y z
#    x 1.936190 0.000000 -0.002640 
#    y 0.000000 1.918610 0.000000 
#    z -0.002640 0.000000 1.902540 
# 
# From -- ./inp_files/162433.got.cif
#   From: 2010.06.25/outbox.cif.g09.slc.cpg/sg15_82_cif.got.tgz:162433.got - 2010.06.28 07:06:18.
