data_PCOD8153368
_publ_section_title
;
Structure prediction by ZEFSAII (Michael W. Deem and Ramdas Pophale) SiO2 
 PCOD8153368
Probable space group: C 2/C
;
_chemical_formula_sum "Si O2"
_cell_formula_units_Z 40
_cell_length_a 8.130615
_cell_length_b 22.200229
_cell_length_c 16.231021
_cell_angle_alpha 90.000000
_cell_angle_beta 143.851422
_cell_angle_gamma 90.000000
_cell_volume 1728.189027
_symmetry_space_group_name_H-M "C 2/C"
_symmetry_group_IT_number 15
_symmetry_cell_setting 'monoclinic'
loop_
_space_group_symop_operation_xyz
x,y,z
-x,y,1/2-z
-x,-y,-z
x,-y,1/2+z
1/2+x,1/2+y,z
1/2-x,1/2+y,1/2-z
1/2-x,1/2-y,-z
1/2+x,1/2-y,1/2+z
loop_
_atom_site_type_symbol
_atom_site_label
_atom_site_fract_x
_atom_site_fract_y
_atom_site_fract_z
Si Si1 0.817532 0.388532 0.794571
Si Si2 0.650573 0.543626 0.997355
Si Si3 0.266974 0.070983 0.459223
Si Si4 0.201414 0.128967 0.752822
Si Si5 0.468171 0.242777 0.334337
O O1 0.540080 0.407566 0.632943
O O2 0.807242 0.417429 0.880215
O O3 0.816852 0.316688 0.806327
O O4 0.098644 0.414570 0.864537
O O5 0.789165 0.500662 0.983616
O O6 0.414572 0.586223 0.864941
O O7 0.500000 0.500000 0.000000
O O8 0.488821 0.108195 0.601680
O O9 0.216477 0.197452 0.725390
O O10 0.000000 0.125770 0.750000
O O11 0.500000 0.232976 0.250000
O O12 0.750000 0.250000 0.500000
#
# Coordination Sequence:
#
# PCOD8153368 Si02
#       5
#     8   8   8   8   8
#     4  11  24  44  70 105 140 183 242 291 365 423
#     4  12  26  44  70 103 144 186 238 298 357 431
#     4  11  25  42  69 105 141 188 230 297 359 437
#     4  11  23  45  73  99 137 193 243 281 363 437
#     4  11  23  45  76 102 141 191 245 302 356 435
#
# _framework density 23.145614999999999
#
# number of rings (size 3 to 8) (size 9 to 14) (size 15 to 20)
#    0.000    0.800    4.000    3.000    5.600    3.200 
#    0.000    4.000    0.000    0.000    0.000    0.000 
#    0.000    0.000    0.000    0.000    0.000    0.000 
#
# Total GULP energy -248000.953915 kJ/mol
# GULP energy per Si atom -12400.047696 kJ/mol
# Density = 2.309293 g / cm^3
# Si number density = 23.145615 Si / 1000 Ang^3
#
#
#
# Elastic Constant Matrix: (Units=GPa)
#
#
# Indices 1 2 3 4 5 6 
#
# 1 63.9456 29.2818 25.7451 0.0005 5.6088 0.0008
# 2 29.2818 199.1804 66.9749 0.0002 12.6220 0.0008
# 3 25.7451 66.9749 202.3022 0.0005 29.6126 0.0012
# 4 0.0005 0.0002 0.0005 30.4524 0.0003 -14.1876
# 5 5.6088 12.6220 29.6126 0.0003 37.3695 0.0004
# 6 0.0008 0.0008 0.0012 -14.1876 0.0004 -5.3279
#
#
#
# Elastic Compliance Matrix: (Units=1/GPa)
#
#
# Indices 1 2 3 4 5 6 
#
# 1 0.017192 -0.002004 -0.001409 0.000000 -0.000787 0.000001
# 2 -0.002004 0.005891 -0.001638 0.000000 -0.000391 0.000000
# 3 -0.001409 -0.001638 0.006281 0.000000 -0.004213 0.000000
# 4 0.000000 0.000000 0.000000 0.014656 0.000000 -0.039027
# 5 -0.000787 -0.000391 -0.004213 0.000000 0.030348 0.000001
# 6 0.000001 0.000000 0.000000 -0.039027 0.000001 -0.083767
#
#
# Mechanical properties :
#
#
# Convention : Reuss Voigt Hill
#
# Bulk Modulus (GPa) = 51.91507 78.82576 65.37041
# Shear Modulus (GPa) = 701.86684 35.39391 368.63037
#
# Velocity S-wave (km/s) = 17.43267 3.91472 12.63374
# Velocity P-wave (km/s) = 20.68032 7.38673 15.52803
#
# Compressibility (1/GPa) = 0.01926223
#
# Stress axis : x y z
#
# Youngs Moduli (GPa) = 58.16577 169.75950 159.20055
#
# Poissons Ratio (x) = 0.34015 0.22437
# Poissons Ratio (y) = 0.11655 0.26077
# Poissons Ratio (z) = 0.08198 0.27806
#
# Static dielectric constant tensor:
#      x y z
#    x 4.032410 0.000000 0.247270 
#    y 0.000000 4.691480 -0.000010 
#    z 0.247270 -0.000010 4.910320 
# 
# 
# High freq. dielectric constant tensor:
#      x y z
#    x 1.898290 0.000000 -0.004570 
#    y 0.000000 1.936720 0.000000 
#    z -0.004570 0.000000 1.931380 
# 
# From -- ./inp_files/193450.got.cif
#   From: 2010.06.25/outbox.cif.g09.slc.cpg/sg15_97_cif.got.tgz:193450.got - 2010.06.28 07:06:18.
