data_PCOD8153803
_publ_section_title
;
Structure prediction by ZEFSAII (Michael W. Deem and Ramdas Pophale) SiO2 
 PCOD8153803
Probable space group: C 2/C
;
_chemical_formula_sum "Si O2"
_cell_formula_units_Z 48
_cell_length_a 9.217000
_cell_length_b 15.040213
_cell_length_c 29.364284
_cell_angle_alpha 90.000000
_cell_angle_beta 145.829459
_cell_angle_gamma 90.000000
_cell_volume 2286.309292
_symmetry_space_group_name_H-M "C 2/C"
_symmetry_group_IT_number 15
_symmetry_cell_setting 'monoclinic'
loop_
_space_group_symop_operation_xyz
x,y,z
-x,y,1/2-z
-x,-y,-z
x,-y,1/2+z
1/2+x,1/2+y,z
1/2-x,1/2+y,1/2-z
1/2-x,1/2-y,-z
1/2+x,1/2-y,1/2+z
loop_
_atom_site_type_symbol
_atom_site_label
_atom_site_fract_x
_atom_site_fract_y
_atom_site_fract_z
Si Si1 0.550923 0.737017 0.578476
Si Si2 0.293027 0.908451 0.829832
Si Si3 0.189255 0.460472 0.086165
Si Si4 0.495908 0.764934 0.034736
Si Si5 0.807403 0.947641 0.340340
Si Si6 0.631870 0.883315 0.832591
O O1 0.682339 0.807911 0.645631
O O2 0.632681 0.753225 0.548134
O O3 0.616336 0.638110 0.611155
O O4 0.250000 0.750000 0.500000
O O5 0.418350 0.918158 0.812702
O O6 0.000000 0.932893 0.750000
O O7 0.391945 0.982663 0.890685
O O8 0.120566 0.359180 0.077148
O O9 0.494264 0.461449 0.150613
O O10 0.000000 0.500000 0.000000
O O11 0.722858 0.696804 0.105405
O O12 0.250000 0.750000 0.000000
O O13 0.500000 0.941288 0.250000
O O14 0.836863 0.036934 0.378100
O O15 0.500000 0.855087 0.750000
#
# Coordination Sequence:
#
# PCOD8153803 Si02
#       6
#     8   8   8   8   8   8
#     4  12  23  46  69 102 135 182 232 286 356 422
#     4  12  25  43  72 101 137 184 227 285 354 413
#     4  12  24  47  72 105 144 182 236 294 349 428
#     4  12  27  44  70 100 139 179 231 291 349 414
#     4  11  24  45  70 100 144 183 232 292 354 421
#     4  11  26  46  66 100 139 179 232 287 345 419
#
# _framework density 20.994534999999999
#
# number of rings (size 3 to 8) (size 9 to 14) (size 15 to 20)
#    0.000    0.333    5.000    3.500    4.667    1.333 
#    0.000    0.000    0.000    0.000    0.000    0.000 
#    0.000    0.000    0.000    0.000    0.000    0.000 
#
# Total GULP energy -297468.236698 kJ/mol
# GULP energy per Si atom -12394.509862 kJ/mol
# Density = 2.094675 g / cm^3
# Si number density = 20.994535 Si / 1000 Ang^3
#
#
#
# Elastic Constant Matrix: (Units=GPa)
#
#
# Indices 1 2 3 4 5 6 
#
# 1 163.4032 15.1500 27.5548 0.0003 2.3034 0.0002
# 2 15.1500 137.9573 17.3973 0.0003 -0.6831 0.0002
# 3 27.5548 17.3973 74.7567 0.0009 0.1184 0.0004
# 4 0.0003 0.0003 0.0009 34.8361 0.0002 -4.4645
# 5 2.3034 -0.6831 0.1184 0.0002 45.1599 0.0002
# 6 0.0002 0.0002 0.0004 -4.4645 0.0002 33.9814
#
#
#
# Elastic Compliance Matrix: (Units=1/GPa)
#
#
# Indices 1 2 3 4 5 6 
#
# 1 0.006555 -0.000429 -0.002316 0.000000 -0.000335 0.000000
# 2 -0.000429 0.007497 -0.001587 0.000000 0.000139 0.000000
# 3 -0.002316 -0.001587 0.014599 0.000000 0.000056 0.000000
# 4 0.000000 0.000000 0.000000 0.029197 0.000000 0.003836
# 5 -0.000335 0.000139 0.000056 0.000000 0.022163 0.000000
# 6 0.000000 0.000000 0.000000 0.003836 0.000000 0.029932
#
#
# Mechanical properties :
#
#
# Convention : Reuss Voigt Hill
#
# Bulk Modulus (GPa) = 50.03104 55.14683 52.58894
# Shear Modulus (GPa) = 39.91431 43.86314 41.88872
#
# Velocity S-wave (km/s) = 4.36498 4.57581 4.47163
# Velocity P-wave (km/s) = 7.02042 7.36489 7.19472
#
# Compressibility (1/GPa) = 0.01998759
#
# Stress axis : x y z
#
# Youngs Moduli (GPa) = 152.55879 133.39482 68.49614
#
# Poissons Ratio (x) = 0.05729 0.15861
# Poissons Ratio (y) = 0.06552 0.10867
# Poissons Ratio (z) = 0.35326 0.21163
#
# Static dielectric constant tensor:
#      x y z
#    x 4.772780 0.000010 -0.240200 
#    y 0.000010 3.979020 -0.000010 
#    z -0.240200 -0.000010 3.702160 
# 
# 
# High freq. dielectric constant tensor:
#      x y z
#    x 1.841810 0.000000 0.002850 
#    y 0.000000 1.841010 0.000000 
#    z 0.002850 0.000000 1.822610 
# 
# From -- ./inp_files/289122.got.cif
#   From: 2010.06.25/outbox.cif.g09.slc.cpg/sg15_145_cif.got.tgz:289122.got - 2010.06.28 07:06:18.
