data_PCOD8153931
_publ_section_title
;
Structure prediction by ZEFSAII (Michael W. Deem and Ramdas Pophale) SiO2 
 PCOD8153931
Probable space group: C 2/C
;
_chemical_formula_sum "Si O2"
_cell_formula_units_Z 32
_cell_length_a 11.263361
_cell_length_b 18.126585
_cell_length_c 8.208087
_cell_angle_alpha 90.000000
_cell_angle_beta 49.796207
_cell_angle_gamma 90.000000
_cell_volume 1279.908859
_symmetry_space_group_name_H-M "C 2/C"
_symmetry_group_IT_number 15
_symmetry_cell_setting 'monoclinic'
loop_
_space_group_symop_operation_xyz
x,y,z
-x,y,1/2-z
-x,-y,-z
x,-y,1/2+z
1/2+x,1/2+y,z
1/2-x,1/2+y,1/2-z
1/2-x,1/2-y,-z
1/2+x,1/2-y,1/2+z
loop_
_atom_site_type_symbol
_atom_site_label
_atom_site_fract_x
_atom_site_fract_y
_atom_site_fract_z
Si Si1 0.793508 0.689156 0.093730
Si Si2 0.328540 0.599304 0.844642
Si Si3 0.828384 0.052006 0.472974
Si Si4 0.091255 0.729117 0.011128
O O1 0.776467 0.607935 0.037196
O O2 0.680305 0.701608 0.349650
O O3 0.973462 0.695650 0.983295
O O4 0.750000 0.750000 0.000000
O O5 0.500000 0.622116 0.750000
O O6 0.333614 0.574248 0.654162
O O7 0.261429 0.531105 0.011392
O O8 0.215762 0.669117 0.960961
O O9 0.000000 0.053244 0.250000
O O10 0.000000 0.758419 0.250000
#
# Coordination Sequence:
#
# PCOD8153931 Si02
#       4
#     8   8   8   8
#     4  12  26  51  74 108 148 199 246 307 377 443
#     4  11  26  48  77 112 148 197 249 306 373 446
#     4  11  24  46  80 107 150 198 247 303 377 445
#     4  12  29  48  75 111 148 197 248 310 372 441
#
# _framework density 25.001781000000001
#
# number of rings (size 3 to 8) (size 9 to 14) (size 15 to 20)
#    0.000    0.500    2.500    6.000    7.000    2.000 
#    0.000    0.000    0.000    0.000    0.000    0.000 
#    0.000    0.000    0.000    0.000    0.000    0.000 
#
# Total GULP energy -198463.416204 kJ/mol
# GULP energy per Si atom -12403.963513 kJ/mol
# Density = 2.494488 g / cm^3
# Si number density = 25.001781 Si / 1000 Ang^3
#
#
#
# Elastic Constant Matrix: (Units=GPa)
#
#
# Indices 1 2 3 4 5 6 
#
# 1 192.1290 53.9172 32.5520 0.0000 -2.8574 0.0000
# 2 53.9172 144.8434 24.4279 0.0000 0.8191 0.0000
# 3 32.5520 24.4279 112.4549 0.0000 16.9293 0.0000
# 4 0.0000 0.0000 0.0000 23.5947 0.0000 0.2025
# 5 -2.8574 0.8191 16.9293 0.0000 42.1349 0.0000
# 6 0.0000 0.0000 0.0000 0.2025 0.0000 45.7441
#
#
#
# Elastic Compliance Matrix: (Units=1/GPa)
#
#
# Indices 1 2 3 4 5 6 
#
# 1 0.006031 -0.002004 -0.001467 0.000000 0.001037 0.000000
# 2 -0.002004 0.007843 -0.001150 0.000000 0.000174 0.000000
# 3 -0.001467 -0.001150 0.010195 0.000000 -0.004173 0.000000
# 4 0.000000 0.000000 0.000000 0.042384 0.000000 -0.000188
# 5 0.001037 0.000174 -0.004173 0.000000 0.025477 0.000000
# 6 0.000000 0.000000 0.000000 -0.000188 0.000000 0.021862
#
#
# Mechanical properties :
#
#
# Convention : Reuss Voigt Hill
#
# Bulk Modulus (GPa) = 67.43678 74.58016 71.00847
# Shear Modulus (GPa) = 39.07027 44.86341 41.96684
#
# Velocity S-wave (km/s) = 3.95739 4.24064 4.10146
# Velocity P-wave (km/s) = 6.92189 7.33976 7.13389
#
# Compressibility (1/GPa) = 0.01482870
#
# Stress axis : x y z
#
# Youngs Moduli (GPa) = 165.80961 127.50640 98.08669
#
# Poissons Ratio (x) = 0.25546 0.14387
# Poissons Ratio (y) = 0.33220 0.11278
# Poissons Ratio (z) = 0.24320 0.14661
#
# Static dielectric constant tensor:
#      x y z
#    x 4.939110 0.000000 0.100790 
#    y 0.000000 5.150160 0.000000 
#    z 0.100790 0.000000 4.794960 
# 
# 
# High freq. dielectric constant tensor:
#      x y z
#    x 2.023860 0.000000 0.022690 
#    y 0.000000 2.011220 0.000000 
#    z 0.022690 0.000000 1.997040 
# 
# From -- ./inp_files/30048.got.cif
#   From: 2010.06.25/outbox.cif.g09.slc.cpg/sg15_16_cif.got.tgz:30048.got - 2010.06.28 07:06:18.
