data_PCOD8153084
_publ_section_title
;
Structure prediction by ZEFSAII (Michael W. Deem and Ramdas Pophale) SiO2 
 PCOD8153084
Probable space group: C 2/C
;
_chemical_formula_sum "Si O2"
_cell_formula_units_Z 60
_cell_length_a 28.764840
_cell_length_b 11.374389
_cell_length_c 9.167034
_cell_angle_alpha 90.000000
_cell_angle_beta 117.906115
_cell_angle_gamma 90.000000
_cell_volume 2650.522191
_symmetry_space_group_name_H-M "C 2/C"
_symmetry_group_IT_number 15
_symmetry_cell_setting 'monoclinic'
loop_
_space_group_symop_operation_xyz
x,y,z
-x,y,1/2-z
-x,-y,-z
x,-y,1/2+z
1/2+x,1/2+y,z
1/2-x,1/2+y,1/2-z
1/2-x,1/2-y,-z
1/2+x,1/2-y,1/2+z
loop_
_atom_site_type_symbol
_atom_site_label
_atom_site_fract_x
_atom_site_fract_y
_atom_site_fract_z
Si Si1 0.675694 0.097822 0.998962
Si Si2 0.000000 0.418599 0.750000
Si Si3 0.171096 0.206253 0.981734
Si Si4 0.618454 0.244044 0.706860
Si Si5 0.089614 0.500381 0.538578
Si Si6 0.725167 0.910337 0.887374
Si Si7 0.924575 0.273336 0.821953
Si Si8 0.489356 0.619733 0.400973
O O1 0.653782 0.224404 0.905715
O O2 0.710991 0.041731 0.920410
O O3 0.707325 0.117399 0.195549
O O4 0.628471 0.002233 0.956532
O O5 0.047074 0.333818 0.772942
O O6 0.972720 0.503805 0.592160
O O7 0.201025 0.323059 0.972848
O O8 0.118930 0.183918 0.805950
O O9 0.154167 0.212539 0.125935
O O10 0.211178 0.098228 0.019464
O O11 0.597452 0.112255 0.651150
O O12 0.569810 0.332634 0.660817
O O13 0.105128 0.377591 0.637488
O O14 0.967523 0.213195 0.985623
O O15 0.500000 0.591749 0.250000
O O16 0.500000 0.500000 0.500000
#
# Coordination Sequence:
#
# PCOD8153084 Si02
#       8
#     8   4   8   8   8   8   8   8
#     4  12  22  43  69 110 145 185 234 314 368 425
#     4  12  22  34  68 108 152 182 214 290 372 438
#     4  11  23  44  69  99 138 204 234 290 362 431
#     4  12  24  46  75 108 150 186 236 298 371 433
#     4  12  22  36  69 111 146 180 224 292 369 431
#     4  11  23  42  71 101 149 184 240 300 372 436
#     4  12  23  43  68 104 146 186 237 296 359 436
#     4  12  31  51  73 101 144 200 246 294 351 440
#
# _framework density 22.637048
#
# number of rings (size 3 to 8) (size 9 to 14) (size 15 to 20)
#    0.000    0.267    6.667    2.000    5.600    0.533 
#    2.400    0.000    0.000    0.000    0.000    0.000 
#    0.000    0.000    0.000    0.000    0.000    0.000 
#
# Total GULP energy -371849.313602 kJ/mol
# GULP energy per Si atom -12394.977120 kJ/mol
# Density = 2.258553 g / cm^3
# Si number density = 22.637048 Si / 1000 Ang^3
#
#
#
# Elastic Constant Matrix: (Units=GPa)
#
#
# Indices 1 2 3 4 5 6 
#
# 1 154.0217 47.1071 71.5665 0.0000 5.6232 0.0000
# 2 47.1071 85.8784 32.1991 0.0000 -3.4079 0.0000
# 3 71.5665 32.1991 125.6139 0.0000 -5.5161 0.0000
# 4 0.0000 0.0000 0.0000 25.0794 0.0000 8.2533
# 5 5.6232 -3.4079 -5.5161 0.0000 39.6748 0.0000
# 6 0.0000 0.0000 0.0000 8.2533 0.0000 37.9798
#
#
#
# Elastic Compliance Matrix: (Units=1/GPa)
#
#
# Indices 1 2 3 4 5 6 
#
# 1 0.009970 -0.003756 -0.004823 0.000000 -0.002406 0.000000
# 2 -0.003756 0.014314 -0.001461 0.000000 0.001559 0.000000
# 3 -0.004823 -0.001461 0.011176 0.000000 0.002112 0.000000
# 4 0.000000 0.000000 0.000000 0.042944 0.000000 -0.009332
# 5 -0.002406 0.001559 0.002112 0.000000 0.025974 0.000000
# 6 0.000000 0.000000 0.000000 -0.009332 0.000000 0.028358
#
#
# Mechanical properties :
#
#
# Convention : Reuss Voigt Hill
#
# Bulk Modulus (GPa) = 65.01819 74.13993 69.57906
# Shear Modulus (GPa) = 31.65682 34.85622 33.25652
#
# Velocity S-wave (km/s) = 3.74364 3.92827 3.83707
# Velocity P-wave (km/s) = 6.88991 7.30738 7.10171
#
# Compressibility (1/GPa) = 0.01538031
#
# Stress axis : x y z
#
# Youngs Moduli (GPa) = 100.29673 69.86019 89.47659
#
# Poissons Ratio (x) = 0.26240 0.43157
# Poissons Ratio (y) = 0.37673 0.13071
# Poissons Ratio (z) = 0.48376 0.10205
#
# Static dielectric constant tensor:
#      x y z
#    x 4.524320 0.000000 0.209290 
#    y 0.000000 3.746310 0.000000 
#    z 0.209290 0.000000 4.379340 
# 
# 
# High freq. dielectric constant tensor:
#      x y z
#    x 1.908540 0.000000 -0.000360 
#    y 0.000000 1.851360 0.000000 
#    z -0.000360 0.000000 1.909500 
# 
# From -- ./inp_files/69426.got.cif
#   From: 2010.06.25/outbox.cif.g09.slc.cpg/sg15_35_cif.got.tgz:69426.got - 2010.06.28 07:06:18.
