data_PCOD8153640
_publ_section_title
;
Structure prediction by ZEFSAII (Michael W. Deem and Ramdas Pophale) SiO2 
 PCOD8153640
Probable space group: C 2/C
;
_chemical_formula_sum "Si O2"
_cell_formula_units_Z 64
_cell_length_a 22.157554
_cell_length_b 16.101503
_cell_length_c 17.952143
_cell_angle_alpha 90.000000
_cell_angle_beta 156.029969
_cell_angle_gamma 90.000000
_cell_volume 2601.999813
_symmetry_space_group_name_H-M "C 2/C"
_symmetry_group_IT_number 15
_symmetry_cell_setting 'monoclinic'
loop_
_space_group_symop_operation_xyz
x,y,z
-x,y,1/2-z
-x,-y,-z
x,-y,1/2+z
1/2+x,1/2+y,z
1/2-x,1/2+y,1/2-z
1/2-x,1/2-y,-z
1/2+x,1/2-y,1/2+z
loop_
_atom_site_type_symbol
_atom_site_label
_atom_site_fract_x
_atom_site_fract_y
_atom_site_fract_z
Si Si1 0.337763 0.640438 0.079451
Si Si2 0.671388 0.660957 0.916911
Si Si3 0.781393 0.832179 0.193251
Si Si4 0.939342 0.593022 0.518760
Si Si5 0.536229 0.789933 0.010945
Si Si6 0.831777 0.010235 0.835227
Si Si7 0.252222 0.719896 0.127811
Si Si8 0.722932 0.989509 0.876471
O O1 0.500000 0.674638 0.250000
O O2 0.301821 0.650178 0.125329
O O3 0.244103 0.693192 0.913261
O O4 0.320508 0.543530 0.043364
O O5 0.500000 0.665363 0.750000
O O6 0.684420 0.624697 0.847365
O O7 0.750000 0.750000 0.000000
O O8 0.770909 0.604007 0.084310
O O9 0.612841 0.799985 0.015805
O O10 0.798950 0.894005 0.282470
O O11 0.882697 0.753168 0.321115
O O12 0.002335 0.618656 0.508228
O O13 0.220382 0.451478 0.663545
O O14 0.056726 0.529158 0.688260
O O15 0.908193 0.682299 0.525234
O O16 0.638906 0.731745 0.179476
O O17 0.808327 0.990961 0.894979
O O18 0.000000 0.000000 0.000000
#
# Coordination Sequence:
#
# PCOD8153640 Si02
#       8
#     8   8   8   8   8   8   8   8
#     4  11  25  41  71 106 165 206 251 304 404 486
#     4  12  30  56  82 116 162 216 283 343 419 490
#     4  12  27  47  80 115 151 213 262 339 410 477
#     4  12  26  45  78 116 156 208 270 332 398 482
#     4  12  24  47  78 114 159 199 272 333 399 484
#     4  12  28  48  78 113 155 207 269 338 405 473
#     4  11  24  43  70 116 156 210 250 317 396 480
#     4  12  28  52  76 114 163 208 266 337 406 490
#
# _framework density 24.596465999999999
#
# number of rings (size 3 to 8) (size 9 to 14) (size 15 to 20)
#    0.000    0.250    3.750    3.750    8.750    1.000 
#    0.000    0.000    0.000    0.000    0.000    0.000 
#    0.000    0.000    0.000    0.000    0.000    0.000 
#
# Total GULP energy -396682.416735 kJ/mol
# GULP energy per Si atom -12396.325523 kJ/mol
# Density = 2.454048 g / cm^3
# Si number density = 24.596466 Si / 1000 Ang^3
#
#
#
# Elastic Constant Matrix: (Units=GPa)
#
#
# Indices 1 2 3 4 5 6 
#
# 1 154.1192 37.1382 42.9455 -0.0027 15.0701 -0.0018
# 2 37.1382 123.2083 38.0514 -0.0033 6.5388 -0.0016
# 3 42.9455 38.0514 96.0208 -0.0024 26.1153 -0.0002
# 4 -0.0027 -0.0033 -0.0024 44.9887 -0.0007 -0.7763
# 5 15.0701 6.5388 26.1153 -0.0007 42.3616 0.0019
# 6 -0.0018 -0.0016 -0.0002 -0.7763 0.0019 42.1308
#
#
#
# Elastic Compliance Matrix: (Units=1/GPa)
#
#
# Indices 1 2 3 4 5 6 
#
# 1 0.007652 -0.001455 -0.002603 0.000000 -0.000893 0.000000
# 2 -0.001455 0.009560 -0.003457 0.000000 0.001173 0.000000
# 3 -0.002603 -0.003457 0.015080 0.000000 -0.007837 0.000000
# 4 0.000000 0.000000 0.000000 0.022235 0.000000 0.000410
# 5 -0.000893 0.001173 -0.007837 0.000000 0.028574 -0.000001
# 6 0.000000 0.000000 0.000000 0.000410 -0.000001 0.023743
#
#
# Mechanical properties :
#
#
# Convention : Reuss Voigt Hill
#
# Bulk Modulus (GPa) = 57.92930 67.73538 62.83234
# Shear Modulus (GPa) = 39.17644 42.91043 41.04344
#
# Velocity S-wave (km/s) = 3.99528 4.18134 4.08937
# Velocity P-wave (km/s) = 6.69970 7.13512 6.92084
#
# Compressibility (1/GPa) = 0.01726242
#
# Stress axis : x y z
#
# Youngs Moduli (GPa) = 130.68972 104.59914 66.31376
#
# Poissons Ratio (x) = 0.15221 0.17260
# Poissons Ratio (y) = 0.19018 0.22923
# Poissons Ratio (z) = 0.34015 0.36158
#
# Static dielectric constant tensor:
#      x y z
#    x 5.264190 -0.000040 0.174730 
#    y -0.000040 4.565440 -0.000020 
#    z 0.174730 -0.000020 4.394280 
# 
# 
# High freq. dielectric constant tensor:
#      x y z
#    x 1.994720 0.000000 0.013040 
#    y 0.000000 1.982750 0.000000 
#    z 0.013040 0.000000 1.974280 
# 
# From -- ./inp_files/216174.got.cif
#   From: 2010.06.25/outbox.cif.g09.slc.cpg/sg15_109_cif.got.tgz:216174.got - 2010.06.28 07:06:18.
