data_PCOD8153019
_publ_section_title
;
Structure prediction by ZEFSAII (Michael W. Deem and Ramdas Pophale) SiO2 
 PCOD8153019
Probable space group: C 2/C
;
_chemical_formula_sum "Si O2"
_cell_formula_units_Z 64
_cell_length_a 26.397553
_cell_length_b 12.161220
_cell_length_c 18.410687
_cell_angle_alpha 90.000000
_cell_angle_beta 147.927709
_cell_angle_gamma 90.000000
_cell_volume 3138.312611
_symmetry_space_group_name_H-M "C 2/C"
_symmetry_group_IT_number 15
_symmetry_cell_setting 'monoclinic'
loop_
_space_group_symop_operation_xyz
x,y,z
-x,y,1/2-z
-x,-y,-z
x,-y,1/2+z
1/2+x,1/2+y,z
1/2-x,1/2+y,1/2-z
1/2-x,1/2-y,-z
1/2+x,1/2-y,1/2+z
loop_
_atom_site_type_symbol
_atom_site_label
_atom_site_fract_x
_atom_site_fract_y
_atom_site_fract_z
Si Si1 0.199226 0.479926 0.098433
Si Si2 0.294501 0.055007 0.171608
Si Si3 0.022251 0.818073 0.549459
Si Si4 0.890394 0.880387 0.134602
Si Si5 0.106165 0.623050 0.351947
Si Si6 0.594696 0.535177 0.692418
Si Si7 0.650481 0.813040 0.618818
Si Si8 0.312427 0.157816 0.782662
O O1 0.313665 0.477549 0.248724
O O2 0.159605 0.602128 0.063483
O O3 0.150322 0.400868 0.098706
O O4 0.176373 0.442189 0.989880
O O5 0.371528 0.082313 0.202432
O O6 0.312027 0.135374 0.260493
O O7 0.310915 0.928537 0.214533
O O8 0.184192 0.070406 0.013932
O O9 0.122418 0.763100 0.652594
O O10 0.972424 0.864935 0.415938
O O11 0.959328 0.722506 0.508921
O O12 0.037217 0.920213 0.622368
O O13 0.870981 0.751297 0.115939
O O14 0.867197 0.938427 0.181878
O O15 0.000000 0.907369 0.250000
O O16 0.000000 0.596116 0.250000
O O17 0.706777 0.702613 0.667838
#
# Coordination Sequence:
#
# PCOD8153019 Si02
#       8
#     8   8   8   8   8   8   8   8
#     4  11  23  42  66  96 133 171 220 272 330 383
#     4  11  25  43  67  97 134 168 218 268 330 390
#     4  11  25  41  68  93 134 169 224 260 331 383
#     4  11  25  40  67  95 129 167 217 272 329 383
#     4  11  25  42  65  96 134 170 215 273 333 389
#     4  11  23  42  67  98 126 172 223 275 315 393
#     4  11  24  42  67  97 133 174 215 274 326 386
#     4  11  25  41  67  98 132 172 217 271 322 392
#
# _framework density 20.393124
#
# number of rings (size 3 to 8) (size 9 to 14) (size 15 to 20)
#    0.000    1.000    3.750    1.875   10.500    1.000 
#    0.000    2.500    0.000    0.000    0.000    0.000 
#    0.000    0.000    0.000    0.000    0.000    0.000 
#
# Total GULP energy -396904.144379 kJ/mol
# GULP energy per Si atom -12403.254512 kJ/mol
# Density = 2.034671 g / cm^3
# Si number density = 20.393124 Si / 1000 Ang^3
#
#
#
# Elastic Constant Matrix: (Units=GPa)
#
#
# Indices 1 2 3 4 5 6 
#
# 1 93.8613 41.6172 32.9188 0.0000 -0.4724 0.0000
# 2 41.6172 112.0856 34.5993 0.0000 -8.3656 0.0000
# 3 32.9188 34.5993 88.6425 0.0000 1.6464 0.0000
# 4 0.0000 0.0000 0.0000 32.2463 0.0000 2.8864
# 5 -0.4724 -8.3656 1.6464 0.0000 32.5623 0.0000
# 6 0.0000 0.0000 0.0000 2.8864 0.0000 32.6487
#
#
#
# Elastic Compliance Matrix: (Units=1/GPa)
#
#
# Indices 1 2 3 4 5 6 
#
# 1 0.013668 -0.004049 -0.003483 0.000000 -0.000666 0.000000
# 2 -0.004049 0.011607 -0.003084 0.000000 0.003079 0.000000
# 3 -0.003483 -0.003084 0.013807 0.000000 -0.001541 0.000000
# 4 0.000000 0.000000 0.000000 0.031259 0.000000 -0.002764
# 5 -0.000666 0.003079 -0.001541 0.000000 0.031570 0.000000
# 6 0.000000 0.000000 0.000000 -0.002764 0.000000 0.030873
#
#
# Mechanical properties :
#
#
# Convention : Reuss Voigt Hill
#
# Bulk Modulus (GPa) = 56.02371 56.98444 56.50408
# Shear Modulus (GPa) = 31.25679 31.85508 31.55593
#
# Velocity S-wave (km/s) = 3.91923 3.95657 3.93794
# Velocity P-wave (km/s) = 6.92907 6.99115 6.96018
#
# Compressibility (1/GPa) = 0.01784959
#
# Stress axis : x y z
#
# Youngs Moduli (GPa) = 73.16585 86.15447 72.42716
#
# Poissons Ratio (x) = 0.34887 0.25224
# Poissons Ratio (y) = 0.29628 0.22336
# Poissons Ratio (z) = 0.25482 0.26569
#
# Static dielectric constant tensor:
#      x y z
#    x 3.659910 0.000000 0.146910 
#    y 0.000000 3.722970 0.000000 
#    z 0.146910 0.000000 3.628840 
# 
# 
# High freq. dielectric constant tensor:
#      x y z
#    x 1.797170 0.000000 0.015670 
#    y 0.000000 1.802890 0.000000 
#    z 0.015670 0.000000 1.796550 
# 
# From -- ./inp_files/257525.got.cif
#   From: 2010.06.25/outbox.cif.g09.slc.cpg/sg15_129_cif.got.tgz:257525.got - 2010.06.28 07:06:18.
