data_PCOD8153165
_publ_section_title
;
Structure prediction by ZEFSAII (Michael W. Deem and Ramdas Pophale) SiO2 
 PCOD8153165
Probable space group: C 2/C
;
_chemical_formula_sum "Si O2"
_cell_formula_units_Z 44
_cell_length_a 29.571482
_cell_length_b 12.985768
_cell_length_c 13.188566
_cell_angle_alpha 90.000000
_cell_angle_beta 153.291819
_cell_angle_gamma 90.000000
_cell_volume 2276.231149
_symmetry_space_group_name_H-M "C 2/C"
_symmetry_group_IT_number 15
_symmetry_cell_setting 'monoclinic'
loop_
_space_group_symop_operation_xyz
x,y,z
-x,y,1/2-z
-x,-y,-z
x,-y,1/2+z
1/2+x,1/2+y,z
1/2-x,1/2+y,1/2-z
1/2-x,1/2-y,-z
1/2+x,1/2-y,1/2+z
loop_
_atom_site_type_symbol
_atom_site_label
_atom_site_fract_x
_atom_site_fract_y
_atom_site_fract_z
Si Si1 0.171989 0.784996 0.425445
Si Si2 0.382973 0.123892 0.013290
Si Si3 0.000000 0.943281 0.750000
Si Si4 0.285184 0.445754 0.824602
Si Si5 0.507564 0.383719 0.545181
Si Si6 0.818103 0.212084 0.224891
O O1 0.250000 0.750000 0.500000
O O2 0.141541 0.692201 0.438043
O O3 0.215056 0.884481 0.570126
O O4 0.078464 0.813374 0.170278
O O5 0.368826 0.192826 0.885123
O O6 0.303471 0.029992 0.851089
O O7 0.500000 0.085593 0.250000
O O8 0.012227 0.870478 0.676444
O O9 0.898592 0.011254 0.534817
O O10 0.260269 0.364428 0.685891
O O11 0.500000 0.500000 0.500000
O O12 0.606496 0.353261 0.687964
O O13 0.750000 0.250000 0.000000
#
# Coordination Sequence:
#
# PCOD8153165 Si02
#       6
#     8   8   4   8   8   8
#     4  11  24  42  66  99 129 174 224 276 330 395
#     4  11  24  45  67  93 139 186 217 268 344 406
#     4  12  22  36  72 100 118 168 224 284 332 374
#     4  11  23  43  69  97 134 171 230 274 332 404
#     4  12  22  40  68  93 128 165 218 280 331 378
#     4  11  24  42  66  99 129 174 224 276 330 395
#
# _framework density 19.330199
#
# number of rings (size 3 to 8) (size 9 to 14) (size 15 to 20)
#    0.000    0.727    5.455    2.182    2.545    1.455 
#    3.273    1.818    4.000    0.000    0.000    0.000 
#    0.000    0.000    0.000    0.000    0.000    0.000 
#
# Total GULP energy -272666.604042 kJ/mol
# GULP energy per Si atom -12393.936547 kJ/mol
# Density = 1.928620 g / cm^3
# Si number density = 19.330199 Si / 1000 Ang^3
#
#
#
# Elastic Constant Matrix: (Units=GPa)
#
#
# Indices 1 2 3 4 5 6 
#
# 1 110.8078 30.9289 38.7225 0.0000 -10.7602 0.0000
# 2 30.9289 86.7860 43.2821 0.0000 6.4528 0.0000
# 3 38.7225 43.2821 101.8491 0.0000 1.8511 0.0000
# 4 0.0000 0.0000 0.0000 31.4060 0.0000 -3.0214
# 5 -10.7602 6.4528 1.8511 0.0000 48.1112 0.0000
# 6 0.0000 0.0000 0.0000 -3.0214 0.0000 39.2887
#
#
#
# Elastic Compliance Matrix: (Units=1/GPa)
#
#
# Indices 1 2 3 4 5 6 
#
# 1 0.011154 -0.002606 -0.003187 0.000000 0.002967 0.000000
# 2 -0.002606 0.015375 -0.005499 0.000000 -0.002433 0.000000
# 3 -0.003187 -0.005499 0.013376 0.000000 -0.000490 0.000000
# 4 0.000000 0.000000 0.000000 0.032078 0.000000 0.002467
# 5 0.002967 -0.002433 -0.000490 0.000000 0.021794 0.000000
# 6 0.000000 0.000000 0.000000 0.002467 0.000000 0.025642
#
#
# Mechanical properties :
#
#
# Convention : Reuss Voigt Hill
#
# Bulk Modulus (GPa) = 57.73452 58.36778 58.05115
# Shear Modulus (GPa) = 33.83501 36.19514 35.01508
#
# Velocity S-wave (km/s) = 4.18828 4.33189 4.26069
# Velocity P-wave (km/s) = 7.30214 7.43513 7.36893
#
# Compressibility (1/GPa) = 0.01732066
#
# Stress axis : x y z
#
# Youngs Moduli (GPa) = 89.65468 65.04245 74.76226
#
# Poissons Ratio (x) = 0.16951 0.23827
# Poissons Ratio (y) = 0.23366 0.41108
# Poissons Ratio (z) = 0.28573 0.35764
#
# Static dielectric constant tensor:
#      x y z
#    x 3.914980 0.000000 -0.204710 
#    y 0.000000 3.525230 0.000000 
#    z -0.204710 0.000000 3.615980 
# 
# 
# High freq. dielectric constant tensor:
#      x y z
#    x 1.774230 0.000000 -0.008530 
#    y 0.000000 1.747940 0.000000 
#    z -0.008530 0.000000 1.761830 
# 
# From -- ./inp_files/123379.got.cif
#   From: 2010.06.25/outbox.cif.g09.slc.cpg/sg15_62_cif.got.tgz:123379.got - 2010.06.28 07:06:18.
