data_PCOD8153233
_publ_section_title
;
Structure prediction by ZEFSAII (Michael W. Deem and Ramdas Pophale) SiO2 
 PCOD8153233
Probable space group: C 2/C
;
_chemical_formula_sum "Si O2"
_cell_formula_units_Z 60
_cell_length_a 17.637279
_cell_length_b 18.529258
_cell_length_c 12.505559
_cell_angle_alpha 90.000000
_cell_angle_beta 42.934899
_cell_angle_gamma 90.000000
_cell_volume 2783.852893
_symmetry_space_group_name_H-M "C 2/C"
_symmetry_group_IT_number 15
_symmetry_cell_setting 'monoclinic'
loop_
_space_group_symop_operation_xyz
x,y,z
-x,y,1/2-z
-x,-y,-z
x,-y,1/2+z
1/2+x,1/2+y,z
1/2-x,1/2+y,1/2-z
1/2-x,1/2-y,-z
1/2+x,1/2-y,1/2+z
loop_
_atom_site_type_symbol
_atom_site_label
_atom_site_fract_x
_atom_site_fract_y
_atom_site_fract_z
Si Si1 0.214667 0.539244 0.204702
Si Si2 0.500000 0.364159 0.750000
Si Si3 0.596869 0.464649 0.832530
Si Si4 0.879228 0.237799 0.819626
Si Si5 0.668696 0.876669 0.314161
Si Si6 0.079062 0.661824 0.423182
Si Si7 0.816422 0.232163 0.536011
Si Si8 0.782025 0.091759 0.905192
O O1 0.320465 0.567309 0.163501
O O2 0.194429 0.452937 0.227684
O O3 0.109196 0.579488 0.364092
O O4 0.227066 0.570663 0.073511
O O5 0.559279 0.408855 0.781977
O O6 0.579015 0.314817 0.600810
O O7 0.661242 0.522342 0.698525
O O8 0.500000 0.500000 0.000000
O O9 0.887231 0.281604 0.702684
O O10 0.879671 0.151579 0.807007
O O11 0.000000 0.257733 0.750000
O O12 0.750000 0.250000 0.000000
O O13 0.549375 0.843057 0.413726
O O14 0.750727 0.815117 0.189489
O O15 0.682673 0.884206 0.427793
O O16 0.145387 0.690613 0.457491
O O17 0.750000 0.250000 0.500000
#
# Coordination Sequence:
#
# PCOD8153233 Si02
#       8
#     8   4   8   8   8   8   8   8
#     4  11  25  43  70 101 143 184 243 295 368 441
#     4  12  24  44  70 100 138 186 232 302 366 436
#     4  11  24  40  67 101 136 177 232 293 364 437
#     4  12  26  43  72 108 146 192 242 302 371 444
#     4  11  25  48  70 104 143 190 243 298 367 444
#     4  12  26  44  72 102 140 188 244 296 361 437
#     4  12  26  47  71 100 142 186 241 299 364 436
#     4  11  23  44  67 103 139 187 230 304 366 436
#
# _framework density 21.552864
#
# number of rings (size 3 to 8) (size 9 to 14) (size 15 to 20)
#    0.000    0.533    2.667    6.000    2.800    1.067 
#    0.000    1.333    0.000    0.000    0.000    0.000 
#    0.000    0.000    0.000    0.000    0.000    0.000 
#
# Total GULP energy -371695.882510 kJ/mol
# GULP energy per Si atom -12389.862750 kJ/mol
# Density = 2.150381 g / cm^3
# Si number density = 21.552864 Si / 1000 Ang^3
#
#
#
# Elastic Constant Matrix: (Units=GPa)
#
#
# Indices 1 2 3 4 5 6 
#
# 1 128.2916 50.3162 46.9563 0.0000 3.4494 0.0000
# 2 50.3162 85.1122 27.6129 0.0000 3.8502 0.0000
# 3 46.9563 27.6129 103.0007 0.0000 -11.5378 0.0000
# 4 0.0000 0.0000 0.0000 8.4691 0.0000 -0.4767
# 5 3.4494 3.8502 -11.5378 0.0000 37.9198 0.0000
# 6 0.0000 0.0000 0.0000 -0.4767 0.0000 41.1114
#
#
#
# Elastic Compliance Matrix: (Units=1/GPa)
#
#
# Indices 1 2 3 4 5 6 
#
# 1 0.011393 -0.005380 -0.003941 0.000000 -0.001689 0.000000
# 2 -0.005380 0.015631 -0.001926 0.000000 -0.001684 0.000000
# 3 -0.003941 -0.001926 0.012510 0.000000 0.004360 0.000000
# 4 0.000000 0.000000 0.000000 0.118153 0.000000 0.001370
# 5 -0.001689 -0.001684 0.004360 0.000000 0.028023 0.000000
# 6 0.000000 0.000000 0.000000 0.001370 0.000000 0.024340
#
#
# Mechanical properties :
#
#
# Convention : Reuss Voigt Hill
#
# Bulk Modulus (GPa) = 58.68737 62.90835 60.79786
# Shear Modulus (GPa) = 20.98871 30.26800 25.62836
#
# Velocity S-wave (km/s) = 3.12400 3.75155 3.45206
# Velocity P-wave (km/s) = 6.34832 6.92941 6.64522
#
# Compressibility (1/GPa) = 0.01703944
#
# Stress axis : x y z
#
# Youngs Moduli (GPa) = 87.77668 63.97575 79.93638
#
# Poissons Ratio (x) = 0.34420 0.31499
# Poissons Ratio (y) = 0.47225 0.15398
# Poissons Ratio (z) = 0.34589 0.12324
#
# Static dielectric constant tensor:
#      x y z
#    x 4.431810 0.000000 0.009940 
#    y 0.000000 4.196370 0.000000 
#    z 0.009940 0.000000 4.106690 
# 
# 
# High freq. dielectric constant tensor:
#      x y z
#    x 1.860040 0.000000 0.000270 
#    y 0.000000 1.860820 0.000000 
#    z 0.000270 0.000000 1.856290 
# 
# From -- ./inp_files/107633.got.cif
#   From: 2010.06.25/outbox.cif.g09.slc.cpg/sg15_54_cif.got.tgz:107633.got - 2010.06.28 07:06:18.
