data_PCOD8153565
_publ_section_title
;
Structure prediction by ZEFSAII (Michael W. Deem and Ramdas Pophale) SiO2 
 PCOD8153565
Probable space group: C 2/C
;
_chemical_formula_sum "Si O2"
_cell_formula_units_Z 52
_cell_length_a 19.488499
_cell_length_b 14.645723
_cell_length_c 17.816126
_cell_angle_alpha 90.000000
_cell_angle_beta 27.682283
_cell_angle_gamma 90.000000
_cell_volume 2362.392203
_symmetry_space_group_name_H-M "C 2/C"
_symmetry_group_IT_number 15
_symmetry_cell_setting 'monoclinic'
loop_
_space_group_symop_operation_xyz
x,y,z
-x,y,1/2-z
-x,-y,-z
x,-y,1/2+z
1/2+x,1/2+y,z
1/2-x,1/2+y,1/2-z
1/2-x,1/2-y,-z
1/2+x,1/2-y,1/2+z
loop_
_atom_site_type_symbol
_atom_site_label
_atom_site_fract_x
_atom_site_fract_y
_atom_site_fract_z
Si Si1 0.518916 0.229672 0.858441
Si Si2 0.733689 0.994200 0.472005
Si Si3 0.577070 0.965204 0.268659
Si Si4 0.500000 0.374356 0.750000
Si Si5 0.608859 0.582430 0.811829
Si Si6 0.709549 0.556408 0.332417
Si Si7 0.283000 0.240977 0.202053
O O1 0.495044 0.316041 0.829626
O O2 0.613901 0.246422 0.841778
O O3 0.584189 0.144458 0.747436
O O4 0.359090 0.215307 0.049589
O O5 0.849995 0.069497 0.385940
O O6 0.597909 0.019303 0.547894
O O7 0.646291 0.972756 0.634382
O O8 0.822771 0.915501 0.339486
O O9 0.671208 0.986032 0.250765
O O10 0.660252 0.487858 0.801283
O O11 0.653856 0.671567 0.815001
O O12 0.431746 0.573448 0.976600
O O13 0.792820 0.652753 0.245444
#
# Coordination Sequence:
#
# PCOD8153565 Si02
#       7
#     8   8   8   4   8   8   8
#     4  12  24  40  65 103 142 176 232 289 352 424
#     4  11  25  41  66  97 137 185 226 279 350 418
#     4  11  24  42  65 101 135 179 230 293 348 409
#     4  12  24  42  66 100 144 188 222 278 368 424
#     4  11  24  44  67  98 139 187 237 286 351 428
#     4  11  24  42  68  96 136 185 235 293 351 411
#     4  12  25  42  67 104 137 186 235 293 350 412
#
# _framework density 22.011585
#
# number of rings (size 3 to 8) (size 9 to 14) (size 15 to 20)
#    0.000    0.615    3.077    5.538    4.308    3.077 
#    0.000    0.769    0.000    1.846    0.000    0.000 
#    0.000    0.000    0.000    0.000    0.000    0.000 
#
# Total GULP energy -322100.894392 kJ/mol
# GULP energy per Si atom -12388.495938 kJ/mol
# Density = 2.196149 g / cm^3
# Si number density = 22.011585 Si / 1000 Ang^3
#
#
#
# Elastic Constant Matrix: (Units=GPa)
#
#
# Indices 1 2 3 4 5 6 
#
# 1 84.0294 31.7473 24.9421 -0.0055 -22.6624 0.0023
# 2 31.7473 96.4866 36.7490 -0.0074 -4.1344 0.0034
# 3 24.9421 36.7490 107.8928 -0.0043 -2.9588 0.0023
# 4 -0.0055 -0.0074 -0.0043 26.2785 0.0046 9.0493
# 5 -22.6624 -4.1344 -2.9588 0.0046 42.6924 -0.0023
# 6 0.0023 0.0034 0.0023 9.0493 -0.0023 31.9568
#
#
#
# Elastic Compliance Matrix: (Units=1/GPa)
#
#
# Indices 1 2 3 4 5 6 
#
# 1 0.016304 -0.004213 -0.002112 0.000001 0.008100 0.000000
# 2 -0.004213 0.013030 -0.003498 0.000003 -0.001217 -0.000002
# 3 -0.002112 -0.003498 0.010929 0.000001 -0.000702 0.000000
# 4 0.000001 0.000003 0.000001 0.042166 -0.000005 -0.011940
# 5 0.008100 -0.001217 -0.000702 -0.000005 0.027557 0.000003
# 6 0.000000 -0.000002 0.000000 -0.011940 0.000003 0.034673
#
#
# Mechanical properties :
#
#
# Convention : Reuss Voigt Hill
#
# Bulk Modulus (GPa) = 48.50201 52.80953 50.65577
# Shear Modulus (GPa) = 29.20965 33.18357 31.19661
#
# Velocity S-wave (km/s) = 3.64677 3.88693 3.76876
# Velocity P-wave (km/s) = 6.30987 6.64741 6.48084
#
# Compressibility (1/GPa) = 0.02061770
#
# Stress axis : x y z
#
# Youngs Moduli (GPa) = 61.33546 76.74373 91.50178
#
# Poissons Ratio (x) = 0.32332 0.19324
# Poissons Ratio (y) = 0.25841 0.32004
# Poissons Ratio (z) = 0.12953 0.26842
#
# Static dielectric constant tensor:
#      x y z
#    x 3.916670 0.000000 -0.251980 
#    y 0.000000 3.693610 0.000010 
#    z -0.251980 0.000010 4.257940 
# 
# 
# High freq. dielectric constant tensor:
#      x y z
#    x 1.865100 0.000000 -0.019210 
#    y 0.000000 1.836730 0.000000 
#    z -0.019210 0.000000 1.886610 
# 
# From -- ./inp_files/215580.got.cif
#   From: 2010.06.25/outbox.cif.g09.slc.cpg/sg15_108_cif.got.tgz:215580.got - 2010.06.28 07:06:18.
