data_PCOD8153218
_publ_section_title
;
Structure prediction by ZEFSAII (Michael W. Deem and Ramdas Pophale) SiO2 
 PCOD8153218
Probable space group: C 2/C
;
_chemical_formula_sum "Si O2"
_cell_formula_units_Z 56
_cell_length_a 30.420311
_cell_length_b 12.122107
_cell_length_c 15.685429
_cell_angle_alpha 90.000000
_cell_angle_beta 26.625630
_cell_angle_gamma 90.000000
_cell_volume 2592.210760
_symmetry_space_group_name_H-M "C 2/C"
_symmetry_group_IT_number 15
_symmetry_cell_setting 'monoclinic'
loop_
_space_group_symop_operation_xyz
x,y,z
-x,y,1/2-z
-x,-y,-z
x,-y,1/2+z
1/2+x,1/2+y,z
1/2-x,1/2+y,1/2-z
1/2-x,1/2-y,-z
1/2+x,1/2-y,1/2+z
loop_
_atom_site_type_symbol
_atom_site_label
_atom_site_fract_x
_atom_site_fract_y
_atom_site_fract_z
Si Si1 0.071974 0.671009 0.700975
Si Si2 0.927538 0.902677 0.150035
Si Si3 0.253804 0.674995 0.651315
Si Si4 0.240368 0.793603 0.161869
Si Si5 0.110672 0.442312 0.688328
Si Si6 0.041557 0.689890 0.948852
Si Si7 0.263232 0.449762 0.561684
O O1 0.164754 0.751494 0.536522
O O2 0.097341 0.541323 0.643275
O O3 0.022357 0.679179 0.880459
O O4 0.000000 0.708958 0.750000
O O5 0.853353 0.867309 0.202329
O O6 0.867625 0.939937 0.335996
O O7 0.992350 0.800981 0.067079
O O8 0.000000 0.000000 0.000000
O O9 0.243457 0.707846 0.766513
O O10 0.155190 0.699950 0.771893
O O11 0.277260 0.543908 0.608531
O O12 0.224339 0.666975 0.163441
O O13 0.337992 0.838510 0.946302
O O14 0.180604 0.493333 0.639906
O O15 0.008143 0.408694 0.910480
#
# Coordination Sequence:
#
# PCOD8153218 Si02
#       7
#     8   8   8   8   8   8   8
#     4  12  28  45  72 103 145 180 238 292 357 419
#     4  11  23  43  75  98 138 188 236 289 359 419
#     4  12  29  42  72 106 145 181 234 299 352 415
#     4  11  25  46  70 104 144 188 241 285 360 422
#     4  11  24  44  74 103 136 188 235 290 350 429
#     4  12  24  45  68 106 136 184 237 283 355 419
#     4  11  23  49  69  98 143 187 231 292 356 426
#
# _framework density 21.603182
#
# number of rings (size 3 to 8) (size 9 to 14) (size 15 to 20)
#    0.000    0.571    4.286    3.429    8.000    0.000 
#    0.000    1.429    0.000    0.000    0.000    0.000 
#    0.000    0.000    0.000    0.000    0.000    0.000 
#
# Total GULP energy -347270.288006 kJ/mol
# GULP energy per Si atom -12402.510286 kJ/mol
# Density = 2.155401 g / cm^3
# Si number density = 21.603182 Si / 1000 Ang^3
#
#
#
# Elastic Constant Matrix: (Units=GPa)
#
#
# Indices 1 2 3 4 5 6 
#
# 1 79.6289 27.0971 44.1334 0.0000 2.4642 0.0000
# 2 27.0971 86.2564 47.4059 0.0000 -16.8071 0.0000
# 3 44.1334 47.4059 113.3125 0.0000 -13.4586 0.0000
# 4 0.0000 0.0000 0.0000 28.9575 0.0000 -0.6864
# 5 2.4642 -16.8071 -13.4586 0.0000 32.8002 0.0000
# 6 0.0000 0.0000 0.0000 -0.6864 0.0000 30.8630
#
#
#
# Elastic Compliance Matrix: (Units=1/GPa)
#
#
# Indices 1 2 3 4 5 6 
#
# 1 0.017107 -0.003123 -0.005991 0.000000 -0.005343 0.000000
# 2 -0.003123 0.016590 -0.004927 0.000000 0.006714 0.000000
# 3 -0.005991 -0.004927 0.013638 0.000000 0.003521 0.000000
# 4 0.000000 0.000000 0.000000 0.034552 0.000000 0.000768
# 5 -0.005343 0.006714 0.003521 0.000000 0.035774 0.000000
# 6 0.000000 0.000000 0.000000 0.000768 0.000000 0.032418
#
#
# Mechanical properties :
#
#
# Convention : Reuss Voigt Hill
#
# Bulk Modulus (GPa) = 51.93816 57.38563 54.66189
# Shear Modulus (GPa) = 27.08865 29.22823 28.15844
#
# Velocity S-wave (km/s) = 3.54491 3.68225 3.61423
# Velocity P-wave (km/s) = 6.39135 6.68579 6.54023
#
# Compressibility (1/GPa) = 0.01925366
#
# Stress axis : x y z
#
# Youngs Moduli (GPa) = 58.45671 60.27551 73.32332
#
# Poissons Ratio (x) = 0.18821 0.43929
# Poissons Ratio (y) = 0.18253 0.36128
# Poissons Ratio (z) = 0.35022 0.29699
#
# Static dielectric constant tensor:
#      x y z
#    x 4.018750 0.000000 -0.494240 
#    y 0.000000 4.082690 0.000000 
#    z -0.494240 0.000000 4.990180 
# 
# 
# High freq. dielectric constant tensor:
#      x y z
#    x 1.834140 0.000000 -0.002540 
#    y 0.000000 1.864650 0.000000 
#    z -0.002540 0.000000 1.863130 
# 
# From -- ./inp_files/181920.got.cif
#   From: 2010.06.25/outbox.cif.g09.slc.cpg/sg15_91_cif.got.tgz:181920.got - 2010.06.28 07:06:18.
