data_PCOD8153962
_publ_section_title
;
Structure prediction by ZEFSAII (Michael W. Deem and Ramdas Pophale) SiO2 
 PCOD8153962
Probable space group: C 2/C
;
_chemical_formula_sum "Si O2"
_cell_formula_units_Z 48
_cell_length_a 11.266150
_cell_length_b 14.218748
_cell_length_c 13.497467
_cell_angle_alpha 90.000000
_cell_angle_beta 96.496042
_cell_angle_gamma 90.000000
_cell_volume 2148.284816
_symmetry_space_group_name_H-M "C 2/C"
_symmetry_group_IT_number 15
_symmetry_cell_setting 'monoclinic'
loop_
_space_group_symop_operation_xyz
x,y,z
-x,y,1/2-z
-x,-y,-z
x,-y,1/2+z
1/2+x,1/2+y,z
1/2-x,1/2+y,1/2-z
1/2-x,1/2-y,-z
1/2+x,1/2-y,1/2+z
loop_
_atom_site_type_symbol
_atom_site_label
_atom_site_fract_x
_atom_site_fract_y
_atom_site_fract_z
Si Si1 0.815988 0.837882 0.619991
Si Si2 0.685746 0.180291 0.620799
Si Si3 0.655653 0.344311 0.100605
Si Si4 0.759293 0.487885 0.267307
Si Si5 0.500000 0.244433 0.750000
Si Si6 0.000000 0.580737 0.250000
Si Si7 0.928350 0.269868 0.591026
O O1 0.723476 0.752982 0.629964
O O2 0.809452 0.877095 0.507451
O O3 0.951102 0.803302 0.651862
O O4 0.800084 0.915502 0.703962
O O5 0.731628 0.073261 0.630643
O O6 0.613001 0.188193 0.717272
O O7 0.801289 0.248316 0.631139
O O8 0.597238 0.195442 0.521911
O O9 0.684490 0.430370 0.177166
O O10 0.513961 0.321672 0.097511
O O11 0.888175 0.511621 0.235578
O O12 0.996821 0.646164 0.152594
#
# Coordination Sequence:
#
# PCOD8153962 Si02
#       7
#     8   8   8   8   4   4   8
#     4  11  25  44  72 103 142 192 231 296 363 418
#     4  11  25  43  76 104 141 190 237 292 358 423
#     4  11  24  47  72 101 148 186 233 292 365 420
#     4  12  26  43  70 112 136 186 242 297 353 418
#     4  12  21  48  67 106 142 190 235 288 357 432
#     4  12  25  42  73 104 142 180 245 302 337 422
#     4  11  24  49  72 102 143 195 234 289 360 424
#
# _framework density 22.343406000000002
#
# number of rings (size 3 to 8) (size 9 to 14) (size 15 to 20)
#    0.000    0.667    5.000    2.500    2.333    2.000 
#    0.000    1.667    0.000    0.000    0.000    0.000 
#    0.000    0.000    0.000    0.000    0.000    0.000 
#
# Total GULP energy -297490.686406 kJ/mol
# GULP energy per Si atom -12395.445267 kJ/mol
# Density = 2.229255 g / cm^3
# Si number density = 22.343406 Si / 1000 Ang^3
#
#
#
# Elastic Constant Matrix: (Units=GPa)
#
#
# Indices 1 2 3 4 5 6 
#
# 1 82.8138 11.8056 44.5126 0.0000 4.9338 0.0000
# 2 11.8056 80.2529 54.1734 0.0000 3.4466 0.0000
# 3 44.5126 54.1734 129.9044 0.0000 8.7275 0.0000
# 4 0.0000 0.0000 0.0000 35.1860 0.0000 3.2105
# 5 4.9338 3.4466 8.7275 0.0000 38.0568 0.0000
# 6 0.0000 0.0000 0.0000 3.2105 0.0000 31.4344
#
#
#
# Elastic Compliance Matrix: (Units=1/GPa)
#
#
# Indices 1 2 3 4 5 6 
#
# 1 0.014999 0.001755 -0.005820 0.000000 -0.000769 0.000000
# 2 0.001755 0.017548 -0.007919 0.000000 -0.000001 0.000000
# 3 -0.005820 -0.007919 0.013098 0.000000 -0.001532 0.000000
# 4 0.000000 0.000000 0.000000 0.028688 0.000000 -0.002930
# 5 -0.000769 -0.000001 -0.001532 0.000000 0.026728 0.000000
# 6 0.000000 0.000000 0.000000 -0.002930 0.000000 0.032112
#
#
# Mechanical properties :
#
#
# Convention : Reuss Voigt Hill
#
# Bulk Modulus (GPa) = 46.13216 57.10603 51.61910
# Shear Modulus (GPa) = 30.41993 33.10073 31.76033
#
# Velocity S-wave (km/s) = 3.69382 3.85314 3.77432
# Velocity P-wave (km/s) = 6.23571 6.73865 6.49205
#
# Compressibility (1/GPa) = 0.02167685
#
# Stress axis : x y z
#
# Youngs Moduli (GPa) = 66.67085 56.98534 76.34910
#
# Poissons Ratio (x) = -0.10002 0.44434
# Poissons Ratio (y) = -0.11702 0.60465
# Poissons Ratio (z) = 0.38801 0.45130
#
# Static dielectric constant tensor:
#      x y z
#    x 4.074580 0.000000 0.185420 
#    y 0.000000 3.869700 0.000000 
#    z 0.185420 0.000000 4.061200 
# 
# 
# High freq. dielectric constant tensor:
#      x y z
#    x 1.891330 0.000000 0.008110 
#    y 0.000000 1.867540 0.000000 
#    z 0.008110 0.000000 1.889330 
# 
# From -- ./inp_files/143770.got.cif
#   From: 2010.06.25/outbox.cif.g09.slc.cpg/sg15_72_cif.got.tgz:143770.got - 2010.06.28 07:06:18.
