data_PCOD8153619
_publ_section_title
;
Structure prediction by ZEFSAII (Michael W. Deem and Ramdas Pophale) SiO2 
 PCOD8153619
Probable space group: C 2/C
;
_chemical_formula_sum "Si O2"
_cell_formula_units_Z 56
_cell_length_a 28.375098
_cell_length_b 9.632843
_cell_length_c 9.891336
_cell_angle_alpha 90.000000
_cell_angle_beta 119.568441
_cell_angle_gamma 90.000000
_cell_volume 2351.525353
_symmetry_space_group_name_H-M "C 2/C"
_symmetry_group_IT_number 15
_symmetry_cell_setting 'monoclinic'
loop_
_space_group_symop_operation_xyz
x,y,z
-x,y,1/2-z
-x,-y,-z
x,-y,1/2+z
1/2+x,1/2+y,z
1/2-x,1/2+y,1/2-z
1/2-x,1/2-y,-z
1/2+x,1/2-y,1/2+z
loop_
_atom_site_type_symbol
_atom_site_label
_atom_site_fract_x
_atom_site_fract_y
_atom_site_fract_z
Si Si1 0.769147 0.005057 0.391356
Si Si2 0.800239 0.726365 0.314941
Si Si3 0.387122 0.570991 0.598592
Si Si4 0.105706 0.672037 0.227307
Si Si5 0.090538 0.158190 0.163729
Si Si6 0.159393 0.395988 0.363212
Si Si7 0.994424 0.361982 0.080778
O O1 0.783220 0.882544 0.310165
O O2 0.719083 0.953278 0.412355
O O3 0.753563 0.135569 0.277571
O O4 0.823481 0.049118 0.546467
O O5 0.834512 0.721383 0.227664
O O6 0.838516 0.660539 0.483045
O O7 0.410291 0.721836 0.675989
O O8 0.400381 0.564289 0.457441
O O9 0.416511 0.446090 0.719304
O O10 0.111865 0.512885 0.289027
O O11 0.065705 0.690002 0.043110
O O12 0.141470 0.265098 0.245928
O O13 0.035753 0.246886 0.084682
O O14 0.000000 0.389081 0.250000
O O15 0.000000 0.500000 0.000000
#
# Coordination Sequence:
#
# PCOD8153619 Si02
#       7
#     8   8   8   8   8   8   8
#     4  11  25  40  71 103 154 198 251 305 385 443
#     4  11  24  43  67 105 151 194 255 307 375 452
#     4  12  29  48  76 113 156 204 244 320 381 463
#     4  11  28  45  76 106 150 193 259 312 379 453
#     4  12  28  52  79 110 156 197 262 310 393 451
#     4  11  24  43  74 107 146 203 253 312 370 461
#     4  12  29  52  86 115 148 200 255 324 384 449
#
# _framework density 23.814330000000002
#
# number of rings (size 3 to 8) (size 9 to 14) (size 15 to 20)
#    0.000    0.571    2.857    3.000   14.000    1.714 
#    0.000    0.000    0.000    0.000    0.000    0.000 
#    0.000    0.000    0.000    0.000    0.000    0.000 
#
# Total GULP energy -347097.337295 kJ/mol
# GULP energy per Si atom -12396.333475 kJ/mol
# Density = 2.376013 g / cm^3
# Si number density = 23.814330 Si / 1000 Ang^3
#
#
#
# Elastic Constant Matrix: (Units=GPa)
#
#
# Indices 1 2 3 4 5 6 
#
# 1 78.5244 25.8623 22.6978 0.0000 1.3261 0.0000
# 2 25.8623 138.2463 41.6929 0.0000 -2.7365 0.0000
# 3 22.6978 41.6929 72.5978 0.0000 -2.3554 0.0000
# 4 0.0000 0.0000 0.0000 49.4724 0.0000 0.9775
# 5 1.3261 -2.7365 -2.3554 0.0000 33.1531 0.0000
# 6 0.0000 0.0000 0.0000 0.9775 0.0000 26.4357
#
#
#
# Elastic Compliance Matrix: (Units=1/GPa)
#
#
# Indices 1 2 3 4 5 6 
#
# 1 0.014319 -0.001618 -0.003578 0.000000 -0.000961 0.000000
# 2 -0.001618 0.008936 -0.004611 0.000000 0.000475 0.000000
# 3 -0.003578 -0.004611 0.017574 0.000000 0.001011 0.000000
# 4 0.000000 0.000000 0.000000 0.020228 0.000000 -0.000748
# 5 -0.000961 0.000475 0.001011 0.000000 0.030312 0.000000
# 6 0.000000 0.000000 0.000000 -0.000748 0.000000 0.037855
#
#
# Mechanical properties :
#
#
# Convention : Reuss Voigt Hill
#
# Bulk Modulus (GPa) = 47.13929 52.20829 49.67379
# Shear Modulus (GPa) = 32.06967 35.08662 33.57815
#
# Velocity S-wave (km/s) = 3.67366 3.84258 3.75907
# Velocity P-wave (km/s) = 6.15076 6.45429 6.30435
#
# Compressibility (1/GPa) = 0.02121373
#
# Stress axis : x y z
#
# Youngs Moduli (GPa) = 69.83970 111.90549 56.90226
#
# Poissons Ratio (x) = 0.18111 0.20362
# Poissons Ratio (y) = 0.11303 0.26235
# Poissons Ratio (z) = 0.24991 0.51595
#
# Static dielectric constant tensor:
#      x y z
#    x 4.099250 0.000000 0.273590 
#    y 0.000000 4.509000 0.000000 
#    z 0.273590 0.000000 4.443930 
# 
# 
# High freq. dielectric constant tensor:
#      x y z
#    x 1.932580 0.000000 0.010640 
#    y 0.000000 1.962820 0.000000 
#    z 0.010640 0.000000 1.947380 
# 
# From -- ./inp_files/125968.got.cif
#   From: 2010.06.25/outbox.cif.g09.slc.cpg/sg15_63_cif.got.tgz:125968.got - 2010.06.28 07:06:18.
