data_PCOD8153207
_publ_section_title
;
Structure prediction by ZEFSAII (Michael W. Deem and Ramdas Pophale) SiO2 
 PCOD8153207
Probable space group: C 2/C
;
_chemical_formula_sum "Si O2"
_cell_formula_units_Z 40
_cell_length_a 19.386483
_cell_length_b 12.189378
_cell_length_c 10.433923
_cell_angle_alpha 90.000000
_cell_angle_beta 134.861249
_cell_angle_gamma 90.000000
_cell_volume 1747.681845
_symmetry_space_group_name_H-M "C 2/C"
_symmetry_group_IT_number 15
_symmetry_cell_setting 'monoclinic'
loop_
_space_group_symop_operation_xyz
x,y,z
-x,y,1/2-z
-x,-y,-z
x,-y,1/2+z
1/2+x,1/2+y,z
1/2-x,1/2+y,1/2-z
1/2-x,1/2-y,-z
1/2+x,1/2-y,1/2+z
loop_
_atom_site_type_symbol
_atom_site_label
_atom_site_fract_x
_atom_site_fract_y
_atom_site_fract_z
Si Si1 0.683060 0.312895 0.812594
Si Si2 0.281581 0.029572 0.944529
Si Si3 0.313260 0.272440 0.272182
Si Si4 0.608387 0.039124 0.162233
Si Si5 0.488589 0.406163 0.592070
O O1 0.695042 0.443400 0.842622
O O2 0.718477 0.272052 0.721320
O O3 0.566168 0.304499 0.674304
O O4 0.750000 0.250000 0.000000
O O5 0.233702 0.150776 0.901413
O O6 0.329331 0.018218 0.867053
O O7 0.358631 0.997516 0.155156
O O8 0.381649 0.351961 0.446615
O O9 0.379592 0.170891 0.314920
O O10 0.500000 0.000000 0.000000
O O11 0.500000 0.456836 0.750000
O O12 0.500000 0.500000 0.500000
#
# Coordination Sequence:
#
# PCOD8153207 Si02
#       5
#     8   8   8   8   8
#     4  11  23  43  73  99 144 189 235 293 365 438
#     4  11  24  45  69  98 143 181 233 297 360 430
#     4  11  25  43  70 105 142 191 235 300 368 432
#     4  11  26  44  70 101 139 185 241 293 359 434
#     4  12  26  46  74 106 144 187 249 299 363 438
#
# _framework density 22.887460000000001
#
# number of rings (size 3 to 8) (size 9 to 14) (size 15 to 20)
#    0.000    0.800    4.000    2.400    5.600    0.000 
#    3.600    0.000    0.000    0.000    0.000    0.000 
#    0.000    0.000    0.000    0.000    0.000    0.000 
#
# Total GULP energy -247873.448632 kJ/mol
# GULP energy per Si atom -12393.672432 kJ/mol
# Density = 2.283537 g / cm^3
# Si number density = 22.887460 Si / 1000 Ang^3
#
#
#
# Elastic Constant Matrix: (Units=GPa)
#
#
# Indices 1 2 3 4 5 6 
#
# 1 95.3881 36.5577 46.6383 0.0000 2.5018 0.0000
# 2 36.5577 111.0628 23.9351 0.0000 1.3250 0.0000
# 3 46.6383 23.9351 127.0133 0.0000 0.2633 0.0000
# 4 0.0000 0.0000 0.0000 43.1588 0.0000 4.6437
# 5 2.5018 1.3250 0.2633 0.0000 40.0462 0.0000
# 6 0.0000 0.0000 0.0000 4.6437 0.0000 27.0892
#
#
#
# Elastic Compliance Matrix: (Units=1/GPa)
#
#
# Indices 1 2 3 4 5 6 
#
# 1 0.014101 -0.003666 -0.004485 0.000000 -0.000730 0.000000
# 2 -0.003666 0.010342 -0.000602 0.000000 -0.000109 0.000000
# 3 -0.004485 -0.000602 0.009633 0.000000 0.000237 0.000000
# 4 0.000000 0.000000 0.000000 0.023606 0.000000 -0.004047
# 5 -0.000730 -0.000109 0.000237 0.000000 0.025019 0.000000
# 6 0.000000 0.000000 0.000000 -0.004047 0.000000 0.037609
#
#
# Mechanical properties :
#
#
# Convention : Reuss Voigt Hill
#
# Bulk Modulus (GPa) = 60.35744 60.85849 60.60797
# Shear Modulus (GPa) = 34.88229 37.14771 36.01500
#
# Velocity S-wave (km/s) = 3.90818 4.03309 3.97113
# Velocity P-wave (km/s) = 6.84060 6.95240 6.89673
#
# Compressibility (1/GPa) = 0.01656797
#
# Stress axis : x y z
#
# Youngs Moduli (GPa) = 70.91865 96.69503 103.80768
#
# Poissons Ratio (x) = 0.35449 0.46561
# Poissons Ratio (y) = 0.25999 0.06254
# Poissons Ratio (z) = 0.31809 0.05826
#
# Static dielectric constant tensor:
#      x y z
#    x 4.773960 0.000000 0.012570 
#    y 0.000000 4.285240 0.000000 
#    z 0.012570 0.000000 4.234250 
# 
# 
# High freq. dielectric constant tensor:
#      x y z
#    x 1.896660 0.000000 0.006270 
#    y 0.000000 1.909070 0.000000 
#    z 0.006270 0.000000 1.913270 
# 
# From -- ./inp_files/111862.got.cif
#   From: 2010.06.25/outbox.cif.g09.slc.cpg/sg15_56_cif.got.tgz:111862.got - 2010.06.28 07:06:18.
