data_PCOD8153547
_publ_section_title
;
Structure prediction by ZEFSAII (Michael W. Deem and Ramdas Pophale) SiO2 
 PCOD8153547
Probable space group: C 2/C
;
_chemical_formula_sum "Si O2"
_cell_formula_units_Z 36
_cell_length_a 8.934833
_cell_length_b 25.890039
_cell_length_c 15.637855
_cell_angle_alpha 90.000000
_cell_angle_beta 27.777603
_cell_angle_gamma 90.000000
_cell_volume 1685.855257
_symmetry_space_group_name_H-M "C 2/C"
_symmetry_group_IT_number 15
_symmetry_cell_setting 'monoclinic'
loop_
_space_group_symop_operation_xyz
x,y,z
-x,y,1/2-z
-x,-y,-z
x,-y,1/2+z
1/2+x,1/2+y,z
1/2-x,1/2+y,1/2-z
1/2-x,1/2-y,-z
1/2+x,1/2-y,1/2+z
loop_
_atom_site_type_symbol
_atom_site_label
_atom_site_fract_x
_atom_site_fract_y
_atom_site_fract_z
Si Si1 0.876844 0.057371 0.072162
Si Si2 0.197857 0.147824 0.806460
Si Si3 0.921313 0.125645 0.387727
Si Si4 0.500000 0.705377 0.750000
Si Si5 0.545920 0.719815 0.032542
O O1 0.500000 0.060580 0.250000
O O2 0.969174 0.073239 0.121895
O O3 0.053705 0.094974 0.915938
O O4 0.000000 0.000000 0.000000
O O5 0.544523 0.136486 0.591255
O O6 0.959745 0.168948 0.853254
O O7 0.241901 0.191841 0.856799
O O8 0.122477 0.173365 0.328351
O O9 0.000000 0.119980 0.250000
O O10 0.806754 0.741562 0.606998
O O11 0.750000 0.750000 0.000000
#
# Coordination Sequence:
#
# PCOD8153547 Si02
#       5
#     8   8   8   4   8
#     4  11  25  49  78 101 138 179 228 290 365 419
#     4  11  26  47  66 103 145 184 237 294 343 424
#     4  11  26  44  71 103 141 184 241 286 347 416
#     4  12  26  38  70 102 146 186 240 276 356 402
#     4  11  24  41  68  95 144 194 234 282 348 405
#
# _framework density 21.354147000000001
#
# number of rings (size 3 to 8) (size 9 to 14) (size 15 to 20)
#    0.000    0.889    2.222    4.667   12.444    0.000 
#    2.000    2.222    0.000    0.000    0.000    0.000 
#    0.000    0.000    0.000    0.000    0.000    0.000 
#
# Total GULP energy -223112.261175 kJ/mol
# GULP energy per Si atom -12395.125621 kJ/mol
# Density = 2.130554 g / cm^3
# Si number density = 21.354147 Si / 1000 Ang^3
#
#
#
# Elastic Constant Matrix: (Units=GPa)
#
#
# Indices 1 2 3 4 5 6 
#
# 1 192.2869 96.8130 82.7859 0.0000 20.7758 0.0000
# 2 96.8130 172.1125 72.8485 0.0000 15.7372 0.0000
# 3 82.7859 72.8485 143.3418 -0.0003 13.9720 0.0001
# 4 0.0000 0.0000 -0.0003 14.5711 0.0001 -2.1059
# 5 20.7758 15.7372 13.9720 0.0001 47.9056 0.0000
# 6 0.0000 0.0000 0.0001 -2.1059 0.0000 38.9562
#
#
#
# Elastic Compliance Matrix: (Units=1/GPa)
#
#
# Indices 1 2 3 4 5 6 
#
# 1 0.008302 -0.003258 -0.002977 0.000000 -0.001662 0.000000
# 2 -0.003258 0.008770 -0.002503 0.000000 -0.000738 0.000000
# 3 -0.002977 -0.002503 0.010048 0.000000 -0.000817 0.000000
# 4 0.000000 0.000000 0.000000 0.069170 0.000000 0.003739
# 5 -0.001662 -0.000738 -0.000817 0.000000 0.022076 0.000000
# 6 0.000000 0.000000 0.000000 0.003739 0.000000 0.025872
#
#
# Mechanical properties :
#
#
# Convention : Reuss Voigt Hill
#
# Bulk Modulus (GPa) = 103.70566 112.51509 108.11038
# Shear Modulus (GPa) = 30.31621 37.30617 33.81119
#
# Velocity S-wave (km/s) = 3.77196 4.18427 3.98346
# Velocity P-wave (km/s) = 8.22437 8.72632 8.47906
#
# Compressibility (1/GPa) = 0.00964267
#
# Stress axis : x y z
#
# Youngs Moduli (GPa) = 120.45021 114.02787 99.52542
#
# Poissons Ratio (x) = 0.37149 0.29630
# Poissons Ratio (y) = 0.39241 0.24916
# Poissons Ratio (z) = 0.35860 0.28546
#
# Static dielectric constant tensor:
#      x y z
#    x 3.057710 0.000000 1.055630 
#    y 0.000000 4.024680 0.000000 
#    z 1.055630 0.000000 3.065250 
# 
# 
# High freq. dielectric constant tensor:
#      x y z
#    x 1.859180 0.000000 0.002490 
#    y 0.000000 1.842090 0.000000 
#    z 0.002490 0.000000 1.831650 
# 
# From -- ./inp_files/138869.got.cif
#   From: 2010.06.25/outbox.cif.g09.slc.cpg/sg15_70_cif.got.tgz:138869.got - 2010.06.28 07:06:18.
