data_PCOD8153043
_publ_section_title
;
Structure prediction by ZEFSAII (Michael W. Deem and Ramdas Pophale) SiO2 
 PCOD8153043
Probable space group: C 2/C
;
_chemical_formula_sum "Si O2"
_cell_formula_units_Z 40
_cell_length_a 15.617646
_cell_length_b 18.399038
_cell_length_c 8.238773
_cell_angle_alpha 90.000000
_cell_angle_beta 50.780233
_cell_angle_gamma 90.000000
_cell_volume 1834.093955
_symmetry_space_group_name_H-M "C 2/C"
_symmetry_group_IT_number 15
_symmetry_cell_setting 'monoclinic'
loop_
_space_group_symop_operation_xyz
x,y,z
-x,y,1/2-z
-x,-y,-z
x,-y,1/2+z
1/2+x,1/2+y,z
1/2-x,1/2+y,1/2-z
1/2-x,1/2-y,-z
1/2+x,1/2-y,1/2+z
loop_
_atom_site_type_symbol
_atom_site_label
_atom_site_fract_x
_atom_site_fract_y
_atom_site_fract_z
Si Si1 0.891860 0.203082 0.168238
Si Si2 0.027629 0.647317 0.029576
Si Si3 0.910362 0.131211 0.466131
Si Si4 0.797087 0.453084 0.309285
Si Si5 0.697434 0.894833 0.833685
O O1 0.865560 0.194002 0.393451
O O2 0.798039 0.160546 0.179751
O O3 0.016178 0.170033 0.980295
O O4 0.891392 0.287302 0.120613
O O5 0.000000 0.653594 0.250000
O O6 0.916463 0.648306 0.056184
O O7 0.094124 0.573275 0.915850
O O8 0.811772 0.080987 0.649139
O O9 0.000000 0.084128 0.250000
O O10 0.798492 0.429482 0.493564
O O11 0.793068 0.540062 0.307810
#
# Coordination Sequence:
#
# PCOD8153043 Si02
#       5
#     8   8   8   8   8
#     4   8  21  40  64  95 125 169 209 264 315 377
#     4  12  26  41  63  96 133 169 216 265 320 376
#     4   7  18  40  65  96 122 163 217 250 317 384
#     4  11  23  42  68  94 130 173 209 266 317 385
#     4  11  24  43  66  96 129 171 215 260 322 383
#
# _framework density 21.809135000000001
#
# number of rings (size 3 to 8) (size 9 to 14) (size 15 to 20)
#    1.200    0.800    0.000    2.400    8.400    3.200 
#    3.600    0.000    0.000    0.000    0.000    0.000 
#    0.000    0.000    0.000    0.000    0.000    0.000 
#
# Total GULP energy -247823.588279 kJ/mol
# GULP energy per Si atom -12391.179414 kJ/mol
# Density = 2.175950 g / cm^3
# Si number density = 21.809135 Si / 1000 Ang^3
#
#
#
# Elastic Constant Matrix: (Units=GPa)
#
#
# Indices 1 2 3 4 5 6 
#
# 1 105.6148 44.6551 24.2784 0.0000 -25.0761 0.0000
# 2 44.6551 111.2117 22.0778 0.0000 -5.8010 0.0000
# 3 24.2784 22.0778 54.1734 0.0000 -2.7577 0.0000
# 4 0.0000 0.0000 0.0000 28.0407 0.0000 -8.4175
# 5 -25.0761 -5.8010 -2.7577 0.0000 25.0124 0.0000
# 6 0.0000 0.0000 0.0000 -8.4175 0.0000 32.8140
#
#
#
# Elastic Compliance Matrix: (Units=1/GPa)
#
#
# Indices 1 2 3 4 5 6 
#
# 1 0.015914 -0.004755 -0.004463 0.000000 0.014360 0.000000
# 2 -0.004755 0.011289 -0.002594 0.000000 -0.002435 0.000000
# 3 -0.004463 -0.002594 0.021378 0.000000 -0.002719 0.000000
# 4 0.000000 0.000000 0.000000 0.038638 0.000000 0.009911
# 5 0.014360 -0.002435 -0.002719 0.000000 0.053512 0.000000
# 6 0.000000 0.000000 0.000000 0.009911 0.000000 0.033017
#
#
# Mechanical properties :
#
#
# Convention : Reuss Voigt Hill
#
# Bulk Modulus (GPa) = 40.06813 50.33583 45.20198
# Shear Modulus (GPa) = 24.30819 29.17264 26.74042
#
# Velocity S-wave (km/s) = 3.34217 3.66134 3.50539
# Velocity P-wave (km/s) = 5.77109 6.40344 6.09547
#
# Compressibility (1/GPa) = 0.02495749
#
# Stress axis : x y z
#
# Youngs Moduli (GPa) = 62.83638 88.58146 46.77680
#
# Poissons Ratio (x) = 0.42121 0.20878
# Poissons Ratio (y) = 0.29879 0.12132
# Poissons Ratio (z) = 0.28046 0.22975
#
# Static dielectric constant tensor:
#      x y z
#    x 4.078530 0.000000 -0.333910 
#    y 0.000000 3.750580 0.000000 
#    z -0.333910 0.000000 3.547290 
# 
# 
# High freq. dielectric constant tensor:
#      x y z
#    x 1.863560 0.000000 -0.026100 
#    y 0.000000 1.843190 0.000000 
#    z -0.026100 0.000000 1.828260 
# 
# From -- ./inp_files/40547.got.cif
#   From: 2010.06.25/outbox.cif.g09.slc.cpg/sg15_21_cif.got.tgz:40547.got - 2010.06.28 07:06:18.
