data_PCOD8153389
_publ_section_title
;
Structure prediction by ZEFSAII (Michael W. Deem and Ramdas Pophale) SiO2 
 PCOD8153389
Probable space group: C 2/C
;
_chemical_formula_sum "Si O2"
_cell_formula_units_Z 44
_cell_length_a 12.445044
_cell_length_b 12.243243
_cell_length_c 13.811862
_cell_angle_alpha 90.000000
_cell_angle_beta 115.801007
_cell_angle_gamma 90.000000
_cell_volume 1894.688204
_symmetry_space_group_name_H-M "C 2/C"
_symmetry_group_IT_number 15
_symmetry_cell_setting 'monoclinic'
loop_
_space_group_symop_operation_xyz
x,y,z
-x,y,1/2-z
-x,-y,-z
x,-y,1/2+z
1/2+x,1/2+y,z
1/2-x,1/2+y,1/2-z
1/2-x,1/2-y,-z
1/2+x,1/2-y,1/2+z
loop_
_atom_site_type_symbol
_atom_site_label
_atom_site_fract_x
_atom_site_fract_y
_atom_site_fract_z
Si Si1 0.610887 0.172996 0.047080
Si Si2 0.689934 0.156779 0.864631
Si Si3 0.662548 0.772426 0.054706
Si Si4 0.062575 0.067434 0.108214
Si Si5 0.269812 0.976593 0.291644
Si Si6 0.000000 0.812889 0.750000
O O1 0.677496 0.290441 0.079202
O O2 0.661397 0.079252 0.136715
O O3 0.628096 0.131244 0.943366
O O4 0.473575 0.191152 0.023575
O O5 0.687020 0.044875 0.802532
O O6 0.614396 0.240703 0.769723
O O7 0.655959 0.655080 0.103499
O O8 0.721922 0.867745 0.141330
O O9 0.750000 0.750000 0.000000
O O10 0.961747 0.125204 0.135363
O O11 0.129859 0.000364 0.219783
O O12 0.000000 0.000000 0.000000
#
# Coordination Sequence:
#
# PCOD8153389 Si02
#       6
#     8   8   8   8   8   4
#     4  11  24  48  76 108 146 200 246 307 371 440
#     4  11  23  45  79 106 147 190 255 306 360 450
#     4  12  28  49  69 108 157 187 241 312 365 442
#     4  12  28  47  75 106 144 199 250 296 368 448
#     4  12  25  46  74 111 144 194 245 306 378 432
#     4  12  22  50  76 102 142 192 250 304 358 448
#
# _framework density 23.222819000000001
#
# number of rings (size 3 to 8) (size 9 to 14) (size 15 to 20)
#    0.000    0.364    5.455    1.636    7.636    0.000 
#    3.273    3.636    0.000    0.000    0.000    0.000 
#    0.000    0.000    0.000    0.000    0.000    0.000 
#
# Total GULP energy -272561.125710 kJ/mol
# GULP energy per Si atom -12389.142078 kJ/mol
# Density = 2.316996 g / cm^3
# Si number density = 23.222819 Si / 1000 Ang^3
#
#
#
# Elastic Constant Matrix: (Units=GPa)
#
#
# Indices 1 2 3 4 5 6 
#
# 1 120.5550 45.9803 52.4582 0.0000 -7.3406 0.0000
# 2 45.9803 113.6605 66.3453 0.0000 3.1212 0.0000
# 3 52.4582 66.3453 138.7857 0.0000 0.9732 0.0000
# 4 0.0000 0.0000 0.0000 56.6664 0.0000 -2.6714
# 5 -7.3406 3.1212 0.9732 0.0000 49.8118 0.0000
# 6 0.0000 0.0000 0.0000 -2.6714 0.0000 16.2761
#
#
#
# Elastic Compliance Matrix: (Units=1/GPa)
#
#
# Indices 1 2 3 4 5 6 
#
# 1 0.010641 -0.002772 -0.002709 0.000000 0.001795 0.000000
# 2 -0.002772 0.012947 -0.005133 0.000000 -0.001120 0.000000
# 3 -0.002709 -0.005133 0.010685 0.000000 -0.000286 0.000000
# 4 0.000000 0.000000 0.000000 0.017785 0.000000 0.002919
# 5 0.001795 -0.001120 -0.000286 0.000000 0.020416 0.000000
# 6 0.000000 0.000000 0.000000 0.002919 0.000000 0.061919
#
#
# Mechanical properties :
#
#
# Convention : Reuss Voigt Hill
#
# Bulk Modulus (GPa) = 76.67057 78.06321 77.36689
# Shear Modulus (GPa) = 31.25593 38.43202 34.84398
#
# Velocity S-wave (km/s) = 3.67265 4.07249 3.87773
# Velocity P-wave (km/s) = 7.14642 7.47003 7.31002
#
# Compressibility (1/GPa) = 0.01304281
#
# Stress axis : x y z
#
# Youngs Moduli (GPa) = 93.98025 77.23883 93.58631
#
# Poissons Ratio (x) = 0.21414 0.25354
# Poissons Ratio (y) = 0.26055 0.48041
# Poissons Ratio (z) = 0.25461 0.39649
#
# Static dielectric constant tensor:
#      x y z
#    x 4.141410 0.000000 -0.042520 
#    y 0.000000 4.486200 0.000000 
#    z -0.042520 0.000000 4.696620 
# 
# 
# High freq. dielectric constant tensor:
#      x y z
#    x 1.910980 0.000000 0.004090 
#    y 0.000000 1.925090 0.000000 
#    z 0.004090 0.000000 1.937460 
# 
# From -- ./inp_files/142324.got.cif
#   From: 2010.06.25/outbox.cif.g09.slc.cpg/sg15_72_cif.got.tgz:142324.got - 2010.06.28 07:06:18.
