data_PCOD8153444
_publ_section_title
;
Structure prediction by ZEFSAII (Michael W. Deem and Ramdas Pophale) SiO2 
 PCOD8153444
Probable space group: C 2/C
;
_chemical_formula_sum "Si O2"
_cell_formula_units_Z 44
_cell_length_a 7.199935
_cell_length_b 12.524253
_cell_length_c 20.031209
_cell_angle_alpha 90.000000
_cell_angle_beta 105.605862
_cell_angle_gamma 90.000000
_cell_volume 1739.701577
_symmetry_space_group_name_H-M "C 2/C"
_symmetry_group_IT_number 15
_symmetry_cell_setting 'monoclinic'
loop_
_space_group_symop_operation_xyz
x,y,z
-x,y,1/2-z
-x,-y,-z
x,-y,1/2+z
1/2+x,1/2+y,z
1/2-x,1/2+y,1/2-z
1/2-x,1/2-y,-z
1/2+x,1/2-y,1/2+z
loop_
_atom_site_type_symbol
_atom_site_label
_atom_site_fract_x
_atom_site_fract_y
_atom_site_fract_z
Si Si1 0.182283 0.551265 0.816354
Si Si2 0.000000 0.994424 0.250000
Si Si3 0.718665 0.632910 0.941277
Si Si4 0.611821 0.206159 0.928374
Si Si5 0.806944 0.913260 0.618428
Si Si6 0.121499 0.643323 0.404556
O O1 0.377073 0.571622 0.792440
O O2 0.208751 0.632173 0.881030
O O3 0.172227 0.429988 0.845480
O O4 0.000000 0.574735 0.750000
O O5 0.837715 0.067701 0.199775
O O6 0.626797 0.519428 0.914209
O O7 0.610389 0.728558 0.890353
O O8 0.940684 0.634779 0.939416
O O9 0.712666 0.638689 0.021447
O O10 0.547908 0.317401 0.887744
O O11 0.750000 0.250000 0.000000
O O12 0.583838 0.888627 0.583935
#
# Coordination Sequence:
#
# PCOD8153444 Si02
#       6
#     8   4   8   8   8   8
#     4  12  26  51  77 111 160 212 258 330 394 472
#     4  12  28  48  72 110 152 212 268 308 394 474
#     4  11  24  47  75 115 152 199 252 324 393 460
#     4  12  25  45  79 112 151 203 263 325 393 471
#     4  12  25  47  72 109 153 201 252 320 384 463
#     4  11  23  46  78 107 152 199 250 319 389 453
#
# _framework density 25.291692999999999
#
# number of rings (size 3 to 8) (size 9 to 14) (size 15 to 20)
#    0.000    0.364    5.455    2.727    3.818    0.000 
#    4.909    4.545    0.000    0.000    0.000    0.000 
#    0.000    0.000    0.000    0.000    0.000    0.000 
#
# Total GULP energy -272559.267346 kJ/mol
# GULP energy per Si atom -12389.057607 kJ/mol
# Density = 2.523413 g / cm^3
# Si number density = 25.291693 Si / 1000 Ang^3
#
#
#
# Elastic Constant Matrix: (Units=GPa)
#
#
# Indices 1 2 3 4 5 6 
#
# 1 62.1977 30.4211 27.1560 0.0000 -16.8887 0.0000
# 2 30.4211 150.9399 40.8181 0.0000 -5.8979 0.0000
# 3 27.1560 40.8181 127.9165 0.0000 -1.6613 0.0000
# 4 0.0000 0.0000 0.0000 51.6406 0.0000 -7.3139
# 5 -16.8887 -5.8979 -1.6613 0.0000 44.9775 0.0000
# 6 0.0000 0.0000 0.0000 -7.3139 0.0000 34.6932
#
#
#
# Elastic Compliance Matrix: (Units=1/GPa)
#
#
# Indices 1 2 3 4 5 6 
#
# 1 0.021053 -0.003034 -0.003405 0.000000 0.007382 0.000000
# 2 -0.003034 0.007722 -0.001823 0.000000 -0.000194 0.000000
# 3 -0.003405 -0.001823 0.009107 0.000000 -0.001181 0.000000
# 4 0.000000 0.000000 0.000000 0.019961 0.000000 0.004208
# 5 0.007382 -0.000194 -0.001181 0.000000 0.024936 0.000000
# 6 0.000000 0.000000 0.000000 0.004208 0.000000 0.029711
#
#
# Mechanical properties :
#
#
# Convention : Reuss Voigt Hill
#
# Bulk Modulus (GPa) = 46.82084 59.76049 53.29066
# Shear Modulus (GPa) = 36.72908 42.43950 39.58429
#
# Velocity S-wave (km/s) = 3.81493 4.10079 3.96044
# Velocity P-wave (km/s) = 6.16096 6.78983 6.48302
#
# Compressibility (1/GPa) = 0.02135801
#
# Stress axis : x y z
#
# Youngs Moduli (GPa) = 47.49974 129.50248 109.80825
#
# Poissons Ratio (x) = 0.39287 0.37395
# Poissons Ratio (y) = 0.14410 0.20013
# Poissons Ratio (z) = 0.16176 0.23602
#
# Static dielectric constant tensor:
#      x y z
#    x 4.409030 0.000000 0.040370 
#    y 0.000000 4.850510 0.000000 
#    z 0.040370 0.000000 4.837160 
# 
# 
# High freq. dielectric constant tensor:
#      x y z
#    x 2.005510 0.000000 0.001630 
#    y 0.000000 2.012780 0.000000 
#    z 0.001630 0.000000 2.015040 
# 
# From -- ./inp_files/230244.got.cif
#   From: 2010.06.25/outbox.cif.g09.slc.cpg/sg15_116_cif.got.tgz:230244.got - 2010.06.28 07:06:18.
