data_PCOD8153724
_publ_section_title
;
Structure prediction by ZEFSAII (Michael W. Deem and Ramdas Pophale) SiO2 
 PCOD8153724
Probable space group: C 2/C
;
_chemical_formula_sum "Si O2"
_cell_formula_units_Z 44
_cell_length_a 11.442110
_cell_length_b 9.621663
_cell_length_c 18.974408
_cell_angle_alpha 90.000000
_cell_angle_beta 109.638803
_cell_angle_gamma 90.000000
_cell_volume 1967.419812
_symmetry_space_group_name_H-M "C 2/C"
_symmetry_group_IT_number 15
_symmetry_cell_setting 'monoclinic'
loop_
_space_group_symop_operation_xyz
x,y,z
-x,y,1/2-z
-x,-y,-z
x,-y,1/2+z
1/2+x,1/2+y,z
1/2-x,1/2+y,1/2-z
1/2-x,1/2-y,-z
1/2+x,1/2-y,1/2+z
loop_
_atom_site_type_symbol
_atom_site_label
_atom_site_fract_x
_atom_site_fract_y
_atom_site_fract_z
Si Si1 0.007731 0.355459 0.406878
Si Si2 0.188523 0.487094 0.549736
Si Si3 0.000000 0.680261 0.750000
Si Si4 0.750416 0.849356 0.696825
Si Si5 0.886639 0.900720 0.279291
Si Si6 0.464354 0.530035 0.071286
O O1 0.885751 0.384834 0.429559
O O2 0.991727 0.408291 0.321815
O O3 0.123710 0.436207 0.464804
O O4 0.033274 0.192292 0.410469
O O5 0.189891 0.361455 0.606877
O O6 0.328711 0.533893 0.560980
O O7 0.116868 0.779254 0.781886
O O8 0.660318 0.757880 0.727345
O O9 0.770283 0.003580 0.732466
O O10 0.000000 0.912080 0.250000
O O11 0.930908 0.950434 0.364194
O O12 0.500000 0.500000 0.000000
#
# Coordination Sequence:
#
# PCOD8153724 Si02
#       6
#     8   8   4   8   8   8
#     4  11  24  44  71 101 136 190 228 292 347 420
#     4  11  24  46  69 100 144 180 236 286 351 417
#     4  12  22  42  76 100 136 186 234 278 362 404
#     4  12  23  46  75  99 144 186 231 294 347 421
#     4  12  25  46  70 105 142 184 237 292 352 416
#     4  12  25  43  69 101 139 186 232 288 353 416
#
# _framework density 22.364315999999999
#
# number of rings (size 3 to 8) (size 9 to 14) (size 15 to 20)
#    0.000    0.364    6.364    2.727    2.545    0.727 
#    6.545    0.000    0.000    0.000    0.000    0.000 
#    0.000    0.000    0.000    0.000    0.000    0.000 
#
# Total GULP energy -272807.413560 kJ/mol
# GULP energy per Si atom -12400.336980 kJ/mol
# Density = 2.231341 g / cm^3
# Si number density = 22.364316 Si / 1000 Ang^3
#
#
#
# Elastic Constant Matrix: (Units=GPa)
#
#
# Indices 1 2 3 4 5 6 
#
# 1 89.7085 32.2878 40.8751 0.0000 1.3839 0.0000
# 2 32.2878 60.3447 35.1893 0.0000 -6.2915 0.0000
# 3 40.8751 35.1893 169.0592 0.0000 -13.0432 0.0000
# 4 0.0000 0.0000 0.0000 31.7443 0.0000 -2.3359
# 5 1.3839 -6.2915 -13.0432 0.0000 35.5159 0.0000
# 6 0.0000 0.0000 0.0000 -2.3359 0.0000 31.4543
#
#
#
# Elastic Compliance Matrix: (Units=1/GPa)
#
#
# Indices 1 2 3 4 5 6 
#
# 1 0.014693 -0.006768 -0.002347 0.000000 -0.002633 0.000000
# 2 -0.006768 0.022111 -0.002721 0.000000 0.003181 0.000000
# 3 -0.002347 -0.002721 0.007223 0.000000 0.002262 0.000000
# 4 0.000000 0.000000 0.000000 0.031675 0.000000 0.002352
# 5 -0.002633 0.003181 0.002262 0.000000 0.029653 0.000000
# 6 0.000000 0.000000 0.000000 0.002352 0.000000 0.031967
#
#
# Mechanical properties :
#
#
# Convention : Reuss Voigt Hill
#
# Bulk Modulus (GPa) = 49.12358 59.53519 54.32939
# Shear Modulus (GPa) = 29.80133 33.79358 31.79745
#
# Velocity S-wave (km/s) = 3.65436 3.89144 3.77476
# Velocity P-wave (km/s) = 6.31020 6.84613 6.58362
#
# Compressibility (1/GPa) = 0.02035682
#
# Stress axis : x y z
#
# Youngs Moduli (GPa) = 68.05967 45.22716 138.43973
#
# Poissons Ratio (x) = 0.30607 0.32492
# Poissons Ratio (y) = 0.46059 0.37664
# Poissons Ratio (z) = 0.15974 0.12304
#
# Static dielectric constant tensor:
#      x y z
#    x 4.386300 0.000000 0.120350 
#    y 0.000000 3.926170 0.000000 
#    z 0.120350 0.000000 4.691870 
# 
# 
# High freq. dielectric constant tensor:
#      x y z
#    x 1.889150 0.000000 0.007230 
#    y 0.000000 1.853650 0.000000 
#    z 0.007230 0.000000 1.906160 
# 
# From -- ./inp_files/236077.got.cif
#   From: 2010.06.25/outbox.cif.g09.slc.cpg/sg15_119_cif.got.tgz:236077.got - 2010.06.28 07:06:18.
