data_PCOD8153030
_publ_section_title
;
Structure prediction by ZEFSAII (Michael W. Deem and Ramdas Pophale) SiO2 
 PCOD8153030
Probable space group: C 2/C
;
_chemical_formula_sum "Si O2"
_cell_formula_units_Z 40
_cell_length_a 17.373284
_cell_length_b 24.660225
_cell_length_c 9.834081
_cell_angle_alpha 90.000000
_cell_angle_beta 150.265720
_cell_angle_gamma 90.000000
_cell_volume 2089.658867
_symmetry_space_group_name_H-M "C 2/C"
_symmetry_group_IT_number 15
_symmetry_cell_setting 'monoclinic'
loop_
_space_group_symop_operation_xyz
x,y,z
-x,y,1/2-z
-x,-y,-z
x,-y,1/2+z
1/2+x,1/2+y,z
1/2-x,1/2+y,1/2-z
1/2-x,1/2-y,-z
1/2+x,1/2-y,1/2+z
loop_
_atom_site_type_symbol
_atom_site_label
_atom_site_fract_x
_atom_site_fract_y
_atom_site_fract_z
Si Si1 0.317201 0.545950 0.957396
Si Si2 0.888008 0.654995 0.463064
Si Si3 0.897882 0.640259 0.967540
Si Si4 0.825215 0.754783 0.968501
Si Si5 0.178246 0.462145 0.537803
O O1 0.241324 0.600343 0.782040
O O2 0.275444 0.497284 0.792749
O O3 0.500000 0.554715 0.250000
O O4 0.253267 0.531062 0.006284
O O5 0.757322 0.699923 0.247068
O O6 0.809772 0.599456 0.392775
O O7 0.982873 0.645344 0.472182
O O8 0.000000 0.678342 0.750000
O O9 0.818491 0.697449 0.881061
O O10 0.000000 0.618024 0.250000
O O11 0.750000 0.750000 0.000000
O O12 0.000000 0.775042 0.250000
O O13 0.000000 0.481397 0.250000
#
# Coordination Sequence:
#
# PCOD8153030 Si02
#       5
#     8   8   8   8   8
#     4  12  26  43  66 102 132 166 220 273 327 379
#     4  11  23  44  67  99 132 168 223 268 321 386
#     4  11  23  44  68  94 132 176 215 263 327 395
#     4  11  23  42  67  96 129 172 220 261 322 386
#     4  11  24  44  69  94 131 175 218 261 327 395
#
# _framework density 19.141881000000001
#
# number of rings (size 3 to 8) (size 9 to 14) (size 15 to 20)
#    0.000    0.800    8.000    1.800    2.800    4.000 
#    0.000    0.000    0.000    0.000    0.000    0.000 
#    0.000    0.000    0.000    0.000    0.000    0.000 
#
# Total GULP energy -248058.982077 kJ/mol
# GULP energy per Si atom -12402.949104 kJ/mol
# Density = 1.909831 g / cm^3
# Si number density = 19.141881 Si / 1000 Ang^3
#
#
#
# Elastic Constant Matrix: (Units=GPa)
#
#
# Indices 1 2 3 4 5 6 
#
# 1 128.6752 28.8305 85.7127 0.0000 -10.1999 0.0000
# 2 28.8305 121.4082 98.7569 0.0000 -1.9513 0.0000
# 3 85.7127 98.7569 179.1623 0.0000 6.2708 0.0000
# 4 0.0000 0.0000 0.0000 70.9899 0.0000 22.3913
# 5 -10.1999 -1.9513 6.2708 0.0000 41.2808 0.0000
# 6 0.0000 0.0000 0.0000 22.3913 0.0000 86.6260
#
#
#
# Elastic Compliance Matrix: (Units=1/GPa)
#
#
# Indices 1 2 3 4 5 6 
#
# 1 0.012937 0.003935 -0.008522 0.000000 0.004677 0.000000
# 2 0.003935 0.016289 -0.010981 0.000000 0.003410 0.000000
# 3 -0.008522 -0.010981 0.015888 0.000000 -0.005038 0.000000
# 4 0.000000 0.000000 0.000000 0.015337 0.000000 -0.003964
# 5 0.004677 0.003410 -0.005038 0.000000 0.026307 0.000000
# 6 0.000000 0.000000 0.000000 -0.003964 0.000000 0.012569
#
#
# Mechanical properties :
#
#
# Convention : Reuss Voigt Hill
#
# Bulk Modulus (GPa) = 71.53812 95.09400 83.31606
# Shear Modulus (GPa) = 37.00389 54.17570 45.58980
#
# Velocity S-wave (km/s) = 4.40152 5.32575 4.88554
# Velocity P-wave (km/s) = 7.95518 9.35973 8.68589
#
# Compressibility (1/GPa) = 0.01397856
#
# Stress axis : x y z
#
# Youngs Moduli (GPa) = 77.29603 61.39093 62.94204
#
# Poissons Ratio (x) = -0.24158 0.53640
# Poissons Ratio (y) = -0.30417 0.69115
# Poissons Ratio (z) = 0.65872 0.67412
#
# Static dielectric constant tensor:
#      x y z
#    x 3.725050 0.000000 -0.146040 
#    y 0.000000 3.220900 0.000000 
#    z -0.146040 0.000000 3.582750 
# 
# 
# High freq. dielectric constant tensor:
#      x y z
#    x 1.760640 0.000000 -0.009860 
#    y 0.000000 1.751350 0.000000 
#    z -0.009860 0.000000 1.754390 
# 
# From -- ./inp_files/52260.got.cif
#   From: 2010.06.25/outbox.cif.g09.slc.cpg/sg15_27_cif.got.tgz:52260.got - 2010.06.28 07:06:18.
