data_PCOD8153807
_publ_section_title
;
Structure prediction by ZEFSAII (Michael W. Deem and Ramdas Pophale) SiO2 
 PCOD8153807
Probable space group: C 2/C
;
_chemical_formula_sum "Si O2"
_cell_formula_units_Z 36
_cell_length_a 10.706079
_cell_length_b 26.972073
_cell_length_c 9.003316
_cell_angle_alpha 90.000000
_cell_angle_beta 42.204911
_cell_angle_gamma 90.000000
_cell_volume 1746.533714
_symmetry_space_group_name_H-M "C 2/C"
_symmetry_group_IT_number 15
_symmetry_cell_setting 'monoclinic'
loop_
_space_group_symop_operation_xyz
x,y,z
-x,y,1/2-z
-x,-y,-z
x,-y,1/2+z
1/2+x,1/2+y,z
1/2-x,1/2+y,1/2-z
1/2-x,1/2-y,-z
1/2+x,1/2-y,1/2+z
loop_
_atom_site_type_symbol
_atom_site_label
_atom_site_fract_x
_atom_site_fract_y
_atom_site_fract_z
Si Si1 0.000000 0.122136 0.250000
Si Si2 0.978937 0.942628 0.051442
Si Si3 0.792348 0.301975 0.391398
Si Si4 0.705640 0.301654 0.118992
Si Si5 0.301490 0.091958 0.480165
O O1 0.028338 0.087214 0.362986
O O2 0.821515 0.156152 0.425349
O O3 0.770367 0.927756 0.294386
O O4 0.140178 0.927515 0.019385
O O5 0.000000 0.000000 0.000000
O O6 0.750000 0.250000 0.500000
O O7 0.738233 0.296851 0.266044
O O8 0.000000 0.317097 0.250000
O O9 0.500000 0.316583 0.250000
O O10 0.750000 0.250000 0.000000
O O11 0.826815 0.348229 0.956787
O O12 0.500000 0.069788 0.250000
#
# Coordination Sequence:
#
# PCOD8153807 Si02
#       5
#     4   8   8   8   8
#     4  12  24  44  70  98 148 180 226 294 356 412
#     4  11  25  48  73  99 135 186 236 297 354 411
#     4  12  26  42  67 104 143 184 232 286 350 421
#     4  12  24  44  69 102 141 192 235 281 349 425
#     4  11  24  45  70 103 140 176 239 288 345 431
#
# _framework density 20.612255000000001
#
# number of rings (size 3 to 8) (size 9 to 14) (size 15 to 20)
#    0.000    0.444    5.556    3.333    6.222    0.889 
#    0.000    2.222    0.000    0.000    0.000    0.000 
#    0.000    0.000    0.000    0.000    0.000    0.000 
#
# Total GULP energy -223074.512625 kJ/mol
# GULP energy per Si atom -12393.028479 kJ/mol
# Density = 2.056534 g / cm^3
# Si number density = 20.612255 Si / 1000 Ang^3
#
#
#
# Elastic Constant Matrix: (Units=GPa)
#
#
# Indices 1 2 3 4 5 6 
#
# 1 124.1987 31.4398 66.6872 0.0000 5.3725 0.0000
# 2 31.4398 180.5705 70.3945 0.0000 5.3973 0.0000
# 3 66.6872 70.3945 157.9261 0.0000 -7.5148 0.0000
# 4 0.0000 0.0000 0.0000 -214.3342 0.0000 -148.1078
# 5 5.3725 5.3973 -7.5148 0.0000 42.4612 0.0000
# 6 0.0000 0.0000 0.0000 -148.1078 0.0000 -69.8293
#
#
#
# Elastic Compliance Matrix: (Units=1/GPa)
#
#
# Indices 1 2 3 4 5 6 
#
# 1 0.010604 0.000004 -0.004582 0.000000 -0.002153 0.000000
# 2 0.000004 0.006785 -0.003094 0.000000 -0.001411 0.000000
# 3 -0.004582 -0.003094 0.009774 0.000000 0.002703 0.000000
# 4 0.000000 0.000000 0.000000 0.010020 0.000000 -0.021252
# 5 -0.002153 -0.001411 0.002703 0.000000 0.024481 0.000000
# 6 0.000000 0.000000 0.000000 -0.021252 0.000000 0.030755
#
#
# Mechanical properties :
#
#
# Convention : Reuss Voigt Hill
#
# Bulk Modulus (GPa) = 84.59281 88.85979 86.72630
# Shear Modulus (GPa) = 44.76169 -28.72889 8.01640
#
# Velocity S-wave (km/s) = 4.66510 -3.73738 1.97423
# Velocity P-wave (km/s) = 8.37537 4.95779 6.88210
#
# Compressibility (1/GPa) = 0.01182134
#
# Stress axis : x y z
#
# Youngs Moduli (GPa) = 94.30424 147.37549 102.30712
#
# Poissons Ratio (x) = -0.00065 0.46879
# Poissons Ratio (y) = -0.00041 0.31649
# Poissons Ratio (z) = 0.43211 0.45591
#
# Static dielectric constant tensor:
#      x y z
#    x 3.959560 0.000000 0.462920 
#    y 0.000000 3.999760 0.000000 
#    z 0.462920 0.000000 5.116970 
# 
# 
# High freq. dielectric constant tensor:
#      x y z
#    x 1.808280 0.000000 0.006170 
#    y 0.000000 1.820980 0.000000 
#    z 0.006170 0.000000 1.821070 
# 
# From -- ./inp_files/33261.got.cif
#   From: 2010.06.25/outbox.cif.g09.slc.cpg/sg15_17_cif.got.tgz:33261.got - 2010.06.28 07:06:18.
