data_PCOD8153786
_publ_section_title
;
Structure prediction by ZEFSAII (Michael W. Deem and Ramdas Pophale) SiO2 
 PCOD8153786
Probable space group: C 2/C
;
_chemical_formula_sum "Si O2"
_cell_formula_units_Z 60
_cell_length_a 23.133006
_cell_length_b 21.881520
_cell_length_c 8.813314
_cell_angle_alpha 90.000000
_cell_angle_beta 142.181117
_cell_angle_gamma 90.000000
_cell_volume 2735.444329
_symmetry_space_group_name_H-M "C 2/C"
_symmetry_group_IT_number 15
_symmetry_cell_setting 'monoclinic'
loop_
_space_group_symop_operation_xyz
x,y,z
-x,y,1/2-z
-x,-y,-z
x,-y,1/2+z
1/2+x,1/2+y,z
1/2-x,1/2+y,1/2-z
1/2-x,1/2-y,-z
1/2+x,1/2-y,1/2+z
loop_
_atom_site_type_symbol
_atom_site_label
_atom_site_fract_x
_atom_site_fract_y
_atom_site_fract_z
Si Si1 0.757754 0.549154 0.969530
Si Si2 0.242253 0.424479 0.685205
Si Si3 0.500000 0.245069 0.250000
Si Si4 0.796565 0.216896 0.954482
Si Si5 0.654145 0.170479 0.414511
Si Si6 0.038415 0.939947 0.998288
Si Si7 0.093119 0.144697 0.108798
Si Si8 0.891912 0.323601 0.022621
O O1 0.782491 0.480421 0.975307
O O2 0.649683 0.564447 0.710667
O O3 0.773566 0.551050 0.180197
O O4 0.826160 0.597595 0.023578
O O5 0.349887 0.400203 0.886636
O O6 0.167726 0.370653 0.497110
O O7 0.552657 0.196968 0.250164
O O8 0.571687 0.289407 0.488928
O O9 0.729534 0.207188 0.671323
O O10 0.885133 0.257366 0.083889
O O11 0.750000 0.250000 0.000000
O O12 0.839555 0.153414 0.104709
O O13 0.660539 0.181535 0.248216
O O14 0.000000 0.934838 0.750000
O O15 0.004295 0.884604 0.036205
O O16 0.000000 0.000000 0.000000
O O17 0.000000 0.345446 0.250000
#
# Coordination Sequence:
#
# PCOD8153786 Si02
#       8
#     8   8   4   8   8   8   8   8
#     4  11  25  44  67  97 135 183 225 285 348 408
#     4  11  24  45  68  99 133 178 228 281 351 408
#     4  12  24  44  66 104 138 184 230 278 340 416
#     4  12  23  42  69  99 135 185 220 275 347 409
#     4  11  26  44  69 100 139 184 229 284 343 413
#     4  12  25  40  65 100 135 175 225 280 339 410
#     4  12  25  40  70 101 137 177 227 280 341 413
#     4  11  25  46  70 100 137 175 231 290 340 404
#
# _framework density 21.934279
#
# number of rings (size 3 to 8) (size 9 to 14) (size 15 to 20)
#    0.000    0.533    4.000    3.600    2.800    5.867 
#    1.200    1.333    0.000    0.000    0.000    0.000 
#    0.000    0.000    0.000    0.000    0.000    0.000 
#
# Total GULP energy -371884.674030 kJ/mol
# GULP energy per Si atom -12396.155801 kJ/mol
# Density = 2.188436 g / cm^3
# Si number density = 21.934279 Si / 1000 Ang^3
#
#
#
# Elastic Constant Matrix: (Units=GPa)
#
#
# Indices 1 2 3 4 5 6 
#
# 1 94.4733 62.4128 14.6732 0.0000 1.5243 0.0000
# 2 62.4128 124.3184 21.9754 0.0000 -0.8937 0.0000
# 3 14.6732 21.9754 79.8631 0.0000 -7.5375 0.0000
# 4 0.0000 0.0000 0.0000 34.5636 0.0000 5.0977
# 5 1.5243 -0.8937 -7.5375 0.0000 23.9592 0.0000
# 6 0.0000 0.0000 0.0000 5.0977 0.0000 51.1780
#
#
#
# Elastic Compliance Matrix: (Units=1/GPa)
#
#
# Indices 1 2 3 4 5 6 
#
# 1 0.015941 -0.007852 -0.000919 0.000000 -0.001596 0.000000
# 2 -0.007852 0.012327 -0.001916 0.000000 0.000357 0.000000
# 3 -0.000919 -0.001916 0.013621 0.000000 0.004272 0.000000
# 4 0.000000 0.000000 0.000000 0.029364 0.000000 -0.002925
# 5 -0.001596 0.000357 0.004272 0.000000 0.043196 0.000000
# 6 0.000000 0.000000 0.000000 -0.002925 0.000000 0.019831
#
#
# Mechanical properties :
#
#
# Convention : Reuss Voigt Hill
#
# Bulk Modulus (GPa) = 48.74376 55.19751 51.97064
# Shear Modulus (GPa) = 30.77097 35.24639 33.00868
#
# Velocity S-wave (km/s) = 3.74956 4.01298 3.88350
# Velocity P-wave (km/s) = 6.40441 6.83312 6.62223
#
# Compressibility (1/GPa) = 0.02051545
#
# Stress axis : x y z
#
# Youngs Moduli (GPa) = 62.73214 81.12240 73.41846
#
# Poissons Ratio (x) = 0.63697 0.06746
# Poissons Ratio (y) = 0.49257 0.14064
# Poissons Ratio (z) = 0.05764 0.15540
#
# Static dielectric constant tensor:
#      x y z
#    x 4.109760 0.000000 -0.093100 
#    y 0.000000 4.229360 0.000000 
#    z -0.093100 0.000000 4.093920 
# 
# 
# High freq. dielectric constant tensor:
#      x y z
#    x 1.867700 0.000000 -0.010880 
#    y 0.000000 1.867740 0.000000 
#    z -0.010880 0.000000 1.861200 
# 
# From -- ./inp_files/63537.got.cif
#   From: 2010.06.25/outbox.cif.g09.slc.cpg/sg15_32_cif.got.tgz:63537.got - 2010.06.28 07:06:18.
