data_PCOD8153405
_publ_section_title
;
Structure prediction by ZEFSAII (Michael W. Deem and Ramdas Pophale) SiO2 
 PCOD8153405
Probable space group: C 2/C
;
_chemical_formula_sum "Si O2"
_cell_formula_units_Z 52
_cell_length_a 8.934094
_cell_length_b 26.434063
_cell_length_c 10.934174
_cell_angle_alpha 90.000000
_cell_angle_beta 58.772287
_cell_angle_gamma 90.000000
_cell_volume 2208.127936
_symmetry_space_group_name_H-M "C 2/C"
_symmetry_group_IT_number 15
_symmetry_cell_setting 'monoclinic'
loop_
_space_group_symop_operation_xyz
x,y,z
-x,y,1/2-z
-x,-y,-z
x,-y,1/2+z
1/2+x,1/2+y,z
1/2-x,1/2+y,1/2-z
1/2-x,1/2-y,-z
1/2+x,1/2-y,1/2+z
loop_
_atom_site_type_symbol
_atom_site_label
_atom_site_fract_x
_atom_site_fract_y
_atom_site_fract_z
Si Si1 0.907948 0.161198 0.451765
Si Si2 0.871524 0.946929 0.410543
Si Si3 0.000000 0.579099 0.750000
Si Si4 0.424520 0.130364 0.530408
Si Si5 0.845834 0.052128 0.506025
Si Si6 0.165722 0.200925 0.754792
Si Si7 0.267717 0.813242 0.706484
O O1 0.847515 0.105273 0.433673
O O2 0.832362 0.171601 0.617418
O O3 0.818929 0.198025 0.389822
O O4 0.118719 0.166470 0.362188
O O5 0.699687 0.911647 0.480772
O O6 0.000000 0.927911 0.250000
O O7 0.971121 0.945560 0.497777
O O8 0.826035 0.006774 0.415716
O O9 0.994206 0.610812 0.877405
O O10 0.179918 0.546611 0.670091
O O11 0.329728 0.182960 0.605126
O O12 0.574565 0.146119 0.370001
O O13 0.161160 0.260784 0.771928
O O14 0.000000 0.182323 0.750000
#
# Coordination Sequence:
#
# PCOD8153405 Si02
#       7
#     8   8   4   8   8   8   8
#     4  11  23  46  68  98 144 182 228 294 352 410
#     4  11  24  44  71  98 138 182 229 283 360 408
#     4  12  22  42  70 102 134 184 240 274 342 422
#     4  12  23  45  72 100 140 186 230 290 343 423
#     4  11  24  44  69 102 133 184 233 285 345 424
#     4  12  25  44  72  96 140 189 235 285 354 420
#     4  11  26  41  69 107 137 182 233 295 345 409
#
# _framework density 23.549361999999999
#
# number of rings (size 3 to 8) (size 9 to 14) (size 15 to 20)
#    0.000    0.615    4.615    2.769    2.154    6.769 
#    5.538    0.000    0.000    0.000    0.000    0.000 
#    0.000    0.000    0.000    0.000    0.000    0.000 
#
# Total GULP energy -322343.721509 kJ/mol
# GULP energy per Si atom -12397.835443 kJ/mol
# Density = 2.349576 g / cm^3
# Si number density = 23.549362 Si / 1000 Ang^3
#
#
#
# Elastic Constant Matrix: (Units=GPa)
#
#
# Indices 1 2 3 4 5 6 
#
# 1 100.5878 36.9574 14.0754 0.0000 -13.6981 0.0000
# 2 36.9574 121.5529 23.3005 0.0000 -11.2402 0.0000
# 3 14.0754 23.3005 57.2393 0.0000 -24.7956 0.0000
# 4 0.0000 0.0000 0.0000 32.0434 0.0000 7.2656
# 5 -13.6981 -11.2402 -24.7956 0.0000 43.8428 0.0000
# 6 0.0000 0.0000 0.0000 7.2656 0.0000 20.9080
#
#
#
# Elastic Compliance Matrix: (Units=1/GPa)
#
#
# Indices 1 2 3 4 5 6 
#
# 1 0.011518 -0.003183 -0.000438 0.000000 0.002534 0.000000
# 2 -0.003183 0.009806 -0.003379 0.000000 -0.000391 0.000000
# 3 -0.000438 -0.003379 0.024528 0.000000 0.012869 0.000000
# 4 0.000000 0.000000 0.000000 0.033877 0.000000 -0.011772
# 5 0.002534 -0.000391 0.012869 0.000000 0.030778 0.000000
# 6 0.000000 0.000000 0.000000 -0.011772 0.000000 0.051920
#
#
# Mechanical properties :
#
#
# Convention : Reuss Voigt Hill
#
# Bulk Modulus (GPa) = 31.39579 47.56074 39.47826
# Shear Modulus (GPa) = 26.73147 33.02863 29.88005
#
# Velocity S-wave (km/s) = 3.37282 3.74910 3.56592
# Velocity P-wave (km/s) = 5.34123 6.24348 5.80989
#
# Compressibility (1/GPa) = 0.03185141
#
# Stress axis : x y z
#
# Youngs Moduli (GPa) = 86.82277 101.97602 40.76907
#
# Poissons Ratio (x) = 0.32464 0.01788
# Poissons Ratio (y) = 0.27640 0.13774
# Poissons Ratio (z) = 0.03807 0.34453
#
# Static dielectric constant tensor:
#      x y z
#    x 4.342120 0.000000 -0.305610 
#    y 0.000000 4.269730 0.000000 
#    z -0.305610 0.000000 4.133200 
# 
# 
# High freq. dielectric constant tensor:
#      x y z
#    x 1.942170 0.000000 -0.015830 
#    y 0.000000 1.928820 0.000000 
#    z -0.015830 0.000000 1.923710 
# 
# From -- ./inp_files/81182.got.cif
#   From: 2010.06.25/outbox.cif.g09.slc.cpg/sg15_41_cif.got.tgz:81182.got - 2010.06.28 07:06:18.
