data_PCOD8153909
_publ_section_title
;
Structure prediction by ZEFSAII (Michael W. Deem and Ramdas Pophale) SiO2 
 PCOD8153909
Probable space group: C 2/C
;
_chemical_formula_sum "Si O2"
_cell_formula_units_Z 36
_cell_length_a 17.141084
_cell_length_b 9.489581
_cell_length_c 11.594447
_cell_angle_alpha 90.000000
_cell_angle_beta 67.668228
_cell_angle_gamma 90.000000
_cell_volume 1744.522991
_symmetry_space_group_name_H-M "C 2/C"
_symmetry_group_IT_number 15
_symmetry_cell_setting 'monoclinic'
loop_
_space_group_symop_operation_xyz
x,y,z
-x,y,1/2-z
-x,-y,-z
x,-y,1/2+z
1/2+x,1/2+y,z
1/2-x,1/2+y,1/2-z
1/2-x,1/2-y,-z
1/2+x,1/2-y,1/2+z
loop_
_atom_site_type_symbol
_atom_site_label
_atom_site_fract_x
_atom_site_fract_y
_atom_site_fract_z
Si Si1 0.282013 0.841495 0.155826
Si Si2 0.919863 0.572959 0.098372
Si Si3 0.184266 0.201167 0.942595
Si Si4 0.500000 0.750885 0.750000
Si Si5 0.851980 0.103880 0.961960
O O1 0.227775 0.793076 0.293986
O O2 0.221968 0.901697 0.090317
O O3 0.346587 0.960061 0.162701
O O4 0.331694 0.707119 0.079148
O O5 0.891001 0.686107 0.019166
O O6 0.940792 0.648515 0.207084
O O7 0.000000 0.500000 0.000000
O O8 0.250000 0.250000 0.000000
O O9 0.140610 0.052271 0.991696
O O10 0.441195 0.650067 0.859175
#
# Coordination Sequence:
#
# PCOD8153909 Si02
#       5
#     8   8   8   4   8
#     4  11  24  46  73 103 139 189 236 288 356 422
#     4  12  26  47  69 104 140 185 235 293 348 420
#     4  12  26  45  73 106 137 186 246 285 348 430
#     4  12  26  48  70 104 150 182 232 292 366 412
#     4  11  25  46  74 100 146 188 228 296 356 416
#
# _framework density 20.636012999999998
#
# number of rings (size 3 to 8) (size 9 to 14) (size 15 to 20)
#    0.000    0.444    6.667    1.333    6.222    0.889 
#    4.000    0.000    0.000    0.000    0.000    0.000 
#    0.000    0.000    0.000    0.000    0.000    0.000 
#
# Total GULP energy -223318.406800 kJ/mol
# GULP energy per Si atom -12406.578156 kJ/mol
# Density = 2.058904 g / cm^3
# Si number density = 20.636013 Si / 1000 Ang^3
#
#
#
# Elastic Constant Matrix: (Units=GPa)
#
#
# Indices 1 2 3 4 5 6 
#
# 1 119.7274 74.5109 39.2048 0.0000 3.2139 0.0000
# 2 74.5109 160.9814 63.9508 0.0000 -4.3475 0.0000
# 3 39.2048 63.9508 124.8270 0.0000 -11.3211 0.0000
# 4 0.0000 0.0000 0.0000 16.5990 0.0000 2.5788
# 5 3.2139 -4.3475 -11.3211 0.0000 43.0834 0.0000
# 6 0.0000 0.0000 0.0000 2.5788 0.0000 54.0879
#
#
#
# Elastic Compliance Matrix: (Units=1/GPa)
#
#
# Indices 1 2 3 4 5 6 
#
# 1 0.011989 -0.005069 -0.001328 0.000000 -0.001755 0.000000
# 2 -0.005069 0.009946 -0.003460 0.000000 0.000472 0.000000
# 3 -0.001328 -0.003460 0.010427 0.000000 0.002490 0.000000
# 4 0.000000 0.000000 0.000000 0.060694 0.000000 -0.002894
# 5 -0.001755 0.000472 0.002490 0.000000 0.024044 0.000000
# 6 0.000000 0.000000 0.000000 -0.002894 0.000000 0.018626
#
#
# Mechanical properties :
#
#
# Convention : Reuss Voigt Hill
#
# Bulk Modulus (GPa) = 79.06987 84.54097 81.80542
# Shear Modulus (GPa) = 31.31763 37.94535 34.63149
#
# Velocity S-wave (km/s) = 3.89989 4.29277 4.10104
# Velocity P-wave (km/s) = 7.66019 8.10105 7.88370
#
# Compressibility (1/GPa) = 0.01264704
#
# Stress axis : x y z
#
# Youngs Moduli (GPa) = 83.41131 100.54761 95.90840
#
# Poissons Ratio (x) = 0.50968 0.12732
# Poissons Ratio (y) = 0.42282 0.33188
# Poissons Ratio (z) = 0.11073 0.34793
#
# Static dielectric constant tensor:
#      x y z
#    x 3.938590 0.000000 0.084440 
#    y 0.000000 4.002010 0.000000 
#    z 0.084440 0.000000 3.747770 
# 
# 
# High freq. dielectric constant tensor:
#      x y z
#    x 1.818120 0.000000 0.001940 
#    y 0.000000 1.825340 0.000000 
#    z 0.001940 0.000000 1.809230 
# 
# From -- ./inp_files/102450.got.cif
#   From: 2010.06.25/outbox.cif.g09.slc.cpg/sg15_52_cif.got.tgz:102450.got - 2010.06.28 07:06:18.
