data_PCOD8153665
_publ_section_title
;
Structure prediction by ZEFSAII (Michael W. Deem and Ramdas Pophale) SiO2 
 PCOD8153665
Probable space group: C 2/C
;
_chemical_formula_sum "Si O2"
_cell_formula_units_Z 48
_cell_length_a 15.791363
_cell_length_b 25.579406
_cell_length_c 8.987176
_cell_angle_alpha 90.000000
_cell_angle_beta 143.912574
_cell_angle_gamma 90.000000
_cell_volume 2138.270480
_symmetry_space_group_name_H-M "C 2/C"
_symmetry_group_IT_number 15
_symmetry_cell_setting 'monoclinic'
loop_
_space_group_symop_operation_xyz
x,y,z
-x,y,1/2-z
-x,-y,-z
x,-y,1/2+z
1/2+x,1/2+y,z
1/2-x,1/2+y,1/2-z
1/2-x,1/2-y,-z
1/2+x,1/2-y,1/2+z
loop_
_atom_site_type_symbol
_atom_site_label
_atom_site_fract_x
_atom_site_fract_y
_atom_site_fract_z
Si Si1 0.485855 0.408583 0.555226
Si Si2 0.500000 0.875647 0.750000
Si Si3 0.260692 0.041943 0.962538
Si Si4 0.000000 0.640205 0.750000
Si Si5 0.905617 0.793891 0.469917
Si Si6 0.084120 0.704455 0.606765
Si Si7 0.776507 0.438032 0.827340
O O1 0.500000 0.421901 0.750000
O O2 0.392209 0.452203 0.337547
O O3 0.411538 0.352797 0.417612
O O4 0.641700 0.407935 0.704247
O O5 0.360248 0.911422 0.549601
O O6 0.496504 0.838903 0.602982
O O7 0.323301 0.986262 0.999214
O O8 0.244035 0.041398 0.116130
O O9 0.899517 0.678368 0.706531
O O10 0.904502 0.603896 0.507096
O O11 0.740071 0.778662 0.267104
O O12 0.976626 0.754208 0.452631
O O13 0.000000 0.790019 0.750000
#
# Coordination Sequence:
#
# PCOD8153665 Si02
#       7
#     8   4   8   4   8   8   8
#     4  11  24  46  73 103 144 184 236 291 353 424
#     4  12  27  48  68 100 146 182 231 302 354 424
#     4  12  26  47  69 103 142 182 239 294 359 421
#     4  12  25  44  72 104 142 186 239 288 352 428
#     4  11  24  43  75 105 140 187 236 294 349 427
#     4  12  26  46  71 107 143 186 242 290 358 423
#     4  12  27  43  73 103 138 191 233 297 354 425
#
# _framework density 22.448048
#
# number of rings (size 3 to 8) (size 9 to 14) (size 15 to 20)
#    0.000    0.333    4.167    5.000    4.667    2.000 
#    3.000    0.000    0.000    0.000    0.000    0.000 
#    0.000    0.000    0.000    0.000    0.000    0.000 
#
# Total GULP energy -297712.376966 kJ/mol
# GULP energy per Si atom -12404.682374 kJ/mol
# Density = 2.239696 g / cm^3
# Si number density = 22.448048 Si / 1000 Ang^3
#
#
#
# Elastic Constant Matrix: (Units=GPa)
#
#
# Indices 1 2 3 4 5 6 
#
# 1 119.3840 39.3403 39.8843 0.0000 -2.0672 0.0000
# 2 39.3403 80.5668 22.7854 0.0000 3.6518 0.0000
# 3 39.8843 22.7854 90.2504 0.0000 6.6526 0.0000
# 4 0.0000 0.0000 0.0000 44.9173 0.0000 2.3108
# 5 -2.0672 3.6518 6.6526 0.0000 44.1187 0.0000
# 6 0.0000 0.0000 0.0000 2.3108 0.0000 43.2446
#
#
#
# Elastic Compliance Matrix: (Units=1/GPa)
#
#
# Indices 1 2 3 4 5 6 
#
# 1 0.011168 -0.004409 -0.003932 0.000000 0.001481 0.000000
# 2 -0.004409 0.015123 -0.001782 0.000000 -0.001190 0.000000
# 3 -0.003932 -0.001782 0.013420 0.000000 -0.002060 0.000000
# 4 0.000000 0.000000 0.000000 0.022325 0.000000 -0.001193
# 5 0.001481 -0.001190 -0.002060 0.000000 0.023145 0.000000
# 6 0.000000 0.000000 0.000000 -0.001193 0.000000 0.023188
#
#
# Mechanical properties :
#
#
# Convention : Reuss Voigt Hill
#
# Bulk Modulus (GPa) = 51.37204 54.91347 53.14276
# Shear Modulus (GPa) = 37.00936 39.00219 38.00577
#
# Velocity S-wave (km/s) = 4.06478 4.17279 4.11914
# Velocity P-wave (km/s) = 6.70556 6.90882 6.80795
#
# Compressibility (1/GPa) = 0.01946584
#
# Stress axis : x y z
#
# Youngs Moduli (GPa) = 89.53953 66.12599 74.51783
#
# Poissons Ratio (x) = 0.29152 0.29298
# Poissons Ratio (y) = 0.39474 0.13279
# Poissons Ratio (z) = 0.35205 0.11784
#
# Static dielectric constant tensor:
#      x y z
#    x 4.066150 0.000000 -0.010770 
#    y 0.000000 4.337230 0.000000 
#    z -0.010770 0.000000 4.039690 
# 
# 
# High freq. dielectric constant tensor:
#      x y z
#    x 1.888370 0.000000 0.006120 
#    y 0.000000 1.902020 0.000000 
#    z 0.006120 0.000000 1.880990 
# 
# From -- ./inp_files/43870.got.cif
#   From: 2010.06.25/outbox.cif.g09.slc.cpg/sg15_22_cif.got.tgz:43870.got - 2010.06.28 07:06:18.
