data_PCOD8153616
_publ_section_title
;
Structure prediction by ZEFSAII (Michael W. Deem and Ramdas Pophale) SiO2 
 PCOD8153616
Probable space group: C 2/C
;
_chemical_formula_sum "Si O2"
_cell_formula_units_Z 48
_cell_length_a 14.474805
_cell_length_b 28.212080
_cell_length_c 15.060867
_cell_angle_alpha 90.000000
_cell_angle_beta 160.034267
_cell_angle_gamma 90.000000
_cell_volume 2100.076880
_symmetry_space_group_name_H-M "C 2/C"
_symmetry_group_IT_number 15
_symmetry_cell_setting 'monoclinic'
loop_
_space_group_symop_operation_xyz
x,y,z
-x,y,1/2-z
-x,-y,-z
x,-y,1/2+z
1/2+x,1/2+y,z
1/2-x,1/2+y,1/2-z
1/2-x,1/2-y,-z
1/2+x,1/2-y,1/2+z
loop_
_atom_site_type_symbol
_atom_site_label
_atom_site_fract_x
_atom_site_fract_y
_atom_site_fract_z
Si Si1 0.757614 0.328978 0.822024
Si Si2 0.000000 0.454820 0.750000
Si Si3 0.202274 0.512254 0.762298
Si Si4 0.000000 0.218462 0.250000
Si Si5 0.214855 0.117317 0.689933
Si Si6 0.078028 0.720929 0.194417
Si Si7 0.252631 0.130327 0.930364
O O1 0.564879 0.314723 0.726872
O O2 0.584372 0.368661 0.613358
O O3 0.821561 0.284295 0.816236
O O4 0.044070 0.347035 0.118884
O O5 0.135108 0.486846 0.795129
O O6 0.789802 0.419504 0.513865
O O7 0.195865 0.568185 0.773336
O O8 0.000000 0.500000 0.500000
O O9 0.500000 0.500000 0.000000
O O10 0.250000 0.250000 0.500000
O O11 0.191793 0.116297 0.774862
O O12 0.322371 0.743558 0.471045
O O13 0.001273 0.668126 0.160698
O O14 0.000000 0.155673 0.750000
#
# Coordination Sequence:
#
# PCOD8153616 Si02
#       7
#     8   4   8   4   8   8   8
#     4  11  24  43  72 100 141 183 232 287 362 423
#     4  12  28  46  77 106 142 198 245 298 364 444
#     4  12  26  47  74 107 146 184 244 297 363 436
#     4  12  24  42  71 104 140 182 241 296 348 430
#     4  11  24  46  71 100 143 185 226 297 357 425
#     4  11  24  43  66  97 138 183 230 285 347 411
#     4  11  26  43  72 100 141 188 244 286 359 426
#
# _framework density 22.856306
#
# number of rings (size 3 to 8) (size 9 to 14) (size 15 to 20)
#    0.000    0.667    1.667    6.000    9.333    2.000 
#    0.000    0.000    0.000    0.000    0.000    0.000 
#    0.000    0.000    0.000    0.000    0.000    0.000 
#
# Total GULP energy -297551.011779 kJ/mol
# GULP energy per Si atom -12397.958824 kJ/mol
# Density = 2.280428 g / cm^3
# Si number density = 22.856306 Si / 1000 Ang^3
#
#
#
# Elastic Constant Matrix: (Units=GPa)
#
#
# Indices 1 2 3 4 5 6 
#
# 1 177.9281 56.2182 38.5629 0.0046 9.8326 0.0006
# 2 56.2182 110.6464 26.5230 -0.0054 2.2297 -0.0074
# 3 38.5629 26.5230 118.5008 0.0191 15.8616 -0.0063
# 4 0.0046 -0.0054 0.0191 30.9599 0.0067 -10.7080
# 5 9.8326 2.2297 15.8616 0.0067 32.6259 0.0006
# 6 0.0006 -0.0074 -0.0063 -10.7080 0.0006 0.4199
#
#
#
# Elastic Compliance Matrix: (Units=1/GPa)
#
#
# Indices 1 2 3 4 5 6 
#
# 1 0.007001 -0.003197 -0.001401 0.000004 -0.001210 0.000013
# 2 -0.003197 0.011015 -0.001554 -0.000008 0.000966 -0.000033
# 3 -0.001401 -0.001554 0.009810 -0.000005 -0.004241 0.000001
# 4 0.000004 -0.000008 -0.000005 -0.004131 0.000005 -0.105331
# 5 -0.001210 0.000966 -0.004241 0.000005 0.033011 0.000025
# 6 0.000013 -0.000033 0.000001 -0.105331 0.000025 -0.304544
#
#
# Mechanical properties :
#
#
# Convention : Reuss Voigt Hill
#
# Bulk Modulus (GPa) = 64.42396 72.18708 68.30552
# Shear Modulus (GPa) = -21.70526 31.85257 5.07366
#
# Velocity S-wave (km/s) = -3.08497 3.73715 1.49152
# Velocity P-wave (km/s) = 3.94441 7.09036 5.73723
#
# Compressibility (1/GPa) = 0.01552217
#
# Stress axis : x y z
#
# Youngs Moduli (GPa) = 142.84093 90.78332 101.93505
#
# Poissons Ratio (x) = 0.29022 0.14278
# Poissons Ratio (y) = 0.45665 0.15845
# Poissons Ratio (z) = 0.20007 0.14112
#
# Static dielectric constant tensor:
#      x y z
#    x 4.404810 -0.001040 -0.043430 
#    y -0.001040 4.257100 0.000580 
#    z -0.043430 0.000580 4.266380 
# 
# 
# High freq. dielectric constant tensor:
#      x y z
#    x 1.912430 0.000000 0.008300 
#    y 0.000000 1.904100 0.000000 
#    z 0.008300 0.000000 1.916670 
# 
# From -- ./inp_files/157763.got.cif
#   From: 2010.06.25/outbox.cif.g09.slc.cpg/sg15_79_cif.got.tgz:157763.got - 2010.06.28 07:06:18.
