data_PCOD8153154
_publ_section_title
;
Structure prediction by ZEFSAII (Michael W. Deem and Ramdas Pophale) SiO2 
 PCOD8153154
Probable space group: C 2/C
;
_chemical_formula_sum "Si O2"
_cell_formula_units_Z 60
_cell_length_a 23.770606
_cell_length_b 9.111462
_cell_length_c 26.188385
_cell_angle_alpha 90.000000
_cell_angle_beta 30.668893
_cell_angle_gamma 90.000000
_cell_volume 2893.156581
_symmetry_space_group_name_H-M "C 2/C"
_symmetry_group_IT_number 15
_symmetry_cell_setting 'monoclinic'
loop_
_space_group_symop_operation_xyz
x,y,z
-x,y,1/2-z
-x,-y,-z
x,-y,1/2+z
1/2+x,1/2+y,z
1/2-x,1/2+y,1/2-z
1/2-x,1/2-y,-z
1/2+x,1/2-y,1/2+z
loop_
_atom_site_type_symbol
_atom_site_label
_atom_site_fract_x
_atom_site_fract_y
_atom_site_fract_z
Si Si1 0.406492 0.558107 0.459307
Si Si2 0.281997 0.565149 0.654472
Si Si3 0.500000 0.030451 0.750000
Si Si4 0.473404 0.055072 0.464191
Si Si5 0.913397 0.161725 0.648954
Si Si6 0.255412 0.240918 0.643045
Si Si7 0.960395 0.337512 0.171623
Si Si8 0.279656 0.870596 0.935981
O O1 0.340969 0.629534 0.557873
O O2 0.471149 0.417340 0.430437
O O3 0.491251 0.672705 0.368212
O O4 0.315327 0.496930 0.490321
O O5 0.357451 0.596164 0.643290
O O6 0.275950 0.388981 0.658859
O O7 0.164734 0.648271 0.751107
O O8 0.399592 0.938483 0.852526
O O9 0.540078 0.121750 0.768005
O O10 0.569433 0.165411 0.372490
O O11 0.360165 0.140398 0.554552
O O12 0.500000 0.000000 0.500000
O O13 0.465744 0.932635 0.425524
O O14 0.834472 0.139857 0.758937
O O15 0.206362 0.287446 0.627757
O O16 0.250000 0.750000 0.000000
#
# Coordination Sequence:
#
# PCOD8153154 Si02
#       8
#     8   8   4   8   8   8   8   8
#     4  11  26  46  69 104 137 181 233 285 350 420
#     4  11  23  43  68  99 142 185 222 281 351 416
#     4  12  24  48  74  96 142 184 226 304 344 410
#     4  12  24  41  70 106 138 182 231 284 346 423
#     4  12  24  40  70  99 142 181 228 281 342 422
#     4  11  24  43  64 105 132 176 240 275 340 421
#     4  12  26  46  70 101 144 179 233 288 358 408
#     4  11  24  47  76  99 133 182 236 290 349 406
#
# _framework density 20.738595
#
# number of rings (size 3 to 8) (size 9 to 14) (size 15 to 20)
#    0.000    0.533    6.667    2.800    5.600    1.600 
#    2.400    0.000    0.000    0.000    0.000    0.000 
#    0.000    0.000    0.000    0.000    0.000    0.000 
#
# Total GULP energy -371970.478402 kJ/mol
# GULP energy per Si atom -12399.015947 kJ/mol
# Density = 2.069139 g / cm^3
# Si number density = 20.738595 Si / 1000 Ang^3
#
#
#
# Elastic Constant Matrix: (Units=GPa)
#
#
# Indices 1 2 3 4 5 6 
#
# 1 54.3895 17.7830 -8.7333 -0.0034 -1.0635 0.0044
# 2 17.7830 79.3592 23.0978 -0.0058 3.9585 0.0136
# 3 -8.7333 23.0978 78.9645 -0.0016 -5.0078 -0.0007
# 4 -0.0034 -0.0058 -0.0016 34.4940 0.0018 18.4707
# 5 -1.0635 3.9585 -5.0078 0.0018 40.5440 -0.0045
# 6 0.0044 0.0136 -0.0007 18.4707 -0.0045 12.0022
#
#
#
# Elastic Compliance Matrix: (Units=1/GPa)
#
#
# Indices 1 2 3 4 5 6 
#
# 1 0.021062 -0.006024 0.004197 0.000006 0.001659 -0.000010
# 2 -0.006024 0.015637 -0.005389 0.000062 -0.002350 -0.000112
# 3 0.004197 -0.005389 0.014861 -0.000019 0.002472 0.000036
# 4 0.000006 0.000062 -0.000019 0.164783 -0.000044 -0.253591
# 5 0.001659 -0.002350 0.002472 -0.000044 0.025243 0.000079
# 6 -0.000010 -0.000112 0.000036 -0.253591 0.000079 0.473581
#
#
# Mechanical properties :
#
#
# Convention : Reuss Voigt Hill
#
# Bulk Modulus (GPa) = 26.93467 30.77869 28.85668
# Shear Modulus (GPa) = 6.73878 29.44577 18.09228
#
# Velocity S-wave (km/s) = 1.80456 3.77218 2.95684
# Velocity P-wave (km/s) = 4.16627 5.81773 5.05983
#
# Compressibility (1/GPa) = 0.03712687
#
# Stress axis : x y z
#
# Youngs Moduli (GPa) = 47.47964 63.95285 67.28950
#
# Poissons Ratio (x) = 0.38523 -0.28238
# Poissons Ratio (y) = 0.28600 0.36263
# Poissons Ratio (z) = -0.19925 0.34465
#
# Static dielectric constant tensor:
#      x y z
#    x 3.907530 0.000000 -0.014870 
#    y 0.000000 3.718160 0.000010 
#    z -0.014870 0.000010 3.985290 
# 
# 
# High freq. dielectric constant tensor:
#      x y z
#    x 1.812030 0.000000 -0.001070 
#    y 0.000000 1.804200 0.000000 
#    z -0.001070 0.000000 1.834420 
# 
# From -- ./inp_files/302044.got.cif
#   From: 2010.06.25/outbox.cif.g09.slc.cpg/sg15_152_cif.got.tgz:302044.got - 2010.06.28 07:06:18.
