data_PCOD8153767
_publ_section_title
;
Structure prediction by ZEFSAII (Michael W. Deem and Ramdas Pophale) SiO2 
 PCOD8153767
Probable space group: C 2/C
;
_chemical_formula_sum "Si O2"
_cell_formula_units_Z 32
_cell_length_a 11.658319
_cell_length_b 8.016463
_cell_length_c 14.455878
_cell_angle_alpha 90.000000
_cell_angle_beta 71.695191
_cell_angle_gamma 90.000000
_cell_volume 1282.661402
_symmetry_space_group_name_H-M "C 2/C"
_symmetry_group_IT_number 15
_symmetry_cell_setting 'monoclinic'
loop_
_space_group_symop_operation_xyz
x,y,z
-x,y,1/2-z
-x,-y,-z
x,-y,1/2+z
1/2+x,1/2+y,z
1/2-x,1/2+y,1/2-z
1/2-x,1/2-y,-z
1/2+x,1/2-y,1/2+z
loop_
_atom_site_type_symbol
_atom_site_label
_atom_site_fract_x
_atom_site_fract_y
_atom_site_fract_z
Si Si1 0.369841 0.919805 0.315039
Si Si2 0.148536 0.296281 0.812369
Si Si3 0.823628 0.468433 0.027560
Si Si4 0.564837 0.373681 0.052601
O O1 0.500000 0.852615 0.250000
O O2 0.272456 0.800791 0.292948
O O3 0.348805 0.110532 0.286636
O O4 0.357806 0.924249 0.428208
O O5 0.033376 0.174113 0.844736
O O6 0.125344 0.433164 0.897944
O O7 0.883995 0.286639 0.015368
O O8 0.678088 0.461838 0.073657
O O9 0.500000 0.500000 0.000000
#
# Coordination Sequence:
#
# PCOD8153767 Si02
#       4
#     8   8   8   8
#     4  12  28  45  71 108 144 187 242 299 361 424
#     4  12  28  45  72 104 146 189 242 298 358 429
#     4  11  26  48  74 101 145 187 240 296 357 434
#     4  11  24  44  77 102 137 189 240 286 369 420
#
# _framework density 24.948126999999999
#
# number of rings (size 3 to 8) (size 9 to 14) (size 15 to 20)
#    0.000    0.500    5.000    1.500    7.000    2.000 
#    0.000    0.000    0.000    0.000    0.000    0.000 
#    0.000    0.000    0.000    0.000    0.000    0.000 
#
# Total GULP energy -198509.146275 kJ/mol
# GULP energy per Si atom -12406.821642 kJ/mol
# Density = 2.489134 g / cm^3
# Si number density = 24.948127 Si / 1000 Ang^3
#
#
#
# Elastic Constant Matrix: (Units=GPa)
#
#
# Indices 1 2 3 4 5 6 
#
# 1 143.7627 20.2912 16.3161 0.0000 -42.5859 0.0000
# 2 20.2912 44.3485 5.5945 0.0000 -18.9464 0.0000
# 3 16.3161 5.5945 63.3253 0.0000 -22.2771 0.0000
# 4 0.0000 0.0000 0.0000 37.2019 0.0000 -1.2789
# 5 -42.5859 -18.9464 -22.2771 0.0000 35.1287 0.0000
# 6 0.0000 0.0000 0.0000 -1.2789 0.0000 61.5402
#
#
#
# Elastic Compliance Matrix: (Units=1/GPa)
#
#
# Indices 1 2 3 4 5 6 
#
# 1 0.011196 0.001370 0.002612 0.000000 0.015968 0.000000
# 2 0.001370 0.030205 0.004239 0.000000 0.020639 0.000000
# 3 0.002612 0.004239 0.021447 0.000000 0.019053 0.000000
# 4 0.000000 0.000000 0.000000 0.026900 0.000000 0.000559
# 5 0.015968 0.020639 0.019053 0.000000 0.071039 0.000000
# 6 0.000000 0.000000 0.000000 0.000559 0.000000 0.016261
#
#
# Mechanical properties :
#
#
# Convention : Reuss Voigt Hill
#
# Bulk Modulus (GPa) = 12.61215 37.31556 24.96386
# Shear Modulus (GPa) = 26.73287 40.72313 33.72800
#
# Velocity S-wave (km/s) = 3.27699 4.04457 3.68084
# Velocity P-wave (km/s) = 4.40278 6.06639 5.30027
#
# Compressibility (1/GPa) = 0.07928862
#
# Stress axis : x y z
#
# Youngs Moduli (GPa) = 89.31559 33.10741 46.62716
#
# Poissons Ratio (x) = -0.04534 -0.12177
# Poissons Ratio (y) = -0.12232 -0.19767
# Poissons Ratio (z) = -0.23325 -0.14036
#
# Static dielectric constant tensor:
#      x y z
#    x 4.963780 0.000000 -0.312440 
#    y 0.000000 4.656550 0.000000 
#    z -0.312440 0.000000 4.432120 
# 
# 
# High freq. dielectric constant tensor:
#      x y z
#    x 2.024530 0.000000 -0.011660 
#    y 0.000000 1.990310 0.000000 
#    z -0.011660 0.000000 1.985390 
# 
# From -- ./inp_files/140552.got.cif
#   From: 2010.06.25/outbox.cif.g09.slc.cpg/sg15_71_cif.got.tgz:140552.got - 2010.06.28 07:06:18.
