data_PCOD8153448
_publ_section_title
;
Structure prediction by ZEFSAII (Michael W. Deem and Ramdas Pophale) SiO2 
 PCOD8153448
Probable space group: C 2/C
;
_chemical_formula_sum "Si O2"
_cell_formula_units_Z 44
_cell_length_a 5.354673
_cell_length_b 31.577390
_cell_length_c 11.449686
_cell_angle_alpha 90.000000
_cell_angle_beta 85.810347
_cell_angle_gamma 90.000000
_cell_volume 1930.814883
_symmetry_space_group_name_H-M "C 2/C"
_symmetry_group_IT_number 15
_symmetry_cell_setting 'monoclinic'
loop_
_space_group_symop_operation_xyz
x,y,z
-x,y,1/2-z
-x,-y,-z
x,-y,1/2+z
1/2+x,1/2+y,z
1/2-x,1/2+y,1/2-z
1/2-x,1/2-y,-z
1/2+x,1/2-y,1/2+z
loop_
_atom_site_type_symbol
_atom_site_label
_atom_site_fract_x
_atom_site_fract_y
_atom_site_fract_z
Si Si1 0.261737 0.251884 0.679618
Si Si2 0.767090 0.678557 0.515786
Si Si3 0.500000 0.412336 0.750000
Si Si4 0.546885 0.944861 0.116884
Si Si5 0.219409 0.873232 0.525666
Si Si6 0.288750 0.528952 0.060551
O O1 0.500000 0.262422 0.750000
O O2 0.269594 0.285678 0.577836
O O3 0.280903 0.203091 0.638136
O O4 0.000000 0.259163 0.750000
O O5 0.520940 0.649708 0.520364
O O6 0.024479 0.652856 0.493368
O O7 0.681911 0.383035 0.665070
O O8 0.652279 0.441655 0.832450
O O9 0.500000 0.928063 0.250000
O O10 0.590947 0.995283 0.118428
O O11 0.765824 0.916894 0.049680
O O12 0.309130 0.939915 0.038675
O O13 0.500000 0.500000 0.000000
#
# Coordination Sequence:
#
# PCOD8153448 Si02
#       6
#     8   8   4   8   8   8
#     4  11  24  47  80 107 141 199 230 289 357 441
#     4  11  27  48  70 112 150 179 249 285 363 445
#     4  12  26  46  74 102 146 186 250 304 370 430
#     4  11  26  44  69 100 143 193 250 303 372 434
#     4  12  27  46  72 110 149 197 234 315 370 425
#     4  11  23  47  68 100 136 195 248 307 365 434
#
# _framework density 22.788305000000001
#
# number of rings (size 3 to 8) (size 9 to 14) (size 15 to 20)
#    0.000    0.727    1.818    4.364    6.364    6.545 
#    0.000    1.818    0.000    0.000    0.000    0.000 
#    0.000    0.000    0.000    0.000    0.000    0.000 
#
# Total GULP energy -272714.398212 kJ/mol
# GULP energy per Si atom -12396.109010 kJ/mol
# Density = 2.273644 g / cm^3
# Si number density = 22.788305 Si / 1000 Ang^3
#
#
#
# Elastic Constant Matrix: (Units=GPa)
#
#
# Indices 1 2 3 4 5 6 
#
# 1 145.0362 35.3591 20.2077 0.0000 6.0978 0.0000
# 2 35.3591 88.7918 6.9384 0.0000 8.0111 0.0000
# 3 20.2077 6.9384 95.7943 0.0000 7.3080 0.0000
# 4 0.0000 0.0000 0.0000 40.1219 0.0000 -4.1224
# 5 6.0978 8.0111 7.3080 0.0000 36.0656 0.0000
# 6 0.0000 0.0000 0.0000 -4.1224 0.0000 49.5964
#
#
#
# Elastic Compliance Matrix: (Units=1/GPa)
#
#
# Indices 1 2 3 4 5 6 
#
# 1 0.007832 -0.002975 -0.001408 0.000000 -0.000378 0.000000
# 2 -0.002975 0.012662 -0.000115 0.000000 -0.002286 0.000000
# 3 -0.001408 -0.000115 0.010893 0.000000 -0.001944 0.000000
# 4 0.000000 0.000000 0.000000 0.025139 0.000000 0.002089
# 5 -0.000378 -0.002286 -0.001944 0.000000 0.028693 0.000000
# 6 0.000000 0.000000 0.000000 0.002089 0.000000 0.020336
#
#
# Mechanical properties :
#
#
# Convention : Reuss Voigt Hill
#
# Bulk Modulus (GPa) = 44.66022 50.51472 47.58747
# Shear Modulus (GPa) = 40.97872 42.96457 41.97164
#
# Velocity S-wave (km/s) = 4.24516 4.34680 4.29628
# Velocity P-wave (km/s) = 6.60825 6.88535 6.74822
#
# Compressibility (1/GPa) = 0.02239129
#
# Stress axis : x y z
#
# Youngs Moduli (GPa) = 127.67917 78.97503 91.80516
#
# Poissons Ratio (x) = 0.23494 0.12925
# Poissons Ratio (y) = 0.37982 0.01057
# Poissons Ratio (z) = 0.17975 0.00910
#
# Static dielectric constant tensor:
#      x y z
#    x 4.153380 0.000000 0.026920 
#    y 0.000000 4.761860 0.000000 
#    z 0.026920 0.000000 4.305680 
# 
# 
# High freq. dielectric constant tensor:
#      x y z
#    x 1.908860 0.000000 0.000550 
#    y 0.000000 1.917110 0.000000 
#    z 0.000550 0.000000 1.904420 
# 
# From -- ./inp_files/73839.got.cif
#   From: 2010.06.25/outbox.cif.g09.slc.cpg/sg15_37_cif.got.tgz:73839.got - 2010.06.28 07:06:18.
