data_PCOD8153570
_publ_section_title
;
Structure prediction by ZEFSAII (Michael W. Deem and Ramdas Pophale) SiO2 
 PCOD8153570
Probable space group: C 2/C
;
_chemical_formula_sum "Si O2"
_cell_formula_units_Z 32
_cell_length_a 24.993886
_cell_length_b 6.277656
_cell_length_c 22.465384
_cell_angle_alpha 90.000000
_cell_angle_beta 156.052470
_cell_angle_gamma 90.000000
_cell_volume 1430.751001
_symmetry_space_group_name_H-M "C 2/C"
_symmetry_group_IT_number 15
_symmetry_cell_setting 'monoclinic'
loop_
_space_group_symop_operation_xyz
x,y,z
-x,y,1/2-z
-x,-y,-z
x,-y,1/2+z
1/2+x,1/2+y,z
1/2-x,1/2+y,1/2-z
1/2-x,1/2-y,-z
1/2+x,1/2-y,1/2+z
loop_
_atom_site_type_symbol
_atom_site_label
_atom_site_fract_x
_atom_site_fract_y
_atom_site_fract_z
Si Si1 0.863130 0.914987 0.931969
Si Si2 0.657642 0.562715 0.719614
Si Si3 0.648155 0.056281 0.397931
Si Si4 0.247541 0.237624 0.594999
O O1 0.810890 0.006995 0.816493
O O2 0.859185 0.095193 0.978603
O O3 0.768542 0.723619 0.856037
O O4 0.012901 0.831461 0.078006
O O5 0.659646 0.352224 0.762228
O O6 0.500000 0.150511 0.250000
O O7 0.750000 0.250000 0.500000
O O8 0.660995 0.911696 0.352453
O O9 0.670219 0.910895 0.477875
#
# Coordination Sequence:
#
# PCOD8153570 Si02
#       4
#     8   8   8   8
#     4  11  24  42  66  98 136 178 221 268 327 395
#     4  11  24  42  66  98 136 178 221 268 327 395
#     4  11  26  46  71  99 133 175 225 281 334 392
#     4  11  24  44  70 100 134 175 224 276 332 391
#
# _framework density 22.365877999999999
#
# number of rings (size 3 to 8) (size 9 to 14) (size 15 to 20)
#    0.000    1.000    2.500    3.000    0.000   15.000 
#    0.000    0.000    0.000    0.000    0.000    0.000 
#    0.000    0.000    0.000    0.000    0.000    0.000 
#
# Total GULP energy -198480.046527 kJ/mol
# GULP energy per Si atom -12405.002908 kJ/mol
# Density = 2.231497 g / cm^3
# Si number density = 22.365878 Si / 1000 Ang^3
#
#
#
# Elastic Constant Matrix: (Units=GPa)
#
#
# Indices 1 2 3 4 5 6 
#
# 1 131.7040 64.1525 60.8028 0.0003 -9.5599 0.0004
# 2 64.1525 120.9461 49.3685 -0.0050 14.8358 -0.0021
# 3 60.8028 49.3685 91.0542 -0.0003 35.3546 0.0006
# 4 0.0003 -0.0050 -0.0003 38.4621 -0.0001 -4.0126
# 5 -9.5599 14.8358 35.3546 -0.0001 40.2170 -0.0004
# 6 0.0004 -0.0021 0.0006 -4.0126 -0.0004 43.0014
#
#
#
# Elastic Compliance Matrix: (Units=1/GPa)
#
#
# Indices 1 2 3 4 5 6 
#
# 1 0.023545 -0.006489 -0.023240 -0.000001 0.028421 0.000000
# 2 -0.006489 0.012487 -0.000075 0.000002 -0.006083 0.000001
# 3 -0.023240 -0.000075 0.043537 0.000000 -0.043769 -0.000001
# 4 -0.000001 0.000002 0.000000 0.026255 -0.000001 0.002450
# 5 0.028421 -0.006083 -0.043769 -0.000001 0.072342 0.000001
# 6 0.000000 0.000001 -0.000001 0.002450 0.000001 0.023484
#
#
# Mechanical properties :
#
#
# Convention : Reuss Voigt Hill
#
# Bulk Modulus (GPa) = 50.09761 76.92799 63.51280
# Shear Modulus (GPa) = 18.66283 35.62814 27.14549
#
# Velocity S-wave (km/s) = 2.89179 3.99553 3.48760
# Velocity P-wave (km/s) = 5.79635 7.46697 6.68406
#
# Compressibility (1/GPa) = 0.01996103
#
# Stress axis : x y z
#
# Youngs Moduli (GPa) = 42.47105 80.08334 22.96910
#
# Poissons Ratio (x) = 0.51967 0.53379
# Poissons Ratio (y) = 0.27560 0.00173
# Poissons Ratio (z) = 0.98701 0.00603
#
# Static dielectric constant tensor:
#      x y z
#    x 4.225100 0.000000 -0.192680 
#    y 0.000000 3.965540 0.000000 
#    z -0.192680 0.000000 3.808560 
# 
# 
# High freq. dielectric constant tensor:
#      x y z
#    x 1.903020 0.000000 -0.009280 
#    y 0.000000 1.876640 0.000000 
#    z -0.009280 0.000000 1.875670 
# 
# From -- ./inp_files/254551.got.cif
#   From: 2010.06.25/outbox.cif.g09.slc.cpg/sg15_128_cif.got.tgz:254551.got - 2010.06.28 07:06:18.
