data_PCOD8153190
_publ_section_title
;
Structure prediction by ZEFSAII (Michael W. Deem and Ramdas Pophale) SiO2 
 PCOD8153190
Probable space group: C 2/C
;
_chemical_formula_sum "Si O2"
_cell_formula_units_Z 56
_cell_length_a 8.963604
_cell_length_b 11.744718
_cell_length_c 28.264880
_cell_angle_alpha 90.000000
_cell_angle_beta 122.953037
_cell_angle_gamma 90.000000
_cell_volume 2496.863312
_symmetry_space_group_name_H-M "C 2/C"
_symmetry_group_IT_number 15
_symmetry_cell_setting 'monoclinic'
loop_
_space_group_symop_operation_xyz
x,y,z
-x,y,1/2-z
-x,-y,-z
x,-y,1/2+z
1/2+x,1/2+y,z
1/2-x,1/2+y,1/2-z
1/2-x,1/2-y,-z
1/2+x,1/2-y,1/2+z
loop_
_atom_site_type_symbol
_atom_site_label
_atom_site_fract_x
_atom_site_fract_y
_atom_site_fract_z
Si Si1 0.482143 0.942397 0.815090
Si Si2 0.588809 0.710892 0.579933
Si Si3 0.786168 0.120915 0.993342
Si Si4 0.410743 0.517994 0.598753
Si Si5 0.456824 0.958287 0.921190
Si Si6 0.791218 0.877594 0.807163
Si Si7 0.039049 0.704132 0.809342
O O1 0.460589 0.930232 0.866718
O O2 0.648282 0.866867 0.824978
O O3 0.302614 0.902658 0.758981
O O4 0.524112 0.069926 0.807351
O O5 0.625816 0.623119 0.543301
O O6 0.445198 0.647777 0.588205
O O7 0.516261 0.833972 0.549290
O O8 0.766073 0.740616 0.639950
O O9 0.609998 0.043580 0.963470
O O10 0.750000 0.250000 0.000000
O O11 0.915823 0.067878 0.054805
O O12 0.227143 0.515822 0.595457
O O13 0.571248 0.480516 0.660361
O O14 0.897051 0.758704 0.821225
O O15 0.000000 0.750621 0.750000
#
# Coordination Sequence:
#
# PCOD8153190 Si02
#       7
#     8   8   8   8   8   8   8
#     4  11  24  45  71 103 144 181 240 288 353 433
#     4  12  25  47  71 102 142 191 232 296 358 422
#     4  12  25  49  73  99 148 189 234 296 359 418
#     4  12  25  44  73 107 140 185 239 290 358 426
#     4  12  26  46  71 108 140 184 242 295 354 425
#     4  11  23  43  72 104 136 190 231 283 360 421
#     4  12  21  43  74  97 143 187 227 297 355 413
#
# _framework density 22.428139999999999
#
# number of rings (size 3 to 8) (size 9 to 14) (size 15 to 20)
#    0.000    0.286    7.143    1.714    0.000    1.714 
#    2.571    1.429    0.000    0.000    0.000    0.000 
#    0.000    0.000    0.000    0.000    0.000    0.000 
#
# Total GULP energy -347285.621701 kJ/mol
# GULP energy per Si atom -12403.057918 kJ/mol
# Density = 2.237709 g / cm^3
# Si number density = 22.428140 Si / 1000 Ang^3
#
#
#
# Elastic Constant Matrix: (Units=GPa)
#
#
# Indices 1 2 3 4 5 6 
#
# 1 134.1168 57.9329 31.7196 0.0000 -4.3138 0.0000
# 2 57.9329 111.6902 19.9165 0.0000 13.1919 0.0000
# 3 31.7196 19.9165 81.0615 0.0000 -2.6694 0.0000
# 4 0.0000 0.0000 0.0000 30.0745 0.0000 6.5960
# 5 -4.3138 13.1919 -2.6694 0.0000 25.4595 0.0000
# 6 0.0000 0.0000 0.0000 6.5960 0.0000 47.1010
#
#
#
# Elastic Compliance Matrix: (Units=1/GPa)
#
#
# Indices 1 2 3 4 5 6 
#
# 1 0.010625 -0.005559 -0.002647 0.000000 0.004403 0.000000
# 2 -0.005559 0.012985 -0.001272 0.000000 -0.007804 0.000000
# 3 -0.002647 -0.001272 0.013739 0.000000 0.001651 0.000000
# 4 0.000000 0.000000 0.000000 0.034304 0.000000 -0.004804
# 5 0.004403 -0.007804 0.001651 0.000000 0.044241 0.000000
# 6 0.000000 0.000000 0.000000 -0.004804 0.000000 0.021904
#
#
# Mechanical properties :
#
#
# Convention : Reuss Voigt Hill
#
# Bulk Modulus (GPa) = 54.36781 60.66741 57.51761
# Shear Modulus (GPa) = 30.69632 35.01364 32.85498
#
# Velocity S-wave (km/s) = 3.70354 3.95542 3.83155
# Velocity P-wave (km/s) = 6.52548 6.92596 6.72870
#
# Compressibility (1/GPa) = 0.01839324
#
# Stress axis : x y z
#
# Youngs Moduli (GPa) = 94.11588 77.00912 72.78596
#
# Poissons Ratio (x) = 0.42812 0.19265
# Poissons Ratio (y) = 0.52322 0.09259
# Poissons Ratio (z) = 0.24910 0.09796
#
# Static dielectric constant tensor:
#      x y z
#    x 4.214190 0.000000 -0.118950 
#    y 0.000000 4.068800 0.000000 
#    z -0.118950 0.000000 4.351150 
# 
# 
# High freq. dielectric constant tensor:
#      x y z
#    x 1.887920 0.000000 -0.003840 
#    y 0.000000 1.885770 0.000000 
#    z -0.003840 0.000000 1.892200 
# 
# From -- ./inp_files/307571.got.cif
#   From: 2010.06.25/outbox.cif.g09.slc.cpg/sg15_154_cif.got.tgz:307571.got - 2010.06.28 07:06:18.
