data_PCOD8153302
_publ_section_title
;
Structure prediction by ZEFSAII (Michael W. Deem and Ramdas Pophale) SiO2 
 PCOD8153302
Probable space group: C 2/C
;
_chemical_formula_sum "Si O2"
_cell_formula_units_Z 56
_cell_length_a 21.544838
_cell_length_b 15.792240
_cell_length_c 14.999389
_cell_angle_alpha 90.000000
_cell_angle_beta 152.938039
_cell_angle_gamma 90.000000
_cell_volume 2321.816128
_symmetry_space_group_name_H-M "C 2/C"
_symmetry_group_IT_number 15
_symmetry_cell_setting 'monoclinic'
loop_
_space_group_symop_operation_xyz
x,y,z
-x,y,1/2-z
-x,-y,-z
x,-y,1/2+z
1/2+x,1/2+y,z
1/2-x,1/2+y,1/2-z
1/2-x,1/2-y,-z
1/2+x,1/2-y,1/2+z
loop_
_atom_site_type_symbol
_atom_site_label
_atom_site_fract_x
_atom_site_fract_y
_atom_site_fract_z
Si Si1 0.603247 0.292560 0.302892
Si Si2 0.535397 0.519315 0.698293
Si Si3 0.914676 0.712192 0.402563
Si Si4 0.853664 0.408854 0.228126
Si Si5 0.360739 0.272530 0.518947
Si Si6 0.273002 0.090508 0.438466
Si Si7 0.238346 0.556681 0.270018
O O1 0.500000 0.265551 0.250000
O O2 0.750000 0.250000 0.500000
O O3 0.621218 0.393928 0.321509
O O4 0.539948 0.260960 0.128019
O O5 0.500000 0.482589 0.750000
O O6 0.622679 0.448219 0.760489
O O7 0.398205 0.537163 0.467649
O O8 0.885329 0.778728 0.443872
O O9 0.782293 0.651547 0.215948
O O10 0.031959 0.649376 0.584880
O O11 0.844796 0.492472 0.275377
O O12 0.709633 0.359410 0.042805
O O13 0.875117 0.433557 0.150958
O O14 0.500000 0.259731 0.750000
O O15 0.262542 0.192631 0.416306
O O16 0.327792 0.053301 0.414275
#
# Coordination Sequence:
#
# PCOD8153302 Si02
#       7
#     8   8   8   8   8   8   8
#     4  11  27  47  74 110 148 197 252 312 370 442
#     4  11  23  44  73  99 140 190 247 311 364 450
#     4  11  26  47  72 104 150 183 247 307 366 446
#     4  12  26  44  74 105 139 193 241 298 377 451
#     4  11  26  44  72 107 145 189 237 304 371 444
#     4  11  25  45  68 102 142 183 236 304 365 442
#     4  11  26  45  70 102 140 189 243 304 374 440
#
# _framework density 24.119050999999999
#
# number of rings (size 3 to 8) (size 9 to 14) (size 15 to 20)
#    0.000    0.857    2.857    3.000   10.000    0.000 
#    0.000    0.714    0.000    0.000    0.000    0.000 
#    0.000    0.000    0.000    0.000    0.000    0.000 
#
# Total GULP energy -347232.651986 kJ/mol
# GULP energy per Si atom -12401.166142 kJ/mol
# Density = 2.406415 g / cm^3
# Si number density = 24.119051 Si / 1000 Ang^3
#
#
#
# Elastic Constant Matrix: (Units=GPa)
#
#
# Indices 1 2 3 4 5 6 
#
# 1 152.7895 38.9013 15.5981 0.0000 -30.5471 0.0000
# 2 38.9013 59.7964 8.0282 0.0000 -5.5011 0.0000
# 3 15.5981 8.0282 76.8929 0.0000 -5.2084 0.0000
# 4 0.0000 0.0000 0.0000 36.3014 0.0000 4.1483
# 5 -30.5471 -5.5011 -5.2084 0.0000 42.2767 0.0000
# 6 0.0000 0.0000 0.0000 4.1483 0.0000 32.7836
#
#
#
# Elastic Compliance Matrix: (Units=1/GPa)
#
#
# Indices 1 2 3 4 5 6 
#
# 1 0.009147 -0.005294 -0.000909 0.000000 0.005808 0.000000
# 2 -0.005294 0.020196 -0.001125 0.000000 -0.001336 0.000000
# 3 -0.000909 -0.001125 0.013364 0.000000 0.000843 0.000000
# 4 0.000000 0.000000 0.000000 0.027951 0.000000 -0.003537
# 5 0.005808 -0.001336 0.000843 0.000000 0.027780 0.000000
# 6 0.000000 0.000000 0.000000 -0.003537 0.000000 0.030951
#
#
# Mechanical properties :
#
#
# Convention : Reuss Voigt Hill
#
# Bulk Modulus (GPa) = 35.65123 46.05933 40.85528
# Shear Modulus (GPa) = 32.59526 37.40242 34.99884
#
# Velocity S-wave (km/s) = 3.68017 3.94222 3.81345
# Velocity P-wave (km/s) = 5.73338 6.31344 6.03039
#
# Compressibility (1/GPa) = 0.02804952
#
# Stress axis : x y z
#
# Youngs Moduli (GPa) = 109.32569 49.51518 74.82712
#
# Poissons Ratio (x) = 0.26215 0.06804
# Poissons Ratio (y) = 0.57880 0.08419
# Poissons Ratio (z) = 0.09941 0.05571
#
# Static dielectric constant tensor:
#      x y z
#    x 4.799370 0.000000 -0.069520 
#    y 0.000000 4.424440 0.000000 
#    z -0.069520 0.000000 4.491780 
# 
# 
# High freq. dielectric constant tensor:
#      x y z
#    x 1.970380 0.000000 -0.012320 
#    y 0.000000 1.951370 0.000000 
#    z -0.012320 0.000000 1.963090 
# 
# From -- ./inp_files/169182.got.cif
#   From: 2010.06.25/outbox.cif.g09.slc.cpg/sg15_85_cif.got.tgz:169182.got - 2010.06.28 07:06:18.
