data_PCOD8153554
_publ_section_title
;
Structure prediction by ZEFSAII (Michael W. Deem and Ramdas Pophale) SiO2 
 PCOD8153554
Probable space group: C 2/C
;
_chemical_formula_sum "Si O2"
_cell_formula_units_Z 48
_cell_length_a 19.489205
_cell_length_b 12.574234
_cell_length_c 13.624887
_cell_angle_alpha 90.000000
_cell_angle_beta 40.989766
_cell_angle_gamma 90.000000
_cell_volume 2190.091375
_symmetry_space_group_name_H-M "C 2/C"
_symmetry_group_IT_number 15
_symmetry_cell_setting 'monoclinic'
loop_
_space_group_symop_operation_xyz
x,y,z
-x,y,1/2-z
-x,-y,-z
x,-y,1/2+z
1/2+x,1/2+y,z
1/2-x,1/2+y,1/2-z
1/2-x,1/2-y,-z
1/2+x,1/2-y,1/2+z
loop_
_atom_site_type_symbol
_atom_site_label
_atom_site_fract_x
_atom_site_fract_y
_atom_site_fract_z
Si Si1 0.324282 0.564583 0.952750
Si Si2 0.857358 0.049661 0.230146
Si Si3 0.000000 0.571677 0.750000
Si Si4 0.353782 0.166459 0.064936
Si Si5 0.600209 0.897050 0.773173
Si Si6 0.500000 0.726106 0.750000
Si Si7 0.911160 0.096729 0.494448
O O1 0.318223 0.546565 0.842416
O O2 0.409296 0.652169 0.890900
O O3 0.218000 0.611884 0.108708
O O4 0.357278 0.446748 0.953844
O O5 0.767816 0.138237 0.316242
O O6 0.879506 0.995633 0.103241
O O7 0.963548 0.106818 0.152786
O O8 0.948642 0.503741 0.718302
O O9 0.086432 0.642581 0.601665
O O10 0.402569 0.102362 0.105191
O O11 0.361316 0.291438 0.078415
O O12 0.536367 0.796006 0.802853
#
# Coordination Sequence:
#
# PCOD8153554 Si02
#       7
#     8   8   4   8   8   4   8
#     4  12  22  45  70  98 139 182 230 290 338 407
#     4  11  24  47  70 101 142 178 235 286 340 409
#     4  11  26  47  68 100 146 181 224 285 344 418
#     4  12  26  45  71 102 137 186 228 284 349 413
#     4  11  25  45  67 103 137 183 229 284 346 407
#     4  11  24  41  72 102 138 183 232 281 342 414
#     4  11  26  44  71 104 137 184 231 286 343 406
#
# _framework density 21.916893000000002
#
# number of rings (size 3 to 8) (size 9 to 14) (size 15 to 20)
#    0.000    0.667    5.000    2.000    4.667    2.000 
#    3.000    0.000    0.000    0.000    0.000    0.000 
#    0.000    0.000    0.000    0.000    0.000    0.000 
#
# Total GULP energy -297684.297285 kJ/mol
# GULP energy per Si atom -12403.512387 kJ/mol
# Density = 2.186701 g / cm^3
# Si number density = 21.916893 Si / 1000 Ang^3
#
#
#
# Elastic Constant Matrix: (Units=GPa)
#
#
# Indices 1 2 3 4 5 6 
#
# 1 83.6496 18.4361 26.3255 0.0000 -10.8468 0.0000
# 2 18.4361 78.2450 20.6465 0.0000 -16.0152 0.0000
# 3 26.3255 20.6465 105.9704 0.0000 -10.2970 0.0000
# 4 0.0000 0.0000 0.0000 30.3835 0.0000 -5.2729
# 5 -10.8468 -16.0152 -10.2970 0.0000 38.8171 0.0000
# 6 0.0000 0.0000 0.0000 -5.2729 0.0000 -8.9206
#
#
#
# Elastic Compliance Matrix: (Units=1/GPa)
#
#
# Indices 1 2 3 4 5 6 
#
# 1 0.013555 -0.002010 -0.002759 0.000000 0.002226 0.000000
# 2 -0.002010 0.014784 -0.001892 0.000000 0.005036 0.000000
# 3 -0.002759 -0.001892 0.010613 0.000000 0.001264 0.000000
# 4 0.000000 0.000000 0.000000 0.029851 0.000000 -0.017644
# 5 0.002226 0.005036 0.001264 0.000000 0.028797 0.000000
# 6 0.000000 0.000000 0.000000 -0.017644 0.000000 -0.101671
#
#
# Mechanical properties :
#
#
# Convention : Reuss Voigt Hill
#
# Bulk Modulus (GPa) = 39.01672 44.29788 41.65730
# Shear Modulus (GPa) = 280.99499 25.55314 153.27406
#
# Velocity S-wave (km/s) = 11.33524 3.41825 8.37174
# Velocity P-wave (km/s) = 13.75346 5.98622 10.60642
#
# Compressibility (1/GPa) = 0.02563004
#
# Stress axis : x y z
#
# Youngs Moduli (GPa) = 73.77508 67.64107 94.21998
#
# Poissons Ratio (x) = 0.13595 0.25999
# Poissons Ratio (y) = 0.14828 0.17824
# Poissons Ratio (z) = 0.20357 0.12796
#
# Static dielectric constant tensor:
#      x y z
#    x 4.129830 0.000000 -0.066970 
#    y 0.000000 3.697500 0.000000 
#    z -0.066970 0.000000 3.955190 
# 
# 
# High freq. dielectric constant tensor:
#      x y z
#    x 1.873030 0.000000 0.001730 
#    y 0.000000 1.852110 0.000000 
#    z 0.001730 0.000000 1.871580 
# 
# From -- ./inp_files/111472.got.cif
#   From: 2010.06.25/outbox.cif.g09.slc.cpg/sg15_56_cif.got.tgz:111472.got - 2010.06.28 07:06:18.
