data_PCOD8153345
_publ_section_title
;
Structure prediction by ZEFSAII (Michael W. Deem and Ramdas Pophale) SiO2 
 PCOD8153345
Probable space group: C 2/C
;
_chemical_formula_sum "Si O2"
_cell_formula_units_Z 64
_cell_length_a 8.960529
_cell_length_b 17.398316
_cell_length_c 19.426449
_cell_angle_alpha 90.000000
_cell_angle_beta 90.322621
_cell_angle_gamma 90.000000
_cell_volume 3028.498770
_symmetry_space_group_name_H-M "C 2/C"
_symmetry_group_IT_number 15
_symmetry_cell_setting 'monoclinic'
loop_
_space_group_symop_operation_xyz
x,y,z
-x,y,1/2-z
-x,-y,-z
x,-y,1/2+z
1/2+x,1/2+y,z
1/2-x,1/2+y,1/2-z
1/2-x,1/2-y,-z
1/2+x,1/2-y,1/2+z
loop_
_atom_site_type_symbol
_atom_site_label
_atom_site_fract_x
_atom_site_fract_y
_atom_site_fract_z
Si Si1 0.654910 0.504941 0.867137
Si Si2 0.854357 0.751989 0.935357
Si Si3 0.332153 0.735944 0.818121
Si Si4 0.829820 0.689919 0.548768
Si Si5 0.646514 0.677467 0.828414
Si Si6 0.174566 0.483934 0.491103
Si Si7 0.653774 0.582103 0.119291
Si Si8 0.325920 0.096174 0.262087
O O1 0.611077 0.590802 0.847576
O O2 0.499976 0.460609 0.867634
O O3 0.765401 0.471460 0.810021
O O4 0.735999 0.505729 0.940441
O O5 0.784843 0.710055 0.870027
O O6 0.894122 0.839039 0.917095
O O7 0.995549 0.702403 0.957411
O O8 0.750000 0.750000 0.000000
O O9 0.217265 0.703834 0.873010
O O10 0.502234 0.729866 0.845743
O O11 0.313172 0.681974 0.751767
O O12 0.297099 0.824135 0.801349
O O13 0.750000 0.750000 0.500000
O O14 0.790925 0.604484 0.525008
O O15 0.235109 0.534565 0.428640
O O16 0.000000 0.500000 0.500000
O O17 0.738406 0.598423 0.190375
O O18 0.500000 0.081578 0.250000
#
# Coordination Sequence:
#
# PCOD8153345 Si02
#       8
#     8   8   8   8   8   8   8   8
#     4  12  27  44  71 102 140 177 234 284 347 409
#     4  12  24  44  69 101 136 179 231 280 339 404
#     4  11  23  45  70  97 137 175 234 272 347 405
#     4  12  26  43  72 101 137 184 230 286 340 408
#     4  11  24  45  69 100 133 185 220 287 338 406
#     4  12  26  48  68 103 143 185 230 286 349 416
#     4  12  25  44  71 101 138 182 230 287 344 409
#     4  12  24  45  69 101 136 184 224 285 350 417
#
# _framework density 21.132584000000001
#
# number of rings (size 3 to 8) (size 9 to 14) (size 15 to 20)
#    0.000    0.250    2.500    7.500    5.250    0.500 
#    0.000    0.000    0.000    0.000    0.000    0.000 
#    0.000    0.000    0.000    0.000    0.000    0.000 
#
# Total GULP energy -397045.050696 kJ/mol
# GULP energy per Si atom -12407.657834 kJ/mol
# Density = 2.108448 g / cm^3
# Si number density = 21.132584 Si / 1000 Ang^3
#
#
#
# Elastic Constant Matrix: (Units=GPa)
#
#
# Indices 1 2 3 4 5 6 
#
# 1 107.5407 5.2320 38.5794 0.0000 1.8432 0.0000
# 2 5.2320 115.1707 26.1753 0.0000 3.1436 0.0000
# 3 38.5794 26.1753 102.6987 0.0000 -4.4647 0.0000
# 4 0.0000 0.0000 0.0000 42.4073 0.0000 -0.6428
# 5 1.8432 3.1436 -4.4647 0.0000 46.9359 0.0000
# 6 0.0000 0.0000 0.0000 -0.6428 0.0000 33.2145
#
#
#
# Elastic Compliance Matrix: (Units=1/GPa)
#
#
# Indices 1 2 3 4 5 6 
#
# 1 0.010804 0.000492 -0.004221 0.000000 -0.000859 0.000000
# 2 0.000492 0.009272 -0.002587 0.000000 -0.000886 0.000000
# 3 -0.004221 -0.002587 0.012047 0.000000 0.001485 0.000000
# 4 0.000000 0.000000 0.000000 0.023588 0.000000 0.000456
# 5 -0.000859 -0.000886 0.001485 0.000000 0.021540 0.000000
# 6 0.000000 0.000000 0.000000 0.000456 0.000000 0.030116
#
#
# Mechanical properties :
#
#
# Convention : Reuss Voigt Hill
#
# Bulk Modulus (GPa) = 51.30490 51.70928 51.50709
# Shear Modulus (GPa) = 39.52686 41.53976 40.53331
#
# Velocity S-wave (km/s) = 4.32953 4.43840 4.38430
# Velocity P-wave (km/s) = 7.02306 7.12657 7.07501
#
# Compressibility (1/GPa) = 0.01949131
#
# Stress axis : x y z
#
# Youngs Moduli (GPa) = 92.55874 107.84582 83.00938
#
# Poissons Ratio (x) = -0.05306 0.35041
# Poissons Ratio (y) = -0.04554 0.21472
# Poissons Ratio (z) = 0.39072 0.27896
#
# Static dielectric constant tensor:
#      x y z
#    x -4.038770 0.000000 -1.088180 
#    y 0.000000 4.003480 0.000000 
#    z -1.088180 0.000000 3.872860 
# 
# 
# High freq. dielectric constant tensor:
#      x y z
#    x 1.840980 0.000000 0.002330 
#    y 0.000000 1.845470 0.000000 
#    z 0.002330 0.000000 1.847710 
# 
# From -- ./inp_files/232693.got.cif
#   From: 2010.06.25/outbox.cif.g09.slc.cpg/sg15_117_cif.got.tgz:232693.got - 2010.06.28 07:06:18.
