data_PCOD8153583
_publ_section_title
;
Structure prediction by ZEFSAII (Michael W. Deem and Ramdas Pophale) SiO2 
 PCOD8153583
Probable space group: C 2/C
;
_chemical_formula_sum "Si O2"
_cell_formula_units_Z 48
_cell_length_a 9.588062
_cell_length_b 14.151741
_cell_length_c 16.976787
_cell_angle_alpha 90.000000
_cell_angle_beta 91.328088
_cell_angle_gamma 90.000000
_cell_volume 2302.923565
_symmetry_space_group_name_H-M "C 2/C"
_symmetry_group_IT_number 15
_symmetry_cell_setting 'monoclinic'
loop_
_space_group_symop_operation_xyz
x,y,z
-x,y,1/2-z
-x,-y,-z
x,-y,1/2+z
1/2+x,1/2+y,z
1/2-x,1/2+y,1/2-z
1/2-x,1/2-y,-z
1/2+x,1/2-y,1/2+z
loop_
_atom_site_type_symbol
_atom_site_label
_atom_site_fract_x
_atom_site_fract_y
_atom_site_fract_z
Si Si1 0.583317 0.196003 0.672782
Si Si2 0.793771 0.101939 0.336208
Si Si3 0.032147 0.425904 0.931143
Si Si4 0.699601 0.992918 0.673969
Si Si5 0.453180 0.558607 0.072174
Si Si6 0.088152 0.264566 0.476136
O O1 0.500000 0.215981 0.750000
O O2 0.686678 0.284872 0.662798
O O3 0.462388 0.180530 0.604398
O O4 0.685375 0.105743 0.683082
O O5 0.693188 0.075163 0.407980
O O6 0.742767 0.061429 0.252843
O O7 0.939799 0.048811 0.353855
O O8 0.950898 0.453332 0.851005
O O9 0.000000 0.500000 0.000000
O O10 0.985216 0.320226 0.953968
O O11 0.801751 0.968932 0.602356
O O12 0.471376 0.661675 0.036179
O O13 0.500000 0.500000 0.000000
O O14 0.250000 0.250000 0.500000
#
# Coordination Sequence:
#
# PCOD8153583 Si02
#       6
#     8   8   8   8   8   8
#     4  11  25  44  71  97 139 181 224 282 346 401
#     4  11  26  45  66 100 137 179 225 281 339 407
#     4  12  24  43  70 100 134 176 234 275 340 405
#     4  12  24  46  68  97 135 182 225 276 339 412
#     4  11  25  43  69  98 138 173 226 277 341 397
#     4  11  24  42  69  98 134 177 223 283 336 402
#
# _framework density 20.843071999999999
#
# number of rings (size 3 to 8) (size 9 to 14) (size 15 to 20)
#    0.000    0.667    3.333    5.000    2.333    1.333 
#    0.000    1.667    0.000    0.000    0.000    0.000 
#    0.000    0.000    0.000    0.000    0.000    0.000 
#
# Total GULP energy -297456.480258 kJ/mol
# GULP energy per Si atom -12394.020011 kJ/mol
# Density = 2.079563 g / cm^3
# Si number density = 20.843072 Si / 1000 Ang^3
#
#
#
# Elastic Constant Matrix: (Units=GPa)
#
#
# Indices 1 2 3 4 5 6 
#
# 1 89.7614 45.7278 25.8492 0.0000 3.6610 0.0000
# 2 45.7278 105.9896 46.5169 0.0000 -0.8409 0.0000
# 3 25.8492 46.5169 92.3170 0.0000 11.8934 0.0000
# 4 0.0000 0.0000 0.0000 38.8886 0.0000 -0.0447
# 5 3.6610 -0.8409 11.8934 0.0000 55.6482 0.0000
# 6 0.0000 0.0000 0.0000 -0.0447 0.0000 30.9367
#
#
#
# Elastic Compliance Matrix: (Units=1/GPa)
#
#
# Indices 1 2 3 4 5 6 
#
# 1 0.014410 -0.005776 -0.001019 0.000000 -0.000818 0.000000
# 2 -0.005776 0.014557 -0.005959 0.000000 0.001874 0.000000
# 3 -0.001019 -0.005959 0.014523 0.000000 -0.003127 0.000000
# 4 0.000000 0.000000 0.000000 0.025715 0.000000 0.000037
# 5 -0.000818 0.001874 -0.003127 0.000000 0.018720 0.000000
# 6 0.000000 0.000000 0.000000 0.000037 0.000000 0.032324
#
#
# Mechanical properties :
#
#
# Convention : Reuss Voigt Hill
#
# Bulk Modulus (GPa) = 55.61242 58.25064 56.93153
# Shear Modulus (GPa) = 32.94847 36.42632 34.68740
#
# Velocity S-wave (km/s) = 3.98023 4.18502 4.08391
# Velocity P-wave (km/s) = 6.91826 7.16662 7.04354
#
# Compressibility (1/GPa) = 0.01798159
#
# Stress axis : x y z
#
# Youngs Moduli (GPa) = 69.39576 68.69453 68.85579
#
# Poissons Ratio (x) = 0.39680 0.07016
# Poissons Ratio (y) = 0.40085 0.41032
# Poissons Ratio (z) = 0.07071 0.40936
#
# Static dielectric constant tensor:
#      x y z
#    x 4.043400 0.000000 0.214560 
#    y 0.000000 3.616370 0.000000 
#    z 0.214560 0.000000 3.961390 
# 
# 
# High freq. dielectric constant tensor:
#      x y z
#    x 1.821880 0.000000 0.010790 
#    y 0.000000 1.827230 0.000000 
#    z 0.010790 0.000000 1.826660 
# 
# From -- ./inp_files/189200.got.cif
#   From: 2010.06.25/outbox.cif.g09.slc.cpg/sg15_95_cif.got.tgz:189200.got - 2010.06.28 07:06:18.
