data_PCOD8153833
_publ_section_title
;
Structure prediction by ZEFSAII (Michael W. Deem and Ramdas Pophale) SiO2 
 PCOD8153833
Probable space group: C 2/C
;
_chemical_formula_sum "Si O2"
_cell_formula_units_Z 48
_cell_length_a 25.548753
_cell_length_b 10.572715
_cell_length_c 20.780614
_cell_angle_alpha 90.000000
_cell_angle_beta 21.593080
_cell_angle_gamma 90.000000
_cell_volume 2065.745851
_symmetry_space_group_name_H-M "C 2/C"
_symmetry_group_IT_number 15
_symmetry_cell_setting 'monoclinic'
loop_
_space_group_symop_operation_xyz
x,y,z
-x,y,1/2-z
-x,-y,-z
x,-y,1/2+z
1/2+x,1/2+y,z
1/2-x,1/2+y,1/2-z
1/2-x,1/2-y,-z
1/2+x,1/2-y,1/2+z
loop_
_atom_site_type_symbol
_atom_site_label
_atom_site_fract_x
_atom_site_fract_y
_atom_site_fract_z
Si Si1 0.304113 0.340432 0.384297
Si Si2 0.408383 0.758532 0.981413
Si Si3 0.866096 0.904592 0.653965
Si Si4 0.559844 0.011745 0.502007
Si Si5 0.870510 0.720940 0.769902
Si Si6 0.148484 0.084513 0.101198
O O1 0.250000 0.250000 0.500000
O O2 0.475364 0.331978 0.184054
O O3 0.227320 0.295996 0.406777
O O4 0.268318 0.484322 0.447725
O O5 0.356766 0.691527 0.105361
O O6 0.492502 0.888175 0.900165
O O7 0.851255 0.822415 0.735483
O O8 0.730300 0.994813 0.804914
O O9 0.000000 0.000000 0.500000
O O10 0.500000 0.000000 0.500000
O O11 0.508762 0.138376 0.595629
O O12 0.894344 0.790818 0.809983
O O13 0.738176 0.624671 0.934680
O O14 0.000000 0.020728 0.250000
#
# Coordination Sequence:
#
# PCOD8153833 Si02
#       6
#     8   8   8   8   8   8
#     4  12  26  46  72 103 145 192 244 303 363 442
#     4  12  25  46  71 106 142 188 246 297 376 438
#     4  12  27  46  74 105 150 193 247 309 377 449
#     4  12  25  43  71 103 147 190 237 308 369 434
#     4  11  25  45  72 107 147 193 249 306 369 444
#     4  11  24  45  73 106 147 198 249 303 371 444
#
# _framework density 23.236160999999999
#
# number of rings (size 3 to 8) (size 9 to 14) (size 15 to 20)
#    0.000    0.333    1.667    7.500    2.333    4.000 
#    0.000    0.000    0.000    0.000    0.000    0.000 
#    0.000    0.000    0.000    0.000    0.000    0.000 
#
# Total GULP energy -297562.338885 kJ/mol
# GULP energy per Si atom -12398.430787 kJ/mol
# Density = 2.318327 g / cm^3
# Si number density = 23.236161 Si / 1000 Ang^3
#
#
#
# Elastic Constant Matrix: (Units=GPa)
#
#
# Indices 1 2 3 4 5 6 
#
# 1 118.4666 51.5553 51.4449 0.0000 2.1620 0.0000
# 2 51.5553 125.8103 41.1136 -0.0002 5.5600 0.0000
# 3 51.4449 41.1136 133.7969 0.0001 -2.2746 -0.0002
# 4 0.0000 -0.0002 0.0001 43.2561 -0.0002 9.6865
# 5 2.1620 5.5600 -2.2746 -0.0002 40.9067 0.0001
# 6 0.0000 0.0000 -0.0002 9.6865 0.0001 50.3056
#
#
#
# Elastic Compliance Matrix: (Units=1/GPa)
#
#
# Indices 1 2 3 4 5 6 
#
# 1 0.011446 -0.003599 -0.003300 0.000000 -0.000299 0.000000
# 2 -0.003599 0.010043 -0.001724 0.000000 -0.001271 0.000000
# 3 -0.003300 -0.001724 0.009288 0.000000 0.000925 0.000000
# 4 0.000000 0.000000 0.000000 0.024160 0.000000 -0.004652
# 5 -0.000299 -0.001271 0.000925 0.000000 0.024686 0.000000
# 6 0.000000 0.000000 0.000000 -0.004652 0.000000 0.020774
#
#
# Mechanical properties :
#
#
# Convention : Reuss Voigt Hill
#
# Bulk Modulus (GPa) = 73.90189 74.03348 73.96769
# Shear Modulus (GPa) = 40.93231 42.49101 41.71166
#
# Velocity S-wave (km/s) = 4.20167 4.28092 4.24148
# Velocity P-wave (km/s) = 7.44395 7.50770 7.47589
#
# Compressibility (1/GPa) = 0.01353145
#
# Stress axis : x y z
#
# Youngs Moduli (GPa) = 87.36749 99.57534 107.66120
#
# Poissons Ratio (x) = 0.35834 0.35531
# Poissons Ratio (y) = 0.31441 0.18559
# Poissons Ratio (z) = 0.28833 0.17165
#
# Static dielectric constant tensor:
#      x y z
#    x 3.531780 -0.000020 0.613150 
#    y -0.000020 4.741630 0.000020 
#    z 0.613150 0.000020 3.991590 
# 
# 
# High freq. dielectric constant tensor:
#      x y z
#    x 1.922210 0.000000 0.010770 
#    y 0.000000 1.938720 0.000000 
#    z 0.010770 0.000000 1.923450 
# 
# From -- ./inp_files/257590.got.cif
#   From: 2010.06.25/outbox.cif.g09.slc.cpg/sg15_129_cif.got.tgz:257590.got - 2010.06.28 07:06:18.
