data_PCOD8153181
_publ_section_title
;
Structure prediction by ZEFSAII (Michael W. Deem and Ramdas Pophale) SiO2 
 PCOD8153181
Probable space group: C 2/C
;
_chemical_formula_sum "Si O2"
_cell_formula_units_Z 44
_cell_length_a 15.860675
_cell_length_b 14.130296
_cell_length_c 21.033755
_cell_angle_alpha 90.000000
_cell_angle_beta 23.983860
_cell_angle_gamma 90.000000
_cell_volume 1916.144047
_symmetry_space_group_name_H-M "C 2/C"
_symmetry_group_IT_number 15
_symmetry_cell_setting 'monoclinic'
loop_
_space_group_symop_operation_xyz
x,y,z
-x,y,1/2-z
-x,-y,-z
x,-y,1/2+z
1/2+x,1/2+y,z
1/2-x,1/2+y,1/2-z
1/2-x,1/2-y,-z
1/2+x,1/2-y,1/2+z
loop_
_atom_site_type_symbol
_atom_site_label
_atom_site_fract_x
_atom_site_fract_y
_atom_site_fract_z
Si Si1 0.795973 0.571305 0.275776
Si Si2 0.215139 0.239007 0.773297
Si Si3 0.980757 0.047621 0.916965
Si Si4 0.833125 0.308567 0.557288
Si Si5 0.698262 0.030218 0.508453
Si Si6 0.500000 0.842157 0.250000
O O1 0.769118 0.684822 0.294252
O O2 0.710352 0.534216 0.402432
O O3 0.666400 0.522068 0.308438
O O4 0.039442 0.551946 0.097247
O O5 0.142929 0.302119 0.883409
O O6 0.440651 0.195536 0.631028
O O7 0.055890 0.156125 0.864706
O O8 0.899088 0.016212 0.903735
O O9 0.732334 0.407015 0.600862
O O10 0.701513 0.219617 0.625549
O O11 0.562564 0.096066 0.647329
#
# Coordination Sequence:
#
# PCOD8153181 Si02
#       6
#     8   8   8   8   8   4
#     4  11  23  43  71  98 144 194 241 289 364 437
#     4  12  25  45  74 101 145 192 240 296 363 432
#     4  11  23  44  71 104 143 191 239 294 364 440
#     4  12  25  43  69 109 141 183 241 306 362 416
#     4  12  24  43  70 106 142 190 243 297 358 436
#     4  12  22  40  72 104 132 178 240 298 358 414
#
# _framework density 22.962783000000002
#
# number of rings (size 3 to 8) (size 9 to 14) (size 15 to 20)
#    0.000    0.364    7.273    1.636    2.545    1.455 
#    0.000    0.000    0.000    0.000    0.000    0.000 
#    0.000    0.000    0.000    0.000    0.000    0.000 
#
# Total GULP energy -272837.872257 kJ/mol
# GULP energy per Si atom -12401.721466 kJ/mol
# Density = 2.291052 g / cm^3
# Si number density = 22.962783 Si / 1000 Ang^3
#
#
#
# Elastic Constant Matrix: (Units=GPa)
#
#
# Indices 1 2 3 4 5 6 
#
# 1 104.3056 53.4674 35.3269 -0.0006 -23.9500 -0.0087
# 2 53.4674 120.7777 21.4743 -0.0482 -13.5830 -0.0026
# 3 35.3269 21.4743 65.5491 -0.0403 -16.6592 -0.0217
# 4 -0.0006 -0.0482 -0.0403 46.9569 0.0039 -6.9184
# 5 -23.9500 -13.5830 -16.6592 0.0039 31.9119 -0.0018
# 6 -0.0087 -0.0026 -0.0217 -6.9184 -0.0018 44.7449
#
#
#
# Elastic Compliance Matrix: (Units=1/GPa)
#
#
# Indices 1 2 3 4 5 6 
#
# 1 0.015494 -0.005218 -0.004900 -0.000010 0.006849 -0.000001
# 2 -0.005218 0.010737 -0.000622 0.000011 0.000330 0.000001
# 3 -0.004900 -0.000622 0.019714 0.000017 0.006349 0.000012
# 4 -0.000010 0.000011 0.000017 0.021793 0.000004 0.003370
# 5 0.006849 0.000330 0.006349 0.000004 0.039932 0.000007
# 6 -0.000001 0.000001 0.000012 0.003370 0.000007 0.022870
#
#
# Mechanical properties :
#
#
# Convention : Reuss Voigt Hill
#
# Bulk Modulus (GPa) = 40.87307 56.79662 48.83485
# Shear Modulus (GPa) = 31.21604 36.74700 33.98152
#
# Velocity S-wave (km/s) = 3.69103 4.00470 3.85106
# Velocity P-wave (km/s) = 6.00027 6.79495 6.40994
#
# Compressibility (1/GPa) = 0.02446598
#
# Stress axis : x y z
#
# Youngs Moduli (GPa) = 64.54049 93.13511 50.72528
#
# Poissons Ratio (x) = 0.48594 0.24857
# Poissons Ratio (y) = 0.33674 0.03154
# Poissons Ratio (z) = 0.31627 0.05791
#
# Static dielectric constant tensor:
#      x y z
#    x 4.022020 -0.000030 -0.051680 
#    y -0.000030 4.086050 0.000170 
#    z -0.051680 0.000170 3.954860 
# 
# 
# High freq. dielectric constant tensor:
#      x y z
#    x 1.896070 0.000000 -0.006850 
#    y 0.000000 1.908560 0.000010 
#    z -0.006850 0.000010 1.904100 
# 
# From -- ./inp_files/47527.got.cif
#   From: 2010.06.25/outbox.cif.g09.slc.cpg/sg15_24_cif.got.tgz:47527.got - 2010.06.28 07:06:18.
