data_PCOD8153097
_publ_section_title
;
Structure prediction by ZEFSAII (Michael W. Deem and Ramdas Pophale) SiO2 
 PCOD8153097
Probable space group: C 2/C
;
_chemical_formula_sum "Si O2"
_cell_formula_units_Z 40
_cell_length_a 15.325094
_cell_length_b 25.062586
_cell_length_c 4.900315
_cell_angle_alpha 90.000000
_cell_angle_beta 66.734448
_cell_angle_gamma 90.000000
_cell_volume 1729.096342
_symmetry_space_group_name_H-M "C 2/C"
_symmetry_group_IT_number 15
_symmetry_cell_setting 'monoclinic'
loop_
_space_group_symop_operation_xyz
x,y,z
-x,y,1/2-z
-x,-y,-z
x,-y,1/2+z
1/2+x,1/2+y,z
1/2-x,1/2+y,1/2-z
1/2-x,1/2-y,-z
1/2+x,1/2-y,1/2+z
loop_
_atom_site_type_symbol
_atom_site_label
_atom_site_fract_x
_atom_site_fract_y
_atom_site_fract_z
Si Si1 0.273413 0.035880 0.803162
Si Si2 0.652163 0.677491 0.560187
Si Si3 0.395557 0.610823 0.403646
Si Si4 0.564891 0.119569 0.911141
Si Si5 0.182427 0.718539 0.795758
O O1 0.359654 0.073880 0.614662
O O2 0.277567 0.983848 0.608612
O O3 0.174400 0.066970 0.883858
O O4 0.650381 0.634777 0.315087
O O5 0.759545 0.686946 0.539248
O O6 0.615203 0.735639 0.510272
O O7 0.588505 0.657327 0.890423
O O8 0.500000 0.584845 0.250000
O O9 0.500000 0.097502 0.750000
O O10 0.616558 0.173677 0.740424
O O11 0.500000 0.132181 0.250000
O O12 0.250000 0.750000 0.500000
#
# Coordination Sequence:
#
# PCOD8153097 Si02
#       5
#     8   8   8   8   8
#     4  12  27  49  78 100 138 186 241 308 372 417
#     4  11  23  42  73 100 148 190 227 279 346 427
#     4  12  26  46  73 108 144 183 236 293 362 437
#     4  12  29  46  72 107 146 188 244 296 352 421
#     4  11  24  45  73 102 148 192 239 280 346 422
#
# _framework density 23.133469999999999
#
# number of rings (size 3 to 8) (size 9 to 14) (size 15 to 20)
#    0.000    0.400    4.000    3.000    8.400    5.600 
#    0.000    0.000    0.000    0.000    0.000    0.000 
#    0.000    0.000    0.000    0.000    0.000    0.000 
#
# Total GULP energy -247988.564713 kJ/mol
# GULP energy per Si atom -12399.428236 kJ/mol
# Density = 2.308082 g / cm^3
# Si number density = 23.133470 Si / 1000 Ang^3
#
#
#
# Elastic Constant Matrix: (Units=GPa)
#
#
# Indices 1 2 3 4 5 6 
#
# 1 83.2268 52.2577 44.0020 0.0000 -13.3079 0.0000
# 2 52.2577 102.6277 42.5672 0.0000 -16.3814 0.0000
# 3 44.0020 42.5672 124.8582 0.0000 -1.1817 0.0000
# 4 0.0000 0.0000 0.0000 34.1450 0.0000 14.9070
# 5 -13.3079 -16.3814 -1.1817 0.0000 45.6599 0.0000
# 6 0.0000 0.0000 0.0000 14.9070 0.0000 10.8806
#
#
#
# Elastic Compliance Matrix: (Units=1/GPa)
#
#
# Indices 1 2 3 4 5 6 
#
# 1 0.019575 -0.007767 -0.004224 0.000000 0.002809 0.000000
# 2 -0.007767 0.015200 -0.002415 0.000000 0.003127 0.000000
# 3 -0.004224 -0.002415 0.010304 0.000000 -0.001831 0.000000
# 4 0.000000 0.000000 0.000000 0.072878 0.000000 -0.099847
# 5 0.002809 0.003127 -0.001831 0.000000 0.023794 0.000000
# 6 0.000000 0.000000 0.000000 -0.099847 0.000000 0.228702
#
#
# Mechanical properties :
#
#
# Convention : Reuss Voigt Hill
#
# Bulk Modulus (GPa) = 61.47774 65.37406 63.42590
# Shear Modulus (GPa) = 12.35526 29.59618 20.97572
#
# Velocity S-wave (km/s) = 2.31354 3.58070 3.01446
# Velocity P-wave (km/s) = 5.81116 6.73915 6.29228
#
# Compressibility (1/GPa) = 0.01626605
#
# Stress axis : x y z
#
# Youngs Moduli (GPa) = 51.08680 65.79065 97.05256
#
# Poissons Ratio (x) = 0.51099 0.40993
# Poissons Ratio (y) = 0.39679 0.23440
# Poissons Ratio (z) = 0.21578 0.15890
#
# Static dielectric constant tensor:
#      x y z
#    x 4.075620 0.000000 0.211190 
#    y 0.000000 4.177700 0.000000 
#    z 0.211190 0.000000 4.490360 
# 
# 
# High freq. dielectric constant tensor:
#      x y z
#    x 1.909560 0.000000 0.009150 
#    y 0.000000 1.915530 0.000000 
#    z 0.009150 0.000000 1.920690 
# 
# From -- ./inp_files/7939.got.cif
#   From: 2010.06.25/outbox.cif.g09.slc.cpg/sg15_4_cif.got.tgz:7939.got - 2010.06.28 07:06:18.
