data_PCOD8153270
_publ_section_title
;
Structure prediction by ZEFSAII (Michael W. Deem and Ramdas Pophale) SiO2 
 PCOD8153270
Probable space group: C 2/C
;
_chemical_formula_sum "Si O2"
_cell_formula_units_Z 52
_cell_length_a 18.743985
_cell_length_b 16.695592
_cell_length_c 8.945825
_cell_angle_alpha 90.000000
_cell_angle_beta 60.278853
_cell_angle_gamma 90.000000
_cell_volume 2431.242412
_symmetry_space_group_name_H-M "C 2/C"
_symmetry_group_IT_number 15
_symmetry_cell_setting 'monoclinic'
loop_
_space_group_symop_operation_xyz
x,y,z
-x,y,1/2-z
-x,-y,-z
x,-y,1/2+z
1/2+x,1/2+y,z
1/2-x,1/2+y,1/2-z
1/2-x,1/2-y,-z
1/2+x,1/2-y,1/2+z
loop_
_atom_site_type_symbol
_atom_site_label
_atom_site_fract_x
_atom_site_fract_y
_atom_site_fract_z
Si Si1 0.859038 0.698535 0.493669
Si Si2 0.086054 0.453864 0.383622
Si Si3 0.500000 0.688297 0.750000
Si Si4 0.431126 0.450029 0.152350
Si Si5 0.675588 0.933642 0.998276
Si Si6 0.239085 0.667239 0.193930
Si Si7 0.175245 0.006070 0.478353
O O1 0.903467 0.630449 0.544627
O O2 0.929318 0.760884 0.394751
O O3 0.827247 0.662526 0.370663
O O4 0.784134 0.746083 0.653355
O O5 0.098787 0.436201 0.193154
O O6 0.158639 0.509502 0.372786
O O7 0.000000 0.500000 0.500000
O O8 0.537048 0.639018 0.850806
O O9 0.348318 0.449655 0.137619
O O10 0.407354 0.487681 0.336994
O O11 0.500000 0.500000 0.000000
O O12 0.754552 0.962348 0.003889
O O13 0.693356 0.847179 0.901979
O O14 0.303379 0.595455 0.099530
#
# Coordination Sequence:
#
# PCOD8153270 Si02
#       7
#     8   8   4   8   8   8   8
#     4  11  26  44  68  98 143 185 229 287 359 412
#     4  12  26  45  72 101 138 184 237 298 348 429
#     4  12  26  42  66 100 144 182 222 278 360 422
#     4  12  22  40  67 102 136 180 223 277 342 415
#     4  12  24  43  73 104 131 179 246 285 353 414
#     4  11  23  44  71 102 136 179 230 288 351 414
#     4  12  21  39  71 102 134 171 230 283 330 417
#
# _framework density 21.388242000000002
#
# number of rings (size 3 to 8) (size 9 to 14) (size 15 to 20)
#    0.000    0.308    7.692    0.462    4.308    0.615 
#    0.000    0.000    0.000    0.000    0.000    0.000 
#    0.000    0.000    0.000    0.000    0.000    0.000 
#
# Total GULP energy -322323.511938 kJ/mol
# GULP energy per Si atom -12397.058151 kJ/mol
# Density = 2.133956 g / cm^3
# Si number density = 21.388242 Si / 1000 Ang^3
#
#
#
# Elastic Constant Matrix: (Units=GPa)
#
#
# Indices 1 2 3 4 5 6 
#
# 1 108.0238 58.1676 39.7094 0.0000 13.3836 0.0000
# 2 58.1676 119.7055 51.5334 0.0000 7.3226 0.0000
# 3 39.7094 51.5334 140.1075 0.0000 4.8109 0.0000
# 4 0.0000 0.0000 0.0000 44.9644 0.0000 3.8044
# 5 13.3836 7.3226 4.8109 0.0000 30.7621 0.0000
# 6 0.0000 0.0000 0.0000 3.8044 0.0000 48.5230
#
#
#
# Elastic Compliance Matrix: (Units=1/GPa)
#
#
# Indices 1 2 3 4 5 6 
#
# 1 0.013355 -0.005540 -0.001602 0.000000 -0.004241 0.000000
# 2 -0.005540 0.012324 -0.002961 0.000000 -0.000060 0.000000
# 3 -0.001602 -0.002961 0.008679 0.000000 0.000044 0.000000
# 4 0.000000 0.000000 0.000000 0.022388 0.000000 -0.001755
# 5 -0.004241 -0.000060 0.000044 0.000000 0.034360 0.000000
# 6 0.000000 0.000000 0.000000 -0.001755 0.000000 0.020746
#
#
# Mechanical properties :
#
#
# Convention : Reuss Voigt Hill
#
# Bulk Modulus (GPa) = 70.65936 74.07307 72.36621
# Shear Modulus (GPa) = 36.55624 39.41167 37.98395
#
# Velocity S-wave (km/s) = 4.13870 4.29730 4.21875
# Velocity P-wave (km/s) = 7.47975 7.70261 7.59200
#
# Compressibility (1/GPa) = 0.01415241
#
# Stress axis : x y z
#
# Youngs Moduli (GPa) = 74.87964 81.14014 115.22395
#
# Poissons Ratio (x) = 0.44956 0.18453
# Poissons Ratio (y) = 0.41487 0.34114
# Poissons Ratio (z) = 0.11992 0.24023
#
# Static dielectric constant tensor:
#      x y z
#    x 4.112740 0.000000 0.067060 
#    y 0.000000 3.826270 0.000000 
#    z 0.067060 0.000000 4.216300 
# 
# 
# High freq. dielectric constant tensor:
#      x y z
#    x 1.855860 0.000000 -0.003120 
#    y 0.000000 1.823190 0.000000 
#    z -0.003120 0.000000 1.848360 
# 
# From -- ./inp_files/48925.got.cif
#   From: 2010.06.25/outbox.cif.g09.slc.cpg/sg15_25_cif.got.tgz:48925.got - 2010.06.28 07:06:18.
