data_PCOD8153661
_publ_section_title
;
Structure prediction by ZEFSAII (Michael W. Deem and Ramdas Pophale) SiO2 
 PCOD8153661
Probable space group: C 2/C
;
_chemical_formula_sum "Si O2"
_cell_formula_units_Z 44
_cell_length_a 15.307537
_cell_length_b 16.454071
_cell_length_c 9.520553
_cell_angle_alpha 90.000000
_cell_angle_beta 56.075949
_cell_angle_gamma 90.000000
_cell_volume 1989.769740
_symmetry_space_group_name_H-M "C 2/C"
_symmetry_group_IT_number 15
_symmetry_cell_setting 'monoclinic'
loop_
_space_group_symop_operation_xyz
x,y,z
-x,y,1/2-z
-x,-y,-z
x,-y,1/2+z
1/2+x,1/2+y,z
1/2-x,1/2+y,1/2-z
1/2-x,1/2-y,-z
1/2+x,1/2-y,1/2+z
loop_
_atom_site_type_symbol
_atom_site_label
_atom_site_fract_x
_atom_site_fract_y
_atom_site_fract_z
Si Si1 0.399095 0.441448 0.114868
Si Si2 0.247285 0.674328 0.607789
Si Si3 0.685955 0.728349 0.422044
Si Si4 0.782137 0.560552 0.269387
Si Si5 0.500000 0.337552 0.250000
Si Si6 0.616440 0.965111 0.097051
O O1 0.360520 0.373886 0.030664
O O2 0.304274 0.502206 0.221179
O O3 0.416290 0.393527 0.244368
O O4 0.500000 0.500000 0.000000
O O5 0.250000 0.750000 0.500000
O O6 0.197670 0.699293 0.801712
O O7 0.159569 0.616527 0.625161
O O8 0.750000 0.750000 0.500000
O O9 0.735568 0.650094 0.302417
O O10 0.563817 0.715595 0.577685
O O11 0.815143 0.539875 0.399230
O O12 0.879165 0.545184 0.075342
O O13 0.500000 0.981529 0.250000
#
# Coordination Sequence:
#
# PCOD8153661 Si02
#       6
#     8   8   8   8   4   8
#     4  11  24  43  74 103 139 188 243 297 364 439
#     4  11  25  46  71 104 148 184 232 309 371 425
#     4  12  25  44  68 100 144 182 233 296 357 427
#     4  11  24  45  69 100 140 183 233 305 352 434
#     4  12  24  44  70 108 134 190 246 282 368 436
#     4  11  25  45  69  98 136 186 241 281 364 436
#
# _framework density 22.113112000000001
#
# number of rings (size 3 to 8) (size 9 to 14) (size 15 to 20)
#    0.000    0.727    5.455    1.636    5.091    2.909 
#    1.636    0.000    0.000    0.000    0.000    0.000 
#    0.000    0.000    0.000    0.000    0.000    0.000 
#
# Total GULP energy -272606.018207 kJ/mol
# GULP energy per Si atom -12391.182646 kJ/mol
# Density = 2.206278 g / cm^3
# Si number density = 22.113112 Si / 1000 Ang^3
#
#
#
# Elastic Constant Matrix: (Units=GPa)
#
#
# Indices 1 2 3 4 5 6 
#
# 1 85.4772 29.6918 12.9485 0.0000 -1.5876 0.0000
# 2 29.6918 90.5873 16.5363 0.0000 -1.1885 0.0000
# 3 12.9485 16.5363 111.3479 0.0000 -7.2040 0.0000
# 4 0.0000 0.0000 0.0000 27.2807 0.0000 -2.5370
# 5 -1.5876 -1.1885 -7.2040 0.0000 44.8264 0.0000
# 6 0.0000 0.0000 0.0000 -2.5370 0.0000 31.9045
#
#
#
# Elastic Compliance Matrix: (Units=1/GPa)
#
#
# Indices 1 2 3 4 5 6 
#
# 1 0.013296 -0.004189 -0.000910 0.000000 0.000214 0.000000
# 2 -0.004189 0.012667 -0.001396 0.000000 -0.000037 0.000000
# 3 -0.000910 -0.001396 0.009387 0.000000 0.001439 0.000000
# 4 0.000000 0.000000 0.000000 0.036929 0.000000 0.002937
# 5 0.000214 -0.000037 0.001439 0.000000 0.022546 0.000000
# 6 0.000000 0.000000 0.000000 0.002937 0.000000 0.031577
#
#
# Mechanical properties :
#
#
# Convention : Reuss Voigt Hill
#
# Bulk Modulus (GPa) = 44.72589 45.08509 44.90549
# Shear Modulus (GPa) = 34.04923 36.01804 35.03363
#
# Velocity S-wave (km/s) = 3.92825 4.04023 3.98464
# Velocity P-wave (km/s) = 6.39099 6.49594 6.44368
#
# Compressibility (1/GPa) = 0.02235841
#
# Stress axis : x y z
#
# Youngs Moduli (GPa) = 75.21043 78.94815 106.52792
#
# Poissons Ratio (x) = 0.33072 0.09697
# Poissons Ratio (y) = 0.31506 0.14875
# Poissons Ratio (z) = 0.06846 0.11024
#
# Static dielectric constant tensor:
#      x y z
#    x 0.777470 0.000000 7.738360 
#    y 0.000000 4.286300 0.000000 
#    z 7.738360 0.000000 -12.561800 
# 
# 
# High freq. dielectric constant tensor:
#      x y z
#    x 1.874490 0.000000 0.010950 
#    y 0.000000 1.882190 0.000000 
#    z 0.010950 0.000000 1.867410 
# 
# From -- ./inp_files/39539.got.cif
#   From: 2010.06.25/outbox.cif.g09.slc.cpg/sg15_20_cif.got.tgz:39539.got - 2010.06.28 07:06:18.
