data_PCOD8153646
_publ_section_title
;
Structure prediction by ZEFSAII (Michael W. Deem and Ramdas Pophale) SiO2 
 PCOD8153646
Probable space group: C 2/C
;
_chemical_formula_sum "Si O2"
_cell_formula_units_Z 32
_cell_length_a 35.125898
_cell_length_b 4.729550
_cell_length_c 19.119077
_cell_angle_alpha 90.000000
_cell_angle_beta 156.643129
_cell_angle_gamma 90.000000
_cell_volume 1259.244925
_symmetry_space_group_name_H-M "C 2/C"
_symmetry_group_IT_number 15
_symmetry_cell_setting 'monoclinic'
loop_
_space_group_symop_operation_xyz
x,y,z
-x,y,1/2-z
-x,-y,-z
x,-y,1/2+z
1/2+x,1/2+y,z
1/2-x,1/2+y,1/2-z
1/2-x,1/2-y,-z
1/2+x,1/2-y,1/2+z
loop_
_atom_site_type_symbol
_atom_site_label
_atom_site_fract_x
_atom_site_fract_y
_atom_site_fract_z
Si Si1 0.277496 0.039532 0.109595
Si Si2 0.405074 0.785487 0.222226
Si Si3 0.297106 0.940688 0.798066
Si Si4 0.486920 0.707785 0.649411
O O1 0.300052 0.173011 0.223093
O O2 0.372868 0.861207 0.247573
O O3 0.250000 0.250000 0.000000
O O4 0.188532 0.833934 0.974454
O O5 0.494683 0.563945 0.370545
O O6 0.427813 0.071913 0.219838
O O7 0.292846 0.653878 0.837233
O O8 0.387938 0.134083 0.969071
O O9 0.500000 0.594664 0.750000
#
# Coordination Sequence:
#
# PCOD8153646 Si02
#       4
#     8   8   8   8
#     4  11  25  47  73 101 145 187 233 292 356 428
#     4  11  24  43  71  99 137 188 231 285 359 415
#     4  12  28  46  72 104 142 188 241 293 358 421
#     4  12  24  44  69 103 142 183 237 298 348 420
#
# _framework density 25.412057000000001
#
# number of rings (size 3 to 8) (size 9 to 14) (size 15 to 20)
#    0.000    0.500    2.500    5.250    7.000    2.000 
#    0.000    0.000    0.000    0.000    0.000    0.000 
#    0.000    0.000    0.000    0.000    0.000    0.000 
#
# Total GULP energy -198303.606761 kJ/mol
# GULP energy per Si atom -12393.975423 kJ/mol
# Density = 2.535422 g / cm^3
# Si number density = 25.412057 Si / 1000 Ang^3
#
#
#
# Elastic Constant Matrix: (Units=GPa)
#
#
# Indices 1 2 3 4 5 6 
#
# 1 149.0524 50.2565 40.8508 0.0018 -24.1201 -0.0025
# 2 50.2565 118.1756 -9.7038 0.0022 -15.0574 -0.0100
# 3 40.8508 -9.7038 37.1407 0.0017 -14.7126 -0.0062
# 4 0.0018 0.0022 0.0017 31.9358 -0.0020 3.3707
# 5 -24.1201 -15.0574 -14.7126 -0.0020 34.6864 0.0025
# 6 -0.0025 -0.0100 -0.0062 3.3707 0.0025 32.7068
#
#
#
# Elastic Compliance Matrix: (Units=1/GPa)
#
#
# Indices 1 2 3 4 5 6 
#
# 1 0.013916 -0.007511 -0.017701 0.000001 -0.001091 -0.000005
# 2 -0.007511 0.013738 0.014596 -0.000002 0.006932 0.000006
# 3 -0.017701 0.014596 0.057503 -0.000003 0.018418 0.000013
# 4 0.000001 -0.000002 -0.000003 0.031657 0.000001 -0.003263
# 5 -0.001091 0.006932 0.018418 0.000001 0.038892 0.000002
# 6 -0.000005 0.000006 0.000013 -0.003263 0.000002 0.030911
#
#
# Mechanical properties :
#
#
# Convention : Reuss Voigt Hill
#
# Bulk Modulus (GPa) = 15.64296 51.90842 33.77569
# Shear Modulus (GPa) = 21.81908 34.73016 28.27462
#
# Velocity S-wave (km/s) = 2.93339 3.70087 3.33925
# Velocity P-wave (km/s) = 4.20025 6.22358 5.30919
#
# Compressibility (1/GPa) = 0.06392654
#
# Stress axis : x y z
#
# Youngs Moduli (GPa) = 71.85898 72.79165 17.39027
#
# Poissons Ratio (x) = 0.54671 0.30783
# Poissons Ratio (y) = 0.53971 -0.25383
# Poissons Ratio (z) = 1.27198 -1.06248
#
# Static dielectric constant tensor:
#      x y z
#    x 5.046410 0.000020 0.715830 
#    y 0.000020 4.890980 0.000000 
#    z 0.715830 0.000000 4.261100 
# 
# 
# High freq. dielectric constant tensor:
#      x y z
#    x 2.028180 0.000000 0.039330 
#    y 0.000000 2.028990 0.000000 
#    z 0.039330 0.000000 1.988990 
# 
# From -- ./inp_files/223767.got.cif
#   From: 2010.06.25/outbox.cif.g09.slc.cpg/sg15_112_cif.got.tgz:223767.got - 2010.06.28 07:06:18.
