data_PCOD8153882
_publ_section_title
;
Structure prediction by ZEFSAII (Michael W. Deem and Ramdas Pophale) SiO2 
 PCOD8153882
Probable space group: C 2/C
;
_chemical_formula_sum "Si O2"
_cell_formula_units_Z 48
_cell_length_a 16.076819
_cell_length_b 25.682799
_cell_length_c 11.927357
_cell_angle_alpha 90.000000
_cell_angle_beta 26.683793
_cell_angle_gamma 90.000000
_cell_volume 2211.551901
_symmetry_space_group_name_H-M "C 2/C"
_symmetry_group_IT_number 15
_symmetry_cell_setting 'monoclinic'
loop_
_space_group_symop_operation_xyz
x,y,z
-x,y,1/2-z
-x,-y,-z
x,-y,1/2+z
1/2+x,1/2+y,z
1/2-x,1/2+y,1/2-z
1/2-x,1/2-y,-z
1/2+x,1/2-y,1/2+z
loop_
_atom_site_type_symbol
_atom_site_label
_atom_site_fract_x
_atom_site_fract_y
_atom_site_fract_z
Si Si1 0.500000 0.798622 0.750000
Si Si2 0.594301 0.732055 0.419143
Si Si3 0.979889 0.314841 0.405787
Si Si4 0.500000 0.581335 0.750000
Si Si5 0.159472 0.142916 0.743219
Si Si6 0.138188 0.483195 0.688048
Si Si7 0.884535 0.418613 0.151220
O O1 0.522928 0.761082 0.616642
O O2 0.676238 0.837802 0.538645
O O3 0.625147 0.774598 0.284903
O O4 0.428293 0.692346 0.586786
O O5 0.783213 0.699779 0.198800
O O6 0.000000 0.309172 0.250000
O O7 0.026216 0.373041 0.384233
O O8 0.494233 0.617891 0.867417
O O9 0.674975 0.545852 0.568836
O O10 0.230562 0.102410 0.750711
O O11 0.200742 0.539633 0.659482
O O12 0.000000 0.489726 0.750000
O O13 0.047930 0.447744 0.891179
#
# Coordination Sequence:
#
# PCOD8153882 Si02
#       7
#     4   8   8   4   8   8   8
#     4  12  23  42  70 106 152 182 238 301 366 410
#     4  12  25  41  69 105 143 192 242 296 357 435
#     4  12  25  46  67  99 145 201 241 292 355 438
#     4  12  25  42  74 106 140 182 232 311 370 430
#     4  12  24  41  69 111 145 181 235 300 372 438
#     4  11  24  48  72 102 140 182 239 310 371 428
#     4  11  24  46  70  98 142 188 238 301 366 422
#
# _framework density 21.704215000000001
#
# number of rings (size 3 to 8) (size 9 to 14) (size 15 to 20)
#    0.000    0.333    5.000    4.000    2.333    0.667 
#    6.000    0.000    0.000    0.000    0.000    0.000 
#    0.000    0.000    0.000    0.000    0.000    0.000 
#
# Total GULP energy -297533.931929 kJ/mol
# GULP energy per Si atom -12397.247164 kJ/mol
# Density = 2.165482 g / cm^3
# Si number density = 21.704215 Si / 1000 Ang^3
#
#
#
# Elastic Constant Matrix: (Units=GPa)
#
#
# Indices 1 2 3 4 5 6 
#
# 1 147.3875 64.9790 29.4017 -0.0172 8.5475 0.0287
# 2 64.9790 141.5715 25.2282 -0.0119 6.4782 0.0178
# 3 29.4017 25.2282 52.1000 -0.0344 -2.5477 0.0237
# 4 -0.0172 -0.0119 -0.0344 21.2888 0.0107 -3.2307
# 5 8.5475 6.4782 -2.5477 0.0107 33.2265 -0.0161
# 6 0.0287 0.0178 0.0237 -3.2307 -0.0161 33.1118
#
#
#
# Elastic Compliance Matrix: (Units=1/GPa)
#
#
# Indices 1 2 3 4 5 6 
#
# 1 0.009140 -0.003469 -0.003574 0.000000 -0.001949 -0.000004
# 2 -0.003469 0.009156 -0.002529 -0.000001 -0.001087 -0.000001
# 3 -0.003574 -0.002529 0.022589 0.000029 0.003144 -0.000007
# 4 0.000000 -0.000001 0.000029 0.047679 -0.000011 0.004652
# 5 -0.001949 -0.001087 0.003144 -0.000011 0.031051 0.000014
# 6 -0.000004 -0.000001 -0.000007 0.004652 0.000014 0.030655
#
#
# Mechanical properties :
#
#
# Convention : Reuss Voigt Hill
#
# Bulk Modulus (GPa) = 45.99430 64.47520 55.23475
# Shear Modulus (GPa) = 28.30281 32.28875 30.29578
#
# Velocity S-wave (km/s) = 3.61504 3.86122 3.74016
# Velocity P-wave (km/s) = 6.21789 7.04624 6.64498
#
# Compressibility (1/GPa) = 0.02174182
#
# Stress axis : x y z
#
# Youngs Moduli (GPa) = 109.40667 109.21451 44.26944
#
# Poissons Ratio (x) = 0.37889 0.15820
# Poissons Ratio (y) = 0.37956 0.11196
# Poissons Ratio (z) = 0.39097 0.27621
#
# Static dielectric constant tensor:
#      x y z
#    x 3.952270 -0.000080 -0.025230 
#    y -0.000080 4.407600 0.000080 
#    z -0.025230 0.000080 3.801770 
# 
# 
# High freq. dielectric constant tensor:
#      x y z
#    x 1.858960 0.000000 -0.008370 
#    y 0.000000 1.879660 0.000000 
#    z -0.008370 0.000000 1.832510 
# 
# From -- ./inp_files/101268.got.cif
#   From: 2010.06.25/outbox.cif.g09.slc.cpg/sg15_51_cif.got.tgz:101268.got - 2010.06.28 07:06:18.
