data_PCOD8153279
_publ_section_title
;
Structure prediction by ZEFSAII (Michael W. Deem and Ramdas Pophale) SiO2 
 PCOD8153279
Probable space group: C 2/C
;
_chemical_formula_sum "Si O2"
_cell_formula_units_Z 60
_cell_length_a 22.023418
_cell_length_b 8.515589
_cell_length_c 25.775366
_cell_angle_alpha 90.000000
_cell_angle_beta 147.874486
_cell_angle_gamma 90.000000
_cell_volume 2570.589836
_symmetry_space_group_name_H-M "C 2/C"
_symmetry_group_IT_number 15
_symmetry_cell_setting 'monoclinic'
loop_
_space_group_symop_operation_xyz
x,y,z
-x,y,1/2-z
-x,-y,-z
x,-y,1/2+z
1/2+x,1/2+y,z
1/2-x,1/2+y,1/2-z
1/2-x,1/2-y,-z
1/2+x,1/2-y,1/2+z
loop_
_atom_site_type_symbol
_atom_site_label
_atom_site_fract_x
_atom_site_fract_y
_atom_site_fract_z
Si Si1 0.875803 0.431230 0.036397
Si Si2 0.676164 0.597704 0.546493
Si Si3 0.683099 0.588915 0.953813
Si Si4 0.226393 0.822151 0.708296
Si Si5 0.072453 0.368175 0.022841
Si Si6 0.114255 0.123236 0.614856
Si Si7 0.500000 0.718567 0.750000
Si Si8 0.606855 0.032206 0.253308
O O1 0.871140 0.561033 0.987774
O O2 0.991511 0.444668 0.153234
O O3 0.866907 0.260235 0.006814
O O4 0.767101 0.452728 0.994698
O O5 0.645135 0.456783 0.484595
O O6 0.605714 0.572041 0.548474
O O7 0.811622 0.591517 0.657656
O O8 0.571407 0.602203 0.837981
O O9 0.750000 0.750000 0.000000
O O10 0.170856 0.687628 0.632687
O O11 0.277378 0.738611 0.796200
O O12 0.329917 0.902818 0.751838
O O13 0.135368 0.957290 0.660344
O O14 0.998923 0.217019 0.951321
O O15 0.000000 0.500000 0.000000
O O16 0.418144 0.825261 0.725875
#
# Coordination Sequence:
#
# PCOD8153279 Si02
#       8
#     8   8   8   8   8   8   4   8
#     4  12  25  45  75 102 149 190 241 304 370 443
#     4  11  26  44  72 105 145 188 241 304 368 438
#     4  12  25  47  74 106 143 187 245 300 369 445
#     4  11  25  43  69 103 146 191 250 301 367 448
#     4  12  24  45  69 106 146 195 242 307 375 435
#     4  11  24  44  69 104 143 196 244 304 368 443
#     4  12  24  46  76 106 138 188 240 302 362 450
#     4  11  23  44  72 102 145 193 238 299 374 431
#
# _framework density 23.340947
#
# number of rings (size 3 to 8) (size 9 to 14) (size 15 to 20)
#    0.000    0.533    5.333    2.400    3.733    1.067 
#    2.400    0.000    0.000    0.000    0.000    0.000 
#    0.000    0.000    0.000    0.000    0.000    0.000 
#
# Total GULP energy -372057.505603 kJ/mol
# GULP energy per Si atom -12401.916853 kJ/mol
# Density = 2.328782 g / cm^3
# Si number density = 23.340947 Si / 1000 Ang^3
#
#
#
# Elastic Constant Matrix: (Units=GPa)
#
#
# Indices 1 2 3 4 5 6 
#
# 1 66.6115 23.0495 14.8612 0.0001 -11.3052 0.0000
# 2 23.0495 108.1638 40.3775 0.0000 -13.0465 -0.0001
# 3 14.8612 40.3775 134.0082 0.0003 -16.0369 0.0002
# 4 0.0001 0.0000 0.0003 40.8201 0.0001 -6.8884
# 5 -11.3052 -13.0465 -16.0369 0.0001 32.9478 0.0000
# 6 0.0000 -0.0001 0.0002 -6.8884 0.0000 40.5362
#
#
#
# Elastic Compliance Matrix: (Units=1/GPa)
#
#
# Indices 1 2 3 4 5 6 
#
# 1 0.016865 -0.002885 -0.000473 0.000000 0.004414 0.000000
# 2 -0.002885 0.011152 -0.002793 0.000000 0.002067 0.000000
# 3 -0.000473 -0.002793 0.008712 0.000000 0.002972 0.000000
# 4 0.000000 0.000000 0.000000 0.025221 0.000000 0.004286
# 5 0.004414 0.002067 0.002972 0.000000 0.034131 0.000000
# 6 0.000000 0.000000 0.000000 0.004286 0.000000 0.025398
#
#
# Mechanical properties :
#
#
# Convention : Reuss Voigt Hill
#
# Bulk Modulus (GPa) = 40.93704 51.70665 46.32185
# Shear Modulus (GPa) = 35.23051 38.22718 36.72885
#
# Velocity S-wave (km/s) = 3.88930 4.05133 3.97114
# Velocity P-wave (km/s) = 6.14375 6.63967 6.39652
#
# Compressibility (1/GPa) = 0.02442775
#
# Stress axis : x y z
#
# Youngs Moduli (GPa) = 59.29291 89.67103 114.78595
#
# Poissons Ratio (x) = 0.25870 0.05427
# Poissons Ratio (y) = 0.17106 0.32058
# Poissons Ratio (z) = 0.02803 0.25044
#
# Static dielectric constant tensor:
#      x y z
#    x 5.105840 0.000000 0.428530 
#    y 0.000000 4.255830 0.000000 
#    z 0.428530 0.000000 4.839950 
# 
# 
# High freq. dielectric constant tensor:
#      x y z
#    x 1.911980 0.000000 -0.004650 
#    y 0.000000 1.927820 0.000000 
#    z -0.004650 0.000000 1.941860 
# 
# From -- ./inp_files/302079.got.cif
#   From: 2010.06.25/outbox.cif.g09.slc.cpg/sg15_152_cif.got.tgz:302079.got - 2010.06.28 07:06:18.
