data_PCOD8153610
_publ_section_title
;
Structure prediction by ZEFSAII (Michael W. Deem and Ramdas Pophale) SiO2 
 PCOD8153610
Probable space group: C 2/C
;
_chemical_formula_sum "Si O2"
_cell_formula_units_Z 40
_cell_length_a 18.962817
_cell_length_b 15.112453
_cell_length_c 16.793478
_cell_angle_alpha 90.000000
_cell_angle_beta 157.040951
_cell_angle_gamma 90.000000
_cell_volume 1877.260262
_symmetry_space_group_name_H-M "C 2/C"
_symmetry_group_IT_number 15
_symmetry_cell_setting 'monoclinic'
loop_
_space_group_symop_operation_xyz
x,y,z
-x,y,1/2-z
-x,-y,-z
x,-y,1/2+z
1/2+x,1/2+y,z
1/2-x,1/2+y,1/2-z
1/2-x,1/2-y,-z
1/2+x,1/2-y,1/2+z
loop_
_atom_site_type_symbol
_atom_site_label
_atom_site_fract_x
_atom_site_fract_y
_atom_site_fract_z
Si Si1 0.616174 0.142427 0.028003
Si Si2 0.579823 0.036725 0.415623
Si Si3 0.814624 0.670629 0.218732
Si Si4 0.108085 0.792298 0.794625
Si Si5 0.928546 0.149490 0.764472
O O1 0.617268 0.170483 0.120290
O O2 0.814663 0.144402 0.193437
O O3 0.494888 0.212588 0.855873
O O4 0.553288 0.041157 0.952916
O O5 0.500000 0.999767 0.250000
O O6 0.453615 0.116842 0.309981
O O7 0.789606 0.067026 0.624367
O O8 0.815891 0.768993 0.184045
O O9 0.610565 0.631577 0.004960
O O10 0.000000 0.848620 0.750000
O O11 0.250000 0.750000 0.000000
O O12 0.000000 0.169020 0.750000
#
# Coordination Sequence:
#
# PCOD8153610 Si02
#       5
#     8   8   8   8   8
#     4  11  24  43  66 101 135 176 223 287 344 392
#     4  12  25  44  69  99 138 179 230 280 335 410
#     4  12  24  43  67 100 140 173 227 281 344 403
#     4   9  19  40  65  89 126 177 224 260 327 408
#     4  12  24  43  71 101 134 186 227 272 343 414
#
# _framework density 21.307649000000001
#
# number of rings (size 3 to 8) (size 9 to 14) (size 15 to 20)
#    0.000    0.800    4.000    4.800    0.000    1.600 
#    7.200    0.000    0.000    0.000    0.000    0.000 
#    0.000    0.000    0.000    0.000    0.000    0.000 
#
# Total GULP energy -247826.441301 kJ/mol
# GULP energy per Si atom -12391.322065 kJ/mol
# Density = 2.125915 g / cm^3
# Si number density = 21.307649 Si / 1000 Ang^3
#
#
#
# Elastic Constant Matrix: (Units=GPa)
#
#
# Indices 1 2 3 4 5 6 
#
# 1 72.1901 5.2834 19.0559 -0.0064 -17.7654 -0.0049
# 2 5.2834 66.1699 17.6715 -0.0113 -9.4142 -0.0068
# 3 19.0559 17.6715 118.7459 -0.0072 -4.7239 -0.0065
# 4 -0.0064 -0.0113 -0.0072 21.1605 -0.0053 1.7039
# 5 -17.7654 -9.4142 -4.7239 -0.0053 41.7228 -0.0033
# 6 -0.0049 -0.0068 -0.0065 1.7039 -0.0033 25.8427
#
#
#
# Elastic Compliance Matrix: (Units=1/GPa)
#
#
# Indices 1 2 3 4 5 6 
#
# 1 0.016091 0.000292 -0.002361 0.000006 0.006650 0.000003
# 2 0.000292 0.016209 -0.002319 0.000009 0.003519 0.000004
# 3 -0.002361 -0.002319 0.009126 0.000001 -0.000495 0.000001
# 4 0.000006 0.000009 0.000001 0.047510 0.000010 -0.003133
# 5 0.006650 0.003519 -0.000495 0.000010 0.027537 0.000005
# 6 0.000003 0.000004 0.000001 -0.003133 0.000005 0.038902
#
#
# Mechanical properties :
#
#
# Convention : Reuss Voigt Hill
#
# Bulk Modulus (GPa) = 30.62870 37.90306 34.26588
# Shear Modulus (GPa) = 28.56577 32.08487 30.32532
#
# Velocity S-wave (km/s) = 3.66544 3.88466 3.77664
# Velocity P-wave (km/s) = 5.68504 6.16019 5.92737
#
# Compressibility (1/GPa) = 0.03264911
#
# Stress axis : x y z
#
# Youngs Moduli (GPa) = 62.14778 61.69290 109.58121
#
# Poissons Ratio (x) = -0.01801 0.25873
# Poissons Ratio (y) = -0.01814 0.25413
# Poissons Ratio (z) = 0.14673 0.14307
#
# Static dielectric constant tensor:
#      x y z
#    x 4.454630 0.000010 0.357590 
#    y 0.000010 3.493450 -0.000010 
#    z 0.357590 -0.000010 4.272680 
# 
# 
# High freq. dielectric constant tensor:
#      x y z
#    x 1.853300 0.000000 0.003070 
#    y 0.000000 1.814390 0.000000 
#    z 0.003070 0.000000 1.849540 
# 
# From -- ./inp_files/215828.got.cif
#   From: 2010.06.25/outbox.cif.g09.slc.cpg/sg15_108_cif.got.tgz:215828.got - 2010.06.28 07:06:18.
