data_PCOD8153746
_publ_section_title
;
Structure prediction by ZEFSAII (Michael W. Deem and Ramdas Pophale) SiO2 
 PCOD8153746
Probable space group: C 2/C
;
_chemical_formula_sum "Si O2"
_cell_formula_units_Z 48
_cell_length_a 8.870889
_cell_length_b 24.037197
_cell_length_c 16.129360
_cell_angle_alpha 90.000000
_cell_angle_beta 35.500434
_cell_angle_gamma 90.000000
_cell_volume 1997.223887
_symmetry_space_group_name_H-M "C 2/C"
_symmetry_group_IT_number 15
_symmetry_cell_setting 'monoclinic'
loop_
_space_group_symop_operation_xyz
x,y,z
-x,y,1/2-z
-x,-y,-z
x,-y,1/2+z
1/2+x,1/2+y,z
1/2-x,1/2+y,1/2-z
1/2-x,1/2-y,-z
1/2+x,1/2-y,1/2+z
loop_
_atom_site_type_symbol
_atom_site_label
_atom_site_fract_x
_atom_site_fract_y
_atom_site_fract_z
Si Si1 0.773028 0.096866 0.290029
Si Si2 0.554212 0.573255 0.015343
Si Si3 0.500000 0.139539 0.750000
Si Si4 0.263495 0.033983 0.490570
Si Si5 0.302514 0.216340 0.136322
Si Si6 0.000000 0.106886 0.750000
Si Si7 0.347883 0.797469 0.166775
O O1 0.569710 0.045926 0.368428
O O2 0.616931 0.152080 0.386475
O O3 0.000000 0.077507 0.250000
O O4 0.908829 0.114943 0.142707
O O5 0.745774 0.601543 0.863744
O O6 0.323614 0.548392 0.063784
O O7 0.704609 0.532040 0.013629
O O8 0.465746 0.178724 0.845069
O O9 0.104205 0.066554 0.631734
O O10 0.351157 0.254624 0.196789
O O11 0.000000 0.218575 0.250000
O O12 0.485446 0.235586 0.977600
O O13 0.786048 0.148157 0.809620
#
# Coordination Sequence:
#
# PCOD8153746 Si02
#       7
#     8   8   4   8   8   4   8
#     4  11  25  46  73 108 145 185 246 305 365 436
#     4  11  27  44  73 104 140 198 241 301 364 443
#     4  12  24  46  74 104 148 192 248 304 366 440
#     4  11  26  48  71 102 148 189 245 300 373 435
#     4  11  24  44  73 107 143 194 246 301 368 438
#     4  12  26  50  68 108 146 194 238 314 372 430
#     4  12  26  45  73 105 149 193 250 304 367 441
#
# _framework density 24.033360999999999
#
# number of rings (size 3 to 8) (size 9 to 14) (size 15 to 20)
#    0.000    0.667    4.167    3.000    8.167    1.333 
#    3.000    0.000    0.000    0.000    0.000    0.000 
#    0.000    0.000    0.000    0.000    0.000    0.000 
#
# Total GULP energy -297360.495256 kJ/mol
# GULP energy per Si atom -12390.020636 kJ/mol
# Density = 2.397866 g / cm^3
# Si number density = 24.033361 Si / 1000 Ang^3
#
#
#
# Elastic Constant Matrix: (Units=GPa)
#
#
# Indices 1 2 3 4 5 6 
#
# 1 95.6087 38.8076 41.4894 0.0002 1.9036 -0.0001
# 2 38.8076 92.4915 37.9912 0.0001 7.4336 0.0000
# 3 41.4894 37.9912 175.2806 0.0005 26.0351 -0.0002
# 4 0.0002 0.0001 0.0005 42.4525 -0.0002 3.6828
# 5 1.9036 7.4336 26.0351 -0.0002 37.0110 0.0001
# 6 -0.0001 0.0000 -0.0002 3.6828 0.0001 42.7773
#
#
#
# Elastic Compliance Matrix: (Units=1/GPa)
#
#
# Indices 1 2 3 4 5 6 
#
# 1 0.013420 -0.004791 -0.002433 0.000000 0.001983 0.000000
# 2 -0.004791 0.013592 -0.001612 0.000000 -0.001350 0.000000
# 3 -0.002433 -0.001612 0.007329 0.000000 -0.004707 0.000000
# 4 0.000000 0.000000 0.000000 0.023733 0.000000 -0.002043
# 5 0.001983 -0.001350 -0.004707 0.000000 0.030499 0.000000
# 6 0.000000 0.000000 0.000000 -0.002043 0.000000 0.023553
#
#
# Mechanical properties :
#
#
# Convention : Reuss Voigt Hill
#
# Bulk Modulus (GPa) = 59.98263 66.66189 63.32226
# Shear Modulus (GPa) = 36.93997 40.78768 38.86383
#
# Velocity S-wave (km/s) = 3.92475 4.12409 4.02565
# Velocity P-wave (km/s) = 6.74911 7.10457 6.92912
#
# Compressibility (1/GPa) = 0.01667149
#
# Stress axis : x y z
#
# Youngs Moduli (GPa) = 74.51473 73.57027 136.43635
#
# Poissons Ratio (x) = 0.35247 0.33192
# Poissons Ratio (y) = 0.35700 0.21987
# Poissons Ratio (z) = 0.18128 0.11856
#
# Static dielectric constant tensor:
#      x y z
#    x 6.160680 0.000000 1.131460 
#    y 0.000000 4.504540 0.000000 
#    z 1.131460 0.000000 4.763580 
# 
# 
# High freq. dielectric constant tensor:
#      x y z
#    x 1.945090 0.000000 0.020270 
#    y 0.000000 1.950110 0.000000 
#    z 0.020270 0.000000 1.966570 
# 
# From -- ./inp_files/138953.got.cif
#   From: 2010.06.25/outbox.cif.g09.slc.cpg/sg15_70_cif.got.tgz:138953.got - 2010.06.28 07:06:18.
