data_PCOD8153271
_publ_section_title
;
Structure prediction by ZEFSAII (Michael W. Deem and Ramdas Pophale) SiO2 
 PCOD8153271
Probable space group: C 2/C
;
_chemical_formula_sum "Si O2"
_cell_formula_units_Z 48
_cell_length_a 18.640828
_cell_length_b 11.591421
_cell_length_c 25.666540
_cell_angle_alpha 90.000000
_cell_angle_beta 21.049585
_cell_angle_gamma 90.000000
_cell_volume 1991.939852
_symmetry_space_group_name_H-M "C 2/C"
_symmetry_group_IT_number 15
_symmetry_cell_setting 'monoclinic'
loop_
_space_group_symop_operation_xyz
x,y,z
-x,y,1/2-z
-x,-y,-z
x,-y,1/2+z
1/2+x,1/2+y,z
1/2-x,1/2+y,1/2-z
1/2-x,1/2-y,-z
1/2+x,1/2-y,1/2+z
loop_
_atom_site_type_symbol
_atom_site_label
_atom_site_fract_x
_atom_site_fract_y
_atom_site_fract_z
Si Si1 0.500000 0.954745 0.750000
Si Si2 0.496025 0.675245 0.422884
Si Si3 0.500000 0.605086 0.750000
Si Si4 0.760953 0.176358 0.677694
Si Si5 0.109866 0.264099 0.514609
Si Si6 0.364471 0.473531 0.447086
Si Si7 0.827413 0.411936 0.765573
O O1 0.635719 0.021765 0.614781
O O2 0.339754 0.888504 0.820667
O O3 0.553772 0.770511 0.340393
O O4 0.289976 0.699187 0.595098
O O5 0.505348 0.552686 0.387030
O O6 0.659766 0.674056 0.357805
O O7 0.676981 0.688896 0.650747
O O8 0.570100 0.517570 0.656945
O O9 0.951791 0.231711 0.577158
O O10 0.745938 0.040543 0.697068
O O11 0.131595 0.161365 0.541529
O O12 0.034359 0.376989 0.598262
#
# Coordination Sequence:
#
# PCOD8153271 Si02
#       7
#     4   8   4   8   8   8   8
#     4  12  23  42  75  98 138 187 226 279 342 416
#     4  11  25  45  71  98 135 186 231 282 334 413
#     4  12  27  40  67 116 144 165 224 297 356 402
#     4  11  24  44  71  99 138 184 236 272 335 413
#     4  11  25  40  72 106 143 180 218 290 346 405
#     4  12  25  44  68 104 141 179 227 281 354 407
#     4  11  23  44  71 103 134 182 234 274 338 415
#
# _framework density 24.097114000000001
#
# number of rings (size 3 to 8) (size 9 to 14) (size 15 to 20)
#    0.000    0.667    5.000    2.500    7.000    1.333 
#    0.000    5.000    0.000    0.000    0.000    0.000 
#    0.000    0.000    0.000    0.000    0.000    0.000 
#
# Total GULP energy -297316.724688 kJ/mol
# GULP energy per Si atom -12388.196862 kJ/mol
# Density = 2.404227 g / cm^3
# Si number density = 24.097114 Si / 1000 Ang^3
#
#
#
# Elastic Constant Matrix: (Units=GPa)
#
#
# Indices 1 2 3 4 5 6 
#
# 1 104.1694 35.9070 40.4011 -0.0586 31.7285 -0.0305
# 2 35.9070 86.0625 55.7561 0.0305 24.9067 0.0240
# 3 40.4011 55.7561 159.8009 -0.0382 50.3438 0.0197
# 4 -0.0586 0.0305 -0.0382 22.9783 0.0428 9.1123
# 5 31.7285 24.9067 50.3438 0.0428 45.8274 0.0151
# 6 -0.0305 0.0240 0.0197 9.1123 0.0151 24.6716
#
#
#
# Elastic Compliance Matrix: (Units=1/GPa)
#
#
# Indices 1 2 3 4 5 6 
#
# 1 0.012926 -0.003422 0.000244 0.000049 -0.007357 0.000005
# 2 -0.003422 0.016335 -0.004257 -0.000033 -0.001832 -0.000004
# 3 0.000244 -0.004257 0.010714 0.000048 -0.009625 -0.000016
# 4 0.000049 -0.000033 0.000048 0.050988 -0.000111 -0.018832
# 5 -0.007357 -0.001832 -0.009625 -0.000111 0.038484 0.000018
# 6 0.000005 -0.000004 -0.000016 -0.018832 0.000018 0.047488
#
#
# Mechanical properties :
#
#
# Convention : Reuss Voigt Hill
#
# Bulk Modulus (GPa) = 39.83333 68.24013 54.03673
# Shear Modulus (GPa) = 24.97844 33.22669 29.10256
#
# Velocity S-wave (km/s) = 3.22308 3.71734 3.47900
# Velocity P-wave (km/s) = 5.51518 6.84142 6.21379
#
# Compressibility (1/GPa) = 0.02510461
#
# Stress axis : x y z
#
# Youngs Moduli (GPa) = 77.36625 61.21677 93.33810
#
# Poissons Ratio (x) = 0.20946 -0.02276
# Poissons Ratio (y) = 0.26471 0.39737
# Poissons Ratio (z) = -0.01886 0.26062
#
# Static dielectric constant tensor:
#      x y z
#    x 4.367670 -0.000030 0.157580 
#    y -0.000030 3.956480 0.000080 
#    z 0.157580 0.000080 5.101810 
# 
# 
# High freq. dielectric constant tensor:
#      x y z
#    x 1.955200 0.000000 0.013750 
#    y 0.000000 1.920370 0.000010 
#    z 0.013750 0.000010 1.982700 
# 
# From -- ./inp_files/300944.got.cif
#   From: 2010.06.25/outbox.cif.g09.slc.cpg/sg15_151_cif.got.tgz:300944.got - 2010.06.28 07:06:18.
