data_PCOD8153844
_publ_section_title
;
Structure prediction by ZEFSAII (Michael W. Deem and Ramdas Pophale) SiO2 
 PCOD8153844
Probable space group: C 2/C
;
_chemical_formula_sum "Si O2"
_cell_formula_units_Z 52
_cell_length_a 16.286079
_cell_length_b 15.953489
_cell_length_c 16.586821
_cell_angle_alpha 90.000000
_cell_angle_beta 33.013847
_cell_angle_gamma 90.000000
_cell_volume 2348.041216
_symmetry_space_group_name_H-M "C 2/C"
_symmetry_group_IT_number 15
_symmetry_cell_setting 'monoclinic'
loop_
_space_group_symop_operation_xyz
x,y,z
-x,y,1/2-z
-x,-y,-z
x,-y,1/2+z
1/2+x,1/2+y,z
1/2-x,1/2+y,1/2-z
1/2-x,1/2-y,-z
1/2+x,1/2-y,1/2+z
loop_
_atom_site_type_symbol
_atom_site_label
_atom_site_fract_x
_atom_site_fract_y
_atom_site_fract_z
Si Si1 0.585528 0.483900 0.845971
Si Si2 0.888427 0.507414 0.664107
Si Si3 0.000000 0.059996 0.750000
Si Si4 0.226340 0.809611 0.682692
Si Si5 0.224342 0.199813 0.600208
Si Si6 0.938882 0.677639 0.147863
Si Si7 0.508340 0.832906 0.149125
O O1 0.736396 0.535624 0.742788
O O2 0.492637 0.509471 0.841409
O O3 0.631414 0.388694 0.791200
O O4 0.500000 0.500000 0.000000
O O5 0.881105 0.417014 0.716232
O O6 0.000000 0.500000 0.500000
O O7 0.944538 0.575852 0.680644
O O8 0.848290 0.112527 0.866506
O O9 0.367665 0.791383 0.623582
O O10 0.315838 0.821885 0.523805
O O11 0.107909 0.735472 0.787949
O O12 0.250000 0.250000 0.500000
O O13 0.108799 0.255283 0.746440
O O14 0.381905 0.180807 0.514271
O O15 0.500000 0.822262 0.250000
#
# Coordination Sequence:
#
# PCOD8153844 Si02
#       7
#     8   8   4   8   8   8   8
#     4  11  28  49  76 109 149 196 251 304 384 443
#     4  11  24  50  72 103 142 197 249 302 370 452
#     4  12  28  44  78 104 156 186 242 318 362 444
#     4  11  27  48  76 106 147 200 254 309 374 456
#     4  12  25  42  67 111 146 183 235 295 368 446
#     4  11  24  45  74  99 150 188 241 289 374 442
#     4  12  27  47  75 108 147 197 258 322 377 441
#
# _framework density 22.146118999999999
#
# number of rings (size 3 to 8) (size 9 to 14) (size 15 to 20)
#    0.000    0.615    4.615    2.308    9.692    2.462 
#    0.000    0.000    0.000    0.000    0.000    0.000 
#    0.000    0.000    0.000    0.000    0.000    0.000 
#
# Total GULP energy -322143.312675 kJ/mol
# GULP energy per Si atom -12390.127411 kJ/mol
# Density = 2.209571 g / cm^3
# Si number density = 22.146119 Si / 1000 Ang^3
#
#
#
# Elastic Constant Matrix: (Units=GPa)
#
#
# Indices 1 2 3 4 5 6 
#
# 1 113.9082 39.3917 53.0372 -0.0009 -11.1771 0.0003
# 2 39.3917 103.7981 40.6965 0.0010 -11.4630 -0.0004
# 3 53.0372 40.6965 144.8004 0.0054 -3.9456 -0.0018
# 4 -0.0009 0.0010 0.0054 32.8120 -0.0033 -5.9117
# 5 -11.1771 -11.4630 -3.9456 -0.0033 41.1538 0.0007
# 6 0.0003 -0.0004 -0.0018 -5.9117 0.0007 35.7789
#
#
#
# Elastic Compliance Matrix: (Units=1/GPa)
#
#
# Indices 1 2 3 4 5 6 
#
# 1 0.011525 -0.002829 -0.003371 0.000001 0.002019 0.000000
# 2 -0.002829 0.011837 -0.002227 0.000000 0.002315 0.000000
# 3 -0.003371 -0.002227 0.008748 -0.000001 -0.000697 0.000000
# 4 0.000001 0.000000 -0.000001 0.031412 0.000003 0.005190
# 5 0.002019 0.002315 -0.000697 0.000003 0.025425 0.000000
# 6 0.000000 0.000000 0.000000 0.005190 0.000000 0.028807
#
#
# Mechanical properties :
#
#
# Convention : Reuss Voigt Hill
#
# Bulk Modulus (GPa) = 65.55566 69.86194 67.70880
# Shear Modulus (GPa) = 35.79244 37.24102 36.51673
#
# Velocity S-wave (km/s) = 4.02455 4.10519 4.06507
# Velocity P-wave (km/s) = 7.15973 7.35421 7.25762
#
# Compressibility (1/GPa) = 0.01525421
#
# Stress axis : x y z
#
# Youngs Moduli (GPa) = 86.76658 84.48290 114.31312
#
# Poissons Ratio (x) = 0.23901 0.38538
# Poissons Ratio (y) = 0.24547 0.25462
# Poissons Ratio (z) = 0.29251 0.18818
#
# Static dielectric constant tensor:
#      x y z
#    x 4.203840 0.000040 -0.111230 
#    y 0.000040 2.722860 -0.000170 
#    z -0.111230 -0.000170 5.172190 
# 
# 
# High freq. dielectric constant tensor:
#      x y z
#    x 1.884780 0.000000 -0.006370 
#    y 0.000000 1.876210 0.000000 
#    z -0.006370 0.000000 1.879610 
# 
# From -- ./inp_files/155439.got.cif
#   From: 2010.06.25/outbox.cif.g09.slc.cpg/sg15_78_cif.got.tgz:155439.got - 2010.06.28 07:06:18.
