data_PCOD8153825
_publ_section_title
;
Structure prediction by ZEFSAII (Michael W. Deem and Ramdas Pophale) SiO2 
 PCOD8153825
Probable space group: C 2/C
;
_chemical_formula_sum "Si O2"
_cell_formula_units_Z 64
_cell_length_a 18.913171
_cell_length_b 13.607925
_cell_length_c 19.531818
_cell_angle_alpha 90.000000
_cell_angle_beta 141.471094
_cell_angle_gamma 90.000000
_cell_volume 3131.293674
_symmetry_space_group_name_H-M "C 2/C"
_symmetry_group_IT_number 15
_symmetry_cell_setting 'monoclinic'
loop_
_space_group_symop_operation_xyz
x,y,z
-x,y,1/2-z
-x,-y,-z
x,-y,1/2+z
1/2+x,1/2+y,z
1/2-x,1/2+y,1/2-z
1/2-x,1/2-y,-z
1/2+x,1/2-y,1/2+z
loop_
_atom_site_type_symbol
_atom_site_label
_atom_site_fract_x
_atom_site_fract_y
_atom_site_fract_z
Si Si1 0.510640 0.617799 0.182158
Si Si2 0.883152 0.506528 0.703817
Si Si3 0.991183 0.107988 0.818640
Si Si4 0.884762 0.495343 0.370606
Si Si5 0.779046 0.187006 0.956533
Si Si6 0.239491 0.813850 0.304360
Si Si7 0.726525 0.322786 0.545752
Si Si8 0.255296 0.318711 0.690886
O O1 0.500000 0.665251 0.250000
O O2 0.543405 0.504766 0.214629
O O3 0.609999 0.670125 0.216053
O O4 0.395367 0.628092 0.053072
O O5 0.902896 0.504764 0.801496
O O6 0.814974 0.605966 0.634414
O O7 0.821022 0.407043 0.630327
O O8 0.000000 0.511467 0.750000
O O9 0.890359 0.160293 0.780853
O O10 0.000000 0.155999 0.750000
O O11 0.108603 0.120577 0.947189
O O12 0.823078 0.402848 0.356015
O O13 0.804011 0.582844 0.331110
O O14 0.000000 0.500000 0.500000
O O15 0.799903 0.273196 0.918252
O O16 0.750000 0.250000 0.000000
O O17 0.289840 0.745427 0.401279
O O18 0.232194 0.760947 0.228557
O O19 0.750000 0.250000 0.500000
#
# Coordination Sequence:
#
# PCOD8153825 Si02
#       8
#     8   8   8   8   8   8   8   8
#     4  11  24  45  72 102 140 185 240 294 348 421
#     4  12  30  51  72 109 149 188 246 300 361 438
#     4  11  24  45  72 102 140 185 240 294 348 421
#     4  12  30  51  72 107 151 190 240 306 363 430
#     4  12  27  45  76 107 145 192 240 295 362 430
#     4  12  27  47  72 106 145 189 240 294 363 427
#     4  12  27  45  76 107 145 192 240 295 362 430
#     4  12  27  47  72 106 145 189 240 294 363 427
#
# _framework density 20.438838000000001
#
# number of rings (size 3 to 8) (size 9 to 14) (size 15 to 20)
#    0.000    0.250    7.500    0.000   10.500    0.000 
#    0.000    2.500    0.000    0.000    0.000    0.000 
#    0.000    0.000    0.000    0.000    0.000    0.000 
#
# Total GULP energy -396719.116721 kJ/mol
# GULP energy per Si atom -12397.472398 kJ/mol
# Density = 2.039232 g / cm^3
# Si number density = 20.438838 Si / 1000 Ang^3
#
#
#
# Elastic Constant Matrix: (Units=GPa)
#
#
# Indices 1 2 3 4 5 6 
#
# 1 160.2934 46.3153 65.7877 0.0000 0.6097 0.0000
# 2 46.3153 96.3290 31.6612 0.0000 -1.6193 0.0000
# 3 65.7877 31.6612 131.6017 0.0000 3.1227 0.0000
# 4 0.0000 0.0000 0.0000 47.8554 0.0000 5.9388
# 5 0.6097 -1.6193 3.1227 0.0000 46.3190 0.0000
# 6 0.0000 0.0000 0.0000 5.9388 0.0000 61.6758
#
#
#
# Elastic Compliance Matrix: (Units=1/GPa)
#
#
# Indices 1 2 3 4 5 6 
#
# 1 0.008552 -0.002939 -0.003569 0.000000 0.000025 0.000000
# 2 -0.002939 0.012298 -0.001503 0.000000 0.000570 0.000000
# 3 -0.003569 -0.001503 0.009760 0.000000 -0.000664 0.000000
# 4 0.000000 0.000000 0.000000 0.021149 0.000000 -0.002036
# 5 0.000025 0.000570 -0.000664 0.000000 0.021654 0.000000
# 6 0.000000 0.000000 0.000000 -0.002036 0.000000 0.016410
#
#
# Mechanical properties :
#
#
# Convention : Reuss Voigt Hill
#
# Bulk Modulus (GPa) = 68.54556 75.08360 71.81458
# Shear Modulus (GPa) = 45.16432 47.46735 46.31583
#
# Velocity S-wave (km/s) = 4.70588 4.82437 4.76549
# Velocity P-wave (km/s) = 7.94586 8.23700 8.09274
#
# Compressibility (1/GPa) = 0.01458884
#
# Stress axis : x y z
#
# Youngs Moduli (GPa) = 116.92789 81.31686 102.45715
#
# Poissons Ratio (x) = 0.23895 0.36566
# Poissons Ratio (y) = 0.34359 0.15401
# Poissons Ratio (z) = 0.41731 0.12223
#
# Static dielectric constant tensor:
#      x y z
#    x 3.893110 0.000000 -0.182860 
#    y 0.000000 3.884240 0.000000 
#    z -0.182860 0.000000 3.745230 
# 
# 
# High freq. dielectric constant tensor:
#      x y z
#    x 1.815750 0.000000 -0.002590 
#    y 0.000000 1.819830 0.000000 
#    z -0.002590 0.000000 1.809000 
# 
# From -- ./inp_files/211413.got.cif
#   From: 2010.06.25/outbox.cif.g09.slc.cpg/sg15_106_cif.got.tgz:211413.got - 2010.06.28 07:06:18.
