data_PCOD8153745
_publ_section_title
;
Structure prediction by ZEFSAII (Michael W. Deem and Ramdas Pophale) SiO2 
 PCOD8153745
Probable space group: C 2/C
;
_chemical_formula_sum "Si O2"
_cell_formula_units_Z 44
_cell_length_a 11.515043
_cell_length_b 10.109569
_cell_length_c 21.573870
_cell_angle_alpha 90.000000
_cell_angle_beta 132.757800
_cell_angle_gamma 90.000000
_cell_volume 1843.989497
_symmetry_space_group_name_H-M "C 2/C"
_symmetry_group_IT_number 15
_symmetry_cell_setting 'monoclinic'
loop_
_space_group_symop_operation_xyz
x,y,z
-x,y,1/2-z
-x,-y,-z
x,-y,1/2+z
1/2+x,1/2+y,z
1/2-x,1/2+y,1/2-z
1/2-x,1/2-y,-z
1/2+x,1/2-y,1/2+z
loop_
_atom_site_type_symbol
_atom_site_label
_atom_site_fract_x
_atom_site_fract_y
_atom_site_fract_z
Si Si1 0.390308 0.658562 0.032671
Si Si2 0.000000 0.465583 0.250000
Si Si3 0.071133 0.733692 0.488991
Si Si4 0.598754 0.568943 0.222320
Si Si5 0.830919 0.430092 0.576316
Si Si6 0.204655 0.822177 0.193645
O O1 0.481392 0.604587 0.124548
O O2 0.250000 0.750000 0.000000
O O3 0.500104 0.756392 0.031921
O O4 0.309595 0.536412 0.967726
O O5 0.031908 0.552369 0.322960
O O6 0.153037 0.375646 0.296896
O O7 0.088743 0.586282 0.463797
O O8 0.248723 0.789588 0.559388
O O9 0.956518 0.820503 0.403657
O O10 0.500000 0.574045 0.250000
O O11 0.743023 0.673700 0.269334
O O12 0.673417 0.422109 0.240050
#
# Coordination Sequence:
#
# PCOD8153745 Si02
#       6
#     8   4   8   8   8   8
#     4  12  24  44  72 100 146 193 235 299 372 431
#     4  12  22  42  76 104 142 196 244 290 376 428
#     4  11  24  46  71 101 143 185 242 297 365 432
#     4  12  27  47  71 110 149 192 249 309 363 441
#     4  11  24  44  73 106 138 191 241 298 358 444
#     4  12  24  48  73 103 151 195 243 312 366 436
#
# _framework density 23.861307
#
# number of rings (size 3 to 8) (size 9 to 14) (size 15 to 20)
#    0.000    0.364    4.545    4.909    0.000    2.182 
#    6.545    0.000    0.000    0.000    0.000    0.000 
#    0.000    0.000    0.000    0.000    0.000    0.000 
#
# Total GULP energy -272594.081719 kJ/mol
# GULP energy per Si atom -12390.640078 kJ/mol
# Density = 2.380700 g / cm^3
# Si number density = 23.861307 Si / 1000 Ang^3
#
#
#
# Elastic Constant Matrix: (Units=GPa)
#
#
# Indices 1 2 3 4 5 6 
#
# 1 119.0642 27.5370 17.7787 0.0000 -9.0038 0.0000
# 2 27.5370 73.8041 14.9223 0.0000 0.1389 0.0000
# 3 17.7787 14.9223 108.3113 0.0000 -0.4808 0.0000
# 4 0.0000 0.0000 0.0000 24.3958 0.0000 9.8526
# 5 -9.0038 0.1389 -0.4808 0.0000 37.7868 0.0000
# 6 0.0000 0.0000 0.0000 9.8526 0.0000 40.0823
#
#
#
# Elastic Compliance Matrix: (Units=1/GPa)
#
#
# Indices 1 2 3 4 5 6 
#
# 1 0.009503 -0.003329 -0.001091 0.000000 0.002263 0.000000
# 2 -0.003329 0.015104 -0.001538 0.000000 -0.000868 0.000000
# 3 -0.001091 -0.001538 0.009623 0.000000 -0.000132 0.000000
# 4 0.000000 0.000000 0.000000 0.045508 0.000000 -0.011186
# 5 0.002263 -0.000868 -0.000132 0.000000 0.027005 0.000000
# 6 0.000000 0.000000 0.000000 -0.011186 0.000000 0.027698
#
#
# Mechanical properties :
#
#
# Convention : Reuss Voigt Hill
#
# Bulk Modulus (GPa) = 44.81733 46.85062 45.83398
# Shear Modulus (GPa) = 32.51043 36.51576 34.51310
#
# Velocity S-wave (km/s) = 3.69518 3.91619 3.80729
# Velocity P-wave (km/s) = 6.08514 6.33450 6.21107
#
# Compressibility (1/GPa) = 0.02231280
#
# Stress axis : x y z
#
# Youngs Moduli (GPa) = 105.23157 66.20663 103.91660
#
# Poissons Ratio (x) = 0.22042 0.11339
# Poissons Ratio (y) = 0.35034 0.15986
# Poissons Ratio (z) = 0.11482 0.10185
#
# Static dielectric constant tensor:
#      x y z
#    x 4.102000 0.000000 0.231170 
#    y 0.000000 3.560230 0.000000 
#    z 0.231170 0.000000 4.272770 
# 
# 
# High freq. dielectric constant tensor:
#      x y z
#    x 1.958600 0.000000 0.014940 
#    y 0.000000 1.937330 0.000000 
#    z 0.014940 0.000000 1.948950 
# 
# From -- ./inp_files/237289.got.cif
#   From: 2010.06.25/outbox.cif.g09.slc.cpg/sg15_119_cif.got.tgz:237289.got - 2010.06.28 07:06:18.
