data_PCOD8153138
_publ_section_title
;
Structure prediction by ZEFSAII (Michael W. Deem and Ramdas Pophale) SiO2 
 PCOD8153138
Probable space group: C 2/C
;
_chemical_formula_sum "Si O2"
_cell_formula_units_Z 36
_cell_length_a 15.238652
_cell_length_b 7.820217
_cell_length_c 22.929018
_cell_angle_alpha 90.000000
_cell_angle_beta 143.366588
_cell_angle_gamma 90.000000
_cell_volume 1630.428309
_symmetry_space_group_name_H-M "C 2/C"
_symmetry_group_IT_number 15
_symmetry_cell_setting 'monoclinic'
loop_
_space_group_symop_operation_xyz
x,y,z
-x,y,1/2-z
-x,-y,-z
x,-y,1/2+z
1/2+x,1/2+y,z
1/2-x,1/2+y,1/2-z
1/2-x,1/2-y,-z
1/2+x,1/2-y,1/2+z
loop_
_atom_site_type_symbol
_atom_site_label
_atom_site_fract_x
_atom_site_fract_y
_atom_site_fract_z
Si Si1 0.500000 0.428494 0.750000
Si Si2 0.659350 0.889234 0.342021
Si Si3 0.254706 0.612022 0.675127
Si Si4 0.837357 0.743954 0.334309
Si Si5 0.828641 0.183740 0.484487
O O1 0.378941 0.302607 0.653826
O O2 0.421635 0.543462 0.756621
O O3 0.500000 0.986707 0.250000
O O4 0.740036 0.865882 0.323283
O O5 0.765619 0.993094 0.441172
O O6 0.151367 0.451346 0.637287
O O7 0.259402 0.751457 0.729166
O O8 0.202539 0.696669 0.587662
O O9 0.997847 0.826265 0.414996
O O10 0.750000 0.250000 0.500000
#
# Coordination Sequence:
#
# PCOD8153138 Si02
#       5
#     4   8   8   8   8
#     4   8  20  40  66  90 124 174 208 262 322 392
#     4   9  22  44  64  90 129 174 220 260 330 381
#     4  11  23  43  67  97 133 169 217 266 338 383
#     4  11  24  43  69  96 132 175 214 276 324 393
#     4  12  26  39  68 100 131 170 224 271 323 392
#
# _framework density 22.080086999999999
#
# number of rings (size 3 to 8) (size 9 to 14) (size 15 to 20)
#    0.667    0.889    0.000    4.000    7.778    0.000 
#    0.000   10.000    0.000    0.000    0.000    0.000 
#    0.000    0.000    0.000    0.000    0.000    0.000 
#
# Total GULP energy -223051.188848 kJ/mol
# GULP energy per Si atom -12391.732714 kJ/mol
# Density = 2.202983 g / cm^3
# Si number density = 22.080087 Si / 1000 Ang^3
#
#
#
# Elastic Constant Matrix: (Units=GPa)
#
#
# Indices 1 2 3 4 5 6 
#
# 1 134.1457 21.9592 54.5227 0.0000 2.9833 0.0000
# 2 21.9592 65.8355 18.2005 0.0000 -14.2609 0.0000
# 3 54.5227 18.2005 90.0029 0.0000 -9.5104 0.0000
# 4 0.0000 0.0000 0.0000 33.9814 0.0000 -2.8801
# 5 2.9833 -14.2609 -9.5104 0.0000 50.9349 0.0000
# 6 0.0000 0.0000 0.0000 -2.8801 0.0000 29.9350
#
#
#
# Elastic Compliance Matrix: (Units=1/GPa)
#
#
# Indices 1 2 3 4 5 6 
#
# 1 0.010343 -0.002291 -0.006054 0.000000 -0.002378 0.000000
# 2 -0.002291 0.017426 -0.001638 0.000000 0.004707 0.000000
# 3 -0.006054 -0.001638 0.015402 0.000000 0.002772 0.000000
# 4 0.000000 0.000000 0.000000 0.029670 0.000000 0.002855
# 5 -0.002378 0.004707 0.002772 0.000000 0.021608 0.000000
# 6 0.000000 0.000000 0.000000 0.002855 0.000000 0.033680
#
#
# Mechanical properties :
#
#
# Convention : Reuss Voigt Hill
#
# Bulk Modulus (GPa) = 43.09479 53.26098 48.17788
# Shear Modulus (GPa) = 32.08608 35.99036 34.03822
#
# Velocity S-wave (km/s) = 3.81618 4.04170 3.93056
# Velocity P-wave (km/s) = 6.24320 6.77897 6.51659
#
# Compressibility (1/GPa) = 0.02320466
#
# Stress axis : x y z
#
# Youngs Moduli (GPa) = 96.68413 57.38454 64.92615
#
# Poissons Ratio (x) = 0.13149 0.39303
# Poissons Ratio (y) = 0.22154 0.10638
# Poissons Ratio (z) = 0.58528 0.09402
#
# Static dielectric constant tensor:
#      x y z
#    x 4.253800 0.000000 0.164010 
#    y 0.000000 3.973870 0.000000 
#    z 0.164010 0.000000 3.662130 
# 
# 
# High freq. dielectric constant tensor:
#      x y z
#    x 1.891490 0.000000 0.009830 
#    y 0.000000 1.869930 0.000000 
#    z 0.009830 0.000000 1.838540 
# 
# From -- ./inp_files/102895.got.cif
#   From: 2010.06.25/outbox.cif.g09.slc.cpg/sg15_52_cif.got.tgz:102895.got - 2010.06.28 07:06:18.
