data_PCOD8153437
_publ_section_title
;
Structure prediction by ZEFSAII (Michael W. Deem and Ramdas Pophale) SiO2 
 PCOD8153437
Probable space group: C 2/C
;
_chemical_formula_sum "Si O2"
_cell_formula_units_Z 40
_cell_length_a 14.660459
_cell_length_b 8.990639
_cell_length_c 26.155931
_cell_angle_alpha 90.000000
_cell_angle_beta 149.992170
_cell_angle_gamma 90.000000
_cell_volume 1724.174019
_symmetry_space_group_name_H-M "C 2/C"
_symmetry_group_IT_number 15
_symmetry_cell_setting 'monoclinic'
loop_
_space_group_symop_operation_xyz
x,y,z
-x,y,1/2-z
-x,-y,-z
x,-y,1/2+z
1/2+x,1/2+y,z
1/2-x,1/2+y,1/2-z
1/2-x,1/2-y,-z
1/2+x,1/2-y,1/2+z
loop_
_atom_site_type_symbol
_atom_site_label
_atom_site_fract_x
_atom_site_fract_y
_atom_site_fract_z
Si Si1 0.617881 0.756079 0.761484
Si Si2 0.799982 0.634603 0.481577
Si Si3 0.959385 0.650261 0.386985
Si Si4 0.021731 0.825508 0.515771
Si Si5 0.925836 0.076361 0.264300
O O1 0.500000 0.828191 0.750000
O O2 0.517358 0.787330 0.658930
O O3 0.819609 0.820572 0.864793
O O4 0.651160 0.583175 0.788745
O O5 0.750000 0.750000 0.500000
O O6 0.608081 0.547860 0.385482
O O7 0.959969 0.516960 0.572384
O O8 0.853313 0.729171 0.456719
O O9 0.740196 0.661263 0.289163
O O10 0.061619 0.752835 0.479006
O O11 0.000000 0.000000 0.500000
O O12 0.000000 0.163973 0.250000
#
# Coordination Sequence:
#
# PCOD8153437 Si02
#       5
#     8   8   8   8   8
#     4  11  27  46  74 110 150 199 256 306 381 454
#     4  12  27  47  76 110 149 204 257 307 386 461
#     4  12  26  50  79 106 160 201 247 322 378 449
#     4  12  28  49  76 113 152 196 261 319 381 459
#     4  11  23  46  75 103 145 201 250 302 379 450
#
# _framework density 23.199515000000002
#
# number of rings (size 3 to 8) (size 9 to 14) (size 15 to 20)
#    0.000    0.400    4.000    4.200    8.400    1.600 
#    0.000    0.000    0.000    0.000    0.000    0.000 
#    0.000    0.000    0.000    0.000    0.000    0.000 
#
# Total GULP energy -247784.118028 kJ/mol
# GULP energy per Si atom -12389.205901 kJ/mol
# Density = 2.314671 g / cm^3
# Si number density = 23.199515 Si / 1000 Ang^3
#
#
#
# Elastic Constant Matrix: (Units=GPa)
#
#
# Indices 1 2 3 4 5 6 
#
# 1 137.2168 35.2652 23.7029 0.0000 -19.0405 0.0000
# 2 35.2652 104.6272 18.7139 0.0000 -3.8972 0.0000
# 3 23.7029 18.7139 104.4872 0.0003 -1.1869 0.0000
# 4 0.0000 0.0000 0.0003 33.1657 0.0000 -4.1827
# 5 -19.0405 -3.8972 -1.1869 0.0000 48.5968 0.0000
# 6 0.0000 0.0000 0.0000 -4.1827 0.0000 37.2952
#
#
#
# Elastic Compliance Matrix: (Units=1/GPa)
#
#
# Indices 1 2 3 4 5 6 
#
# 1 0.008627 -0.002528 -0.001469 0.000000 0.003142 0.000000
# 2 -0.002528 0.010642 -0.001334 0.000000 -0.000170 0.000000
# 3 -0.001469 -0.001334 0.010138 0.000000 -0.000435 0.000000
# 4 0.000000 0.000000 0.000000 0.030584 0.000000 0.003430
# 5 0.003142 -0.000170 -0.000435 0.000000 0.021784 0.000000
# 6 0.000000 0.000000 0.000000 0.003430 0.000000 0.027198
#
#
# Mechanical properties :
#
#
# Convention : Reuss Voigt Hill
#
# Bulk Modulus (GPa) = 53.34828 55.74391 54.54609
# Shear Modulus (GPa) = 39.71916 41.72147 40.72032
#
# Velocity S-wave (km/s) = 4.14220 4.24533 4.19408
# Velocity P-wave (km/s) = 6.77661 6.93618 6.85686
#
# Compressibility (1/GPa) = 0.01874475
#
# Stress axis : x y z
#
# Youngs Moduli (GPa) = 115.91408 93.96529 98.64104
#
# Poissons Ratio (x) = 0.23756 0.14486
# Poissons Ratio (y) = 0.29304 0.13163
# Poissons Ratio (z) = 0.17023 0.12539
#
# Static dielectric constant tensor:
#      x y z
#    x 3.285330 0.000030 0.631730 
#    y 0.000030 4.286100 -0.000020 
#    z 0.631730 -0.000020 3.797010 
# 
# 
# High freq. dielectric constant tensor:
#      x y z
#    x 1.927370 0.000000 0.003290 
#    y 0.000000 1.900910 0.000000 
#    z 0.003290 0.000000 1.930150 
# 
# From -- ./inp_files/313249.got.cif
#   From: 2010.06.25/outbox.cif.g09.slc.cpg/sg15_157_cif.got.tgz:313249.got - 2010.06.28 07:06:18.
