data_PCOD8153182
_publ_section_title
;
Structure prediction by ZEFSAII (Michael W. Deem and Ramdas Pophale) SiO2 
 PCOD8153182
Probable space group: C 2/C
;
_chemical_formula_sum "Si O2"
_cell_formula_units_Z 48
_cell_length_a 13.705451
_cell_length_b 11.751671
_cell_length_c 21.388722
_cell_angle_alpha 90.000000
_cell_angle_beta 41.705317
_cell_angle_gamma 90.000000
_cell_volume 2291.896912
_symmetry_space_group_name_H-M "C 2/C"
_symmetry_group_IT_number 15
_symmetry_cell_setting 'monoclinic'
loop_
_space_group_symop_operation_xyz
x,y,z
-x,y,1/2-z
-x,-y,-z
x,-y,1/2+z
1/2+x,1/2+y,z
1/2-x,1/2+y,1/2-z
1/2-x,1/2-y,-z
1/2+x,1/2-y,1/2+z
loop_
_atom_site_type_symbol
_atom_site_label
_atom_site_fract_x
_atom_site_fract_y
_atom_site_fract_z
Si Si1 0.426070 0.917303 0.850250
Si Si2 0.842643 0.231302 0.172043
Si Si3 0.412890 0.544891 0.231761
Si Si4 0.921486 0.475013 0.102590
Si Si5 0.976006 0.807432 0.148323
Si Si6 0.114770 0.094134 0.467616
O O1 0.500000 0.958968 0.750000
O O2 0.430015 0.779214 0.853976
O O3 0.257319 0.960894 0.933477
O O4 0.510204 0.960812 0.871035
O O5 0.932304 0.149429 0.175061
O O6 0.937886 0.341629 0.109874
O O7 0.691476 0.268098 0.276224
O O8 0.810210 0.159948 0.125501
O O9 0.500000 0.587471 0.250000
O O10 0.244953 0.515198 0.326019
O O11 0.494936 0.433363 0.166924
O O12 0.000000 0.500000 0.000000
O O13 0.035422 0.813072 0.049126
O O14 0.000000 0.000000 0.500000
#
# Coordination Sequence:
#
# PCOD8153182 Si02
#       6
#     8   8   8   8   8   8
#     4  12  24  45  70 103 138 184 232 287 351 408
#     4  11  24  46  66 102 139 179 226 284 349 409
#     4  11  24  43  67  97 139 179 227 280 340 405
#     4  11  26  45  68 102 142 180 228 283 347 418
#     4  11  23  43  71  99 137 177 229 292 340 408
#     4  12  25  44  73 102 138 177 237 287 343 411
#
# _framework density 20.943349999999999
#
# number of rings (size 3 to 8) (size 9 to 14) (size 15 to 20)
#    0.000    0.667    5.000    2.000    7.000    0.667 
#    0.000    1.667    0.000    0.000    0.000    0.000 
#    0.000    0.000    0.000    0.000    0.000    0.000 
#
# Total GULP energy -297650.887382 kJ/mol
# GULP energy per Si atom -12402.120308 kJ/mol
# Density = 2.089568 g / cm^3
# Si number density = 20.943350 Si / 1000 Ang^3
#
#
#
# Elastic Constant Matrix: (Units=GPa)
#
#
# Indices 1 2 3 4 5 6 
#
# 1 146.8431 45.2865 62.7364 0.0000 3.1699 0.0000
# 2 45.2865 105.0113 34.6736 0.0000 -1.4021 0.0000
# 3 62.7364 34.6736 117.7165 0.0000 10.4891 0.0000
# 4 0.0000 0.0000 0.0000 31.7501 0.0000 2.9248
# 5 3.1699 -1.4021 10.4891 0.0000 40.1163 0.0000
# 6 0.0000 0.0000 0.0000 2.9248 0.0000 33.5612
#
#
#
# Elastic Compliance Matrix: (Units=1/GPa)
#
#
# Indices 1 2 3 4 5 6 
#
# 1 0.009452 -0.002660 -0.004279 0.000000 0.000279 0.000000
# 2 -0.002660 0.011355 -0.002028 0.000000 0.001137 0.000000
# 3 -0.004279 -0.002028 0.011620 0.000000 -0.002771 0.000000
# 4 0.000000 0.000000 0.000000 0.031751 0.000000 -0.002767
# 5 0.000279 0.001137 -0.002771 0.000000 0.025670 0.000000
# 6 0.000000 0.000000 0.000000 -0.002767 0.000000 0.030037
#
#
# Mechanical properties :
#
#
# Convention : Reuss Voigt Hill
#
# Bulk Modulus (GPa) = 69.00064 72.77376 70.88720
# Shear Modulus (GPa) = 35.05073 36.21047 35.63060
#
# Velocity S-wave (km/s) = 4.09540 4.16260 4.12914
# Velocity P-wave (km/s) = 7.44184 7.61094 7.52686
#
# Compressibility (1/GPa) = 0.01449262
#
# Stress axis : x y z
#
# Youngs Moduli (GPa) = 105.79339 88.06880 86.05967
#
# Poissons Ratio (x) = 0.23424 0.36825
# Poissons Ratio (y) = 0.28139 0.17456
# Poissons Ratio (z) = 0.45269 0.17864
#
# Static dielectric constant tensor:
#      x y z
#    x 3.702300 0.000000 0.114960 
#    y 0.000000 3.983300 0.000000 
#    z 0.114960 0.000000 3.934420 
# 
# 
# High freq. dielectric constant tensor:
#      x y z
#    x 1.820250 0.000000 0.006720 
#    y 0.000000 1.818630 0.000000 
#    z 0.006720 0.000000 1.833490 
# 
# From -- ./inp_files/152027.got.cif
#   From: 2010.06.25/outbox.cif.g09.slc.cpg/sg15_77_cif.got.tgz:152027.got - 2010.06.28 07:06:18.
