data_PCOD8153795
_publ_section_title
;
Structure prediction by ZEFSAII (Michael W. Deem and Ramdas Pophale) SiO2 
 PCOD8153795
Probable space group: C 2/C
;
_chemical_formula_sum "Si O2"
_cell_formula_units_Z 48
_cell_length_a 9.541314
_cell_length_b 11.074511
_cell_length_c 24.951683
_cell_angle_alpha 90.000000
_cell_angle_beta 61.699494
_cell_angle_gamma 90.000000
_cell_volume 2321.393246
_symmetry_space_group_name_H-M "C 2/C"
_symmetry_group_IT_number 15
_symmetry_cell_setting 'monoclinic'
loop_
_space_group_symop_operation_xyz
x,y,z
-x,y,1/2-z
-x,-y,-z
x,-y,1/2+z
1/2+x,1/2+y,z
1/2-x,1/2+y,1/2-z
1/2-x,1/2-y,-z
1/2+x,1/2-y,1/2+z
loop_
_atom_site_type_symbol
_atom_site_label
_atom_site_fract_x
_atom_site_fract_y
_atom_site_fract_z
Si Si1 0.903642 0.881596 0.508519
Si Si2 0.558874 0.611630 0.680236
Si Si3 0.934679 0.486995 0.952348
Si Si4 0.903684 0.286998 0.109796
Si Si5 0.591293 0.762960 0.885442
Si Si6 0.051862 0.829735 0.680637
O O1 0.738490 0.926391 0.512969
O O2 0.884190 0.814370 0.568143
O O3 0.997039 0.795293 0.451692
O O4 0.000000 0.000000 0.500000
O O5 0.500000 0.643424 0.750000
O O6 0.743081 0.637908 0.639241
O O7 0.449567 0.692140 0.661228
O O8 0.543892 0.471208 0.669667
O O9 0.945608 0.622904 0.926846
O O10 0.038644 0.402871 0.893802
O O11 0.000000 0.500000 0.000000
O O12 0.923908 0.225892 0.163556
O O13 0.779823 0.765078 0.860699
O O14 0.000000 0.799958 0.750000
#
# Coordination Sequence:
#
# PCOD8153795 Si02
#       6
#     8   8   8   8   8   8
#     4  12  26  40  66 101 132 173 221 272 335 403
#     4  11  24  45  69  93 130 179 223 275 329 386
#     4  12  24  41  66  99 136 178 213 269 341 396
#     4  12  24  44  68  97 137 173 222 275 336 396
#     4  12  23  43  67  96 134 171 222 269 331 400
#     4  11  26  45  68  98 131 175 227 276 329 392
#
# _framework density 20.677237000000002
#
# number of rings (size 3 to 8) (size 9 to 14) (size 15 to 20)
#    0.000    0.333    5.000    4.500    2.333    1.333 
#    0.000    0.833    0.000    0.000    0.000    0.000 
#    0.000    0.000    0.000    0.000    0.000    0.000 
#
# Total GULP energy -297615.130954 kJ/mol
# GULP energy per Si atom -12400.630456 kJ/mol
# Density = 2.063017 g / cm^3
# Si number density = 20.677237 Si / 1000 Ang^3
#
#
#
# Elastic Constant Matrix: (Units=GPa)
#
#
# Indices 1 2 3 4 5 6 
#
# 1 81.3810 35.5223 26.7823 0.0000 9.8991 0.0000
# 2 35.5223 109.9557 46.4361 0.0000 17.4457 0.0000
# 3 26.7823 46.4361 100.4435 0.0000 19.2475 0.0000
# 4 0.0000 0.0000 0.0000 38.4994 0.0000 3.7745
# 5 9.8991 17.4457 19.2475 0.0000 44.0158 0.0000
# 6 0.0000 0.0000 0.0000 3.7745 0.0000 41.1639
#
#
#
# Elastic Compliance Matrix: (Units=1/GPa)
#
#
# Indices 1 2 3 4 5 6 
#
# 1 0.014700 -0.003753 -0.002004 0.000000 -0.000942 0.000000
# 2 -0.003753 0.012495 -0.004354 0.000000 -0.002205 0.000000
# 3 -0.002004 -0.004354 0.013191 0.000000 -0.003592 0.000000
# 4 0.000000 0.000000 0.000000 0.026210 0.000000 -0.002403
# 5 -0.000942 -0.002205 -0.003592 0.000000 0.025376 0.000000
# 6 0.000000 0.000000 0.000000 -0.002403 0.000000 0.024513
#
#
# Mechanical properties :
#
#
# Convention : Reuss Voigt Hill
#
# Bulk Modulus (GPa) = 49.58991 56.58464 53.08727
# Shear Modulus (GPa) = 34.86032 36.93845 35.89938
#
# Velocity S-wave (km/s) = 4.11046 4.23120 4.17127
# Velocity P-wave (km/s) = 6.82369 7.16211 6.99495
#
# Compressibility (1/GPa) = 0.02016539
#
# Stress axis : x y z
#
# Youngs Moduli (GPa) = 68.02599 80.02891 75.80802
#
# Poissons Ratio (x) = 0.30037 0.15192
# Poissons Ratio (y) = 0.25532 0.33003
# Poissons Ratio (z) = 0.13632 0.34841
#
# Static dielectric constant tensor:
#      x y z
#    x 3.760840 0.000000 -0.097960 
#    y 0.000000 4.002580 0.000000 
#    z -0.097960 0.000000 3.826410 
# 
# 
# High freq. dielectric constant tensor:
#      x y z
#    x 1.816120 0.000000 0.000460 
#    y 0.000000 1.829850 0.000000 
#    z 0.000460 0.000000 1.815230 
# 
# From -- ./inp_files/263097.got.cif
#   From: 2010.06.25/outbox.cif.g09.slc.cpg/sg15_132_cif.got.tgz:263097.got - 2010.06.28 07:06:18.
