data_PCOD8153905
_publ_section_title
;
Structure prediction by ZEFSAII (Michael W. Deem and Ramdas Pophale) SiO2 
 PCOD8153905
Probable space group: C 2/C
;
_chemical_formula_sum "Si O2"
_cell_formula_units_Z 56
_cell_length_a 19.443788
_cell_length_b 8.865991
_cell_length_c 27.089610
_cell_angle_alpha 90.000000
_cell_angle_beta 147.769192
_cell_angle_gamma 90.000000
_cell_volume 2490.622488
_symmetry_space_group_name_H-M "C 2/C"
_symmetry_group_IT_number 15
_symmetry_cell_setting 'monoclinic'
loop_
_space_group_symop_operation_xyz
x,y,z
-x,y,1/2-z
-x,-y,-z
x,-y,1/2+z
1/2+x,1/2+y,z
1/2-x,1/2+y,1/2-z
1/2-x,1/2-y,-z
1/2+x,1/2-y,1/2+z
loop_
_atom_site_type_symbol
_atom_site_label
_atom_site_fract_x
_atom_site_fract_y
_atom_site_fract_z
Si Si1 0.298860 0.552187 0.655103
Si Si2 0.726058 0.948670 0.276190
Si Si3 0.764042 0.892594 0.473691
Si Si4 0.854346 0.747870 0.430969
Si Si5 0.562013 0.586317 0.859094
Si Si6 0.512280 0.084159 0.314873
Si Si7 0.348537 0.241064 0.861698
O O1 0.193667 0.422954 0.597486
O O2 0.433310 0.502117 0.762088
O O3 0.325189 0.587502 0.613763
O O4 0.242709 0.702837 0.646835
O O5 0.819325 0.824769 0.357693
O O6 0.670162 0.886990 0.190951
O O7 0.608388 0.987377 0.240667
O O8 0.810022 0.097280 0.316121
O O9 0.750000 0.750000 0.500000
O O10 0.781743 0.842838 0.428558
O O11 0.886893 0.994638 0.562957
O O12 0.635761 0.986565 0.401394
O O13 0.006096 0.746301 0.531254
O O14 0.525990 0.757524 0.852452
O O15 0.500000 0.126762 0.250000
#
# Coordination Sequence:
#
# PCOD8153905 Si02
#       7
#     8   8   8   8   8   8   8
#     4  11  24  46  73 101 139 186 236 292 355 416
#     4  12  27  48  75 102 143 197 238 295 358 424
#     4  12  26  42  70 111 142 182 233 296 362 426
#     4  12  27  45  71 108 146 185 237 296 355 433
#     4  11  24  46  74 102 142 183 236 296 357 420
#     4  12  23  47  72 104 141 183 237 297 355 423
#     4  12  27  50  71 104 145 192 244 289 357 430
#
# _framework density 22.484341000000001
#
# number of rings (size 3 to 8) (size 9 to 14) (size 15 to 20)
#    0.000    0.286    5.714    3.000    6.000    0.000 
#    0.000    0.000    0.000    0.000    0.000    0.000 
#    0.000    0.000    0.000    0.000    0.000    0.000 
#
# Total GULP energy -347413.057823 kJ/mol
# GULP energy per Si atom -12407.609208 kJ/mol
# Density = 2.243317 g / cm^3
# Si number density = 22.484341 Si / 1000 Ang^3
#
#
#
# Elastic Constant Matrix: (Units=GPa)
#
#
# Indices 1 2 3 4 5 6 
#
# 1 52.1905 -12.1316 7.9798 0.0000 6.5818 0.0002
# 2 -12.1316 67.8746 32.5511 0.0000 -0.4734 0.0006
# 3 7.9798 32.5511 122.6917 0.0003 14.4717 0.0001
# 4 0.0000 0.0000 0.0003 46.2284 0.0001 -0.2081
# 5 6.5818 -0.4734 14.4717 0.0001 33.2418 0.0000
# 6 0.0002 0.0006 0.0001 -0.2081 0.0000 26.5609
#
#
#
# Elastic Compliance Matrix: (Units=1/GPa)
#
#
# Indices 1 2 3 4 5 6 
#
# 1 0.021024 0.004831 -0.002283 0.000000 -0.003100 0.000000
# 2 0.004831 0.018161 -0.005323 0.000000 0.001620 0.000000
# 3 -0.002283 -0.005323 0.010190 0.000000 -0.004060 0.000000
# 4 0.000000 0.000000 0.000000 0.021632 0.000000 0.000170
# 5 -0.003100 0.001620 -0.004060 0.000000 0.032487 0.000000
# 6 0.000000 0.000000 0.000000 0.000170 0.000000 0.037651
#
#
# Mechanical properties :
#
#
# Convention : Reuss Voigt Hill
#
# Bulk Modulus (GPa) = 22.81900 33.28393 28.05147
# Shear Modulus (GPa) = 30.99735 35.49672 33.24704
#
# Velocity S-wave (km/s) = 3.71700 3.97764 3.84953
# Velocity P-wave (km/s) = 5.34718 5.99423 5.67993
#
# Compressibility (1/GPa) = 0.04382312
#
# Stress axis : x y z
#
# Youngs Moduli (GPa) = 47.56558 55.06344 98.13280
#
# Poissons Ratio (x) = -0.26602 0.22409
# Poissons Ratio (y) = -0.22980 0.52241
# Poissons Ratio (z) = 0.10862 0.29313
#
# Static dielectric constant tensor:
#      x y z
#    x 4.024940 0.000000 -0.019970 
#    y 0.000000 4.114490 0.000000 
#    z -0.019970 0.000000 4.030060 
# 
# 
# High freq. dielectric constant tensor:
#      x y z
#    x 1.881000 0.000000 0.006880 
#    y 0.000000 1.897630 0.000000 
#    z 0.006880 0.000000 1.900280 
# 
# From -- ./inp_files/317568.got.cif
#   From: 2010.06.25/outbox.cif.g09.slc.cpg/sg15_159_cif.got.tgz:317568.got - 2010.06.28 07:06:18.
