data_PCOD8153993
_publ_section_title
;
Structure prediction by ZEFSAII (Michael W. Deem and Ramdas Pophale) SiO2 
 PCOD8153993
Probable space group: C 2/C
;
_chemical_formula_sum "Si O2"
_cell_formula_units_Z 48
_cell_length_a 16.246895
_cell_length_b 15.107174
_cell_length_c 10.951756
_cell_angle_alpha 90.000000
_cell_angle_beta 127.502540
_cell_angle_gamma 90.000000
_cell_volume 2132.501008
_symmetry_space_group_name_H-M "C 2/C"
_symmetry_group_IT_number 15
_symmetry_cell_setting 'monoclinic'
loop_
_space_group_symop_operation_xyz
x,y,z
-x,y,1/2-z
-x,-y,-z
x,-y,1/2+z
1/2+x,1/2+y,z
1/2-x,1/2+y,1/2-z
1/2-x,1/2-y,-z
1/2+x,1/2-y,1/2+z
loop_
_atom_site_type_symbol
_atom_site_label
_atom_site_fract_x
_atom_site_fract_y
_atom_site_fract_z
Si Si1 0.877221 0.485829 0.151591
Si Si2 0.447982 0.323409 0.572448
Si Si3 0.245578 0.146398 0.972282
Si Si4 0.701235 0.818818 0.552808
Si Si5 0.857899 0.882153 0.881516
Si Si6 0.282937 0.433927 0.307154
O O1 0.831919 0.461201 0.245816
O O2 0.000000 0.473412 0.250000
O O3 0.848975 0.587884 0.093995
O O4 0.818313 0.419319 0.006739
O O5 0.500000 0.338614 0.750000
O O6 0.412094 0.222026 0.518981
O O7 0.527475 0.345973 0.536818
O O8 0.347029 0.386540 0.473678
O O9 0.219618 0.133761 0.807410
O O10 0.250000 0.250000 0.000000
O O11 0.158083 0.112053 0.987074
O O12 0.750000 0.750000 0.500000
O O13 0.774691 0.818824 0.738190
O O14 0.845791 0.980644 0.817374
#
# Coordination Sequence:
#
# PCOD8153993 Si02
#       6
#     8   8   8   8   8   8
#     4  11  25  46  76 106 140 191 245 307 366 433
#     4  12  24  40  77 108 137 188 246 299 369 425
#     4  11  26  48  69  99 151 193 237 299 369 446
#     4  12  22  43  74 105 146 180 247 312 354 420
#     4  11  25  46  68 105 145 193 246 300 365 437
#     4  11  24  48  70 102 152 188 239 305 362 443
#
# _framework density 22.508782
#
# number of rings (size 3 to 8) (size 9 to 14) (size 15 to 20)
#    0.000    0.667    5.000    2.000    2.333    1.333 
#    9.000    0.000    0.000    0.000    0.000    0.000 
#    0.000    0.000    0.000    0.000    0.000    0.000 
#
# Total GULP energy -297484.822844 kJ/mol
# GULP energy per Si atom -12395.200952 kJ/mol
# Density = 2.245755 g / cm^3
# Si number density = 22.508782 Si / 1000 Ang^3
#
#
#
# Elastic Constant Matrix: (Units=GPa)
#
#
# Indices 1 2 3 4 5 6 
#
# 1 128.7904 47.2464 39.7016 0.0000 11.2944 0.0000
# 2 47.2464 156.6973 42.9736 0.0000 3.6594 0.0000
# 3 39.7016 42.9736 98.6063 0.0000 -0.9649 0.0000
# 4 0.0000 0.0000 0.0000 36.9369 0.0000 1.1561
# 5 11.2944 3.6594 -0.9649 0.0000 28.6568 0.0000
# 6 0.0000 0.0000 0.0000 1.1561 0.0000 40.0754
#
#
#
# Elastic Compliance Matrix: (Units=1/GPa)
#
#
# Indices 1 2 3 4 5 6 
#
# 1 0.009783 -0.002014 -0.003097 0.000000 -0.003703 0.000000
# 2 -0.002014 0.007693 -0.002545 0.000000 -0.000274 0.000000
# 3 -0.003097 -0.002545 0.012517 0.000000 0.001967 0.000000
# 4 0.000000 0.000000 0.000000 0.027098 0.000000 -0.000782
# 5 -0.003703 -0.000274 0.001967 0.000000 0.036456 0.000000
# 6 0.000000 0.000000 0.000000 -0.000782 0.000000 0.024976
#
#
# Mechanical properties :
#
#
# Convention : Reuss Voigt Hill
#
# Bulk Modulus (GPa) = 68.11523 71.54857 69.83190
# Shear Modulus (GPa) = 36.04183 38.07865 37.06024
#
# Velocity S-wave (km/s) = 4.00588 4.11752 4.06208
# Velocity P-wave (km/s) = 7.19190 7.37979 7.28645
#
# Compressibility (1/GPa) = 0.01468100
#
# Stress axis : x y z
#
# Youngs Moduli (GPa) = 102.21971 129.98546 79.89316
#
# Poissons Ratio (x) = 0.26175 0.24747
# Poissons Ratio (y) = 0.20584 0.20330
# Poissons Ratio (z) = 0.31662 0.33077
#
# Static dielectric constant tensor:
#      x y z
#    x 4.248780 0.000000 -0.034960 
#    y 0.000000 4.484790 0.000000 
#    z -0.034960 0.000000 3.987980 
# 
# 
# High freq. dielectric constant tensor:
#      x y z
#    x 1.887700 0.000000 -0.008980 
#    y 0.000000 1.905130 0.000000 
#    z -0.008980 0.000000 1.869900 
# 
# From -- ./inp_files/97178.got.cif
#   From: 2010.06.25/outbox.cif.g09.slc.cpg/sg15_49_cif.got.tgz:97178.got - 2010.06.28 07:06:18.
