data_PCOD8153123
_publ_section_title
;
Structure prediction by ZEFSAII (Michael W. Deem and Ramdas Pophale) SiO2 
 PCOD8153123
Probable space group: C 2/C
;
_chemical_formula_sum "Si O2"
_cell_formula_units_Z 44
_cell_length_a 25.734329
_cell_length_b 17.084234
_cell_length_c 15.732088
_cell_angle_alpha 90.000000
_cell_angle_beta 17.568343
_cell_angle_gamma 90.000000
_cell_volume 2087.738535
_symmetry_space_group_name_H-M "C 2/C"
_symmetry_group_IT_number 15
_symmetry_cell_setting 'monoclinic'
loop_
_space_group_symop_operation_xyz
x,y,z
-x,y,1/2-z
-x,-y,-z
x,-y,1/2+z
1/2+x,1/2+y,z
1/2-x,1/2+y,1/2-z
1/2-x,1/2-y,-z
1/2+x,1/2-y,1/2+z
loop_
_atom_site_type_symbol
_atom_site_label
_atom_site_fract_x
_atom_site_fract_y
_atom_site_fract_z
Si Si1 0.636643 0.902464 0.423234
Si Si2 0.136928 0.064645 0.252883
Si Si3 0.171859 0.655230 0.182286
Si Si4 0.818855 0.001269 0.502192
Si Si5 0.500000 0.974511 0.250000
Si Si6 0.855325 0.178380 0.725295
O O1 0.514926 0.837885 0.570422
O O2 0.724648 0.867997 0.369398
O O3 0.772266 0.933066 0.143606
O O4 0.514931 0.973871 0.641717
O O5 0.048212 0.149866 0.401748
O O6 0.318144 0.071537 0.022116
O O7 0.000000 0.000000 0.500000
O O8 0.176934 0.045665 0.093475
O O9 0.189560 0.573135 0.204600
O O10 0.175036 0.728773 0.242035
O O11 0.320203 0.659252 0.879226
O O12 0.000000 0.966130 0.250000
#
# Coordination Sequence:
#
# PCOD8153123 Si02
#       6
#     8   8   8   8   4   8
#     4  12  21  42  65  96 134 178 226 288 337 413
#     4  12  21  43  66 101 137 181 227 282 347 409
#     4  11  24  40  67 102 126 179 230 285 342 417
#     4  12  23  38  70 100 129 176 237 280 336 420
#     4  12  22  38  72  94 136 180 238 284 334 402
#     4  11  23  43  66  94 144 171 220 291 361 391
#
# _framework density 21.075434999999999
#
# number of rings (size 3 to 8) (size 9 to 14) (size 15 to 20)
#    0.000    0.364    9.091    0.545    0.000    2.909 
#    0.000    0.909    2.000    0.000    0.000    0.000 
#    0.000    0.000    0.000    0.000    0.000    0.000 
#
# Total GULP energy -272742.585933 kJ/mol
# GULP energy per Si atom -12397.390270 kJ/mol
# Density = 2.102747 g / cm^3
# Si number density = 21.075435 Si / 1000 Ang^3
#
#
#
# Elastic Constant Matrix: (Units=GPa)
#
#
# Indices 1 2 3 4 5 6 
#
# 1 75.6447 38.8555 33.8366 0.0048 -2.7767 0.0014
# 2 38.8555 111.0427 43.6024 0.0436 8.1971 -0.0213
# 3 33.8366 43.6024 107.0381 0.0258 -18.2958 -0.0162
# 4 0.0048 0.0436 0.0258 33.5267 -0.0043 1.8012
# 5 -2.7767 8.1971 -18.2958 -0.0043 43.6433 0.0004
# 6 0.0014 -0.0213 -0.0162 1.8012 0.0004 27.9536
#
#
#
# Elastic Compliance Matrix: (Units=1/GPa)
#
#
# Indices 1 2 3 4 5 6 
#
# 1 0.017191 -0.004712 -0.003422 0.000007 0.000544 -0.000007
# 2 -0.004712 0.012755 -0.004488 -0.000013 -0.004577 0.000008
# 3 -0.003422 -0.004488 0.013313 -0.000003 0.006206 0.000005
# 4 0.000007 -0.000013 -0.000003 0.029931 0.000005 -0.001929
# 5 0.000544 -0.004577 0.006206 0.000005 0.026409 -0.000001
# 6 -0.000007 0.000008 0.000005 -0.001929 -0.000001 0.035898
#
#
# Mechanical properties :
#
#
# Convention : Reuss Voigt Hill
#
# Bulk Modulus (GPa) = 55.51127 58.47936 56.99531
# Shear Modulus (GPa) = 29.98587 32.85344 31.41966
#
# Velocity S-wave (km/s) = 3.77608 3.95251 3.86530
# Velocity P-wave (km/s) = 6.73856 6.97407 6.85733
#
# Compressibility (1/GPa) = 0.01801436
#
# Stress axis : x y z
#
# Youngs Moduli (GPa) = 58.17153 78.40315 75.11205
#
# Poissons Ratio (x) = 0.36942 0.25702
# Poissons Ratio (y) = 0.27409 0.33714
# Poissons Ratio (z) = 0.19905 0.35191
#
# Static dielectric constant tensor:
#      x y z
#    x 3.780010 -0.000010 -0.038510 
#    y -0.000010 3.725710 0.000050 
#    z -0.038510 0.000050 3.992280 
# 
# 
# High freq. dielectric constant tensor:
#      x y z
#    x 1.829700 0.000000 -0.008080 
#    y 0.000000 1.798540 0.000000 
#    z -0.008080 0.000000 1.831240 
# 
# From -- ./inp_files/134739.got.cif
#   From: 2010.06.25/outbox.cif.g09.slc.cpg/sg15_68_cif.got.tgz:134739.got - 2010.06.28 07:06:18.
