data_PCOD8153668
_publ_section_title
;
Structure prediction by ZEFSAII (Michael W. Deem and Ramdas Pophale) SiO2 
 PCOD8153668
Probable space group: C 2/C
;
_chemical_formula_sum "Si O2"
_cell_formula_units_Z 32
_cell_length_a 13.679842
_cell_length_b 12.686190
_cell_length_c 10.478896
_cell_angle_alpha 90.000000
_cell_angle_beta 38.620354
_cell_angle_gamma 90.000000
_cell_volume 1135.067789
_symmetry_space_group_name_H-M "C 2/C"
_symmetry_group_IT_number 15
_symmetry_cell_setting 'monoclinic'
loop_
_space_group_symop_operation_xyz
x,y,z
-x,y,1/2-z
-x,-y,-z
x,-y,1/2+z
1/2+x,1/2+y,z
1/2-x,1/2+y,1/2-z
1/2-x,1/2-y,-z
1/2+x,1/2-y,1/2+z
loop_
_atom_site_type_symbol
_atom_site_label
_atom_site_fract_x
_atom_site_fract_y
_atom_site_fract_z
Si Si1 0.102558 0.986236 0.769969
Si Si2 0.792644 0.698272 0.179160
Si Si3 0.098800 0.628135 0.772799
Si Si4 0.331867 0.104389 0.384764
O O1 0.205216 0.881509 0.672945
O O2 0.000000 0.974942 0.750000
O O3 0.224255 0.083607 0.620412
O O4 0.000000 0.000000 0.000000
O O5 0.759527 0.811520 0.148570
O O6 0.738916 0.684088 0.383209
O O7 0.975302 0.664484 0.007602
O O8 0.143177 0.505834 0.719753
O O9 0.000000 0.667190 0.750000
O O10 0.500000 0.150887 0.250000
#
# Coordination Sequence:
#
# PCOD8153668 Si02
#       4
#     8   8   8   8
#     4  12  25  43  76 114 147 189 256 312 376 442
#     4  12  25  45  74 110 150 192 254 308 371 439
#     4  11  24  43  75 111 145 195 256 306 365 448
#     4  11  25  49  77 106 149 203 248 308 379 448
#
# _framework density 28.192148
#
# number of rings (size 3 to 8) (size 9 to 14) (size 15 to 20)
#    0.000    0.500    7.500    2.250    3.500    0.000 
#    0.000    1.250    0.000    0.000    0.000    0.000 
#    0.000    0.000    0.000    0.000    0.000    0.000 
#
# Total GULP energy -198303.918205 kJ/mol
# GULP energy per Si atom -12393.994888 kJ/mol
# Density = 2.812798 g / cm^3
# Si number density = 28.192148 Si / 1000 Ang^3
#
#
#
# Elastic Constant Matrix: (Units=GPa)
#
#
# Indices 1 2 3 4 5 6 
#
# 1 146.2742 33.5086 32.1155 0.0000 8.9512 0.0000
# 2 33.5086 63.6836 -3.9880 0.0000 -1.4843 0.0000
# 3 32.1155 -3.9880 128.0589 0.0000 1.2686 0.0000
# 4 0.0000 0.0000 0.0000 9.7197 0.0000 -5.5969
# 5 8.9512 -1.4843 1.2686 0.0000 52.7160 0.0000
# 6 0.0000 0.0000 0.0000 -5.5969 0.0000 48.4058
#
#
#
# Elastic Compliance Matrix: (Units=1/GPa)
#
#
# Indices 1 2 3 4 5 6 
#
# 1 0.008489 -0.004643 -0.002258 0.000000 -0.001518 0.000000
# 2 -0.004643 0.018283 0.001721 0.000000 0.001262 0.000000
# 3 -0.002258 0.001721 0.008427 0.000000 0.000229 0.000000
# 4 0.000000 0.000000 0.000000 0.110223 0.000000 0.012744
# 5 -0.001518 0.001262 0.000229 0.000000 0.019257 0.000000
# 6 0.000000 0.000000 0.000000 0.012744 0.000000 0.022132
#
#
# Mechanical properties :
#
#
# Convention : Reuss Voigt Hill
#
# Bulk Modulus (GPa) = 40.26157 51.25433 45.75795
# Shear Modulus (GPa) = 24.33667 40.59365 32.46516
#
# Velocity S-wave (km/s) = 2.94129 3.79871 3.39716
# Velocity P-wave (km/s) = 5.08400 6.12046 5.62615
#
# Compressibility (1/GPa) = 0.02483758
#
# Stress axis : x y z
#
# Youngs Moduli (GPa) = 117.80009 54.69525 118.67119
#
# Poissons Ratio (x) = 0.25398 0.26802
# Poissons Ratio (y) = 0.54700 -0.20428
# Poissons Ratio (z) = 0.26605 -0.09415
#
# Static dielectric constant tensor:
#      x y z
#    x 4.644260 0.000000 -0.867500 
#    y 0.000000 4.738200 0.000000 
#    z -0.867500 0.000000 4.831720 
# 
# 
# High freq. dielectric constant tensor:
#      x y z
#    x 2.162500 0.000000 0.008450 
#    y 0.000000 2.111870 0.000000 
#    z 0.008450 0.000000 2.150070 
# 
# From -- ./inp_files/95947.got.cif
#   From: 2010.06.25/outbox.cif.g09.slc.cpg/sg15_48_cif.got.tgz:95947.got - 2010.06.28 07:06:18.
