data_PCOD8153587
_publ_section_title
;
Structure prediction by ZEFSAII (Michael W. Deem and Ramdas Pophale) SiO2 
 PCOD8153587
Probable space group: C 2/C
;
_chemical_formula_sum "Si O2"
_cell_formula_units_Z 48
_cell_length_a 14.581799
_cell_length_b 8.425247
_cell_length_c 18.904811
_cell_angle_alpha 90.000000
_cell_angle_beta 113.996162
_cell_angle_gamma 90.000000
_cell_volume 2121.823245
_symmetry_space_group_name_H-M "C 2/C"
_symmetry_group_IT_number 15
_symmetry_cell_setting 'monoclinic'
loop_
_space_group_symop_operation_xyz
x,y,z
-x,y,1/2-z
-x,-y,-z
x,-y,1/2+z
1/2+x,1/2+y,z
1/2-x,1/2+y,1/2-z
1/2-x,1/2-y,-z
1/2+x,1/2-y,1/2+z
loop_
_atom_site_type_symbol
_atom_site_label
_atom_site_fract_x
_atom_site_fract_y
_atom_site_fract_z
Si Si1 0.385464 0.633029 0.844595
Si Si2 0.880505 0.486354 0.890272
Si Si3 0.259671 0.961170 0.601741
Si Si4 0.404484 0.501350 0.057932
Si Si5 0.826419 0.132095 0.672904
Si Si6 0.412187 0.129474 0.553940
O O1 0.368880 0.817666 0.850540
O O2 0.290580 0.536018 0.844445
O O3 0.486173 0.576713 0.916110
O O4 0.395958 0.608987 0.763641
O O5 0.786747 0.593828 0.839844
O O6 0.976273 0.578236 0.888353
O O7 0.883242 0.470771 0.975768
O O8 0.328074 0.811102 0.643538
O O9 0.172480 0.911256 0.518580
O O10 0.333326 0.091261 0.590730
O O11 0.367322 0.488094 0.126791
O O12 0.407882 0.684394 0.035828
#
# Coordination Sequence:
#
# PCOD8153587 Si02
#       6
#     8   8   8   8   8   8
#     4  12  26  44  67  99 141 177 220 278 341 398
#     4  11  24  43  68  98 134 171 226 273 338 391
#     4  12  24  44  71 102 132 176 229 276 332 397
#     4  12  24  44  70 102 130 179 229 276 328 400
#     4  12  26  44  67  99 140 179 218 279 341 398
#     4  11  24  42  70 100 128 171 226 287 320 392
#
# _framework density 22.622053999999999
#
# number of rings (size 3 to 8) (size 9 to 14) (size 15 to 20)
#    0.000    0.333    3.333    6.000    4.667    0.000 
#    0.000    7.500    0.000    0.000    0.000    0.000 
#    0.000    0.000    0.000    0.000    0.000    0.000 
#
# Total GULP energy -297819.771951 kJ/mol
# GULP energy per Si atom -12409.157165 kJ/mol
# Density = 2.257057 g / cm^3
# Si number density = 22.622054 Si / 1000 Ang^3
#
#
#
# Elastic Constant Matrix: (Units=GPa)
#
#
# Indices 1 2 3 4 5 6 
#
# 1 88.5591 6.2931 3.6023 0.0000 -9.6314 0.0000
# 2 6.2931 72.7947 5.7834 0.0000 0.7529 0.0000
# 3 3.6023 5.7834 72.4665 0.0000 -13.2984 0.0000
# 4 0.0000 0.0000 0.0000 23.4051 0.0000 -5.1400
# 5 -9.6314 0.7529 -13.2984 0.0000 33.2292 0.0000
# 6 0.0000 0.0000 0.0000 -5.1400 0.0000 42.0198
#
#
#
# Elastic Compliance Matrix: (Units=1/GPa)
#
#
# Indices 1 2 3 4 5 6 
#
# 1 0.011740 -0.001062 0.000140 0.000000 0.003483 0.000000
# 2 -0.001062 0.013941 -0.001267 0.000000 -0.001131 0.000000
# 3 0.000140 -0.001267 0.015009 0.000000 0.006076 0.000000
# 4 0.000000 0.000000 0.000000 0.043905 0.000000 0.005371
# 5 0.003483 -0.001131 0.006076 0.000000 0.033561 0.000000
# 6 0.000000 0.000000 0.000000 0.005371 0.000000 0.024455
#
#
# Mechanical properties :
#
#
# Convention : Reuss Voigt Hill
#
# Bulk Modulus (GPa) = 27.53891 29.46421 28.50156
# Shear Modulus (GPa) = 31.42790 34.27359 32.85075
#
# Velocity S-wave (km/s) = 3.73132 3.89659 3.81485
# Velocity P-wave (km/s) = 5.54649 5.77039 5.65955
#
# Compressibility (1/GPa) = 0.03631226
#
# Stress axis : x y z
#
# Youngs Moduli (GPa) = 85.17543 71.72844 66.62828
#
# Poissons Ratio (x) = 0.07619 -0.00935
# Poissons Ratio (y) = 0.09047 0.08444
# Poissons Ratio (z) = -0.01196 0.09091
#
# Static dielectric constant tensor:
#      x y z
#    x 4.201860 0.000000 0.049110 
#    y 0.000000 3.868090 0.000000 
#    z 0.049110 0.000000 4.123930 
# 
# 
# High freq. dielectric constant tensor:
#      x y z
#    x 1.908110 0.000000 -0.002950 
#    y 0.000000 1.890560 0.000000 
#    z -0.002950 0.000000 1.886030 
# 
# From -- ./inp_files/242574.got.cif
#   From: 2010.06.25/outbox.cif.g09.slc.cpg/sg15_122_cif.got.tgz:242574.got - 2010.06.28 07:06:18.
