data_PCOD8153293
_publ_section_title
;
Structure prediction by ZEFSAII (Michael W. Deem and Ramdas Pophale) SiO2 
 PCOD8153293
Probable space group: C 2/C
;
_chemical_formula_sum "Si O2"
_cell_formula_units_Z 56
_cell_length_a 28.475466
_cell_length_b 12.249715
_cell_length_c 14.127267
_cell_angle_alpha 90.000000
_cell_angle_beta 31.397619
_cell_angle_gamma 90.000000
_cell_volume 2567.267729
_symmetry_space_group_name_H-M "C 2/C"
_symmetry_group_IT_number 15
_symmetry_cell_setting 'monoclinic'
loop_
_space_group_symop_operation_xyz
x,y,z
-x,y,1/2-z
-x,-y,-z
x,-y,1/2+z
1/2+x,1/2+y,z
1/2-x,1/2+y,1/2-z
1/2-x,1/2-y,-z
1/2+x,1/2-y,1/2+z
loop_
_atom_site_type_symbol
_atom_site_label
_atom_site_fract_x
_atom_site_fract_y
_atom_site_fract_z
Si Si1 0.036651 0.832011 0.406726
Si Si2 0.367537 0.525057 0.162939
Si Si3 0.266803 0.877558 0.460500
Si Si4 0.252289 0.521057 0.186877
Si Si5 0.312122 0.727434 0.983557
Si Si6 0.956407 0.617855 0.572318
Si Si7 0.902729 0.404302 0.960012
O O1 0.092928 0.823077 0.212974
O O2 0.938774 0.878254 0.550684
O O3 0.025815 0.714929 0.479115
O O4 0.090061 0.909055 0.385744
O O5 0.281627 0.552479 0.375615
O O6 0.338781 0.511556 0.104670
O O7 0.250000 0.750000 0.500000
O O8 0.374250 0.891564 0.287272
O O9 0.236437 0.926524 0.411440
O O10 0.158357 0.509154 0.406804
O O11 0.252874 0.642506 0.144522
O O12 0.339262 0.831956 0.000288
O O13 0.250000 0.750000 0.000000
O O14 0.923225 0.655302 0.524407
O O15 0.000000 0.500000 0.500000
O O16 0.000000 0.439167 0.750000
#
# Coordination Sequence:
#
# PCOD8153293 Si02
#       7
#     8   8   8   8   8   8   8
#     4  11  23  44  73 104 139 189 246 297 353 437
#     4  11  24  46  73 104 141 189 245 298 360 429
#     4  11  24  47  67 100 143 193 227 295 366 423
#     4  11  27  44  70 107 138 186 239 298 359 431
#     4  12  26  46  74 101 143 192 249 302 361 437
#     4  11  25  42  70 104 147 185 234 297 371 432
#     4  11  25  43  70 107 140 187 238 297 366 433
#
# _framework density 21.813072999999999
#
# number of rings (size 3 to 8) (size 9 to 14) (size 15 to 20)
#    0.000    0.857    4.286    1.714    8.000    0.000 
#    0.000    0.000    0.000    0.000    0.000    0.000 
#    0.000    0.000    0.000    0.000    0.000    0.000 
#
# Total GULP energy -347094.432791 kJ/mol
# GULP energy per Si atom -12396.229743 kJ/mol
# Density = 2.176343 g / cm^3
# Si number density = 21.813073 Si / 1000 Ang^3
#
#
#
# Elastic Constant Matrix: (Units=GPa)
#
#
# Indices 1 2 3 4 5 6 
#
# 1 114.0376 55.7119 34.5653 0.0000 3.8546 0.0000
# 2 55.7119 168.0754 79.2905 0.0000 -12.5902 0.0000
# 3 34.5653 79.2905 161.6518 0.0000 -4.6528 0.0000
# 4 0.0000 0.0000 0.0000 39.1879 0.0000 13.3393
# 5 3.8546 -12.5902 -4.6528 0.0000 22.1035 0.0000
# 6 0.0000 0.0000 0.0000 13.3393 0.0000 15.8540
#
#
#
# Elastic Compliance Matrix: (Units=1/GPa)
#
#
# Indices 1 2 3 4 5 6 
#
# 1 0.010865 -0.003585 -0.000682 0.000000 -0.004081 0.000000
# 2 -0.003585 0.009225 -0.003611 0.000000 0.005120 0.000000
# 3 -0.000682 -0.003611 0.008096 0.000000 -0.000234 0.000000
# 4 0.000000 0.000000 0.000000 0.035760 0.000000 -0.030088
# 5 -0.004081 0.005120 -0.000234 0.000000 0.048820 0.000000
# 6 0.000000 0.000000 0.000000 -0.030088 0.000000 0.088391
#
#
# Mechanical properties :
#
#
# Convention : Reuss Voigt Hill
#
# Bulk Modulus (GPa) = 80.45030 86.98893 83.71962
# Shear Modulus (GPa) = 22.61844 33.70888 28.16366
#
# Velocity S-wave (km/s) = 3.22362 3.93536 3.59714
# Velocity P-wave (km/s) = 7.12863 7.78558 7.46434
#
# Compressibility (1/GPa) = 0.01243003
#
# Stress axis : x y z
#
# Youngs Moduli (GPa) = 92.03577 108.39906 123.51113
#
# Poissons Ratio (x) = 0.38866 0.08424
# Poissons Ratio (y) = 0.32999 0.44599
# Poissons Ratio (z) = 0.06278 0.39142
#
# Static dielectric constant tensor:
#      x y z
#    x 3.988800 0.000000 0.138690 
#    y 0.000000 3.945240 0.000000 
#    z 0.138690 0.000000 3.505470 
# 
# 
# High freq. dielectric constant tensor:
#      x y z
#    x 1.849520 0.000000 -0.007430 
#    y 0.000000 1.862070 0.000000 
#    z -0.007430 0.000000 1.874860 
# 
# From -- ./inp_files/181908.got.cif
#   From: 2010.06.25/outbox.cif.g09.slc.cpg/sg15_91_cif.got.tgz:181908.got - 2010.06.28 07:06:18.
