data_PCOD8153626
_publ_section_title
;
Structure prediction by ZEFSAII (Michael W. Deem and Ramdas Pophale) SiO2 
 PCOD8153626
Probable space group: C 2/C
;
_chemical_formula_sum "Si O2"
_cell_formula_units_Z 48
_cell_length_a 14.911821
_cell_length_b 11.532414
_cell_length_c 13.417149
_cell_angle_alpha 90.000000
_cell_angle_beta 119.265014
_cell_angle_gamma 90.000000
_cell_volume 2012.847369
_symmetry_space_group_name_H-M "C 2/C"
_symmetry_group_IT_number 15
_symmetry_cell_setting 'monoclinic'
loop_
_space_group_symop_operation_xyz
x,y,z
-x,y,1/2-z
-x,-y,-z
x,-y,1/2+z
1/2+x,1/2+y,z
1/2-x,1/2+y,1/2-z
1/2-x,1/2-y,-z
1/2+x,1/2-y,1/2+z
loop_
_atom_site_type_symbol
_atom_site_label
_atom_site_fract_x
_atom_site_fract_y
_atom_site_fract_z
Si Si1 0.059222 0.344449 0.516139
Si Si2 0.641619 0.802649 0.777903
Si Si3 0.576460 0.399332 0.960830
Si Si4 0.341947 0.548604 0.662776
Si Si5 0.878098 0.415916 0.529639
Si Si6 0.158858 0.072644 0.140641
O O1 0.108230 0.353651 0.653503
O O2 0.101531 0.237437 0.472595
O O3 0.087186 0.451277 0.461085
O O4 0.936287 0.343564 0.473317
O O5 0.609142 0.666966 0.766914
O O6 0.588911 0.867433 0.843500
O O7 0.765257 0.825550 0.854532
O O8 0.577792 0.472365 0.858812
O O9 0.460478 0.395562 0.939848
O O10 0.665561 0.455414 0.078204
O O11 0.244360 0.591764 0.547038
O O12 0.307877 0.460823 0.730109
#
# Coordination Sequence:
#
# PCOD8153626 Si02
#       6
#     8   8   8   8   8   8
#     4  11  25  47  68  97 145 182 229 286 342 416
#     4  12  24  45  71 103 136 185 228 281 350 419
#     4  11  25  44  69 102 139 177 231 290 344 404
#     4  12  24  44  73 102 134 181 234 286 349 413
#     4  11  25  43  69 103 136 183 232 281 346 415
#     4  11  24  43  68 107 135 177 231 287 346 407
#
# _framework density 23.846817000000001
#
# number of rings (size 3 to 8) (size 9 to 14) (size 15 to 20)
#    0.000    0.667    5.000    2.500    4.667    2.000 
#    3.000    3.333    0.000    0.000    0.000    0.000 
#    0.000    0.000    0.000    0.000    0.000    0.000 
#
# Total GULP energy -297383.822216 kJ/mol
# GULP energy per Si atom -12390.992592 kJ/mol
# Density = 2.379254 g / cm^3
# Si number density = 23.846817 Si / 1000 Ang^3
#
#
#
# Elastic Constant Matrix: (Units=GPa)
#
#
# Indices 1 2 3 4 5 6 
#
# 1 77.4461 41.0139 -5.8270 0.0000 -12.3011 0.0000
# 2 41.0139 130.4828 11.6796 0.0000 -31.4987 0.0000
# 3 -5.8270 11.6796 44.7581 0.0000 -18.5661 0.0000
# 4 0.0000 0.0000 0.0000 31.6467 0.0000 -12.8615
# 5 -12.3011 -31.4987 -18.5661 0.0000 39.2944 0.0000
# 6 0.0000 0.0000 0.0000 -12.8615 0.0000 42.8350
#
#
#
# Elastic Compliance Matrix: (Units=1/GPa)
#
#
# Indices 1 2 3 4 5 6 
#
# 1 0.016343 -0.004690 0.004868 0.000000 0.003657 0.000000
# 2 -0.004690 0.010874 -0.000549 0.000000 0.006989 0.000000
# 3 0.004868 -0.000549 0.029314 0.000000 0.014935 0.000000
# 4 0.000000 0.000000 0.000000 0.035991 0.000000 0.010806
# 5 0.003657 0.006989 0.014935 0.000000 0.039253 0.000000
# 6 0.000000 0.000000 0.000000 0.010806 0.000000 0.026590
#
#
# Mechanical properties :
#
#
# Convention : Reuss Voigt Hill
#
# Bulk Modulus (GPa) = 17.92405 38.49111 28.20758
# Shear Modulus (GPa) = 28.13671 36.47659 32.30665
#
# Velocity S-wave (km/s) = 3.43868 3.91528 3.68470
# Velocity P-wave (km/s) = 4.82687 6.05105 5.47330
#
# Compressibility (1/GPa) = 0.05579096
#
# Stress axis : x y z
#
# Youngs Moduli (GPa) = 61.18791 91.95883 34.11283
#
# Poissons Ratio (x) = 0.43129 -0.16608
# Poissons Ratio (y) = 0.28697 0.01873
# Poissons Ratio (z) = -0.29789 0.05048
#
# Static dielectric constant tensor:
#      x y z
#    x 4.337060 0.000000 -0.003930 
#    y 0.000000 4.312630 0.000000 
#    z -0.003930 0.000000 3.988720 
# 
# 
# High freq. dielectric constant tensor:
#      x y z
#    x 1.946720 0.000000 0.002770 
#    y 0.000000 1.946070 0.000000 
#    z 0.002770 0.000000 1.937560 
# 
# From -- ./inp_files/152732.got.cif
#   From: 2010.06.25/outbox.cif.g09.slc.cpg/sg15_77_cif.got.tgz:152732.got - 2010.06.28 07:06:18.
