data_PCOD8153605
_publ_section_title
;
Structure prediction by ZEFSAII (Michael W. Deem and Ramdas Pophale) SiO2 
 PCOD8153605
Probable space group: C 2/C
;
_chemical_formula_sum "Si O2"
_cell_formula_units_Z 44
_cell_length_a 24.754009
_cell_length_b 12.172238
_cell_length_c 8.583921
_cell_angle_alpha 90.000000
_cell_angle_beta 50.686290
_cell_angle_gamma 90.000000
_cell_volume 2001.095918
_symmetry_space_group_name_H-M "C 2/C"
_symmetry_group_IT_number 15
_symmetry_cell_setting 'monoclinic'
loop_
_space_group_symop_operation_xyz
x,y,z
-x,y,1/2-z
-x,-y,-z
x,-y,1/2+z
1/2+x,1/2+y,z
1/2-x,1/2+y,1/2-z
1/2-x,1/2-y,-z
1/2+x,1/2-y,1/2+z
loop_
_atom_site_type_symbol
_atom_site_label
_atom_site_fract_x
_atom_site_fract_y
_atom_site_fract_z
Si Si1 0.426893 0.643323 0.438772
Si Si2 0.588142 0.421835 0.871716
Si Si3 0.000000 0.780435 0.250000
Si Si4 0.863340 0.255240 0.820802
Si Si5 0.238317 0.130215 0.094040
Si Si6 0.244267 0.409580 0.604984
O O1 0.500000 0.692735 0.250000
O O2 0.435076 0.545914 0.550573
O O3 0.392672 0.594125 0.345895
O O4 0.385628 0.740451 0.598574
O O5 0.661384 0.384981 0.811805
O O6 0.525060 0.349147 0.054505
O O7 0.069011 0.717406 0.191384
O O8 0.810729 0.358084 0.918590
O O9 0.820766 0.144837 0.942602
O O10 0.284116 0.110767 0.166713
O O11 0.250000 0.250000 0.000000
O O12 0.253514 0.039373 0.934654
#
# Coordination Sequence:
#
# PCOD8153605 Si02
#       6
#     8   8   4   8   8   8
#     4  12  21  34  57  95 140 171 217 284 351 413
#     4  12  22  34  58  97 134 174 226 283 352 414
#     4  12  22  40  64  98 140 186 224 292 358 420
#     4  11  24  43  65 101 142 184 228 290 354 421
#     4  12  26  44  72 102 142 187 237 291 351 418
#     4  11  26  44  70 101 144 183 236 289 348 422
#
# _framework density 21.987952
#
# number of rings (size 3 to 8) (size 9 to 14) (size 15 to 20)
#    0.000    0.364    6.364    3.818    5.091    0.000 
#    0.000    0.000    0.000    4.364    2.364    0.000 
#    0.000    0.000    0.000    0.000    0.000    0.000 
#
# Total GULP energy -272557.488312 kJ/mol
# GULP energy per Si atom -12388.976741 kJ/mol
# Density = 2.193791 g / cm^3
# Si number density = 21.987952 Si / 1000 Ang^3
#
#
#
# Elastic Constant Matrix: (Units=GPa)
#
#
# Indices 1 2 3 4 5 6 
#
# 1 125.2841 34.3243 32.9397 0.0000 6.3185 0.0000
# 2 34.3243 117.1997 40.8561 0.0000 6.3196 0.0000
# 3 32.9397 40.8561 108.8621 0.0000 15.7815 0.0000
# 4 0.0000 0.0000 0.0000 19.0977 0.0000 -3.3278
# 5 6.3185 6.3196 15.7815 0.0000 38.2872 0.0000
# 6 0.0000 0.0000 0.0000 -3.3278 0.0000 23.4021
#
#
#
# Elastic Compliance Matrix: (Units=1/GPa)
#
#
# Indices 1 2 3 4 5 6 
#
# 1 0.009048 -0.001949 -0.001953 0.000000 -0.000366 0.000000
# 2 -0.001949 0.010237 -0.003248 0.000000 -0.000029 0.000000
# 3 -0.001953 -0.003248 0.011562 0.000000 -0.003907 0.000000
# 4 0.000000 0.000000 0.000000 0.053693 0.000000 0.007635
# 5 -0.000366 -0.000029 -0.003907 0.000000 0.027794 0.000000
# 6 0.000000 0.000000 0.000000 0.007635 0.000000 0.043817
#
#
# Mechanical properties :
#
#
# Convention : Reuss Voigt Hill
#
# Bulk Modulus (GPa) = 60.43469 63.06513 61.74991
# Shear Modulus (GPa) = 28.41437 32.37246 30.39342
#
# Velocity S-wave (km/s) = 3.59872 3.84120 3.72193
# Velocity P-wave (km/s) = 6.69423 6.95823 6.82751
#
# Compressibility (1/GPa) = 0.01654679
#
# Stress axis : x y z
#
# Youngs Moduli (GPa) = 110.52321 97.68343 86.48794
#
# Poissons Ratio (x) = 0.19041 0.16892
# Poissons Ratio (y) = 0.21544 0.28091
# Poissons Ratio (z) = 0.21586 0.31727
#
# Static dielectric constant tensor:
#      x y z
#    x 4.260910 0.000000 0.105850 
#    y 0.000000 3.377650 0.000000 
#    z 0.105850 0.000000 4.085840 
# 
# 
# High freq. dielectric constant tensor:
#      x y z
#    x 1.885260 0.000000 0.011760 
#    y 0.000000 1.807660 0.000000 
#    z 0.011760 0.000000 1.877770 
# 
# From -- ./inp_files/54457.got.cif
#   From: 2010.06.25/outbox.cif.g09.slc.cpg/sg15_28_cif.got.tgz:54457.got - 2010.06.28 07:06:18.
