data_PCOD8153952
_publ_section_title
;
Structure prediction by ZEFSAII (Michael W. Deem and Ramdas Pophale) SiO2 
 PCOD8153952
Probable space group: C 2/C
;
_chemical_formula_sum "Si O2"
_cell_formula_units_Z 40
_cell_length_a 16.310181
_cell_length_b 11.860562
_cell_length_c 9.471690
_cell_angle_alpha 90.000000
_cell_angle_beta 85.462714
_cell_angle_gamma 90.000000
_cell_volume 1826.536419
_symmetry_space_group_name_H-M "C 2/C"
_symmetry_group_IT_number 15
_symmetry_cell_setting 'monoclinic'
loop_
_space_group_symop_operation_xyz
x,y,z
-x,y,1/2-z
-x,-y,-z
x,-y,1/2+z
1/2+x,1/2+y,z
1/2-x,1/2+y,1/2-z
1/2-x,1/2-y,-z
1/2+x,1/2-y,1/2+z
loop_
_atom_site_type_symbol
_atom_site_label
_atom_site_fract_x
_atom_site_fract_y
_atom_site_fract_z
Si Si1 0.447362 0.931092 0.620710
Si Si2 0.114538 0.203938 0.348350
Si Si3 0.434960 0.288591 0.960694
Si Si4 0.792819 0.420609 0.160257
Si Si5 0.813114 0.023819 0.574550
O O1 0.500000 0.899647 0.750000
O O2 0.410566 0.816782 0.560722
O O3 0.500000 0.000000 0.500000
O O4 0.371605 0.004347 0.684215
O O5 0.091858 0.240342 0.193700
O O6 0.176903 0.298587 0.400541
O O7 0.033450 0.196038 0.456719
O O8 0.156851 0.083096 0.340615
O O9 0.391040 0.401207 0.020783
O O10 0.744675 0.403618 0.314157
O O11 0.735449 0.481233 0.054828
#
# Coordination Sequence:
#
# PCOD8153952 Si02
#       5
#     8   8   8   8   8
#     4  12  25  47  73 108 143 191 242 294 352 434
#     4  11  24  47  71 102 144 194 241 296 358 436
#     4  11  25  46  73 103 145 190 244 296 358 434
#     4  12  26  43  74 104 144 185 242 299 360 424
#     4  12  26  46  70 107 148 186 236 302 369 421
#
# _framework density 21.899370999999999
#
# number of rings (size 3 to 8) (size 9 to 14) (size 15 to 20)
#    0.000    0.400    4.000    4.800    2.800    3.200 
#    3.600    0.000    0.000    0.000    0.000    0.000 
#    0.000    0.000    0.000    0.000    0.000    0.000 
#
# Total GULP energy -248134.760079 kJ/mol
# GULP energy per Si atom -12406.738004 kJ/mol
# Density = 2.184953 g / cm^3
# Si number density = 21.899371 Si / 1000 Ang^3
#
#
#
# Elastic Constant Matrix: (Units=GPa)
#
#
# Indices 1 2 3 4 5 6 
#
# 1 104.7135 63.6125 44.9937 0.0000 -21.0871 0.0000
# 2 63.6125 151.9503 35.1184 0.0000 -5.9395 0.0000
# 3 44.9937 35.1184 107.8580 0.0000 -6.6766 0.0000
# 4 0.0000 0.0000 0.0000 28.5782 0.0000 2.4337
# 5 -21.0871 -5.9395 -6.6766 0.0000 39.9718 0.0000
# 6 0.0000 0.0000 0.0000 2.4337 0.0000 47.3268
#
#
#
# Elastic Compliance Matrix: (Units=1/GPa)
#
#
# Indices 1 2 3 4 5 6 
#
# 1 0.016242 -0.005472 -0.004561 0.000000 0.006994 0.000000
# 2 -0.005472 0.008978 -0.000744 0.000000 -0.001677 0.000000
# 3 -0.004561 -0.000744 0.011378 0.000000 -0.000616 0.000000
# 4 0.000000 0.000000 0.000000 0.035146 0.000000 -0.001807
# 5 0.006994 -0.001677 -0.000616 0.000000 0.028355 0.000000
# 6 0.000000 0.000000 0.000000 -0.001807 0.000000 0.021223
#
#
# Mechanical properties :
#
#
# Convention : Reuss Voigt Hill
#
# Bulk Modulus (GPa) = 66.47174 72.44123 69.45649
# Shear Modulus (GPa) = 33.80843 37.89518 35.85180
#
# Velocity S-wave (km/s) = 3.93340 4.16435 4.05052
# Velocity P-wave (km/s) = 7.14479 7.50156 7.32534
#
# Compressibility (1/GPa) = 0.01504399
#
# Stress axis : x y z
#
# Youngs Moduli (GPa) = 61.56753 111.37744 87.88649
#
# Poissons Ratio (x) = 0.60948 0.40084
# Poissons Ratio (y) = 0.33691 0.06542
# Poissons Ratio (z) = 0.28081 0.08291
#
# Static dielectric constant tensor:
#      x y z
#    x 4.181620 0.000000 -0.095070 
#    y 0.000000 4.013270 0.000000 
#    z -0.095070 0.000000 3.876710 
# 
# 
# High freq. dielectric constant tensor:
#      x y z
#    x 1.872670 0.000000 -0.004570 
#    y 0.000000 1.869420 0.000000 
#    z -0.004570 0.000000 1.861730 
# 
# From -- ./inp_files/46091.got.cif
#   From: 2010.06.25/outbox.cif.g09.slc.cpg/sg15_24_cif.got.tgz:46091.got - 2010.06.28 07:06:18.
