data_PCOD8153639
_publ_section_title
;
Structure prediction by ZEFSAII (Michael W. Deem and Ramdas Pophale) SiO2 
 PCOD8153639
Probable space group: C 2/C
;
_chemical_formula_sum "Si O2"
_cell_formula_units_Z 36
_cell_length_a 12.024347
_cell_length_b 15.118934
_cell_length_c 14.182211
_cell_angle_alpha 90.000000
_cell_angle_beta 137.437891
_cell_angle_gamma 90.000000
_cell_volume 1743.906377
_symmetry_space_group_name_H-M "C 2/C"
_symmetry_group_IT_number 15
_symmetry_cell_setting 'monoclinic'
loop_
_space_group_symop_operation_xyz
x,y,z
-x,y,1/2-z
-x,-y,-z
x,-y,1/2+z
1/2+x,1/2+y,z
1/2-x,1/2+y,1/2-z
1/2-x,1/2-y,-z
1/2+x,1/2-y,1/2+z
loop_
_atom_site_type_symbol
_atom_site_label
_atom_site_fract_x
_atom_site_fract_y
_atom_site_fract_z
Si Si1 0.255057 0.718002 0.179772
Si Si2 0.119521 0.547931 0.000925
Si Si3 0.820823 0.881482 0.093107
Si Si4 0.607522 0.269693 0.536680
Si Si5 0.000000 0.348751 0.250000
O O1 0.371219 0.700875 0.342285
O O2 0.340729 0.785968 0.160978
O O3 0.228215 0.623533 0.116163
O O4 0.083205 0.758722 0.106469
O O5 0.013141 0.589755 0.850168
O O6 0.250378 0.479559 0.040525
O O7 0.000000 0.500000 0.000000
O O8 0.699700 0.823528 0.081828
O O9 0.000000 0.881582 0.250000
O O10 0.819120 0.843628 0.986186
#
# Coordination Sequence:
#
# PCOD8153639 Si02
#       5
#     8   8   8   8   4
#     4  12  24  48  69 102 140 191 227 286 349 421
#     4  12  27  45  69 104 143 179 237 290 341 409
#     4  11  24  43  70 108 136 182 237 293 342 414
#     4  11  24  44  74  98 144 184 235 282 356 414
#     4  12  28  46  72 102 144 192 230 280 360 422
#
# _framework density 20.64331
#
# number of rings (size 3 to 8) (size 9 to 14) (size 15 to 20)
#    0.000    0.444    6.667    0.667    4.667    0.000 
#    0.000    2.222    0.000    0.000    0.000    0.000 
#    0.000    0.000    0.000    0.000    0.000    0.000 
#
# Total GULP energy -223316.579610 kJ/mol
# GULP energy per Si atom -12406.476645 kJ/mol
# Density = 2.059632 g / cm^3
# Si number density = 20.643310 Si / 1000 Ang^3
#
#
#
# Elastic Constant Matrix: (Units=GPa)
#
#
# Indices 1 2 3 4 5 6 
#
# 1 100.5885 65.7224 33.0931 -0.0001 7.5593 -0.0001
# 2 65.7224 146.2214 48.9394 0.0000 -6.2381 0.0000
# 3 33.0931 48.9394 94.3546 -0.0002 -3.3087 -0.0002
# 4 -0.0001 0.0000 -0.0002 29.8033 -0.0001 12.1630
# 5 7.5593 -6.2381 -3.3087 -0.0001 46.1482 -0.0001
# 6 -0.0001 0.0000 -0.0002 12.1630 -0.0001 40.8769
#
#
#
# Elastic Compliance Matrix: (Units=1/GPa)
#
#
# Indices 1 2 3 4 5 6 
#
# 1 0.014915 -0.006122 -0.002176 0.000000 -0.003427 0.000000
# 2 -0.006122 0.010819 -0.003386 0.000000 0.002222 0.000000
# 3 -0.002176 -0.003386 0.013147 0.000000 0.000841 0.000000
# 4 0.000000 0.000000 0.000000 0.038191 0.000000 -0.011364
# 5 -0.003427 0.002222 0.000841 0.000000 0.022591 0.000000
# 6 0.000000 0.000000 0.000000 -0.011364 0.000000 0.027845
#
#
# Mechanical properties :
#
#
# Convention : Reuss Voigt Hill
#
# Bulk Modulus (GPa) = 64.46354 70.74159 67.60256
# Shear Modulus (GPa) = 32.04158 36.25964 34.15061
#
# Velocity S-wave (km/s) = 3.94401 4.19559 4.07174
# Velocity P-wave (km/s) = 7.21356 7.60352 7.41111
#
# Compressibility (1/GPa) = 0.01551265
#
# Stress axis : x y z
#
# Youngs Moduli (GPa) = 67.04819 92.43307 76.06013
#
# Poissons Ratio (x) = 0.56584 0.16551
# Poissons Ratio (y) = 0.41044 0.25757
# Poissons Ratio (z) = 0.14590 0.31302
#
# Static dielectric constant tensor:
#      x y z
#    x 3.820670 0.000000 0.021500 
#    y 0.000000 3.861440 0.000000 
#    z 0.021500 0.000000 3.673850 
# 
# 
# High freq. dielectric constant tensor:
#      x y z
#    x 1.819250 0.000000 0.000300 
#    y 0.000000 1.812380 0.000000 
#    z 0.000300 0.000000 1.813870 
# 
# From -- ./inp_files/37619.got.cif
#   From: 2010.06.25/outbox.cif.g09.slc.cpg/sg15_19_cif.got.tgz:37619.got - 2010.06.28 07:06:18.
