data_PCOD8153876
_publ_section_title
;
Structure prediction by ZEFSAII (Michael W. Deem and Ramdas Pophale) SiO2 
 PCOD8153876
Probable space group: C 2/C
;
_chemical_formula_sum "Si O2"
_cell_formula_units_Z 48
_cell_length_a 28.495297
_cell_length_b 11.526320
_cell_length_c 14.345257
_cell_angle_alpha 90.000000
_cell_angle_beta 26.094540
_cell_angle_gamma 90.000000
_cell_volume 2072.432216
_symmetry_space_group_name_H-M "C 2/C"
_symmetry_group_IT_number 15
_symmetry_cell_setting 'monoclinic'
loop_
_space_group_symop_operation_xyz
x,y,z
-x,y,1/2-z
-x,-y,-z
x,-y,1/2+z
1/2+x,1/2+y,z
1/2-x,1/2+y,1/2-z
1/2-x,1/2-y,-z
1/2+x,1/2-y,1/2+z
loop_
_atom_site_type_symbol
_atom_site_label
_atom_site_fract_x
_atom_site_fract_y
_atom_site_fract_z
Si Si1 0.744196 0.064584 0.167052
Si Si2 0.356963 0.819449 0.814348
Si Si3 0.883228 0.441648 0.961320
Si Si4 0.535261 0.634460 0.448840
Si Si5 0.307507 0.271558 0.690923
Si Si6 0.394330 0.353572 0.876771
O O1 0.649496 0.089989 0.261844
O O2 0.807655 0.180488 0.083893
O O3 0.699128 0.035488 0.351938
O O4 0.830452 0.973638 0.975983
O O5 0.355275 0.898039 0.908901
O O6 0.447921 0.722109 0.646334
O O7 0.250000 0.750000 0.000000
O O8 0.000000 0.497442 0.750000
O O9 0.879250 0.343695 0.050425
O O10 0.500000 0.500000 0.500000
O O11 0.637294 0.640468 0.334931
O O12 0.567777 0.688008 0.291811
O O13 0.186206 0.241159 0.937811
O O14 0.500000 0.371935 0.750000
#
# Coordination Sequence:
#
# PCOD8153876 Si02
#       6
#     8   8   8   8   8   8
#     4  11  26  42  72 104 140 188 235 298 356 431
#     4  12  25  45  73 105 146 185 240 300 365 425
#     4  11  25  47  69 102 141 189 236 292 367 430
#     4  12  26  43  75 106 137 190 239 298 367 436
#     4  11  24  46  69  99 145 184 232 300 359 423
#     4  11  25  45  68 104 142 184 245 293 357 431
#
# _framework density 23.161190999999999
#
# number of rings (size 3 to 8) (size 9 to 14) (size 15 to 20)
#    0.000    0.667    3.333    3.500    7.000    3.333 
#    0.000    0.000    0.000    0.000    0.000    0.000 
#    0.000    0.000    0.000    0.000    0.000    0.000 
#
# Total GULP energy -297448.728462 kJ/mol
# GULP energy per Si atom -12393.697019 kJ/mol
# Density = 2.310848 g / cm^3
# Si number density = 23.161191 Si / 1000 Ang^3
#
#
#
# Elastic Constant Matrix: (Units=GPa)
#
#
# Indices 1 2 3 4 5 6 
#
# 1 146.2444 31.1400 29.1134 0.0000 -3.5868 0.0000
# 2 31.1400 77.2270 17.5749 0.0000 -7.2472 0.0000
# 3 29.1134 17.5749 105.1655 0.0000 -3.8895 0.0000
# 4 0.0000 0.0000 0.0000 31.5240 0.0000 2.2757
# 5 -3.5868 -7.2472 -3.8895 0.0000 44.6547 0.0000
# 6 0.0000 0.0000 0.0000 2.2757 0.0000 41.0964
#
#
#
# Elastic Compliance Matrix: (Units=1/GPa)
#
#
# Indices 1 2 3 4 5 6 
#
# 1 0.007758 -0.002741 -0.001689 0.000000 0.000031 0.000000
# 2 -0.002741 0.014609 -0.001608 0.000000 0.002011 0.000000
# 3 -0.001689 -0.001608 0.010263 0.000000 0.000497 0.000000
# 4 0.000000 0.000000 0.000000 0.031849 0.000000 -0.001764
# 5 0.000031 0.002011 0.000497 0.000000 0.022766 0.000000
# 6 0.000000 0.000000 0.000000 -0.001764 0.000000 0.024431
#
#
# Mechanical properties :
#
#
# Convention : Reuss Voigt Hill
#
# Bulk Modulus (GPa) = 48.65027 53.81039 51.23033
# Shear Modulus (GPa) = 38.28361 40.17561 39.22961
#
# Velocity S-wave (km/s) = 4.07002 4.16938 4.12000
# Velocity P-wave (km/s) = 6.56791 6.81629 6.69325
#
# Compressibility (1/GPa) = 0.02055487
#
# Stress axis : x y z
#
# Youngs Moduli (GPa) = 128.89138 68.45170 97.43345
#
# Poissons Ratio (x) = 0.18764 0.16452
# Poissons Ratio (y) = 0.35332 0.15669
# Poissons Ratio (z) = 0.21764 0.11008
#
# Static dielectric constant tensor:
#      x y z
#    x 5.190140 0.000000 -0.162310 
#    y 0.000000 4.275310 0.000000 
#    z -0.162310 0.000000 4.338330 
# 
# 
# High freq. dielectric constant tensor:
#      x y z
#    x 1.927600 0.000000 0.007160 
#    y 0.000000 1.919940 0.000000 
#    z 0.007160 0.000000 1.922370 
# 
# From -- ./inp_files/177727.got.cif
#   From: 2010.06.25/outbox.cif.g09.slc.cpg/sg15_89_cif.got.tgz:177727.got - 2010.06.28 07:06:18.
