data_PCOD8153671
_publ_section_title
;
Structure prediction by ZEFSAII (Michael W. Deem and Ramdas Pophale) SiO2 
 PCOD8153671
Probable space group: C 2/C
;
_chemical_formula_sum "Si O2"
_cell_formula_units_Z 48
_cell_length_a 21.533988
_cell_length_b 5.412610
_cell_length_c 21.094507
_cell_angle_alpha 90.000000
_cell_angle_beta 127.399227
_cell_angle_gamma 90.000000
_cell_volume 1953.225072
_symmetry_space_group_name_H-M "C 2/C"
_symmetry_group_IT_number 15
_symmetry_cell_setting 'monoclinic'
loop_
_space_group_symop_operation_xyz
x,y,z
-x,y,1/2-z
-x,-y,-z
x,-y,1/2+z
1/2+x,1/2+y,z
1/2-x,1/2+y,1/2-z
1/2-x,1/2-y,-z
1/2+x,1/2-y,1/2+z
loop_
_atom_site_type_symbol
_atom_site_label
_atom_site_fract_x
_atom_site_fract_y
_atom_site_fract_z
Si Si1 0.687580 0.950414 0.442069
Si Si2 0.915084 0.779089 0.052747
Si Si3 0.089311 0.919687 0.824109
Si Si4 0.134339 0.135980 0.112695
Si Si5 0.302266 0.777313 0.672832
Si Si6 0.590332 0.124680 0.153915
O O1 0.750000 0.750000 0.500000
O O2 0.614712 0.859355 0.353064
O O3 0.650653 0.063062 0.483079
O O4 0.725998 0.136081 0.414987
O O5 0.000987 0.672482 0.114864
O O6 0.895343 0.953139 0.099054
O O7 0.904717 0.918987 0.979883
O O8 0.000000 0.942701 0.750000
O O9 0.149095 0.023061 0.807688
O O10 0.223271 0.235339 0.164677
O O11 0.088661 0.371419 0.112728
O O12 0.127395 0.874616 0.145274
O O13 0.362062 0.940713 0.752379
#
# Coordination Sequence:
#
# PCOD8153671 Si02
#       6
#     8   8   8   8   8   8
#     4  11  26  44  77 106 145 192 243 319 373 437
#     4  11  26  46  72 107 147 187 253 303 376 435
#     4  11  24  43  76 105 142 189 242 318 372 436
#     4  12  28  47  74 105 152 196 247 296 365 440
#     4  11  26  46  72 106 148 188 252 298 374 434
#     4  12  28  47  74 109 145 204 241 301 360 447
#
# _framework density 24.574739999999998
#
# number of rings (size 3 to 8) (size 9 to 14) (size 15 to 20)
#    0.000    0.667    1.667    4.000   14.000    2.667 
#    0.000    0.000    0.000    0.000    0.000    0.000 
#    0.000    0.000    0.000    0.000    0.000    0.000 
#
# Total GULP energy -297390.025104 kJ/mol
# GULP energy per Si atom -12391.251046 kJ/mol
# Density = 2.451881 g / cm^3
# Si number density = 24.574740 Si / 1000 Ang^3
#
#
#
# Elastic Constant Matrix: (Units=GPa)
#
#
# Indices 1 2 3 4 5 6 
#
# 1 108.4619 18.7118 9.8033 -0.0006 7.7205 -0.0001
# 2 18.7118 78.6338 -4.9417 -0.0029 -1.5976 0.0010
# 3 9.8033 -4.9417 96.4386 -0.0005 -0.8197 -0.0001
# 4 -0.0006 -0.0029 -0.0005 39.2870 0.0002 7.8956
# 5 7.7205 -1.5976 -0.8197 0.0002 41.5028 -0.0001
# 6 -0.0001 0.0010 -0.0001 7.8956 -0.0001 18.9707
#
#
#
# Elastic Compliance Matrix: (Units=1/GPa)
#
#
# Indices 1 2 3 4 5 6 
#
# 1 0.009888 -0.002465 -0.001148 0.000000 -0.001957 0.000000
# 2 -0.002465 0.013383 0.000945 0.000001 0.000992 -0.000001
# 3 -0.001148 0.000945 0.010538 0.000000 0.000458 0.000000
# 4 0.000000 0.000001 0.000000 0.027777 0.000000 -0.011561
# 5 -0.001957 0.000992 0.000458 0.000000 0.024506 0.000000
# 6 0.000000 -0.000001 0.000000 -0.011561 0.000000 0.057525
#
#
# Mechanical properties :
#
#
# Convention : Reuss Voigt Hill
#
# Bulk Modulus (GPa) = 35.12065 36.74234 35.93149
# Shear Modulus (GPa) = 31.55666 37.28280 34.41973
#
# Velocity S-wave (km/s) = 3.58734 3.89925 3.74654
# Velocity P-wave (km/s) = 5.61079 5.93767 5.77654
#
# Compressibility (1/GPa) = 0.02847327
#
# Stress axis : x y z
#
# Youngs Moduli (GPa) = 101.13116 74.72014 94.89187
#
# Poissons Ratio (x) = 0.18418 0.10895
# Poissons Ratio (y) = 0.24928 -0.08965
# Poissons Ratio (z) = 0.11611 -0.07059
#
# Static dielectric constant tensor:
#      x y z
#    x 4.594600 0.000000 -0.054890 
#    y 0.000000 4.496260 0.000000 
#    z -0.054890 0.000000 4.527310 
# 
# 
# High freq. dielectric constant tensor:
#      x y z
#    x 1.992350 0.000000 0.007360 
#    y 0.000000 1.965410 0.000000 
#    z 0.007360 0.000000 1.997820 
# 
# From -- ./inp_files/254454.got.cif
#   From: 2010.06.25/outbox.cif.g09.slc.cpg/sg15_128_cif.got.tgz:254454.got - 2010.06.28 07:06:18.
