data_PCOD8153896
_publ_section_title
;
Structure prediction by ZEFSAII (Michael W. Deem and Ramdas Pophale) SiO2 
 PCOD8153896
Probable space group: C 2/C
;
_chemical_formula_sum "Si O2"
_cell_formula_units_Z 40
_cell_length_a 8.756059
_cell_length_b 14.033495
_cell_length_c 15.439577
_cell_angle_alpha 90.000000
_cell_angle_beta 117.386500
_cell_angle_gamma 90.000000
_cell_volume 1684.556627
_symmetry_space_group_name_H-M "C 2/C"
_symmetry_group_IT_number 15
_symmetry_cell_setting 'monoclinic'
loop_
_space_group_symop_operation_xyz
x,y,z
-x,y,1/2-z
-x,-y,-z
x,-y,1/2+z
1/2+x,1/2+y,z
1/2-x,1/2+y,1/2-z
1/2-x,1/2-y,-z
1/2+x,1/2-y,1/2+z
loop_
_atom_site_type_symbol
_atom_site_label
_atom_site_fract_x
_atom_site_fract_y
_atom_site_fract_z
Si Si1 0.670149 0.114467 0.597939
Si Si2 0.005127 0.915251 0.435106
Si Si3 0.877690 0.272823 0.955091
Si Si4 0.184355 0.496762 0.261429
Si Si5 0.812259 0.713541 0.239023
O O1 0.490149 0.131597 0.500880
O O2 0.660953 0.019361 0.653038
O O3 0.689555 0.209917 0.661656
O O4 0.820267 0.088406 0.571893
O O5 0.005128 0.816866 0.486734
O O6 0.835803 0.925066 0.330758
O O7 0.000000 0.000000 0.500000
O O8 0.791382 0.280946 0.837724
O O9 0.750000 0.250000 0.000000
O O10 0.235778 0.604906 0.299410
O O11 0.000000 0.466498 0.250000
O O12 0.000000 0.737744 0.250000
#
# Coordination Sequence:
#
# PCOD8153896 Si02
#       5
#     8   8   8   8   8
#     4  12  25  48  74 102 150 194 244 312 372 448
#     4  12  26  46  72 107 141 192 253 302 373 450
#     4  12  27  45  72 106 144 191 247 305 373 448
#     4  11  25  44  71 103 144 187 244 306 370 444
#     4  11  24  46  72 101 145 195 238 297 382 438
#
# _framework density 23.745123
#
# number of rings (size 3 to 8) (size 9 to 14) (size 15 to 20)
#    0.000    0.400    4.000    3.600    8.400    0.800 
#    3.600    0.000    0.000    0.000    0.000    0.000 
#    0.000    0.000    0.000    0.000    0.000    0.000 
#
# Total GULP energy -247933.635666 kJ/mol
# GULP energy per Si atom -12396.681783 kJ/mol
# Density = 2.369108 g / cm^3
# Si number density = 23.745123 Si / 1000 Ang^3
#
#
#
# Elastic Constant Matrix: (Units=GPa)
#
#
# Indices 1 2 3 4 5 6 
#
# 1 164.8760 2.0560 40.2631 0.0000 -31.2993 0.0000
# 2 2.0560 48.4797 2.0511 0.0000 -1.9630 0.0000
# 3 40.2631 2.0511 92.6151 0.0000 -19.0270 0.0000
# 4 0.0000 0.0000 0.0000 50.3683 0.0000 -0.6170
# 5 -31.2993 -1.9630 -19.0270 0.0000 46.2670 0.0000
# 6 0.0000 0.0000 0.0000 -0.6170 0.0000 37.7920
#
#
#
# Elastic Compliance Matrix: (Units=1/GPa)
#
#
# Indices 1 2 3 4 5 6 
#
# 1 0.007416 -0.000050 -0.002395 0.000000 0.004030 0.000000
# 2 -0.000050 0.020671 -0.000287 0.000000 0.000725 0.000000
# 3 -0.002395 -0.000287 0.012572 0.000000 0.003538 0.000000
# 4 0.000000 0.000000 0.000000 0.019858 0.000000 0.000324
# 5 0.004030 0.000725 0.003538 0.000000 0.025825 0.000000
# 6 0.000000 0.000000 0.000000 0.000324 0.000000 0.026466
#
#
# Mechanical properties :
#
#
# Convention : Reuss Voigt Hill
#
# Bulk Modulus (GPa) = 28.41378 43.85680 36.13529
# Shear Modulus (GPa) = 38.46085 44.32548 41.39317
#
# Velocity S-wave (km/s) = 4.02896 4.32524 4.17973
# Velocity P-wave (km/s) = 5.79961 6.59193 6.20842
#
# Compressibility (1/GPa) = 0.03519419
#
# Stress axis : x y z
#
# Youngs Moduli (GPa) = 134.85124 48.37734 79.54400
#
# Poissons Ratio (x) = 0.00242 0.19050
# Poissons Ratio (y) = 0.00674 0.02283
# Poissons Ratio (z) = 0.32295 0.01389
#
# Static dielectric constant tensor:
#      x y z
#    x 4.817830 0.000000 -0.166820 
#    y 0.000000 4.503590 0.000000 
#    z -0.166820 0.000000 4.486580 
# 
# 
# High freq. dielectric constant tensor:
#      x y z
#    x 1.935970 0.000000 -0.012060 
#    y 0.000000 1.957740 0.000000 
#    z -0.012060 0.000000 1.950180 
# 
# From -- ./inp_files/133054.got.cif
#   From: 2010.06.25/outbox.cif.g09.slc.cpg/sg15_67_cif.got.tgz:133054.got - 2010.06.28 07:06:18.
