data_PCOD8153147
_publ_section_title
;
Structure prediction by ZEFSAII (Michael W. Deem and Ramdas Pophale) SiO2 
 PCOD8153147
Probable space group: C 2/C
;
_chemical_formula_sum "Si O2"
_cell_formula_units_Z 48
_cell_length_a 32.812829
_cell_length_b 7.404741
_cell_length_c 8.771166
_cell_angle_alpha 90.000000
_cell_angle_beta 94.764228
_cell_angle_gamma 90.000000
_cell_volume 2123.771325
_symmetry_space_group_name_H-M "C 2/C"
_symmetry_group_IT_number 15
_symmetry_cell_setting 'monoclinic'
loop_
_space_group_symop_operation_xyz
x,y,z
-x,y,1/2-z
-x,-y,-z
x,-y,1/2+z
1/2+x,1/2+y,z
1/2-x,1/2+y,1/2-z
1/2-x,1/2-y,-z
1/2+x,1/2-y,1/2+z
loop_
_atom_site_type_symbol
_atom_site_label
_atom_site_fract_x
_atom_site_fract_y
_atom_site_fract_z
Si Si1 0.042627 0.262755 0.827347
Si Si2 0.041484 0.625330 0.672520
Si Si3 0.600815 0.579784 0.321950
Si Si4 0.738854 0.528724 0.482097
Si Si5 0.345272 0.613047 0.886666
Si Si6 0.280006 0.804869 0.726696
O O1 0.057034 0.422599 0.716978
O O2 0.075705 0.104440 0.844042
O O3 0.000000 0.180950 0.750000
O O4 0.034727 0.352287 0.989952
O O5 0.000000 0.665445 0.750000
O O6 0.074435 0.768554 0.735803
O O7 0.617989 0.659847 0.486350
O O8 0.639054 0.538623 0.225152
O O9 0.693680 0.533851 0.537252
O O10 0.738148 0.370272 0.358134
O O11 0.772787 0.479465 0.620986
O O12 0.755840 0.696548 0.384584
O O13 0.328602 0.785456 0.783463
#
# Coordination Sequence:
#
# PCOD8153147 Si02
#       6
#     8   8   8   8   8   8
#     4  11  25  45  74 108 139 185 239 275 332 421
#     4  11  25  45  73 104 141 188 231 281 332 414
#     4  12  26  45  70 100 149 184 226 287 360 398
#     4  11  23  43  70  96 130 179 231 284 341 415
#     4  12  24  45  66 100 137 177 226 292 345 411
#     4  11  23  43  68  96 129 174 232 284 342 414
#
# _framework density 22.601303000000001
#
# number of rings (size 3 to 8) (size 9 to 14) (size 15 to 20)
#    0.000    0.667    5.000    3.000    4.667    1.333 
#    3.000    0.000    0.000    0.000    0.000    0.000 
#    0.000    0.000    0.000    0.000    0.000    0.000 
#
# Total GULP energy -297521.745213 kJ/mol
# GULP energy per Si atom -12396.739384 kJ/mol
# Density = 2.254986 g / cm^3
# Si number density = 22.601303 Si / 1000 Ang^3
#
#
#
# Elastic Constant Matrix: (Units=GPa)
#
#
# Indices 1 2 3 4 5 6 
#
# 1 116.2009 57.5230 53.3597 0.0000 12.6223 0.0000
# 2 57.5230 77.6113 31.6383 0.0000 6.6345 0.0000
# 3 53.3597 31.6383 137.8646 0.0000 26.2612 0.0000
# 4 0.0000 0.0000 0.0000 39.3520 0.0000 13.8599
# 5 12.6223 6.6345 26.2612 0.0000 46.2469 0.0000
# 6 0.0000 0.0000 0.0000 13.8599 0.0000 22.4116
#
#
#
# Elastic Compliance Matrix: (Units=1/GPa)
#
#
# Indices 1 2 3 4 5 6 
#
# 1 0.015082 -0.009700 -0.003467 0.000000 -0.000756 0.000000
# 2 -0.009700 0.020455 -0.000992 0.000000 0.000277 0.000000
# 3 -0.003467 -0.000992 0.009661 0.000000 -0.004397 0.000000
# 4 0.000000 0.000000 0.000000 0.032488 0.000000 -0.020091
# 5 -0.000756 0.000277 -0.004397 0.000000 0.024287 0.000000
# 6 0.000000 0.000000 0.000000 -0.020091 0.000000 0.057045
#
#
# Mechanical properties :
#
#
# Convention : Reuss Voigt Hill
#
# Bulk Modulus (GPa) = 59.24899 68.52432 63.88666
# Shear Modulus (GPa) = 25.91166 34.21250 30.06208
#
# Velocity S-wave (km/s) = 3.38963 3.89490 3.65102
# Velocity P-wave (km/s) = 6.44912 7.11418 6.78980
#
# Compressibility (1/GPa) = 0.01687792
#
# Stress axis : x y z
#
# Youngs Moduli (GPa) = 66.30418 48.88744 103.51034
#
# Poissons Ratio (x) = 0.47422 0.35891
# Poissons Ratio (y) = 0.64316 0.10273
# Poissons Ratio (z) = 0.22990 0.04852
#
# Static dielectric constant tensor:
#      x y z
#    x 4.016280 0.000000 0.213330 
#    y 0.000000 4.196740 0.000000 
#    z 0.213330 0.000000 4.823750 
# 
# 
# High freq. dielectric constant tensor:
#      x y z
#    x 1.881300 0.000000 0.007920 
#    y 0.000000 1.887780 0.000000 
#    z 0.007920 0.000000 1.933440 
# 
# From -- ./inp_files/68602.got.cif
#   From: 2010.06.25/outbox.cif.g09.slc.cpg/sg15_35_cif.got.tgz:68602.got - 2010.06.28 07:06:18.
