data_PCOD8153693
_publ_section_title
;
Structure prediction by ZEFSAII (Michael W. Deem and Ramdas Pophale) SiO2 
 PCOD8153693
Probable space group: C 2/C
;
_chemical_formula_sum "Si O2"
_cell_formula_units_Z 40
_cell_length_a 17.061206
_cell_length_b 13.890678
_cell_length_c 13.549948
_cell_angle_alpha 90.000000
_cell_angle_beta 32.695789
_cell_angle_gamma 90.000000
_cell_volume 1734.634864
_symmetry_space_group_name_H-M "C 2/C"
_symmetry_group_IT_number 15
_symmetry_cell_setting 'monoclinic'
loop_
_space_group_symop_operation_xyz
x,y,z
-x,y,1/2-z
-x,-y,-z
x,-y,1/2+z
1/2+x,1/2+y,z
1/2-x,1/2+y,1/2-z
1/2-x,1/2-y,-z
1/2+x,1/2-y,1/2+z
loop_
_atom_site_type_symbol
_atom_site_label
_atom_site_fract_x
_atom_site_fract_y
_atom_site_fract_z
Si Si1 0.345162 0.397863 0.717563
Si Si2 0.604012 0.193350 0.218435
Si Si3 0.839870 0.063213 0.581793
Si Si4 0.338884 0.979037 0.413796
Si Si5 0.677542 0.788174 0.375531
O O1 0.353593 0.452814 0.603253
O O2 0.500324 0.395351 0.607417
O O3 0.301635 0.289910 0.733682
O O4 0.232195 0.452145 0.907006
O O5 0.500000 0.249245 0.250000
O O6 0.491794 0.182192 0.430240
O O7 0.745286 0.253223 0.103054
O O8 0.655073 0.093092 0.114491
O O9 0.748505 0.074307 0.579419
O O10 0.762469 0.117870 0.752953
O O11 0.500000 0.936061 0.250000
#
# Coordination Sequence:
#
# PCOD8153693 Si02
#       5
#     8   8   8   8   8
#     4  11  25  45  68 104 142 189 235 289 358 420
#     4  11  24  44  68 107 141 184 236 295 349 416
#     4  11  24  45  71  99 144 190 234 290 354 427
#     4  11  25  43  71 103 140 186 235 293 349 418
#     4  12  24  45  72 104 143 187 236 295 353 416
#
# _framework density 23.059608999999998
#
# number of rings (size 3 to 8) (size 9 to 14) (size 15 to 20)
#    0.000    0.800    4.000    3.600    2.800    2.400 
#    0.000    0.000    0.000    0.000    0.000    0.000 
#    0.000    0.000    0.000    0.000    0.000    0.000 
#
# Total GULP energy -247980.734689 kJ/mol
# GULP energy per Si atom -12399.036734 kJ/mol
# Density = 2.300712 g / cm^3
# Si number density = 23.059609 Si / 1000 Ang^3
#
#
#
# Elastic Constant Matrix: (Units=GPa)
#
#
# Indices 1 2 3 4 5 6 
#
# 1 129.4513 9.9772 6.0475 0.0000 -16.4101 0.0000
# 2 9.9772 65.3249 13.0832 0.0000 3.2368 0.0000
# 3 6.0475 13.0832 100.6343 0.0000 -13.0027 0.0000
# 4 0.0000 0.0000 0.0000 40.4624 0.0000 10.9064
# 5 -16.4101 3.2368 -13.0027 0.0000 40.5020 0.0000
# 6 0.0000 0.0000 0.0000 10.9064 0.0000 32.4349
#
#
#
# Elastic Compliance Matrix: (Units=1/GPa)
#
#
# Indices 1 2 3 4 5 6 
#
# 1 0.008277 -0.001468 0.000148 0.000000 0.003519 0.000000
# 2 -0.001468 0.016134 -0.002350 0.000000 -0.002639 0.000000
# 3 0.000148 -0.002350 0.010710 0.000000 0.003686 0.000000
# 4 0.000000 0.000000 0.000000 0.027178 0.000000 -0.009139
# 5 0.003519 -0.002639 0.003686 0.000000 0.027510 0.000000
# 6 0.000000 0.000000 0.000000 -0.009139 0.000000 0.033904
#
#
# Mechanical properties :
#
#
# Convention : Reuss Voigt Hill
#
# Bulk Modulus (GPa) = 35.99688 39.29183 37.64435
# Shear Modulus (GPa) = 35.63462 40.43337 38.03400
#
# Velocity S-wave (km/s) = 3.93533 4.19194 4.06566
# Velocity P-wave (km/s) = 6.02439 6.36444 6.19675
#
# Compressibility (1/GPa) = 0.02778019
#
# Stress axis : x y z
#
# Youngs Moduli (GPa) = 120.81404 61.98172 93.37162
#
# Poissons Ratio (x) = 0.09100 -0.01383
# Poissons Ratio (y) = 0.17738 0.21944
# Poissons Ratio (z) = -0.01789 0.14567
#
# Static dielectric constant tensor:
#      x y z
#    x 4.237970 0.000000 -0.268750 
#    y 0.000000 3.794450 0.000000 
#    z -0.268750 0.000000 4.292100 
# 
# 
# High freq. dielectric constant tensor:
#      x y z
#    x 1.917160 0.000000 -0.011220 
#    y 0.000000 1.890580 0.000000 
#    z -0.011220 0.000000 1.928270 
# 
# From -- ./inp_files/37810.got.cif
#   From: 2010.06.25/outbox.cif.g09.slc.cpg/sg15_19_cif.got.tgz:37810.got - 2010.06.28 07:06:18.
