data_PCOD8153166
_publ_section_title
;
Structure prediction by ZEFSAII (Michael W. Deem and Ramdas Pophale) SiO2 
 PCOD8153166
Probable space group: C 2/C
;
_chemical_formula_sum "Si O2"
_cell_formula_units_Z 48
_cell_length_a 17.331494
_cell_length_b 11.140442
_cell_length_c 11.187668
_cell_angle_alpha 90.000000
_cell_angle_beta 93.854723
_cell_angle_gamma 90.000000
_cell_volume 2155.233765
_symmetry_space_group_name_H-M "C 2/C"
_symmetry_group_IT_number 15
_symmetry_cell_setting 'monoclinic'
loop_
_space_group_symop_operation_xyz
x,y,z
-x,y,1/2-z
-x,-y,-z
x,-y,1/2+z
1/2+x,1/2+y,z
1/2-x,1/2+y,1/2-z
1/2-x,1/2-y,-z
1/2+x,1/2-y,1/2+z
loop_
_atom_site_type_symbol
_atom_site_label
_atom_site_fract_x
_atom_site_fract_y
_atom_site_fract_z
Si Si1 0.079828 0.047361 0.060731
Si Si2 0.416708 0.933277 0.500673
Si Si3 0.328601 0.281818 0.081385
Si Si4 0.918823 0.282468 0.284086
Si Si5 0.829296 0.174660 0.854731
Si Si6 0.168478 0.657976 0.947721
O O1 0.066959 0.156496 0.149880
O O2 0.114614 0.938585 0.141269
O O3 0.138386 0.090742 0.962447
O O4 0.000000 0.000000 0.000000
O O5 0.401459 0.812293 0.578558
O O6 0.387698 0.888212 0.367505
O O7 0.500000 0.000000 0.500000
O O8 0.358610 0.022127 0.558473
O O9 0.304818 0.292348 0.217874
O O10 0.250000 0.250000 0.000000
O O11 0.863029 0.263647 0.166268
O O12 0.000000 0.333991 0.250000
O O13 0.759626 0.147697 0.939438
O O14 0.864743 0.289080 0.929606
#
# Coordination Sequence:
#
# PCOD8153166 Si02
#       6
#     8   8   8   8   8   8
#     4  11  26  45  71 106 142 186 238 297 362 427
#     4  11  24  44  70 103 138 181 236 292 354 414
#     4  11  26  51  73 102 144 190 238 295 360 429
#     4  11  23  43  69  97 145 180 229 293 358 418
#     4  11  26  44  73 101 140 185 241 287 354 437
#     4  11  25  44  68 106 138 183 237 291 354 428
#
# _framework density 22.271366
#
# number of rings (size 3 to 8) (size 9 to 14) (size 15 to 20)
#    0.000    1.000    1.667    4.000    9.333    0.000 
#    3.000    0.000    0.000    0.000    0.000    0.000 
#    0.000    0.000    0.000    0.000    0.000    0.000 
#
# Total GULP energy -297329.956575 kJ/mol
# GULP energy per Si atom -12388.748191 kJ/mol
# Density = 2.222068 g / cm^3
# Si number density = 22.271366 Si / 1000 Ang^3
#
#
#
# Elastic Constant Matrix: (Units=GPa)
#
#
# Indices 1 2 3 4 5 6 
#
# 1 90.0170 35.3614 32.3635 0.0000 4.8133 0.0000
# 2 35.3614 105.3361 49.8497 0.0000 8.8033 0.0000
# 3 32.3635 49.8497 166.7816 0.0000 5.8378 0.0000
# 4 0.0000 0.0000 0.0000 28.8428 0.0000 -3.4855
# 5 4.8133 8.8033 5.8378 0.0000 40.2845 0.0000
# 6 0.0000 0.0000 0.0000 -3.4855 0.0000 38.2623
#
#
#
# Elastic Compliance Matrix: (Units=1/GPa)
#
#
# Indices 1 2 3 4 5 6 
#
# 1 0.013094 -0.003676 -0.001423 0.000000 -0.000555 0.000000
# 2 -0.003676 0.012244 -0.002883 0.000000 -0.001819 0.000000
# 3 -0.001423 -0.002883 0.007142 0.000000 -0.000235 0.000000
# 4 0.000000 0.000000 0.000000 0.035057 0.000000 0.003194
# 5 -0.000555 -0.001819 -0.000235 0.000000 0.025321 0.000000
# 6 0.000000 0.000000 0.000000 0.003194 0.000000 0.026426
#
#
# Mechanical properties :
#
#
# Convention : Reuss Voigt Hill
#
# Bulk Modulus (GPa) = 60.54385 66.36486 63.45435
# Shear Modulus (GPa) = 35.52343 37.78191 36.65267
#
# Velocity S-wave (km/s) = 3.99811 4.12325 4.06116
# Velocity P-wave (km/s) = 6.96827 7.24784 7.10943
#
# Compressibility (1/GPa) = 0.01651695
#
# Stress axis : x y z
#
# Youngs Moduli (GPa) = 76.36929 81.67526 140.02202
#
# Poissons Ratio (x) = 0.30024 0.19921
# Poissons Ratio (y) = 0.28074 0.40362
# Poissons Ratio (z) = 0.10865 0.23543
#
# Static dielectric constant tensor:
#      x y z
#    x 4.132280 0.000000 -0.038120 
#    y 0.000000 4.362060 0.000000 
#    z -0.038120 0.000000 4.184990 
# 
# 
# High freq. dielectric constant tensor:
#      x y z
#    x 1.878470 0.000000 -0.012480 
#    y 0.000000 1.885320 0.000000 
#    z -0.012480 0.000000 1.879170 
# 
# From -- ./inp_files/103825.got.cif
#   From: 2010.06.25/outbox.cif.g09.slc.cpg/sg15_52_cif.got.tgz:103825.got - 2010.06.28 07:06:18.
