data_PCOD8153995
_publ_section_title
;
Structure prediction by ZEFSAII (Michael W. Deem and Ramdas Pophale) SiO2 
 PCOD8153995
Probable space group: C 2/C
;
_chemical_formula_sum "Si O2"
_cell_formula_units_Z 56
_cell_length_a 9.032463
_cell_length_b 13.902422
_cell_length_c 23.112873
_cell_angle_alpha 90.000000
_cell_angle_beta 61.818446
_cell_angle_gamma 90.000000
_cell_volume 2558.297247
_symmetry_space_group_name_H-M "C 2/C"
_symmetry_group_IT_number 15
_symmetry_cell_setting 'monoclinic'
loop_
_space_group_symop_operation_xyz
x,y,z
-x,y,1/2-z
-x,-y,-z
x,-y,1/2+z
1/2+x,1/2+y,z
1/2-x,1/2+y,1/2-z
1/2-x,1/2-y,-z
1/2+x,1/2-y,1/2+z
loop_
_atom_site_type_symbol
_atom_site_label
_atom_site_fract_x
_atom_site_fract_y
_atom_site_fract_z
Si Si1 0.218070 0.963344 0.294571
Si Si2 0.735787 0.109269 0.592046
Si Si3 0.370148 0.618317 0.871552
Si Si4 0.624735 0.828034 0.318022
Si Si5 0.146461 0.457161 0.510763
Si Si6 0.451023 0.776042 0.599468
Si Si7 0.685966 0.349998 0.737801
O O1 0.242160 0.965028 0.359048
O O2 0.344138 0.882606 0.247941
O O3 0.023008 0.942275 0.316653
O O4 0.272534 0.058497 0.251108
O O5 0.567347 0.171100 0.627771
O O6 0.883786 0.192340 0.566216
O O7 0.724196 0.038282 0.539168
O O8 0.227613 0.621728 0.849898
O O9 0.431335 0.725429 0.874968
O O10 0.303459 0.568554 0.941942
O O11 0.683971 0.721176 0.292969
O O12 0.000000 0.500000 0.500000
O O13 0.066441 0.359718 0.551802
O O14 0.292346 0.819386 0.662319
O O15 0.500000 0.370111 0.750000
#
# Coordination Sequence:
#
# PCOD8153995 Si02
#       7
#     8   8   8   8   8   8   8
#     4  11  25  41  71 103 139 176 232 289 350 428
#     4  11  24  48  70  99 139 181 234 291 351 421
#     4  11  25  46  67  99 141 183 229 291 341 419
#     4  12  21  44  69 101 141 173 220 290 359 411
#     4  12  27  47  71  98 137 189 240 288 345 411
#     4  11  26  46  69 104 139 183 236 287 350 425
#     4  12  23  40  71 104 138 176 224 284 359 424
#
# _framework density 21.889559999999999
#
# number of rings (size 3 to 8) (size 9 to 14) (size 15 to 20)
#    0.000    0.571    5.714    3.000    4.000    2.857 
#    2.571    0.000    0.000    0.000    0.000    0.000 
#    0.000    0.000    0.000    0.000    0.000    0.000 
#
# Total GULP energy -347047.980463 kJ/mol
# GULP energy per Si atom -12394.570731 kJ/mol
# Density = 2.183974 g / cm^3
# Si number density = 21.889560 Si / 1000 Ang^3
#
#
#
# Elastic Constant Matrix: (Units=GPa)
#
#
# Indices 1 2 3 4 5 6 
#
# 1 48.7981 13.1745 -8.9162 0.0000 16.7026 0.0000
# 2 13.1745 104.8752 23.1037 0.0000 12.9800 0.0000
# 3 -8.9162 23.1037 56.5132 0.0000 7.2671 0.0000
# 4 0.0000 0.0000 0.0000 32.0526 0.0000 4.4252
# 5 16.7026 12.9800 7.2671 0.0000 37.4935 0.0000
# 6 0.0000 0.0000 0.0000 4.4252 0.0000 27.7213
#
#
#
# Elastic Compliance Matrix: (Units=1/GPa)
#
#
# Indices 1 2 3 4 5 6 
#
# 1 0.026925 -0.003466 0.007233 0.000000 -0.012196 0.000000
# 2 -0.003466 0.011235 -0.004962 0.000000 -0.001384 0.000000
# 3 0.007233 -0.004962 0.021597 0.000000 -0.005690 0.000000
# 4 0.000000 0.000000 0.000000 0.031902 0.000000 -0.005092
# 5 -0.012196 -0.001384 -0.005690 0.000000 0.033686 0.000000
# 6 0.000000 0.000000 0.000000 -0.005092 0.000000 0.036886
#
#
# Mechanical properties :
#
#
# Convention : Reuss Voigt Hill
#
# Bulk Modulus (GPa) = 17.43187 29.43451 23.43319
# Shear Modulus (GPa) = 27.21200 31.64179 29.42690
#
# Velocity S-wave (km/s) = 3.52966 3.80612 3.67049
# Velocity P-wave (km/s) = 4.95905 5.72638 5.35647
#
# Compressibility (1/GPa) = 0.05736620
#
# Stress axis : x y z
#
# Youngs Moduli (GPa) = 37.14069 89.00803 46.30374
#
# Poissons Ratio (x) = 0.30853 -0.33493
# Poissons Ratio (y) = 0.12874 0.22976
# Poissons Ratio (z) = -0.26865 0.44166
#
# Static dielectric constant tensor:
#      x y z
#    x 3.995750 0.000000 -0.040920 
#    y 0.000000 4.163860 0.000000 
#    z -0.040920 0.000000 3.924580 
# 
# 
# High freq. dielectric constant tensor:
#      x y z
#    x 1.872320 0.000000 -0.003510 
#    y 0.000000 1.867200 0.000000 
#    z -0.003510 0.000000 1.856790 
# 
# From -- ./inp_files/264246.got.cif
#   From: 2010.06.25/outbox.cif.g09.slc.cpg/sg15_133_cif.got.tgz:264246.got - 2010.06.28 07:06:18.
