data_PCOD8153536
_publ_section_title
;
Structure prediction by ZEFSAII (Michael W. Deem and Ramdas Pophale) SiO2 
 PCOD8153536
Probable space group: C 2/C
;
_chemical_formula_sum "Si O2"
_cell_formula_units_Z 40
_cell_length_a 4.926887
_cell_length_b 10.888668
_cell_length_c 31.607267
_cell_angle_alpha 90.000000
_cell_angle_beta 94.176221
_cell_angle_gamma 90.000000
_cell_volume 1691.140245
_symmetry_space_group_name_H-M "C 2/C"
_symmetry_group_IT_number 15
_symmetry_cell_setting 'monoclinic'
loop_
_space_group_symop_operation_xyz
x,y,z
-x,y,1/2-z
-x,-y,-z
x,-y,1/2+z
1/2+x,1/2+y,z
1/2-x,1/2+y,1/2-z
1/2-x,1/2-y,-z
1/2+x,1/2-y,1/2+z
loop_
_atom_site_type_symbol
_atom_site_label
_atom_site_fract_x
_atom_site_fract_y
_atom_site_fract_z
Si Si1 0.789618 0.719169 0.154549
Si Si2 0.255201 0.912259 0.278857
Si Si3 0.339676 0.884350 0.421549
Si Si4 0.624951 0.627286 0.522876
Si Si5 0.786194 0.076428 0.144341
O O1 0.823448 0.783556 0.200183
O O2 0.619193 0.794188 0.117481
O O3 0.601092 0.600201 0.158826
O O4 0.090641 0.694761 0.139767
O O5 0.500000 0.891093 0.250000
O O6 0.340803 0.001763 0.317794
O O7 0.000000 0.963929 0.250000
O O8 0.127419 0.823875 0.452203
O O9 0.626162 0.918847 0.445781
O O10 0.219519 0.010374 0.401138
O O11 0.500000 0.500000 0.500000
O O12 0.750000 0.750000 0.500000
#
# Coordination Sequence:
#
# PCOD8153536 Si02
#       5
#     8   8   8   8   8
#     4  11  24  42  69  96 130 184 228 278 351 413
#     4  11  24  41  62  98 138 170 228 286 340 416
#     4  11  26  46  70  99 140 178 232 292 341 438
#     4  12  28  47  74 107 144 186 235 296 368 424
#     4  11  24  42  69  96 130 184 228 278 351 413
#
# _framework density 23.65268
#
# number of rings (size 3 to 8) (size 9 to 14) (size 15 to 20)
#    0.000    0.800    0.000    6.000    8.400   11.200 
#    0.000    0.000    0.000    0.000    0.000    0.000 
#    0.000    0.000    0.000    0.000    0.000    0.000 
#
# Total GULP energy -247771.770497 kJ/mol
# GULP energy per Si atom -12388.588525 kJ/mol
# Density = 2.359885 g / cm^3
# Si number density = 23.652680 Si / 1000 Ang^3
#
#
#
# Elastic Constant Matrix: (Units=GPa)
#
#
# Indices 1 2 3 4 5 6 
#
# 1 135.0997 15.0095 36.9879 0.0000 0.4628 0.0000
# 2 15.0095 75.7973 26.1051 0.0000 1.3067 0.0000
# 3 36.9879 26.1051 112.8300 0.0000 2.5416 0.0000
# 4 0.0000 0.0000 0.0000 1.9618 0.0000 11.0275
# 5 0.4628 1.3067 2.5416 0.0000 49.6002 0.0000
# 6 0.0000 0.0000 0.0000 11.0275 0.0000 36.6928
#
#
#
# Elastic Compliance Matrix: (Units=1/GPa)
#
#
# Indices 1 2 3 4 5 6 
#
# 1 0.008172 -0.000757 -0.002505 0.000000 0.000072 0.000000
# 2 -0.000757 0.014408 -0.003081 0.000000 -0.000215 0.000000
# 3 -0.002505 -0.003081 0.010407 0.000000 -0.000429 0.000000
# 4 0.000000 0.000000 0.000000 -0.739460 0.000000 0.222235
# 5 0.000072 -0.000215 -0.000429 0.000000 0.020188 0.000000
# 6 0.000000 0.000000 0.000000 0.222235 0.000000 -0.039536
#
#
# Mechanical properties :
#
#
# Convention : Reuss Voigt Hill
#
# Bulk Modulus (GPa) = 49.25919 53.32579 51.29249
# Shear Modulus (GPa) = -7.07844 34.02592 13.47374
#
# Velocity S-wave (km/s) = -1.73181 3.79696 2.38932
# Velocity P-wave (km/s) = 4.10760 6.46659 5.41706
#
# Compressibility (1/GPa) = 0.02030078
#
# Stress axis : x y z
#
# Youngs Moduli (GPa) = 122.37378 69.40790 96.09258
#
# Poissons Ratio (x) = 0.05251 0.24075
# Poissons Ratio (y) = 0.09258 0.29602
# Poissons Ratio (z) = 0.30660 0.21382
#
# Static dielectric constant tensor:
#      x y z
#    x 23.795530 0.000000 4.637960 
#    y 0.000000 4.369180 0.000000 
#    z 4.637960 0.000000 5.451450 
# 
# 
# High freq. dielectric constant tensor:
#      x y z
#    x 1.951870 0.000000 0.001550 
#    y 0.000000 1.929710 0.000000 
#    z 0.001550 0.000000 1.949050 
# 
# From -- ./inp_files/290592.got.cif
#   From: 2010.06.25/outbox.cif.g09.slc.cpg/sg15_146_cif.got.tgz:290592.got - 2010.06.28 07:06:18.
