data_PCOD8153287
_publ_section_title
;
Structure prediction by ZEFSAII (Michael W. Deem and Ramdas Pophale) SiO2 
 PCOD8153287
Probable space group: C 2/C
;
_chemical_formula_sum "Si O2"
_cell_formula_units_Z 48
_cell_length_a 11.363898
_cell_length_b 10.830793
_cell_length_c 18.649364
_cell_angle_alpha 90.000000
_cell_angle_beta 68.947131
_cell_angle_gamma 90.000000
_cell_volume 2142.147168
_symmetry_space_group_name_H-M "C 2/C"
_symmetry_group_IT_number 15
_symmetry_cell_setting 'monoclinic'
loop_
_space_group_symop_operation_xyz
x,y,z
-x,y,1/2-z
-x,-y,-z
x,-y,1/2+z
1/2+x,1/2+y,z
1/2-x,1/2+y,1/2-z
1/2-x,1/2-y,-z
1/2+x,1/2-y,1/2+z
loop_
_atom_site_type_symbol
_atom_site_label
_atom_site_fract_x
_atom_site_fract_y
_atom_site_fract_z
Si Si1 0.765141 0.311268 0.816724
Si Si2 0.999931 0.906875 0.834404
Si Si3 0.218416 0.067992 0.610570
Si Si4 0.813446 0.701569 0.915369
Si Si5 0.644939 0.162907 0.357508
Si Si6 0.628817 0.923075 0.565274
O O1 0.641019 0.394823 0.834473
O O2 0.749463 0.164296 0.832848
O O3 0.856912 0.331390 0.728422
O O4 0.830633 0.345475 0.875920
O O5 0.936380 0.781295 0.874238
O O6 0.000000 0.907128 0.750000
O O7 0.930239 0.035852 0.874649
O O8 0.286390 0.107383 0.522239
O O9 0.259229 0.937637 0.633270
O O10 0.706398 0.710070 0.875638
O O11 0.866063 0.564942 0.914106
O O12 0.750000 0.750000 0.000000
O O13 0.511362 0.125771 0.420927
#
# Coordination Sequence:
#
# PCOD8153287 Si02
#       6
#     8   8   8   8   8   8
#     4  12  27  44  69 105 141 191 233 286 367 426
#     4  11  23  46  70 100 144 184 233 294 355 421
#     4  11  25  46  69 102 145 183 233 298 351 420
#     4  11  23  44  73 102 133 186 236 287 353 420
#     4  11  25  46  70 104 142 184 238 298 350 424
#     4  12  26  44  71 107 140 184 239 289 360 424
#
# _framework density 22.407425
#
# number of rings (size 3 to 8) (size 9 to 14) (size 15 to 20)
#    0.000    0.667    6.667    2.500    4.667    4.667 
#    0.000    0.000    0.000    0.000    0.000    0.000 
#    0.000    0.000    0.000    0.000    0.000    0.000 
#
# Total GULP energy -297459.965128 kJ/mol
# GULP energy per Si atom -12394.165214 kJ/mol
# Density = 2.235642 g / cm^3
# Si number density = 22.407425 Si / 1000 Ang^3
#
#
#
# Elastic Constant Matrix: (Units=GPa)
#
#
# Indices 1 2 3 4 5 6 
#
# 1 63.1406 11.8514 8.5668 0.0000 -10.1820 0.0000
# 2 11.8514 31.1405 20.5160 0.0000 -2.3256 0.0000
# 3 8.5668 20.5160 128.9972 0.0000 -10.8467 0.0000
# 4 0.0000 0.0000 0.0000 -11.1367 0.0000 -78.6993
# 5 -10.1820 -2.3256 -10.8467 0.0000 40.4983 0.0000
# 6 0.0000 0.0000 0.0000 -78.6993 0.0000 -131.0608
#
#
#
# Elastic Compliance Matrix: (Units=1/GPa)
#
#
# Indices 1 2 3 4 5 6 
#
# 1 0.017709 -0.006574 0.000217 0.000000 0.004133 0.000000
# 2 -0.006574 0.038323 -0.005742 0.000000 -0.000990 0.000000
# 3 0.000217 -0.005742 0.008827 0.000000 0.002089 0.000000
# 4 0.000000 0.000000 0.000000 0.027685 0.000000 -0.016624
# 5 0.004133 -0.000990 0.002089 0.000000 0.026234 0.000000
# 6 0.000000 0.000000 0.000000 -0.016624 0.000000 0.002353
#
#
# Mechanical properties :
#
#
# Convention : Reuss Voigt Hill
#
# Bulk Modulus (GPa) = 24.59342 33.90520 29.24931
# Shear Modulus (GPa) = 31.47018 -8.18357 11.64330
#
# Velocity S-wave (km/s) = 3.75167 -1.91314 2.28199
# Velocity P-wave (km/s) = 5.45583 3.20686 4.47493
#
# Compressibility (1/GPa) = 0.04066128
#
# Stress axis : x y z
#
# Youngs Moduli (GPa) = 56.46980 26.09391 113.29511
#
# Poissons Ratio (x) = 0.17154 -0.02458
# Poissons Ratio (y) = 0.37122 0.65050
# Poissons Ratio (z) = -0.01225 0.14982
#
# Static dielectric constant tensor:
#      x y z
#    x 3.072760 0.000000 -0.222870 
#    y 0.000000 2.036010 0.000000 
#    z -0.222870 0.000000 4.141470 
# 
# 
# High freq. dielectric constant tensor:
#      x y z
#    x 1.885580 0.000000 -0.005690 
#    y 0.000000 1.883790 0.000000 
#    z -0.005690 0.000000 1.896790 
# 
# From -- ./inp_files/196521.got.cif
#   From: 2010.06.25/outbox.cif.g09.slc.cpg/sg15_99_cif.got.tgz:196521.got - 2010.06.28 07:06:18.
