data_PCOD8153240
_publ_section_title
;
Structure prediction by ZEFSAII (Michael W. Deem and Ramdas Pophale) SiO2 
 PCOD8153240
Probable space group: C 2/C
;
_chemical_formula_sum "Si O2"
_cell_formula_units_Z 40
_cell_length_a 14.027240
_cell_length_b 17.951823
_cell_length_c 13.915996
_cell_angle_alpha 90.000000
_cell_angle_beta 30.746271
_cell_angle_gamma 90.000000
_cell_volume 1791.502783
_symmetry_space_group_name_H-M "C 2/C"
_symmetry_group_IT_number 15
_symmetry_cell_setting 'monoclinic'
loop_
_space_group_symop_operation_xyz
x,y,z
-x,y,1/2-z
-x,-y,-z
x,-y,1/2+z
1/2+x,1/2+y,z
1/2-x,1/2+y,1/2-z
1/2-x,1/2-y,-z
1/2+x,1/2-y,1/2+z
loop_
_atom_site_type_symbol
_atom_site_label
_atom_site_fract_x
_atom_site_fract_y
_atom_site_fract_z
Si Si1 0.214883 0.653958 0.735660
Si Si2 0.817761 0.313246 0.650238
Si Si3 0.983151 0.091024 0.654044
Si Si4 0.505730 0.418000 0.633629
Si Si5 0.817130 0.688047 0.364048
O O1 0.262693 0.734989 0.649444
O O2 0.311571 0.633482 0.753554
O O3 0.289331 0.597192 0.589104
O O4 0.993135 0.648280 0.945249
O O5 0.645039 0.370094 0.794404
O O6 0.869060 0.281550 0.712907
O O7 0.178573 0.123240 0.448952
O O8 0.000000 0.112898 0.750000
O O9 0.959266 0.003906 0.656177
O O10 0.500000 0.396677 0.750000
O O11 0.750000 0.750000 0.500000
O O12 0.000000 0.649550 0.250000
#
# Coordination Sequence:
#
# PCOD8153240 Si02
#       5
#     8   8   8   8   8
#     4  12  23  44  72  98 135 179 231 287 340 402
#     4  12  24  43  71 103 132 181 233 277 343 410
#     4  11  23  44  68 101 144 176 222 285 347 416
#     4  11  27  48  67  97 140 183 231 285 339 402
#     4  12  23  39  70 106 142 176 220 279 349 413
#
# _framework density 22.327622000000002
#
# number of rings (size 3 to 8) (size 9 to 14) (size 15 to 20)
#    0.000    0.400    4.000    6.000    0.000    2.400 
#    7.200    0.000    0.000    0.000    0.000    0.000 
#    0.000    0.000    0.000    0.000    0.000    0.000 
#
# Total GULP energy -247793.295871 kJ/mol
# GULP energy per Si atom -12389.664794 kJ/mol
# Density = 2.227680 g / cm^3
# Si number density = 22.327622 Si / 1000 Ang^3
#
#
#
# Elastic Constant Matrix: (Units=GPa)
#
#
# Indices 1 2 3 4 5 6 
#
# 1 80.4318 25.8958 23.0865 -0.0667 13.9477 0.0229
# 2 25.8958 99.4916 19.1998 -0.0296 -8.2951 -0.0052
# 3 23.0865 19.1998 119.2066 -0.0296 6.3297 0.0285
# 4 -0.0667 -0.0296 -0.0296 23.1068 0.0414 2.8254
# 5 13.9477 -8.2951 6.3297 0.0414 43.1203 -0.0072
# 6 0.0229 -0.0052 0.0285 2.8254 -0.0072 32.8193
#
#
#
# Elastic Compliance Matrix: (Units=1/GPa)
#
#
# Indices 1 2 3 4 5 6 
#
# 1 0.015248 -0.004031 -0.002016 0.000048 -0.005412 -0.000015
# 2 -0.004031 0.011662 -0.001296 -0.000006 0.003737 0.000007
# 3 -0.002016 -0.001296 0.009037 0.000007 -0.000924 -0.000007
# 4 0.000048 -0.000006 0.000007 0.043738 -0.000060 -0.003765
# 5 -0.005412 0.003737 -0.000924 -0.000060 0.025796 0.000016
# 6 -0.000015 0.000007 -0.000007 -0.003765 0.000016 0.030794
#
#
# Mechanical properties :
#
#
# Convention : Reuss Voigt Hill
#
# Bulk Modulus (GPa) = 47.03616 48.38826 47.71221
# Shear Modulus (GPa) = 31.63584 35.20579 33.42082
#
# Velocity S-wave (km/s) = 3.76825 3.97518 3.87310
# Velocity P-wave (km/s) = 6.32811 6.54128 6.43558
#
# Compressibility (1/GPa) = 0.02126024
#
# Stress axis : x y z
#
# Youngs Moduli (GPa) = 65.58287 85.74878 110.65459
#
# Poissons Ratio (x) = 0.34563 0.22313
# Poissons Ratio (y) = 0.26435 0.14342
# Poissons Ratio (z) = 0.13224 0.11114
#
# Static dielectric constant tensor:
#      x y z
#    x 4.422910 0.000880 0.581250 
#    y 0.000880 3.883320 0.000960 
#    z 0.581250 0.000960 4.660100 
# 
# 
# High freq. dielectric constant tensor:
#      x y z
#    x 1.879110 -0.000010 0.010870 
#    y -0.000010 1.876160 0.000010 
#    z 0.010870 0.000010 1.887550 
# 
# From -- ./inp_files/155364.got.cif
#   From: 2010.06.25/outbox.cif.g09.slc.cpg/sg15_78_cif.got.tgz:155364.got - 2010.06.28 07:06:18.
