data_PCOD8153197
_publ_section_title
;
Structure prediction by ZEFSAII (Michael W. Deem and Ramdas Pophale) SiO2 
 PCOD8153197
Probable space group: C 2/C
;
_chemical_formula_sum "Si O2"
_cell_formula_units_Z 36
_cell_length_a 13.805918
_cell_length_b 9.665400
_cell_length_c 25.363686
_cell_angle_alpha 90.000000
_cell_angle_beta 28.086352
_cell_angle_gamma 90.000000
_cell_volume 1593.439400
_symmetry_space_group_name_H-M "C 2/C"
_symmetry_group_IT_number 15
_symmetry_cell_setting 'monoclinic'
loop_
_space_group_symop_operation_xyz
x,y,z
-x,y,1/2-z
-x,-y,-z
x,-y,1/2+z
1/2+x,1/2+y,z
1/2-x,1/2+y,1/2-z
1/2-x,1/2-y,-z
1/2+x,1/2-y,1/2+z
loop_
_atom_site_type_symbol
_atom_site_label
_atom_site_fract_x
_atom_site_fract_y
_atom_site_fract_z
Si Si1 0.431127 0.606543 0.696551
Si Si2 0.693148 0.373675 0.827074
Si Si3 0.737978 0.275304 0.443987
Si Si4 0.237941 0.489929 0.397112
Si Si5 0.500000 0.972079 0.250000
O O1 0.383382 0.496353 0.674001
O O2 0.328421 0.755377 0.731282
O O3 0.677569 0.609118 0.594434
O O4 0.333591 0.553066 0.796724
O O5 0.826571 0.431637 0.809916
O O6 0.500585 0.310765 0.951595
O O7 0.750000 0.250000 0.500000
O O8 0.811815 0.142319 0.376924
O O9 0.897878 0.390273 0.347643
O O10 0.000000 0.500000 0.500000
#
# Coordination Sequence:
#
# PCOD8153197 Si02
#       5
#     8   8   8   8   4
#     4  11  25  45  72 106 144 192 237 299 359 426
#     4  12  26  47  72 106 147 189 245 297 359 433
#     4  12  25  48  73 107 145 191 240 297 367 426
#     4  11  23  43  73 101 142 191 238 291 359 427
#     4  12  28  46  72 106 146 192 240 304 358 432
#
# _framework density 22.592637
#
# number of rings (size 3 to 8) (size 9 to 14) (size 15 to 20)
#    0.000    0.444    4.444    4.667    3.111    0.000 
#    0.000    2.222    0.000    0.000    0.000    0.000 
#    0.000    0.000    0.000    0.000    0.000    0.000 
#
# Total GULP energy -222988.520447 kJ/mol
# GULP energy per Si atom -12388.251136 kJ/mol
# Density = 2.254122 g / cm^3
# Si number density = 22.592637 Si / 1000 Ang^3
#
#
#
# Elastic Constant Matrix: (Units=GPa)
#
#
# Indices 1 2 3 4 5 6 
#
# 1 130.2785 20.6333 38.8790 0.0016 -15.7236 0.0009
# 2 20.6333 85.2419 23.0782 0.0007 3.4706 0.0008
# 3 38.8790 23.0782 80.1571 0.0002 -23.5918 0.0006
# 4 0.0016 0.0007 0.0002 34.4933 -0.0019 -6.3190
# 5 -15.7236 3.4706 -23.5918 -0.0019 44.1524 -0.0007
# 6 0.0009 0.0008 0.0006 -6.3190 -0.0007 30.6221
#
#
#
# Elastic Compliance Matrix: (Units=1/GPa)
#
#
# Indices 1 2 3 4 5 6 
#
# 1 0.009137 -0.001281 -0.003650 0.000000 0.001405 0.000000
# 2 -0.001281 0.013378 -0.004360 0.000000 -0.003837 0.000000
# 3 -0.003650 -0.004360 0.018059 0.000001 0.008693 0.000000
# 4 0.000000 0.000000 0.000001 0.030130 0.000002 0.006218
# 5 0.001405 -0.003837 0.008693 0.000002 0.028095 0.000001
# 6 0.000000 0.000000 0.000000 0.006218 0.000001 0.033939
#
#
# Mechanical properties :
#
#
# Convention : Reuss Voigt Hill
#
# Bulk Modulus (GPa) = 45.46717 51.20650 48.33684
# Shear Modulus (GPa) = 31.51558 36.05935 33.78747
#
# Velocity S-wave (km/s) = 3.73895 3.99941 3.87138
# Velocity P-wave (km/s) = 6.22962 6.63637 6.43621
#
# Compressibility (1/GPa) = 0.02199389
#
# Stress axis : x y z
#
# Youngs Moduli (GPa) = 109.43963 74.74990 55.37272
#
# Poissons Ratio (x) = 0.09574 0.20210
# Poissons Ratio (y) = 0.14017 0.24141
# Poissons Ratio (z) = 0.39944 0.32590
#
# Static dielectric constant tensor:
#      x y z
#    x 5.254390 0.000040 -1.115580 
#    y 0.000040 4.887530 -0.000060 
#    z -1.115580 -0.000060 4.556530 
# 
# 
# High freq. dielectric constant tensor:
#      x y z
#    x 1.911170 0.000000 -0.024270 
#    y 0.000000 1.895450 0.000000 
#    z -0.024270 0.000000 1.886310 
# 
# From -- ./inp_files/177047.got.cif
#   From: 2010.06.25/outbox.cif.g09.slc.cpg/sg15_89_cif.got.tgz:177047.got - 2010.06.28 07:06:18.
