data_PCOD8153223
_publ_section_title
;
Structure prediction by ZEFSAII (Michael W. Deem and Ramdas Pophale) SiO2 
 PCOD8153223
Probable space group: C 2/C
;
_chemical_formula_sum "Si O2"
_cell_formula_units_Z 36
_cell_length_a 16.780016
_cell_length_b 9.525319
_cell_length_c 16.306733
_cell_angle_alpha 90.000000
_cell_angle_beta 34.075507
_cell_angle_gamma 90.000000
_cell_volume 1460.319302
_symmetry_space_group_name_H-M "C 2/C"
_symmetry_group_IT_number 15
_symmetry_cell_setting 'monoclinic'
loop_
_space_group_symop_operation_xyz
x,y,z
-x,y,1/2-z
-x,-y,-z
x,-y,1/2+z
1/2+x,1/2+y,z
1/2-x,1/2+y,1/2-z
1/2-x,1/2-y,-z
1/2+x,1/2-y,1/2+z
loop_
_atom_site_type_symbol
_atom_site_label
_atom_site_fract_x
_atom_site_fract_y
_atom_site_fract_z
Si Si1 0.270453 0.076025 0.660551
Si Si2 0.862640 0.702834 0.013101
Si Si3 0.013082 0.203375 0.547905
Si Si4 0.000000 0.454052 0.250000
Si Si5 0.256811 0.980523 0.356715
O O1 0.394624 0.159693 0.504591
O O2 0.318502 0.056567 0.714250
O O3 0.124234 0.167440 0.778548
O O4 0.257512 0.922192 0.632868
O O5 0.956362 0.651069 0.859250
O O6 0.769047 0.837832 0.068423
O O7 0.961695 0.766605 0.000306
O O8 0.115878 0.069841 0.463203
O O9 0.876779 0.552623 0.313511
#
# Coordination Sequence:
#
# PCOD8153223 Si02
#       5
#     8   8   8   4   8
#     4  11  23  43  77 102 139 188 253 290 345 427
#     4  11  24  44  73 106 139 193 240 298 354 427
#     4  11  24  43  75 106 139 187 251 293 342 429
#     4  12  26  42  70 108 158 174 238 298 384 410
#     4  11  24  43  69 106 143 188 240 297 355 427
#
# _framework density 24.652141
#
# number of rings (size 3 to 8) (size 9 to 14) (size 15 to 20)
#    0.000    0.889    2.222    6.667    6.222    0.000 
#    0.000    1.111    0.000    0.000    0.000    0.000 
#    0.000    0.000    0.000    0.000    0.000    0.000 
#
# Total GULP energy -223015.234838 kJ/mol
# GULP energy per Si atom -12389.735269 kJ/mol
# Density = 2.459603 g / cm^3
# Si number density = 24.652141 Si / 1000 Ang^3
#
#
#
# Elastic Constant Matrix: (Units=GPa)
#
#
# Indices 1 2 3 4 5 6 
#
# 1 74.2018 37.7015 54.5120 0.0000 -39.5791 0.0000
# 2 37.7015 105.5101 31.1975 0.0000 -15.2077 0.0000
# 3 54.5120 31.1975 101.1189 -0.0001 -16.8728 0.0000
# 4 0.0000 0.0000 -0.0001 32.5535 0.0000 -3.5022
# 5 -39.5791 -15.2077 -16.8728 0.0000 34.9199 0.0000
# 6 0.0000 0.0000 0.0000 -3.5022 0.0000 19.4858
#
#
#
# Elastic Compliance Matrix: (Units=1/GPa)
#
#
# Indices 1 2 3 4 5 6 
#
# 1 0.069091 -0.008480 -0.024124 0.000000 0.062960 0.000000
# 2 -0.008480 0.011820 0.000196 0.000000 -0.004369 0.000000
# 3 -0.024124 0.000196 0.019889 0.000000 -0.017648 0.000000
# 4 0.000000 0.000000 0.000000 0.031324 0.000000 0.005630
# 5 0.062960 -0.004369 -0.017648 0.000000 0.089567 0.000000
# 6 0.000000 0.000000 0.000000 0.005630 0.000000 0.052331
#
#
# Mechanical properties :
#
#
# Convention : Reuss Voigt Hill
#
# Bulk Modulus (GPa) = 27.79074 58.62806 43.20940
# Shear Modulus (GPa) = 14.25169 27.88650 21.06910
#
# Velocity S-wave (km/s) = 2.40700 3.36698 2.92662
# Velocity P-wave (km/s) = 4.36148 6.24093 5.38385
#
# Compressibility (1/GPa) = 0.03598321
#
# Stress axis : x y z
#
# Youngs Moduli (GPa) = 14.47369 84.60009 50.27815
#
# Poissons Ratio (x) = 0.71742 1.21292
# Poissons Ratio (y) = 0.12274 -0.00984
# Poissons Ratio (z) = 0.34917 -0.01655
#
# Static dielectric constant tensor:
#      x y z
#    x 4.512050 0.000000 -0.356120 
#    y 0.000000 4.706370 0.000000 
#    z -0.356120 0.000000 4.653140 
# 
# 
# High freq. dielectric constant tensor:
#      x y z
#    x 1.965530 0.000000 -0.025060 
#    y 0.000000 1.984020 0.000000 
#    z -0.025060 0.000000 1.979200 
# 
# From -- ./inp_files/208856.got.cif
#   From: 2010.06.25/outbox.cif.g09.slc.cpg/sg15_105_cif.got.tgz:208856.got - 2010.06.28 07:06:18.
