data_PCOD8153178
_publ_section_title
;
Structure prediction by ZEFSAII (Michael W. Deem and Ramdas Pophale) SiO2 
 PCOD8153178
Probable space group: C 2/C
;
_chemical_formula_sum "Si O2"
_cell_formula_units_Z 36
_cell_length_a 24.661265
_cell_length_b 5.444916
_cell_length_c 13.648272
_cell_angle_alpha 90.000000
_cell_angle_beta 132.168587
_cell_angle_gamma 90.000000
_cell_volume 1358.324876
_symmetry_space_group_name_H-M "C 2/C"
_symmetry_group_IT_number 15
_symmetry_cell_setting 'monoclinic'
loop_
_space_group_symop_operation_xyz
x,y,z
-x,y,1/2-z
-x,-y,-z
x,-y,1/2+z
1/2+x,1/2+y,z
1/2-x,1/2+y,1/2-z
1/2-x,1/2-y,-z
1/2+x,1/2-y,1/2+z
loop_
_atom_site_type_symbol
_atom_site_label
_atom_site_fract_x
_atom_site_fract_y
_atom_site_fract_z
Si Si1 0.000000 0.776662 0.750000
Si Si2 0.787651 0.529797 0.329684
Si Si3 0.444603 0.631827 0.529802
Si Si4 0.132697 0.583204 0.402313
Si Si5 0.091800 0.718429 0.148443
O O1 0.929157 0.616445 0.682570
O O2 0.996087 0.932511 0.646197
O O3 0.745522 0.288668 0.243498
O O4 0.794636 0.532514 0.457616
O O5 0.871611 0.521546 0.384043
O O6 0.387291 0.711072 0.541870
O O7 0.401858 0.493833 0.389650
O O8 0.505209 0.833746 0.566431
O O9 0.143363 0.705491 0.308669
#
# Coordination Sequence:
#
# PCOD8153178 Si02
#       5
#     4   8   8   8   8
#     4  12  20  40  74 114 150 182 222 336 374 460
#     4  12  30  52  72 106 156 210 265 303 348 456
#     4  11  23  43  71 121 152 180 245 317 397 460
#     4  12  25  46  74 112 149 187 252 317 383 456
#     4  11  24  46  78 105 150 204 237 313 394 439
#
# _framework density 26.503233999999999
#
# number of rings (size 3 to 8) (size 9 to 14) (size 15 to 20)
#    0.000    0.444    6.667    1.333    0.000    8.889 
#    0.000    0.000    0.000    0.000    0.000    0.000 
#    0.000    0.000    0.000    0.000    0.000    0.000 
#
# Total GULP energy -223039.614793 kJ/mol
# GULP energy per Si atom -12391.089711 kJ/mol
# Density = 2.644291 g / cm^3
# Si number density = 26.503234 Si / 1000 Ang^3
#
#
#
# Elastic Constant Matrix: (Units=GPa)
#
#
# Indices 1 2 3 4 5 6 
#
# 1 58.4765 1.6372 19.2900 0.0000 -18.4048 0.0000
# 2 1.6372 91.3472 63.6309 -0.0003 -11.1242 -0.0005
# 3 19.2900 63.6309 181.9065 0.0000 -38.1956 0.0000
# 4 0.0000 -0.0003 0.0000 55.4260 0.0000 3.9631
# 5 -18.4048 -11.1242 -38.1956 0.0000 53.8727 0.0000
# 6 0.0000 -0.0005 0.0000 3.9631 0.0000 51.0604
#
#
#
# Elastic Compliance Matrix: (Units=1/GPa)
#
#
# Indices 1 2 3 4 5 6 
#
# 1 0.019359 0.001238 -0.001226 0.000000 0.006000 0.000000
# 2 0.001238 0.014576 -0.005298 0.000000 -0.000324 0.000000
# 3 -0.001226 -0.005298 0.008416 0.000000 0.004454 0.000000
# 4 0.000000 0.000000 0.000000 0.018143 0.000000 -0.001408
# 5 0.006000 -0.000324 0.004454 0.000000 0.023703 0.000000
# 6 0.000000 0.000000 0.000000 -0.001408 0.000000 0.019694
#
#
# Mechanical properties :
#
#
# Convention : Reuss Voigt Hill
#
# Bulk Modulus (GPa) = 31.46769 55.64960 43.55865
# Shear Modulus (GPa) = 39.98208 48.54998 44.26603
#
# Velocity S-wave (km/s) = 3.88825 4.28466 4.09126
# Velocity P-wave (km/s) = 5.66188 6.74689 6.22806
#
# Compressibility (1/GPa) = 0.03177863
#
# Stress axis : x y z
#
# Youngs Moduli (GPa) = 51.65523 68.60548 118.82469
#
# Poissons Ratio (x) = -0.08492 0.14568
# Poissons Ratio (y) = -0.06394 0.62952
# Poissons Ratio (z) = 0.06333 0.36347
#
# Static dielectric constant tensor:
#      x y z
#    x 5.121750 0.000000 -0.299550 
#    y 0.000000 4.879520 0.000000 
#    z -0.299550 0.000000 5.751000 
# 
# 
# High freq. dielectric constant tensor:
#      x y z
#    x 2.044210 0.000000 -0.017780 
#    y 0.000000 2.066710 0.000000 
#    z -0.017780 0.000000 2.085030 
# 
# From -- ./inp_files/170445.got.cif
#   From: 2010.06.25/outbox.cif.g09.slc.cpg/sg15_86_cif.got.tgz:170445.got - 2010.06.28 07:06:18.
