data_PCOD8153357
_publ_section_title
;
Structure prediction by ZEFSAII (Michael W. Deem and Ramdas Pophale) SiO2 
 PCOD8153357
Probable space group: C 2/C
;
_chemical_formula_sum "Si O2"
_cell_formula_units_Z 52
_cell_length_a 24.064722
_cell_length_b 6.866885
_cell_length_c 17.934698
_cell_angle_alpha 90.000000
_cell_angle_beta 54.219519
_cell_angle_gamma 90.000000
_cell_volume 2404.342799
_symmetry_space_group_name_H-M "C 2/C"
_symmetry_group_IT_number 15
_symmetry_cell_setting 'monoclinic'
loop_
_space_group_symop_operation_xyz
x,y,z
-x,y,1/2-z
-x,-y,-z
x,-y,1/2+z
1/2+x,1/2+y,z
1/2-x,1/2+y,1/2-z
1/2-x,1/2-y,-z
1/2+x,1/2-y,1/2+z
loop_
_atom_site_type_symbol
_atom_site_label
_atom_site_fract_x
_atom_site_fract_y
_atom_site_fract_z
Si Si1 0.885021 0.549231 0.569113
Si Si2 0.602604 0.859758 0.786487
Si Si3 0.488145 0.623126 0.938023
Si Si4 0.580095 0.729038 0.076463
Si Si5 0.500000 0.019804 0.750000
Si Si6 0.750179 0.253398 0.119284
Si Si7 0.708344 0.557312 0.028614
O O1 0.901713 0.521514 0.643793
O O2 0.943424 0.684367 0.487608
O O3 0.888867 0.343791 0.520163
O O4 0.810023 0.649494 0.622113
O O5 0.562276 0.672492 0.847081
O O6 0.683033 0.810318 0.717501
O O7 0.565786 0.908404 0.735230
O O8 0.450870 0.481676 0.911865
O O9 0.500000 0.500000 0.000000
O O10 0.525350 0.863323 0.159243
O O11 0.635052 0.657771 0.093055
O O12 0.724384 0.414167 0.082558
O O13 0.780976 0.060446 0.056753
O O14 0.750000 0.750000 0.000000
#
# Coordination Sequence:
#
# PCOD8153357 Si02
#       7
#     8   8   8   8   4   8   8
#     4  12  25  52  73 102 151 192 243 298 364 436
#     4  12  28  47  73 109 151 188 240 313 358 429
#     4  12  25  46  76 102 137 194 245 288 371 432
#     4  12  25  45  74 106 139 194 239 298 360 434
#     4  12  28  46  72 112 150 180 246 308 364 424
#     4  11  27  45  72 110 145 190 243 296 361 438
#     4  11  23  45  73 102 144 189 234 292 368 426
#
# _framework density 21.627531000000001
#
# number of rings (size 3 to 8) (size 9 to 14) (size 15 to 20)
#    0.000    0.308    6.154    2.308    6.462    2.462 
#    5.538    0.000    0.000    0.000    0.000    0.000 
#    0.000    0.000    0.000    0.000    0.000    0.000 
#
# Total GULP energy -322090.693791 kJ/mol
# GULP energy per Si atom -12388.103607 kJ/mol
# Density = 2.157831 g / cm^3
# Si number density = 21.627531 Si / 1000 Ang^3
#
#
#
# Elastic Constant Matrix: (Units=GPa)
#
#
# Indices 1 2 3 4 5 6 
#
# 1 110.6023 25.5324 23.6532 0.0049 -0.2085 -0.0039
# 2 25.5324 106.4821 27.4290 -0.0185 2.7721 0.0004
# 3 23.6532 27.4290 87.7469 -0.0100 -8.0180 -0.0078
# 4 0.0049 -0.0185 -0.0100 24.2335 0.0046 -10.3169
# 5 -0.2085 2.7721 -8.0180 0.0046 39.3894 0.0066
# 6 -0.0039 0.0004 -0.0078 -10.3169 0.0066 41.9878
#
#
#
# Elastic Compliance Matrix: (Units=1/GPa)
#
#
# Indices 1 2 3 4 5 6 
#
# 1 0.009917 -0.001824 -0.002126 -0.000004 -0.000252 -0.000001
# 2 -0.001824 0.010625 -0.002954 0.000008 -0.001359 0.000001
# 3 -0.002126 -0.002954 0.013156 0.000004 0.002875 0.000003
# 4 -0.000004 0.000008 0.000004 0.046086 -0.000007 0.011324
# 5 -0.000252 -0.001359 0.002875 -0.000007 0.026067 -0.000005
# 6 -0.000001 0.000001 0.000003 0.011324 -0.000005 0.026599
#
#
# Mechanical properties :
#
#
# Convention : Reuss Voigt Hill
#
# Bulk Modulus (GPa) = 50.27683 50.89562 50.58622
# Shear Modulus (GPa) = 32.70418 36.33660 34.52039
#
# Velocity S-wave (km/s) = 3.89286 4.10336 3.99950
# Velocity P-wave (km/s) = 6.59568 6.78483 6.69092
#
# Compressibility (1/GPa) = 0.01988988
#
# Stress axis : x y z
#
# Youngs Moduli (GPa) = 100.84116 94.11983 76.01370
#
# Poissons Ratio (x) = 0.17163 0.16161
# Poissons Ratio (y) = 0.18389 0.22453
# Poissons Ratio (z) = 0.21440 0.27801
#
# Static dielectric constant tensor:
#      x y z
#    x 4.079750 -0.002210 -0.038760 
#    y -0.002210 1.349380 0.003120 
#    z -0.038760 0.003120 3.654860 
# 
# 
# High freq. dielectric constant tensor:
#      x y z
#    x 1.872820 0.000000 -0.010250 
#    y 0.000000 1.862340 0.000000 
#    z -0.010250 0.000000 1.838550 
# 
# From -- ./inp_files/256738.got.cif
#   From: 2010.06.25/outbox.cif.g09.slc.cpg/sg15_129_cif.got.tgz:256738.got - 2010.06.28 07:06:18.
