data_PCOD8153760
_publ_section_title
;
Structure prediction by ZEFSAII (Michael W. Deem and Ramdas Pophale) SiO2 
 PCOD8153760
Probable space group: C 2/C
;
_chemical_formula_sum "Si O2"
_cell_formula_units_Z 56
_cell_length_a 11.317163
_cell_length_b 14.813831
_cell_length_c 16.413163
_cell_angle_alpha 90.000000
_cell_angle_beta 111.015586
_cell_angle_gamma 90.000000
_cell_volume 2568.642175
_symmetry_space_group_name_H-M "C 2/C"
_symmetry_group_IT_number 15
_symmetry_cell_setting 'monoclinic'
loop_
_space_group_symop_operation_xyz
x,y,z
-x,y,1/2-z
-x,-y,-z
x,-y,1/2+z
1/2+x,1/2+y,z
1/2-x,1/2+y,1/2-z
1/2-x,1/2-y,-z
1/2+x,1/2-y,1/2+z
loop_
_atom_site_type_symbol
_atom_site_label
_atom_site_fract_x
_atom_site_fract_y
_atom_site_fract_z
Si Si1 0.645105 0.261341 0.407288
Si Si2 0.108613 0.031178 0.885998
Si Si3 0.967207 0.612586 0.404435
Si Si4 0.264741 0.810592 0.740770
Si Si5 0.658856 0.954533 0.464610
Si Si6 0.841159 0.011548 0.284492
Si Si7 0.849219 0.365611 0.201328
O O1 0.750000 0.250000 0.500000
O O2 0.628067 0.364064 0.385017
O O3 0.523767 0.213456 0.416358
O O4 0.669466 0.222252 0.324219
O O5 0.137365 0.987508 0.806491
O O6 0.959831 0.021438 0.868253
O O7 0.201474 0.988610 0.976308
O O8 0.855095 0.618842 0.311892
O O9 0.914781 0.592440 0.480462
O O10 0.074675 0.538111 0.408738
O O11 0.160836 0.883498 0.687812
O O12 0.208916 0.728839 0.780847
O O13 0.677133 0.877528 0.401206
O O14 0.717566 0.949779 0.270318
O O15 0.000000 0.367297 0.250000
#
# Coordination Sequence:
#
# PCOD8153760 Si02
#       7
#     8   8   8   8   8   8   8
#     4  12  25  44  72 107 138 187 246 303 347 439
#     4  11  24  49  72 102 145 189 243 298 370 422
#     4  11  24  44  75 102 146 187 248 295 366 435
#     4  12  26  46  71 107 141 194 241 296 376 432
#     4  11  25  47  71 106 145 195 238 309 366 435
#     4  11  25  48  73 101 145 193 236 305 361 443
#     4  12  28  45  73 106 148 190 247 299 371 443
#
# _framework density 21.801400999999998
#
# number of rings (size 3 to 8) (size 9 to 14) (size 15 to 20)
#    0.000    0.571    4.286    3.000    8.000    1.143 
#    2.571    0.000    0.000    0.000    0.000    0.000 
#    0.000    0.000    0.000    0.000    0.000    0.000 
#
# Total GULP energy -347035.248764 kJ/mol
# GULP energy per Si atom -12394.116027 kJ/mol
# Density = 2.175178 g / cm^3
# Si number density = 21.801401 Si / 1000 Ang^3
#
#
#
# Elastic Constant Matrix: (Units=GPa)
#
#
# Indices 1 2 3 4 5 6 
#
# 1 102.6705 48.1372 49.8899 0.0000 15.9287 0.0000
# 2 48.1372 137.5030 43.7941 0.0000 -0.5573 0.0000
# 3 49.8899 43.7941 111.7590 0.0000 7.3097 0.0000
# 4 0.0000 0.0000 0.0000 276.6562 0.0000 -18.3337
# 5 15.9287 -0.5573 7.3097 0.0000 27.5375 0.0000
# 6 0.0000 0.0000 0.0000 -18.3337 0.0000 35.7314
#
#
#
# Elastic Compliance Matrix: (Units=1/GPa)
#
#
# Indices 1 2 3 4 5 6 
#
# 1 0.014954 -0.003765 -0.004711 0.000000 -0.007476 0.000000
# 2 -0.003765 0.009288 -0.002151 0.000000 0.002937 0.000000
# 3 -0.004711 -0.002151 0.011925 0.000000 -0.000484 0.000000
# 4 0.000000 0.000000 0.000000 0.003742 0.000000 0.001920
# 5 -0.007476 0.002937 -0.000484 0.000000 0.040826 0.000000
# 6 0.000000 0.000000 0.000000 0.001920 0.000000 0.028972
#
#
# Mechanical properties :
#
#
# Convention : Reuss Voigt Hill
#
# Bulk Modulus (GPa) = 67.05562 70.61944 68.83753
# Shear Modulus (GPa) = 36.78304 81.99244 59.38774
#
# Velocity S-wave (km/s) = 4.11199 6.13925 5.22489
# Velocity P-wave (km/s) = 7.30540 9.09486 8.24880
#
# Compressibility (1/GPa) = 0.01491299
#
# Stress axis : x y z
#
# Youngs Moduli (GPa) = 66.87056 107.67124 83.85405
#
# Poissons Ratio (x) = 0.40538 0.39507
# Poissons Ratio (y) = 0.25176 0.18035
# Poissons Ratio (z) = 0.31505 0.23158
#
# Static dielectric constant tensor:
#      x y z
#    x 4.424020 0.000000 0.215050 
#    y 0.000000 4.094730 0.000000 
#    z 0.215050 0.000000 4.012140 
# 
# 
# High freq. dielectric constant tensor:
#      x y z
#    x 1.866240 0.000000 0.007180 
#    y 0.000000 1.869340 0.000000 
#    z 0.007180 0.000000 1.861790 
# 
# From -- ./inp_files/197934.got.cif
#   From: 2010.06.25/outbox.cif.g09.slc.cpg/sg15_99_cif.got.tgz:197934.got - 2010.06.28 07:06:18.
