data_PCOD8153105
_publ_section_title
;
Structure prediction by ZEFSAII (Michael W. Deem and Ramdas Pophale) SiO2 
 PCOD8153105
Probable space group: C 2/C
;
_chemical_formula_sum "Si O2"
_cell_formula_units_Z 48
_cell_length_a 24.009084
_cell_length_b 17.223209
_cell_length_c 12.041024
_cell_angle_alpha 90.000000
_cell_angle_beta 154.055644
_cell_angle_gamma 90.000000
_cell_volume 2178.357794
_symmetry_space_group_name_H-M "C 2/C"
_symmetry_group_IT_number 15
_symmetry_cell_setting 'monoclinic'
loop_
_space_group_symop_operation_xyz
x,y,z
-x,y,1/2-z
-x,-y,-z
x,-y,1/2+z
1/2+x,1/2+y,z
1/2-x,1/2+y,1/2-z
1/2-x,1/2-y,-z
1/2+x,1/2-y,1/2+z
loop_
_atom_site_type_symbol
_atom_site_label
_atom_site_fract_x
_atom_site_fract_y
_atom_site_fract_z
Si Si1 0.752674 0.400087 0.432886
Si Si2 0.019043 0.871305 0.161326
Si Si3 0.704377 0.428341 0.880273
Si Si4 0.904706 0.302202 0.168779
Si Si5 0.776797 0.856204 0.362600
Si Si6 0.494423 0.802710 0.570582
O O1 0.662342 0.378180 0.373546
O O2 0.777909 0.492186 0.484209
O O3 0.685829 0.381082 0.194863
O O4 0.881120 0.351491 0.676013
O O5 0.000000 0.906867 0.250000
O O6 0.931507 0.922182 0.922715
O O7 0.988428 0.780647 0.116778
O O8 0.788119 0.358085 0.984360
O O9 0.682086 0.420926 0.973061
O O10 0.987098 0.287740 0.426174
O O11 0.000000 0.339755 0.250000
O O12 0.848099 0.222878 0.020116
O O13 0.624423 0.850318 0.095682
#
# Coordination Sequence:
#
# PCOD8153105 Si02
#       6
#     8   8   8   8   8   8
#     4  12  28  41  72 107 138 187 234 297 361 414
#     4  12  25  44  69  97 146 183 243 288 346 421
#     4  11  26  46  66 103 144 187 229 302 355 414
#     4  11  23  42  76  98 137 191 237 283 358 433
#     4  11  23  47  72  96 143 180 235 289 356 430
#     4  11  23  45  70 106 135 181 239 295 350 414
#
# _framework density 22.034948
#
# number of rings (size 3 to 8) (size 9 to 14) (size 15 to 20)
#    0.000    0.667    3.333    4.500    4.667    4.000 
#    0.000    0.000    0.000    0.000    0.000    0.000 
#    0.000    0.000    0.000    0.000    0.000    0.000 
#
# Total GULP energy -297677.699509 kJ/mol
# GULP energy per Si atom -12403.237480 kJ/mol
# Density = 2.198480 g / cm^3
# Si number density = 22.034948 Si / 1000 Ang^3
#
#
#
# Elastic Constant Matrix: (Units=GPa)
#
#
# Indices 1 2 3 4 5 6 
#
# 1 145.8413 13.9104 40.6162 0.0000 -24.8895 0.0000
# 2 13.9104 89.5098 22.1204 0.0000 -33.1788 0.0000
# 3 40.6162 22.1204 108.0391 0.0000 -17.3174 0.0000
# 4 0.0000 0.0000 0.0000 20.6386 0.0000 -3.6789
# 5 -24.8895 -33.1788 -17.3174 0.0000 25.7183 0.0000
# 6 0.0000 0.0000 0.0000 -3.6789 0.0000 20.0878
#
#
#
# Elastic Compliance Matrix: (Units=1/GPa)
#
#
# Indices 1 2 3 4 5 6 
#
# 1 0.009191 0.003571 -0.002267 0.000000 0.011975 0.000000
# 2 0.003571 0.022798 -0.000832 0.000000 0.032307 0.000000
# 3 -0.002267 -0.000832 0.010935 0.000000 0.004096 0.000000
# 4 0.000000 0.000000 0.000000 0.050088 0.000000 0.009173
# 5 0.011975 0.032307 0.004096 0.000000 0.094908 0.000000
# 6 0.000000 0.000000 0.000000 0.009173 0.000000 0.051462
#
#
# Mechanical properties :
#
#
# Convention : Reuss Voigt Hill
#
# Bulk Modulus (GPa) = 22.79567 55.18714 38.99140
# Shear Modulus (GPa) = 19.75811 31.07182 25.41496
#
# Velocity S-wave (km/s) = 2.99770 3.75922 3.39985
# Velocity P-wave (km/s) = 4.72750 6.62888 5.75722
#
# Compressibility (1/GPa) = 0.04386799
#
# Stress axis : x y z
#
# Youngs Moduli (GPa) = 108.79959 43.86394 91.44944
#
# Poissons Ratio (x) = -0.15662 0.20731
# Poissons Ratio (y) = -0.38849 0.07606
# Poissons Ratio (z) = 0.24664 0.03648
#
# Static dielectric constant tensor:
#      x y z
#    x 4.322100 0.000000 -0.159660 
#    y 0.000000 3.879310 0.000000 
#    z -0.159660 0.000000 4.066750 
# 
# 
# High freq. dielectric constant tensor:
#      x y z
#    x 1.883560 0.000000 -0.007560 
#    y 0.000000 1.860140 0.000000 
#    z -0.007560 0.000000 1.873120 
# 
# From -- ./inp_files/119498.got.cif
#   From: 2010.06.25/outbox.cif.g09.slc.cpg/sg15_60_cif.got.tgz:119498.got - 2010.06.28 07:06:18.
