data_PCOD8153133
_publ_section_title
;
Structure prediction by ZEFSAII (Michael W. Deem and Ramdas Pophale) SiO2 
 PCOD8153133
Probable space group: C 2/C
;
_chemical_formula_sum "Si O2"
_cell_formula_units_Z 36
_cell_length_a 13.555664
_cell_length_b 17.627044
_cell_length_c 9.044517
_cell_angle_alpha 90.000000
_cell_angle_beta 127.807080
_cell_angle_gamma 90.000000
_cell_volume 1707.482772
_symmetry_space_group_name_H-M "C 2/C"
_symmetry_group_IT_number 15
_symmetry_cell_setting 'monoclinic'
loop_
_space_group_symop_operation_xyz
x,y,z
-x,y,1/2-z
-x,-y,-z
x,-y,1/2+z
1/2+x,1/2+y,z
1/2-x,1/2+y,1/2-z
1/2-x,1/2-y,-z
1/2+x,1/2-y,1/2+z
loop_
_atom_site_type_symbol
_atom_site_label
_atom_site_fract_x
_atom_site_fract_y
_atom_site_fract_z
Si Si1 0.735415 0.043551 0.091720
Si Si2 0.500000 0.961895 0.750000
Si Si3 0.307742 0.851319 0.701212
Si Si4 0.125651 0.181687 0.782420
Si Si5 0.617610 0.551034 0.566140
O O1 0.743868 0.124138 0.185750
O O2 0.762568 0.979765 0.237946
O O3 0.846785 0.049171 0.073496
O O4 0.599145 0.020768 0.909116
O O5 0.431649 0.903296 0.798478
O O6 0.215628 0.866791 0.476164
O O7 0.320006 0.761293 0.720488
O O8 0.095679 0.135890 0.605340
O O9 0.000000 0.201419 0.750000
O O10 0.500000 0.500000 0.500000
#
# Coordination Sequence:
#
# PCOD8153133 Si02
#       5
#     8   4   8   8   8
#     4  12  24  41  67  98 129 170 223 271 322 386
#     4  12  22  44  68  94 130 168 222 272 322 390
#     4  11  24  42  68  96 128 171 218 270 329 391
#     4  11  23  43  67  93 132 175 212 267 330 391
#     4  12  24  41  67  96 132 173 219 268 324 389
#
# _framework density 21.083669
#
# number of rings (size 3 to 8) (size 9 to 14) (size 15 to 20)
#    0.000    0.444    5.556    4.000    0.000    0.889 
#    0.000    0.000    4.889    0.000    0.000    0.000 
#    0.000    0.000    0.000    0.000    0.000    0.000 
#
# Total GULP energy -223089.733472 kJ/mol
# GULP energy per Si atom -12393.874082 kJ/mol
# Density = 2.103568 g / cm^3
# Si number density = 21.083669 Si / 1000 Ang^3
#
#
#
# Elastic Constant Matrix: (Units=GPa)
#
#
# Indices 1 2 3 4 5 6 
#
# 1 126.8847 44.4558 43.9688 0.0000 -22.0483 0.0000
# 2 44.4558 103.3615 46.9607 0.0000 -16.1295 0.0000
# 3 43.9688 46.9607 69.5694 0.0000 -9.3637 0.0000
# 4 0.0000 0.0000 0.0000 39.4830 0.0000 -12.1753
# 5 -22.0483 -16.1295 -9.3637 0.0000 42.2997 0.0000
# 6 0.0000 0.0000 0.0000 -12.1753 0.0000 26.5660
#
#
#
# Elastic Compliance Matrix: (Units=1/GPa)
#
#
# Indices 1 2 3 4 5 6 
#
# 1 0.010985 -0.001731 -0.005249 0.000000 0.003904 0.000000
# 2 -0.001731 0.014699 -0.008447 0.000000 0.002833 0.000000
# 3 -0.005249 -0.008447 0.023285 0.000000 -0.000802 0.000000
# 4 0.000000 0.000000 0.000000 0.029496 0.000000 0.013518
# 5 0.003904 0.002833 -0.000802 0.000000 0.026578 0.000000
# 6 0.000000 0.000000 0.000000 0.013518 0.000000 0.043838
#
#
# Mechanical properties :
#
#
# Convention : Reuss Voigt Hill
#
# Bulk Modulus (GPa) = 55.19942 63.39844 59.29893
# Shear Modulus (GPa) = 26.91464 32.63177 29.77321
#
# Velocity S-wave (km/s) = 3.57678 3.93838 3.76193
# Velocity P-wave (km/s) = 6.57995 7.12856 6.85974
#
# Compressibility (1/GPa) = 0.01811613
#
# Stress axis : x y z
#
# Youngs Moduli (GPa) = 91.03546 68.03193 42.94540
#
# Poissons Ratio (x) = 0.11774 0.22541
# Poissons Ratio (y) = 0.15755 0.36276
# Poissons Ratio (z) = 0.47783 0.57467
#
# Static dielectric constant tensor:
#      x y z
#    x 3.983480 0.000000 -0.102480 
#    y 0.000000 3.774680 0.000000 
#    z -0.102480 0.000000 4.029960 
# 
# 
# High freq. dielectric constant tensor:
#      x y z
#    x 1.834140 0.000000 0.005490 
#    y 0.000000 1.825880 0.000000 
#    z 0.005490 0.000000 1.825090 
# 
# From -- ./inp_files/38519.got.cif
#   From: 2010.06.25/outbox.cif.g09.slc.cpg/sg15_20_cif.got.tgz:38519.got - 2010.06.28 07:06:18.
