data_PCOD8153244
_publ_section_title
;
Structure prediction by ZEFSAII (Michael W. Deem and Ramdas Pophale) SiO2 
 PCOD8153244
Probable space group: C 2/C
;
_chemical_formula_sum "Si O2"
_cell_formula_units_Z 56
_cell_length_a 17.384575
_cell_length_b 16.417207
_cell_length_c 9.787171
_cell_angle_alpha 90.000000
_cell_angle_beta 105.474720
_cell_angle_gamma 90.000000
_cell_volume 2692.056311
_symmetry_space_group_name_H-M "C 2/C"
_symmetry_group_IT_number 15
_symmetry_cell_setting 'monoclinic'
loop_
_space_group_symop_operation_xyz
x,y,z
-x,y,1/2-z
-x,-y,-z
x,-y,1/2+z
1/2+x,1/2+y,z
1/2-x,1/2+y,1/2-z
1/2-x,1/2-y,-z
1/2+x,1/2-y,1/2+z
loop_
_atom_site_type_symbol
_atom_site_label
_atom_site_fract_x
_atom_site_fract_y
_atom_site_fract_z
Si Si1 0.182396 0.079061 0.849521
Si Si2 0.805785 0.922467 0.461498
Si Si3 0.052801 0.518311 0.395678
Si Si4 0.864281 0.352967 0.143368
Si Si5 0.843611 0.659508 0.944677
Si Si6 0.946908 0.194630 0.093599
Si Si7 0.441248 0.700108 0.608518
O O1 0.180278 0.052197 0.689739
O O2 0.248386 0.149898 0.900157
O O3 0.097701 0.116373 0.854766
O O4 0.205179 0.002797 0.953662
O O5 0.728062 0.865102 0.440342
O O6 0.879560 0.873714 0.557650
O O7 0.089635 0.436168 0.355447
O O8 0.122567 0.578652 0.469955
O O9 0.000000 0.558201 0.250000
O O10 0.000000 0.500000 0.500000
O O11 0.875700 0.327793 0.306382
O O12 0.904641 0.283207 0.069832
O O13 0.870242 0.737037 0.044439
O O14 0.000000 0.180115 0.250000
O O15 0.005470 0.181721 0.996128
O O16 0.500000 0.737464 0.750000
#
# Coordination Sequence:
#
# PCOD8153244 Si02
#       7
#     8   8   8   8   8   8   8
#     4  11  26  47  70 100 137 181 230 277 337 406
#     4  11  26  47  71 100 136 181 231 276 337 407
#     4  12  22  37  63 100 136 174 218 271 334 403
#     4  11  23  45  67 100 138 174 228 272 339 410
#     4  11  23  44  68  99 137 177 224 277 337 406
#     4  12  25  46  72 100 135 183 227 281 341 398
#     4  12  25  47  67 102 139 175 232 286 335 394
#
# _framework density 20.801943000000001
#
# number of rings (size 3 to 8) (size 9 to 14) (size 15 to 20)
#    0.000    0.571    5.714    2.571    2.000    1.143 
#    2.571    0.000    0.000    0.000    0.000    0.000 
#    0.000    0.000    0.000    0.000    0.000    0.000 
#
# Total GULP energy -347322.530662 kJ/mol
# GULP energy per Si atom -12404.376095 kJ/mol
# Density = 2.075460 g / cm^3
# Si number density = 20.801943 Si / 1000 Ang^3
#
#
#
# Elastic Constant Matrix: (Units=GPa)
#
#
# Indices 1 2 3 4 5 6 
#
# 1 106.3635 17.9010 46.0037 0.0000 0.0567 0.0000
# 2 17.9010 50.0275 20.5810 0.0000 6.9835 0.0000
# 3 46.0037 20.5810 118.7381 0.0000 7.0219 0.0000
# 4 0.0000 0.0000 0.0000 35.4089 0.0000 4.9093
# 5 0.0567 6.9835 7.0219 0.0000 33.0838 0.0000
# 6 0.0000 0.0000 0.0000 4.9093 0.0000 35.4453
#
#
#
# Elastic Compliance Matrix: (Units=1/GPa)
#
#
# Indices 1 2 3 4 5 6 
#
# 1 0.011636 -0.002662 -0.004131 0.000000 0.001419 0.000000
# 2 -0.002662 0.022615 -0.002640 0.000000 -0.004209 0.000000
# 3 -0.004131 -0.002640 0.010579 0.000000 -0.001681 0.000000
# 4 0.000000 0.000000 0.000000 0.028794 0.000000 -0.003988
# 5 0.001419 -0.004209 -0.001681 0.000000 0.031469 0.000000
# 6 0.000000 0.000000 0.000000 -0.003988 0.000000 0.028765
#
#
# Mechanical properties :
#
#
# Convention : Reuss Voigt Hill
#
# Bulk Modulus (GPa) = 38.51309 49.34449 43.92879
# Shear Modulus (GPa) = 30.98320 33.49714 32.24017
#
# Velocity S-wave (km/s) = 3.86351 4.01719 3.94110
# Velocity P-wave (km/s) = 6.20134 6.72976 6.47095
#
# Compressibility (1/GPa) = 0.02596520
#
# Stress axis : x y z
#
# Youngs Moduli (GPa) = 85.94373 44.21832 94.52560
#
# Poissons Ratio (x) = 0.11772 0.39044
# Poissons Ratio (y) = 0.22880 0.24950
# Poissons Ratio (z) = 0.35499 0.11672
#
# Static dielectric constant tensor:
#      x y z
#    x 3.918500 0.000000 0.094070 
#    y 0.000000 3.633980 0.000000 
#    z 0.094070 0.000000 3.738630 
# 
# 
# High freq. dielectric constant tensor:
#      x y z
#    x 1.832560 0.000000 0.005290 
#    y 0.000000 1.805170 0.000000 
#    z 0.005290 0.000000 1.827620 
# 
# From -- ./inp_files/49163.got.cif
#   From: 2010.06.25/outbox.cif.g09.slc.cpg/sg15_25_cif.got.tgz:49163.got - 2010.06.28 07:06:18.
