data_PCOD8153282
_publ_section_title
;
Structure prediction by ZEFSAII (Michael W. Deem and Ramdas Pophale) SiO2 
 PCOD8153282
Probable space group: C 2/C
;
_chemical_formula_sum "Si O2"
_cell_formula_units_Z 52
_cell_length_a 26.629999
_cell_length_b 6.199023
_cell_length_c 16.687086
_cell_angle_alpha 90.000000
_cell_angle_beta 121.200526
_cell_angle_gamma 90.000000
_cell_volume 2356.262044
_symmetry_space_group_name_H-M "C 2/C"
_symmetry_group_IT_number 15
_symmetry_cell_setting 'monoclinic'
loop_
_space_group_symop_operation_xyz
x,y,z
-x,y,1/2-z
-x,-y,-z
x,-y,1/2+z
1/2+x,1/2+y,z
1/2-x,1/2+y,1/2-z
1/2-x,1/2-y,-z
1/2+x,1/2-y,1/2+z
loop_
_atom_site_type_symbol
_atom_site_label
_atom_site_fract_x
_atom_site_fract_y
_atom_site_fract_z
Si Si1 0.000000 0.633345 0.250000
Si Si2 0.023010 0.713032 0.632337
Si Si3 0.896869 0.817212 0.522444
Si Si4 0.803960 0.910608 0.854646
Si Si5 0.187023 0.778015 0.279624
Si Si6 0.904211 0.987956 0.193269
Si Si7 0.620438 0.976421 0.116019
O O1 0.004091 0.482094 0.175290
O O2 0.057039 0.787208 0.306274
O O3 0.064211 0.888768 0.708596
O O4 0.056590 0.624121 0.581739
O O5 0.965369 0.841244 0.553935
O O6 0.893281 0.832545 0.615559
O O7 0.876844 0.586892 0.469722
O O8 0.855635 0.004861 0.454538
O O9 0.743315 0.865089 0.853376
O O10 0.827522 0.692305 0.835914
O O11 0.787983 0.067849 0.769026
O O12 0.132959 0.643662 0.198126
O O13 0.159946 0.905824 0.332275
#
# Coordination Sequence:
#
# PCOD8153282 Si02
#       7
#     4   8   8   8   8   8   8
#     4  12  22  40  70  94 136 182 216 270 332 398
#     4  12  23  43  69 100 137 185 221 267 344 411
#     4  11  26  41  63 110 144 164 223 286 340 396
#     4  11  24  43  69  95 136 175 232 287 322 399
#     4  11  23  44  72  94 126 186 237 269 333 405
#     4  12  24  43  70 101 135 178 228 274 333 413
#     4  11  24  42  69  99 131 184 224 280 338 394
#
# _framework density 22.068854000000002
#
# number of rings (size 3 to 8) (size 9 to 14) (size 15 to 20)
#    0.000    0.615    7.692    0.462    2.154    1.231 
#    0.000    0.769    0.000    0.000    0.000    0.000 
#    0.000    0.000    0.000    0.000    0.000    0.000 
#
# Total GULP energy -322356.864828 kJ/mol
# GULP energy per Si atom -12398.340955 kJ/mol
# Density = 2.201862 g / cm^3
# Si number density = 22.068854 Si / 1000 Ang^3
#
#
#
# Elastic Constant Matrix: (Units=GPa)
#
#
# Indices 1 2 3 4 5 6 
#
# 1 141.0767 47.0979 44.2908 0.0000 26.7778 0.0000
# 2 47.0979 83.0879 27.7619 0.0000 14.4096 0.0000
# 3 44.2908 27.7619 77.7843 0.0000 24.2316 0.0000
# 4 0.0000 0.0000 0.0000 8.8263 0.0000 -0.4121
# 5 26.7778 14.4096 24.2316 0.0000 19.1887 0.0000
# 6 0.0000 0.0000 0.0000 -0.4121 0.0000 49.9776
#
#
#
# Elastic Compliance Matrix: (Units=1/GPa)
#
#
# Indices 1 2 3 4 5 6 
#
# 1 0.010800 -0.003819 -0.001624 0.000000 -0.010154 0.000000
# 2 -0.003819 0.015569 -0.002308 0.000000 -0.003448 0.000000
# 3 -0.001624 -0.002308 0.022022 0.000000 -0.023810 0.000000
# 4 0.000000 0.000000 0.000000 0.113341 0.000000 0.000934
# 5 -0.010154 -0.003448 -0.023810 0.000000 0.098940 0.000000
# 6 0.000000 0.000000 0.000000 0.000934 0.000000 0.020017
#
#
# Mechanical properties :
#
#
# Convention : Reuss Voigt Hill
#
# Bulk Modulus (GPa) = 30.40452 60.02779 45.21616
# Shear Modulus (GPa) = 16.27848 27.78508 22.03178
#
# Velocity S-wave (km/s) = 2.71887 3.55211 3.16305
# Velocity P-wave (km/s) = 4.86450 6.63947 5.82005
#
# Compressibility (1/GPa) = 0.03288984
#
# Stress axis : x y z
#
# Youngs Moduli (GPa) = 92.59100 64.22936 45.40929
#
# Poissons Ratio (x) = 0.24527 0.07373
# Poissons Ratio (y) = 0.35357 0.10483
# Poissons Ratio (z) = 0.15034 0.14827
#
# Static dielectric constant tensor:
#      x y z
#    x 3.977100 0.000000 0.134670 
#    y 0.000000 4.142330 0.000000 
#    z 0.134670 0.000000 3.730180 
# 
# 
# High freq. dielectric constant tensor:
#      x y z
#    x 1.870400 0.000000 0.015910 
#    y 0.000000 1.876830 0.000000 
#    z 0.015910 0.000000 1.849100 
# 
# From -- ./inp_files/221373.got.cif
#   From: 2010.06.25/outbox.cif.g09.slc.cpg/sg15_111_cif.got.tgz:221373.got - 2010.06.28 07:06:18.
