data_PCOD8153441
_publ_section_title
;
Structure prediction by ZEFSAII (Michael W. Deem and Ramdas Pophale) SiO2 
 PCOD8153441
Probable space group: C 2/C
;
_chemical_formula_sum "Si O2"
_cell_formula_units_Z 48
_cell_length_a 10.834563
_cell_length_b 17.177589
_cell_length_c 10.072171
_cell_angle_alpha 90.000000
_cell_angle_beta 94.991226
_cell_angle_gamma 90.000000
_cell_volume 1867.440341
_symmetry_space_group_name_H-M "C 2/C"
_symmetry_group_IT_number 15
_symmetry_cell_setting 'monoclinic'
loop_
_space_group_symop_operation_xyz
x,y,z
-x,y,1/2-z
-x,-y,-z
x,-y,1/2+z
1/2+x,1/2+y,z
1/2-x,1/2+y,1/2-z
1/2-x,1/2-y,-z
1/2+x,1/2-y,1/2+z
loop_
_atom_site_type_symbol
_atom_site_label
_atom_site_fract_x
_atom_site_fract_y
_atom_site_fract_z
Si Si1 0.718803 0.961011 0.318504
Si Si2 0.183851 0.108309 0.278760
Si Si3 0.631325 0.933533 0.035217
Si Si4 0.612058 0.331747 0.046409
Si Si5 0.162988 0.176273 0.011858
Si Si6 0.066892 0.329307 0.624253
O O1 0.618699 0.950612 0.190468
O O2 0.792616 0.880531 0.354392
O O3 0.827959 0.021102 0.282418
O O4 0.635018 0.989773 0.438676
O O5 0.106544 0.125744 0.403308
O O6 0.331086 0.109440 0.319861
O O7 0.140051 0.171800 0.168000
O O8 0.768482 0.900096 0.031383
O O9 0.528151 0.870787 0.984327
O O10 0.532605 0.323688 0.420844
O O11 0.645997 0.239420 0.056540
O O12 0.250000 0.250000 0.000000
O O13 0.000000 0.297391 0.750000
#
# Coordination Sequence:
#
# PCOD8153441 Si02
#       6
#     8   8   8   8   8   8
#     4  11  25  47  75 114 156 199 260 318 397 458
#     4  11  25  48  70 110 158 196 262 326 387 458
#     4  11  25  48  74 113 151 203 262 319 385 469
#     4  12  26  45  74 114 152 202 259 328 386 460
#     4  11  23  46  76 103 150 201 259 315 391 461
#     4  12  24  47  79 107 154 207 261 323 379 467
#
# _framework density 25.703633
#
# number of rings (size 3 to 8) (size 9 to 14) (size 15 to 20)
#    0.000    0.667    6.667    1.000    4.667    3.333 
#    9.000    0.000    0.000    0.000    0.000    0.000 
#    0.000    0.000    0.000    0.000    0.000    0.000 
#
# Total GULP energy -297373.674870 kJ/mol
# GULP energy per Si atom -12390.569786 kJ/mol
# Density = 2.564513 g / cm^3
# Si number density = 25.703633 Si / 1000 Ang^3
#
#
#
# Elastic Constant Matrix: (Units=GPa)
#
#
# Indices 1 2 3 4 5 6 
#
# 1 60.9408 32.3986 36.0871 0.0000 20.0889 0.0000
# 2 32.3986 133.7391 57.7240 0.0000 11.0008 0.0000
# 3 36.0871 57.7240 152.6029 0.0000 19.5266 0.0000
# 4 0.0000 0.0000 0.0000 39.6082 0.0000 7.2892
# 5 20.0889 11.0008 19.5266 0.0000 36.4818 0.0000
# 6 0.0000 0.0000 0.0000 7.2892 0.0000 50.2068
#
#
#
# Elastic Compliance Matrix: (Units=1/GPa)
#
#
# Indices 1 2 3 4 5 6 
#
# 1 0.023397 -0.003588 -0.002861 0.000000 -0.010270 0.000000
# 2 -0.003588 0.009517 -0.002831 0.000000 0.000621 0.000000
# 3 -0.002861 -0.002831 0.008577 0.000000 -0.002161 0.000000
# 4 0.000000 0.000000 0.000000 0.025940 0.000000 -0.003766
# 5 -0.010270 0.000621 -0.002161 0.000000 0.034036 0.000000
# 6 0.000000 0.000000 0.000000 -0.003766 0.000000 0.020464
#
#
# Mechanical properties :
#
#
# Convention : Reuss Voigt Hill
#
# Bulk Modulus (GPa) = 43.61090 66.63360 55.12225
# Shear Modulus (GPa) = 33.75267 39.99755 36.87511
#
# Velocity S-wave (km/s) = 3.62767 3.94903 3.79176
# Velocity P-wave (km/s) = 5.87795 6.83909 6.37666
#
# Compressibility (1/GPa) = 0.02293005
#
# Stress axis : x y z
#
# Youngs Moduli (GPa) = 42.74072 105.07191 116.58993
#
# Poissons Ratio (x) = 0.37701 0.33362
# Poissons Ratio (y) = 0.15336 0.33007
# Poissons Ratio (z) = 0.12230 0.29746
#
# Static dielectric constant tensor:
#      x y z
#    x 4.634980 0.000000 0.121080 
#    y 0.000000 4.769340 0.000000 
#    z 0.121080 0.000000 4.929290 
# 
# 
# High freq. dielectric constant tensor:
#      x y z
#    x 2.025150 0.000000 0.008460 
#    y 0.000000 2.031490 0.000000 
#    z 0.008460 0.000000 2.033030 
# 
# From -- ./inp_files/39596.got.cif
#   From: 2010.06.25/outbox.cif.g09.slc.cpg/sg15_20_cif.got.tgz:39596.got - 2010.06.28 07:06:18.
