data_PCOD8153034
_publ_section_title
;
Structure prediction by ZEFSAII (Michael W. Deem and Ramdas Pophale) SiO2 
 PCOD8153034
Probable space group: C 2/C
;
_chemical_formula_sum "Si O2"
_cell_formula_units_Z 36
_cell_length_a 16.395635
_cell_length_b 6.936362
_cell_length_c 13.760147
_cell_angle_alpha 90.000000
_cell_angle_beta 76.010400
_cell_angle_gamma 90.000000
_cell_volume 1518.472150
_symmetry_space_group_name_H-M "C 2/C"
_symmetry_group_IT_number 15
_symmetry_cell_setting 'monoclinic'
loop_
_space_group_symop_operation_xyz
x,y,z
-x,y,1/2-z
-x,-y,-z
x,-y,1/2+z
1/2+x,1/2+y,z
1/2-x,1/2+y,1/2-z
1/2-x,1/2-y,-z
1/2+x,1/2-y,1/2+z
loop_
_atom_site_type_symbol
_atom_site_label
_atom_site_fract_x
_atom_site_fract_y
_atom_site_fract_z
Si Si1 0.000000 0.690052 0.750000
Si Si2 0.428021 0.956583 0.596731
Si Si3 0.334992 0.383280 0.865037
Si Si4 0.184188 0.877927 0.398567
Si Si5 0.773450 0.709186 0.602279
O O1 0.045388 0.545586 0.809628
O O2 0.069168 0.831641 0.684770
O O3 0.346711 0.054775 0.575412
O O4 0.500000 0.000000 0.500000
O O5 0.400388 0.730760 0.616295
O O6 0.271021 0.223610 0.840390
O O7 0.305666 0.403341 0.647865
O O8 0.324401 0.391358 0.983493
O O9 0.192090 0.904545 0.172055
O O10 0.750000 0.750000 0.500000
#
# Coordination Sequence:
#
# PCOD8153034 Si02
#       5
#     4   8   8   8   8
#     4  12  24  42  64 108 148 178 246 302 358 426
#     4  11  23  42  67  98 143 184 229 300 355 418
#     4   9  19  39  67  96 135 172 228 296 348 427
#     4   9  18  42  70  90 129 188 230 274 357 430
#     4   9  20  41  71  94 123 186 237 278 357 435
#
# _framework density 23.708041000000001
#
# number of rings (size 3 to 8) (size 9 to 14) (size 15 to 20)
#    0.000    2.222    2.222    1.333    0.000    0.889 
#    8.000    2.222    0.000    0.000    0.000    0.000 
#    0.000    0.000    0.000    0.000    0.000    0.000 
#
# Total GULP energy -223044.985020 kJ/mol
# GULP energy per Si atom -12391.388057 kJ/mol
# Density = 2.365408 g / cm^3
# Si number density = 23.708041 Si / 1000 Ang^3
#
#
#
# Elastic Constant Matrix: (Units=GPa)
#
#
# Indices 1 2 3 4 5 6 
#
# 1 136.4115 70.4609 26.1215 0.0000 -16.3483 0.0000
# 2 70.4609 193.9980 27.5259 0.0000 -13.9672 0.0000
# 3 26.1215 27.5259 26.2737 0.0000 -9.4312 0.0000
# 4 0.0000 0.0000 0.0000 25.6758 0.0000 3.2509
# 5 -16.3483 -13.9672 -9.4312 0.0000 39.7463 0.0000
# 6 0.0000 0.0000 0.0000 3.2509 0.0000 55.4426
#
#
#
# Elastic Compliance Matrix: (Units=1/GPa)
#
#
# Indices 1 2 3 4 5 6 
#
# 1 0.010180 -0.002615 -0.006786 0.000000 0.001658 0.000000
# 2 -0.002615 0.006743 -0.004373 0.000000 0.000256 0.000000
# 3 -0.006786 -0.004373 0.052289 0.000000 0.008080 0.000000
# 4 0.000000 0.000000 0.000000 0.039239 0.000000 -0.002301
# 5 0.001658 0.000256 0.008080 0.000000 0.027849 0.000000
# 6 0.000000 0.000000 0.000000 -0.002301 0.000000 0.018172
#
#
# Mechanical properties :
#
#
# Convention : Reuss Voigt Hill
#
# Bulk Modulus (GPa) = 24.00125 67.21109 45.60617
# Shear Modulus (GPa) = 25.52237 39.67793 32.60015
#
# Velocity S-wave (km/s) = 3.28461 4.09541 3.71221
# Velocity P-wave (km/s) = 4.95283 7.12560 6.13615
#
# Compressibility (1/GPa) = 0.04166450
#
# Stress axis : x y z
#
# Youngs Moduli (GPa) = 98.23505 148.29271 19.12452
#
# Poissons Ratio (x) = 0.38780 0.12978
# Poissons Ratio (y) = 0.25690 0.08363
# Poissons Ratio (z) = 0.66661 0.64845
#
# Static dielectric constant tensor:
#      x y z
#    x 4.634400 0.000000 0.154060 
#    y 0.000000 3.786110 0.000000 
#    z 0.154060 0.000000 3.960090 
# 
# 
# High freq. dielectric constant tensor:
#      x y z
#    x 1.936270 0.000000 0.004890 
#    y 0.000000 1.953460 0.000000 
#    z 0.004890 0.000000 1.938070 
# 
# From -- ./inp_files/103031.got.cif
#   From: 2010.06.25/outbox.cif.g09.slc.cpg/sg15_52_cif.got.tgz:103031.got - 2010.06.28 07:06:18.
