data_PCOD8153484
_publ_section_title
;
Structure prediction by ZEFSAII (Michael W. Deem and Ramdas Pophale) SiO2 
 PCOD8153484
Probable space group: C 2/C
;
_chemical_formula_sum "Si O2"
_cell_formula_units_Z 52
_cell_length_a 13.793872
_cell_length_b 19.318601
_cell_length_c 14.177025
_cell_angle_alpha 90.000000
_cell_angle_beta 138.769012
_cell_angle_gamma 90.000000
_cell_volume 2489.979918
_symmetry_space_group_name_H-M "C 2/C"
_symmetry_group_IT_number 15
_symmetry_cell_setting 'monoclinic'
loop_
_space_group_symop_operation_xyz
x,y,z
-x,y,1/2-z
-x,-y,-z
x,-y,1/2+z
1/2+x,1/2+y,z
1/2-x,1/2+y,1/2-z
1/2-x,1/2-y,-z
1/2+x,1/2-y,1/2+z
loop_
_atom_site_type_symbol
_atom_site_label
_atom_site_fract_x
_atom_site_fract_y
_atom_site_fract_z
Si Si1 0.384949 0.517621 0.836048
Si Si2 0.000000 0.075896 0.250000
Si Si3 0.500000 0.105322 0.750000
Si Si4 0.581901 0.321212 0.127897
Si Si5 0.445299 0.003380 0.356334
Si Si6 0.000000 0.612860 0.250000
Si Si7 0.753868 0.720073 0.105063
Si Si8 0.293687 0.679261 0.983622
O O1 0.418829 0.473497 0.766584
O O2 0.390066 0.599818 0.818006
O O3 0.231228 0.495462 0.771076
O O4 0.500000 0.500000 0.000000
O O5 0.119719 0.125853 0.385899
O O6 0.641947 0.149646 0.838267
O O7 0.485721 0.062196 0.644422
O O8 0.677298 0.272799 0.267660
O O9 0.620028 0.305764 0.048306
O O10 0.410771 0.303214 0.995703
O O11 0.521995 0.067628 0.359960
O O12 0.500000 0.000000 0.500000
O O13 0.855912 0.654055 0.171562
O O14 0.750000 0.750000 0.000000
O O15 0.250000 0.750000 0.000000
#
# Coordination Sequence:
#
# PCOD8153484 Si02
#       8
#     8   4   4   8   8   4   8   8
#     4  12  25  48  75 106 148 189 247 302 367 439
#     4  12  27  47  73 111 142 192 246 302 366 433
#     4  11  23  48  64 105 143 174 244 288 359 425
#     4  12  28  48  77 108 147 199 244 305 372 434
#     4  11  25  43  75 102 138 189 235 297 358 425
#     4  11  26  45  73 108 147 182 242 296 357 434
#     4  12  27  49  71 110 149 191 246 296 366 442
#     4  12  28  46  73 104 145 191 241 300 361 436
#
# _framework density 20.883702
#
# number of rings (size 3 to 8) (size 9 to 14) (size 15 to 20)
#    0.000    0.308    4.615    2.308    8.615    3.692 
#    0.000    0.000    0.000    0.000    0.000    0.000 
#    0.000    0.000    0.000    0.000    0.000    0.000 
#
# Total GULP energy -322254.754591 kJ/mol
# GULP energy per Si atom -12394.413638 kJ/mol
# Density = 2.083617 g / cm^3
# Si number density = 20.883702 Si / 1000 Ang^3
#
#
#
# Elastic Constant Matrix: (Units=GPa)
#
#
# Indices 1 2 3 4 5 6 
#
# 1 160.4999 67.1178 52.6526 0.0000 -13.4463 0.0000
# 2 67.1178 158.1558 52.3256 0.0000 -15.3900 0.0000
# 3 52.6526 52.3256 123.4687 0.0001 -12.7690 0.0000
# 4 0.0000 0.0000 0.0001 0.4382 0.0000 6.2260
# 5 -13.4463 -15.3900 -12.7690 0.0000 49.9832 0.0000
# 6 0.0000 0.0000 0.0000 6.2260 0.0000 38.2942
#
#
#
# Elastic Compliance Matrix: (Units=1/GPa)
#
#
# Indices 1 2 3 4 5 6 
#
# 1 0.008142 -0.002624 -0.002277 0.000000 0.000801 0.000000
# 2 -0.002624 0.008312 -0.002272 0.000000 0.001273 0.000000
# 3 -0.002277 -0.002272 0.010166 0.000001 0.001285 0.000000
# 4 0.000000 0.000000 0.000001 -1.741996 0.000001 0.283219
# 5 0.000801 0.001273 0.001285 0.000001 0.020942 0.000000
# 6 0.000000 0.000000 0.000000 0.283219 0.000000 -0.019933
#
#
# Mechanical properties :
#
#
# Convention : Reuss Voigt Hill
#
# Bulk Modulus (GPa) = 81.47530 87.36849 84.42190
# Shear Modulus (GPa) = -2.94824 35.74500 16.39838
#
# Velocity S-wave (km/s) = -1.18946 4.14166 2.80522
# Velocity P-wave (km/s) = 6.10017 8.04970 7.14177
#
# Compressibility (1/GPa) = 0.01227366
#
# Stress axis : x y z
#
# Youngs Moduli (GPa) = 122.82070 120.30846 98.36613
#
# Poissons Ratio (x) = 0.31568 0.22401
# Poissons Ratio (y) = 0.32227 0.22349
# Poissons Ratio (z) = 0.27970 0.27334
#
# Static dielectric constant tensor:
#      x y z
#    x 4.059560 0.000000 -0.059700 
#    y 0.000000 3.941070 0.000000 
#    z -0.059700 0.000000 3.816530 
# 
# 
# High freq. dielectric constant tensor:
#      x y z
#    x 1.846750 0.000000 0.002530 
#    y 0.000000 1.834050 0.000000 
#    z 0.002530 0.000000 1.829940 
# 
# From -- ./inp_files/155567.got.cif
#   From: 2010.06.25/outbox.cif.g09.slc.cpg/sg15_78_cif.got.tgz:155567.got - 2010.06.28 07:06:18.
