data_PCOD8153567
_publ_section_title
;
Structure prediction by ZEFSAII (Michael W. Deem and Ramdas Pophale) SiO2 
 PCOD8153567
Probable space group: C 2/C
;
_chemical_formula_sum "Si O2"
_cell_formula_units_Z 32
_cell_length_a 17.910161
_cell_length_b 8.526044
_cell_length_c 22.244460
_cell_angle_alpha 90.000000
_cell_angle_beta 156.392361
_cell_angle_gamma 90.000000
_cell_volume 1360.317296
_symmetry_space_group_name_H-M "C 2/C"
_symmetry_group_IT_number 15
_symmetry_cell_setting 'monoclinic'
loop_
_space_group_symop_operation_xyz
x,y,z
-x,y,1/2-z
-x,-y,-z
x,-y,1/2+z
1/2+x,1/2+y,z
1/2-x,1/2+y,1/2-z
1/2-x,1/2-y,-z
1/2+x,1/2-y,1/2+z
loop_
_atom_site_type_symbol
_atom_site_label
_atom_site_fract_x
_atom_site_fract_y
_atom_site_fract_z
Si Si1 0.291990 0.616708 0.714687
Si Si2 0.412641 0.278797 0.835980
Si Si3 0.200007 0.779101 0.531741
Si Si4 0.821250 0.387054 0.153066
O O1 0.292925 0.433958 0.732244
O O2 0.128046 0.712628 0.627493
O O3 0.260107 0.634139 0.619157
O O4 0.481997 0.693936 0.877573
O O5 0.347610 0.143175 0.742898
O O6 0.632115 0.308849 0.989216
O O7 0.250000 0.750000 0.500000
O O8 0.315822 0.927014 0.640994
O O9 0.000000 0.315429 0.250000
#
# Coordination Sequence:
#
# PCOD8153567 Si02
#       4
#     8   8   8   8
#     4  11  24  42  65  97 131 169 217 264 322 384
#     4  11  25  42  67  98 130 170 215 267 322 382
#     4  11  24  43  67  94 131 174 215 264 321 384
#     4  11  24  43  66  95 132 169 214 265 322 383
#
# _framework density 23.523923
#
# number of rings (size 3 to 8) (size 9 to 14) (size 15 to 20)
#    0.000    1.000    0.000    6.000    0.000   16.000 
#    0.000    0.000    0.000    0.000    0.000    0.000 
#    0.000    0.000    0.000    0.000    0.000    0.000 
#
# Total GULP energy -198484.733525 kJ/mol
# GULP energy per Si atom -12405.295845 kJ/mol
# Density = 2.347038 g / cm^3
# Si number density = 23.523923 Si / 1000 Ang^3
#
#
#
# Elastic Constant Matrix: (Units=GPa)
#
#
# Indices 1 2 3 4 5 6 
#
# 1 157.9244 74.3549 44.3012 -0.0001 -15.3497 0.0002
# 2 74.3549 97.0968 42.5627 -0.0053 -3.1313 -0.0009
# 3 44.3012 42.5627 84.4404 -0.0218 2.0971 -0.0048
# 4 -0.0001 -0.0053 -0.0218 40.9582 -0.0039 -10.7741
# 5 -15.3497 -3.1313 2.0971 -0.0039 52.2880 -0.0001
# 6 0.0002 -0.0009 -0.0048 -10.7741 -0.0001 39.0018
#
#
#
# Elastic Compliance Matrix: (Units=1/GPa)
#
#
# Indices 1 2 3 4 5 6 
#
# 1 0.010487 -0.007061 -0.002011 -0.000002 0.002736 -0.000001
# 2 -0.007061 0.018033 -0.005366 -0.000001 -0.000778 0.000000
# 3 -0.002011 -0.005366 0.015641 0.000009 -0.001539 0.000004
# 4 -0.000002 -0.000001 0.000009 0.026328 0.000001 0.007273
# 5 0.002736 -0.000778 -0.001539 0.000001 0.019943 0.000000
# 6 -0.000001 0.000000 0.000004 0.007273 0.000000 0.027649
#
#
# Mechanical properties :
#
#
# Convention : Reuss Voigt Hill
#
# Bulk Modulus (GPa) = 65.42204 73.54437 69.48321
# Shear Modulus (GPa) = 32.88375 38.33245 35.60810
#
# Velocity S-wave (km/s) = 3.74289 4.04110 3.89485
# Velocity P-wave (km/s) = 6.82277 7.28735 7.05888
#
# Compressibility (1/GPa) = 0.01528537
#
# Stress axis : x y z
#
# Youngs Moduli (GPa) = 95.36057 55.45342 63.93650
#
# Poissons Ratio (x) = 0.39154 0.12855
# Poissons Ratio (y) = 0.67332 0.34308
# Poissons Ratio (z) = 0.19173 0.29756
#
# Static dielectric constant tensor:
#      x y z
#    x 4.263410 0.000000 0.101990 
#    y 0.000000 4.174800 -0.000010 
#    z 0.101990 -0.000010 4.329650 
# 
# 
# High freq. dielectric constant tensor:
#      x y z
#    x 1.936190 0.000000 0.003250 
#    y 0.000000 1.922800 0.000000 
#    z 0.003250 0.000000 1.948700 
# 
# From -- ./inp_files/53462.got.cif
#   From: 2010.06.25/outbox.cif.g09.slc.cpg/sg15_27_cif.got.tgz:53462.got - 2010.06.28 07:06:18.
