data_PCOD8153715
_publ_section_title
;
Structure prediction by ZEFSAII (Michael W. Deem and Ramdas Pophale) SiO2 
 PCOD8153715
Probable space group: C 2/C
;
_chemical_formula_sum "Si O2"
_cell_formula_units_Z 56
_cell_length_a 22.200775
_cell_length_b 25.793300
_cell_length_c 9.960788
_cell_angle_alpha 90.000000
_cell_angle_beta 26.192272
_cell_angle_gamma 90.000000
_cell_volume 2517.596592
_symmetry_space_group_name_H-M "C 2/C"
_symmetry_group_IT_number 15
_symmetry_cell_setting 'monoclinic'
loop_
_space_group_symop_operation_xyz
x,y,z
-x,y,1/2-z
-x,-y,-z
x,-y,1/2+z
1/2+x,1/2+y,z
1/2-x,1/2+y,1/2-z
1/2-x,1/2-y,-z
1/2+x,1/2-y,1/2+z
loop_
_atom_site_type_symbol
_atom_site_label
_atom_site_fract_x
_atom_site_fract_y
_atom_site_fract_z
Si Si1 0.800833 0.560448 0.898378
Si Si2 0.925162 0.377633 0.649933
Si Si3 0.500000 0.695933 0.250000
Si Si4 0.871208 0.035257 0.757518
Si Si5 0.000000 0.195845 0.750000
Si Si6 0.293077 0.393238 0.189513
Si Si7 0.414894 0.758674 0.670263
Si Si8 0.292943 0.606747 0.138193
O O1 0.730255 0.581529 0.906803
O O2 0.956521 0.579169 0.586717
O O3 0.772133 0.497977 0.955717
O O4 0.730846 0.581415 0.171470
O O5 0.967659 0.317797 0.564965
O O6 0.843649 0.385922 0.675141
O O7 0.843727 0.385980 0.950643
O O8 0.363755 0.661495 0.520262
O O9 0.489598 0.732929 0.396711
O O10 0.887858 0.070066 0.591087
O O11 0.887889 0.070094 0.857230
O O12 0.000000 0.000000 0.500000
O O13 0.010442 0.232807 0.855072
O O14 0.136284 0.161429 0.475049
O O15 0.250000 0.750000 0.000000
#
# Coordination Sequence:
#
# PCOD8153715 Si02
#       8
#     8   8   4   8   4   8   8   8
#     4  12  25  41  71 105 140 194 248 308 384 443
#     4  11  26  47  65  99 153 198 242 322 383 463
#     4  12  24  44  75 104 146 195 250 310 390 450
#     4  11  24  47  74 104 147 195 247 310 391 457
#     4  12  24  44  75 104 146 195 250 310 390 450
#     4  11  24  44  70 103 145 188 250 310 374 469
#     4  12  25  46  72 107 151 195 252 314 394 460
#     4  11  24  44  70 103 145 188 250 310 374 469
#
# _framework density 22.243435999999999
#
# number of rings (size 3 to 8) (size 9 to 14) (size 15 to 20)
#    0.000    0.571    2.857    5.143    4.000    3.429 
#    0.000    7.857    0.000    0.000    0.000    0.000 
#    0.000    0.000    0.000    0.000    0.000    0.000 
#
# Total GULP energy -347099.863652 kJ/mol
# GULP energy per Si atom -12396.423702 kJ/mol
# Density = 2.219281 g / cm^3
# Si number density = 22.243436 Si / 1000 Ang^3
#
#
#
# Elastic Constant Matrix: (Units=GPa)
#
#
# Indices 1 2 3 4 5 6 
#
# 1 137.4794 39.3139 70.2643 0.0027 45.5016 0.0016
# 2 39.3139 103.9294 33.1602 -0.0001 5.7321 0.0015
# 3 70.2643 33.1602 85.6960 0.0028 2.3308 0.0018
# 4 0.0027 -0.0001 0.0028 61.1972 -0.0038 12.9413
# 5 45.5016 5.7321 2.3308 -0.0038 48.2758 -0.0016
# 6 0.0016 0.0015 0.0018 12.9413 -0.0016 76.0669
#
#
#
# Elastic Compliance Matrix: (Units=1/GPa)
#
#
# Indices 1 2 3 4 5 6 
#
# 1 0.025131 -0.002152 -0.019161 -0.000002 -0.022506 0.000000
# 2 -0.002152 0.011220 -0.002600 0.000000 0.000821 0.000000
# 3 -0.019161 -0.002600 0.027923 0.000001 0.017020 0.000000
# 4 -0.000002 0.000000 0.000001 0.016950 0.000003 -0.002884
# 5 -0.022506 0.000821 0.017020 0.000003 0.041008 0.000000
# 6 0.000000 0.000000 0.000000 -0.002884 0.000000 0.013637
#
#
# Mechanical properties :
#
#
# Convention : Reuss Voigt Hill
#
# Bulk Modulus (GPa) = 60.79310 68.06463 64.42886
# Shear Modulus (GPa) = 26.43053 49.39908 37.91480
#
# Velocity S-wave (km/s) = 3.45082 4.71769 4.13309
# Velocity P-wave (km/s) = 6.57782 7.76800 7.19755
#
# Compressibility (1/GPa) = 0.01644923
#
# Stress axis : x y z
#
# Youngs Moduli (GPa) = 39.79209 89.12644 35.81341
#
# Poissons Ratio (x) = 0.19176 0.68621
# Poissons Ratio (y) = 0.08561 0.09311
# Poissons Ratio (z) = 0.76244 0.23172
#
# Static dielectric constant tensor:
#      x y z
#    x 4.187040 -0.000010 0.104200 
#    y -0.000010 4.522760 0.000030 
#    z 0.104200 0.000030 4.070230 
# 
# 
# High freq. dielectric constant tensor:
#      x y z
#    x 1.891960 0.000000 0.014110 
#    y 0.000000 1.893620 0.000000 
#    z 0.014110 0.000000 1.876380 
# 
# From -- ./inp_files/59366.got.cif
#   From: 2010.06.25/outbox.cif.g09.slc.cpg/sg15_30_cif.got.tgz:59366.got - 2010.06.28 07:06:18.
