data_PCOD8153062
_publ_section_title
;
Structure prediction by ZEFSAII (Michael W. Deem and Ramdas Pophale) SiO2 
 PCOD8153062
Probable space group: C 2/C
;
_chemical_formula_sum "Si O2"
_cell_formula_units_Z 56
_cell_length_a 15.920995
_cell_length_b 19.887505
_cell_length_c 14.043056
_cell_angle_alpha 90.000000
_cell_angle_beta 143.462408
_cell_angle_gamma 90.000000
_cell_volume 2647.186543
_symmetry_space_group_name_H-M "C 2/C"
_symmetry_group_IT_number 15
_symmetry_cell_setting 'monoclinic'
loop_
_space_group_symop_operation_xyz
x,y,z
-x,y,1/2-z
-x,-y,-z
x,-y,1/2+z
1/2+x,1/2+y,z
1/2-x,1/2+y,1/2-z
1/2-x,1/2-y,-z
1/2+x,1/2-y,1/2+z
loop_
_atom_site_type_symbol
_atom_site_label
_atom_site_fract_x
_atom_site_fract_y
_atom_site_fract_z
Si Si1 0.946677 0.735392 0.412691
Si Si2 0.656181 0.028171 0.058595
Si Si3 0.901071 0.134675 0.964063
Si Si4 0.099000 0.398774 0.110394
Si Si5 0.863513 0.034494 0.076753
Si Si6 0.835530 0.075568 0.399588
Si Si7 0.294465 0.712980 0.444674
O O1 0.944600 0.786456 0.501182
O O2 0.791863 0.738156 0.225868
O O3 0.000073 0.661897 0.486382
O O4 0.044490 0.766268 0.420079
O O5 0.733676 0.040076 0.029752
O O6 0.736296 0.067364 0.216969
O O7 0.643270 0.948008 0.063802
O O8 0.498116 0.058237 0.905022
O O9 0.739108 0.128484 0.785444
O O10 0.909713 0.108439 0.080585
O O11 0.005758 0.091962 0.990819
O O12 0.000000 0.000485 0.250000
O O13 0.825900 0.994101 0.947032
O O14 0.781637 0.131688 0.427163
O O15 0.250000 0.750000 0.500000
#
# Coordination Sequence:
#
# PCOD8153062 Si02
#       7
#     8   8   8   8   8   8   8
#     4  11  23  42  69  90 139 181 220 280 343 400
#     4  11  24  43  71 101 139 178 226 293 352 399
#     4  11  23  43  70  96 135 182 226 279 345 410
#     4  11  23  44  68  98 138 178 222 287 353 396
#     4  12  24  41  73 102 133 178 235 277 339 425
#     4  11  23  43  70 101 137 178 227 283 344 408
#     4  11  24  40  64 100 134 177 226 271 340 418
#
# _framework density 21.154536
#
# number of rings (size 3 to 8) (size 9 to 14) (size 15 to 20)
#    0.000    0.857    5.714    1.714    2.000    2.857 
#    0.000    0.714    0.000    0.000    0.000    0.000 
#    0.000    0.000    0.000    0.000    0.000    0.000 
#
# Total GULP energy -347042.169405 kJ/mol
# GULP energy per Si atom -12394.363193 kJ/mol
# Density = 2.110639 g / cm^3
# Si number density = 21.154536 Si / 1000 Ang^3
#
#
#
# Elastic Constant Matrix: (Units=GPa)
#
#
# Indices 1 2 3 4 5 6 
#
# 1 133.7262 50.5635 25.4684 0.0000 2.3641 0.0000
# 2 50.5635 116.8167 15.9379 0.0000 -5.9298 0.0000
# 3 25.4684 15.9379 73.9724 0.0000 10.8366 0.0000
# 4 0.0000 0.0000 0.0000 31.8095 0.0000 -0.8751
# 5 2.3641 -5.9298 10.8366 0.0000 30.7351 0.0000
# 6 0.0000 0.0000 0.0000 -0.8751 0.0000 34.1229
#
#
#
# Elastic Compliance Matrix: (Units=1/GPa)
#
#
# Indices 1 2 3 4 5 6 
#
# 1 0.009354 -0.003765 -0.002317 0.000000 -0.000629 0.000000
# 2 -0.003765 0.010521 -0.001382 0.000000 0.002807 0.000000
# 3 -0.002317 -0.001382 0.015424 0.000000 -0.005526 0.000000
# 4 0.000000 0.000000 0.000000 0.031459 0.000000 0.000807
# 5 -0.000629 0.002807 -0.005526 0.000000 0.035074 0.000000
# 6 0.000000 0.000000 0.000000 0.000807 0.000000 0.029326
#
#
# Mechanical properties :
#
#
# Convention : Reuss Voigt Hill
#
# Bulk Modulus (GPa) = 49.08905 56.49497 52.79201
# Shear Modulus (GPa) = 32.70616 34.83653 33.77134
#
# Velocity S-wave (km/s) = 3.93626 4.06244 3.99985
# Velocity P-wave (km/s) = 6.62678 6.98343 6.80744
#
# Compressibility (1/GPa) = 0.02037114
#
# Stress axis : x y z
#
# Youngs Moduli (GPa) = 106.90824 95.04920 64.83519
#
# Poissons Ratio (x) = 0.35781 0.15024
# Poissons Ratio (y) = 0.40246 0.08959
# Poissons Ratio (z) = 0.24774 0.13134
#
# Static dielectric constant tensor:
#      x y z
#    x 3.746420 0.000000 0.298410 
#    y 0.000000 4.109150 0.000000 
#    z 0.298410 0.000000 3.857630 
# 
# 
# High freq. dielectric constant tensor:
#      x y z
#    x 1.816520 0.000000 0.028190 
#    y 0.000000 1.837270 0.000000 
#    z 0.028190 0.000000 1.832210 
# 
# From -- ./inp_files/156229.got.cif
#   From: 2010.06.25/outbox.cif.g09.slc.cpg/sg15_79_cif.got.tgz:156229.got - 2010.06.28 07:06:18.
