data_PCOD8153666
_publ_section_title
;
Structure prediction by ZEFSAII (Michael W. Deem and Ramdas Pophale) SiO2 
 PCOD8153666
Probable space group: C 2/C
;
_chemical_formula_sum "Si O2"
_cell_formula_units_Z 40
_cell_length_a 17.227954
_cell_length_b 10.924384
_cell_length_c 17.977417
_cell_angle_alpha 90.000000
_cell_angle_beta 30.809125
_cell_angle_gamma 90.000000
_cell_volume 1732.927041
_symmetry_space_group_name_H-M "C 2/C"
_symmetry_group_IT_number 15
_symmetry_cell_setting 'monoclinic'
loop_
_space_group_symop_operation_xyz
x,y,z
-x,y,1/2-z
-x,-y,-z
x,-y,1/2+z
1/2+x,1/2+y,z
1/2-x,1/2+y,1/2-z
1/2-x,1/2-y,-z
1/2+x,1/2-y,1/2+z
loop_
_atom_site_type_symbol
_atom_site_label
_atom_site_fract_x
_atom_site_fract_y
_atom_site_fract_z
Si Si1 0.824377 0.341015 0.379334
Si Si2 0.417646 0.767821 0.888391
Si Si3 0.954610 0.007963 0.369822
Si Si4 0.850264 0.199303 0.207853
Si Si5 0.520229 0.865716 0.952574
O O1 0.750000 0.250000 0.500000
O O2 0.723353 0.464407 0.467595
O O3 0.808312 0.285384 0.311105
O O4 0.000000 0.371123 0.250000
O O5 0.500000 0.827680 0.750000
O O6 0.488558 0.635611 0.851574
O O7 0.432305 0.857706 0.946451
O O8 0.250000 0.750000 0.000000
O O9 0.000000 0.054023 0.250000
O O10 0.060633 0.078331 0.340524
O O11 0.697040 0.159347 0.292743
O O12 0.955009 0.269059 0.063883
O O13 0.500000 0.000000 0.000000
#
# Coordination Sequence:
#
# PCOD8153666 Si02
#       5
#     8   8   8   8   8
#     4  12  20  38  66 110 150 193 248 296 370 443
#     4  11  28  52  76 104 146 198 252 301 386 457
#     4  11  24  43  75 105 151 194 244 312 365 452
#     4  12  24  44  71 109 147 195 248 309 378 436
#     4  12  30  49  76 109 151 194 252 318 376 448
#
# _framework density 23.082332999999998
#
# number of rings (size 3 to 8) (size 9 to 14) (size 15 to 20)
#    0.000    0.400    6.000    1.200    8.400    4.800 
#    0.000    1.000    0.000    0.000    0.000    0.000 
#    0.000    0.000    0.000    0.000    0.000    0.000 
#
# Total GULP energy -248109.440885 kJ/mol
# GULP energy per Si atom -12405.472044 kJ/mol
# Density = 2.302980 g / cm^3
# Si number density = 23.082333 Si / 1000 Ang^3
#
#
#
# Elastic Constant Matrix: (Units=GPa)
#
#
# Indices 1 2 3 4 5 6 
#
# 1 161.1990 45.1966 59.4788 -0.0002 -0.3991 0.0001
# 2 45.1966 93.0847 27.2085 -0.0003 7.5459 0.0001
# 3 59.4788 27.2085 133.7179 -0.0007 -11.5465 0.0004
# 4 -0.0002 -0.0003 -0.0007 30.2067 0.0004 2.8294
# 5 -0.3991 7.5459 -11.5465 0.0004 55.1775 -0.0002
# 6 0.0001 0.0001 0.0004 2.8294 -0.0002 38.0787
#
#
#
# Elastic Compliance Matrix: (Units=1/GPa)
#
#
# Indices 1 2 3 4 5 6 
#
# 1 0.008182 -0.003076 -0.003027 0.000000 -0.000154 0.000000
# 2 -0.003076 0.012819 -0.001419 0.000000 -0.002072 0.000000
# 3 -0.003027 -0.001419 0.009297 0.000000 0.002118 0.000000
# 4 0.000000 0.000000 0.000000 0.033337 0.000000 -0.002477
# 5 -0.000154 -0.002072 0.002118 0.000000 0.018849 0.000000
# 6 0.000000 0.000000 0.000000 -0.002477 0.000000 0.026445
#
#
# Mechanical properties :
#
#
# Convention : Reuss Voigt Hill
#
# Bulk Modulus (GPa) = 65.55607 72.41884 68.98745
# Shear Modulus (GPa) = 38.74224 41.76710 40.25467
#
# Velocity S-wave (km/s) = 4.10132 4.25842 4.18061
# Velocity P-wave (km/s) = 7.13375 7.45795 7.29765
#
# Compressibility (1/GPa) = 0.01525412
#
# Stress axis : x y z
#
# Youngs Moduli (GPa) = 122.21379 78.00858 107.56709
#
# Poissons Ratio (x) = 0.23993 0.32561
# Poissons Ratio (y) = 0.37589 0.15267
# Poissons Ratio (z) = 0.36995 0.11071
#
# Static dielectric constant tensor:
#      x y z
#    x 4.123590 0.000000 0.000810 
#    y 0.000000 4.316770 0.000000 
#    z 0.000810 0.000000 4.512710 
# 
# 
# High freq. dielectric constant tensor:
#      x y z
#    x 1.915490 0.000000 -0.004140 
#    y 0.000000 1.909130 0.000000 
#    z -0.004140 0.000000 1.932770 
# 
# From -- ./inp_files/210756.got.cif
#   From: 2010.06.25/outbox.cif.g09.slc.cpg/sg15_106_cif.got.tgz:210756.got - 2010.06.28 07:06:18.
