data_PCOD8153428
_publ_section_title
;
Structure prediction by ZEFSAII (Michael W. Deem and Ramdas Pophale) SiO2 
 PCOD8153428
Probable space group: C 2/C
;
_chemical_formula_sum "Si O2"
_cell_formula_units_Z 52
_cell_length_a 11.422593
_cell_length_b 15.239981
_cell_length_c 13.525753
_cell_angle_alpha 90.000000
_cell_angle_beta 76.184483
_cell_angle_gamma 90.000000
_cell_volume 2286.446051
_symmetry_space_group_name_H-M "C 2/C"
_symmetry_group_IT_number 15
_symmetry_cell_setting 'monoclinic'
loop_
_space_group_symop_operation_xyz
x,y,z
-x,y,1/2-z
-x,-y,-z
x,-y,1/2+z
1/2+x,1/2+y,z
1/2-x,1/2+y,1/2-z
1/2-x,1/2-y,-z
1/2+x,1/2-y,1/2+z
loop_
_atom_site_type_symbol
_atom_site_label
_atom_site_fract_x
_atom_site_fract_y
_atom_site_fract_z
Si Si1 0.235342 0.543288 0.306485
Si Si2 0.293879 0.846942 0.881773
Si Si3 0.702719 0.027076 0.535066
Si Si4 0.534877 0.096191 0.845864
Si Si5 0.000000 0.026540 0.750000
Si Si6 0.057928 0.914123 0.439826
Si Si7 0.929994 0.255768 0.011002
O O1 0.189682 0.614479 0.233598
O O2 0.208849 0.571096 0.425038
O O3 0.163457 0.451797 0.307854
O O4 0.379741 0.533212 0.267505
O O5 0.187768 0.776628 0.907087
O O6 0.260630 0.924120 0.967553
O O7 0.408280 0.793259 0.903583
O O8 0.568875 0.025361 0.607417
O O9 0.796979 0.078171 0.586856
O O10 0.500000 0.142695 0.750000
O O11 0.520721 0.164982 0.935112
O O12 0.002031 0.091081 0.842224
O O13 0.025968 0.822517 0.496919
O O14 0.000000 0.000000 0.500000
#
# Coordination Sequence:
#
# PCOD8153428 Si02
#       7
#     8   8   8   8   4   8   8
#     4  12  24  43  78 107 141 198 251 290 373 444
#     4  11  23  46  73 103 143 197 242 297 367 434
#     4  12  24  46  78 104 145 199 242 296 371 446
#     4  12  26  47  75 105 150 191 244 302 368 444
#     4  12  22  40  74 108 136 192 248 302 346 450
#     4  12  23  46  72 104 146 194 246 297 362 438
#     4  11  26  45  72 110 150 189 243 312 365 418
#
# _framework density 22.742719000000001
#
# number of rings (size 3 to 8) (size 9 to 14) (size 15 to 20)
#    0.000    0.308    7.692    0.462    2.154    1.846 
#    4.154    0.000    0.000    0.000    0.000    0.000 
#    0.000    0.000    0.000    0.000    0.000    0.000 
#
# Total GULP energy -322188.839880 kJ/mol
# GULP energy per Si atom -12391.878457 kJ/mol
# Density = 2.269096 g / cm^3
# Si number density = 22.742719 Si / 1000 Ang^3
#
#
#
# Elastic Constant Matrix: (Units=GPa)
#
#
# Indices 1 2 3 4 5 6 
#
# 1 120.9505 42.2191 33.9280 0.0000 4.0587 0.0000
# 2 42.2191 85.9622 18.9638 0.0000 10.6243 0.0000
# 3 33.9280 18.9638 111.8500 0.0000 23.5048 0.0000
# 4 0.0000 0.0000 0.0000 32.7058 0.0000 2.8399
# 5 4.0587 10.6243 23.5048 0.0000 42.1738 0.0000
# 6 0.0000 0.0000 0.0000 2.8399 0.0000 29.7807
#
#
#
# Elastic Compliance Matrix: (Units=1/GPa)
#
#
# Indices 1 2 3 4 5 6 
#
# 1 0.010683 -0.004848 -0.002785 0.000000 0.001746 0.000000
# 2 -0.004848 0.014461 -0.000355 0.000000 -0.002978 0.000000
# 3 -0.002785 -0.000355 0.011067 0.000000 -0.005810 0.000000
# 4 0.000000 0.000000 0.000000 0.030831 0.000000 -0.002940
# 5 0.001746 -0.002978 -0.005810 0.000000 0.027532 0.000000
# 6 0.000000 0.000000 0.000000 -0.002940 0.000000 0.033859
#
#
# Mechanical properties :
#
#
# Convention : Reuss Voigt Hill
#
# Bulk Modulus (GPa) = 49.42476 56.55384 52.98930
# Shear Modulus (GPa) = 33.07892 35.84216 34.46054
#
# Velocity S-wave (km/s) = 3.81791 3.97417 3.89682
# Velocity P-wave (km/s) = 6.41985 6.78082 6.60280
#
# Compressibility (1/GPa) = 0.02023277
#
# Stress axis : x y z
#
# Youngs Moduli (GPa) = 93.60810 69.15377 90.36137
#
# Poissons Ratio (x) = 0.33526 0.25169
# Poissons Ratio (y) = 0.45381 0.03210
# Poissons Ratio (z) = 0.26073 0.02457
#
# Static dielectric constant tensor:
#      x y z
#    x 4.374060 0.000000 0.295070 
#    y 0.000000 3.832330 0.000000 
#    z 0.295070 0.000000 4.000770 
# 
# 
# High freq. dielectric constant tensor:
#      x y z
#    x 1.913460 0.000000 0.015960 
#    y 0.000000 1.871450 0.000000 
#    z 0.015960 0.000000 1.898960 
# 
# From -- ./inp_files/144150.got.cif
#   From: 2010.06.25/outbox.cif.g09.slc.cpg/sg15_73_cif.got.tgz:144150.got - 2010.06.28 07:06:18.
