data_PCOD8153738
_publ_section_title
;
Structure prediction by ZEFSAII (Michael W. Deem and Ramdas Pophale) SiO2 
 PCOD8153738
Probable space group: C 2/C
;
_chemical_formula_sum "Si O2"
_cell_formula_units_Z 60
_cell_length_a 11.612774
_cell_length_b 8.803093
_cell_length_c 25.521165
_cell_angle_alpha 90.000000
_cell_angle_beta 80.778936
_cell_angle_gamma 90.000000
_cell_volume 2575.271235
_symmetry_space_group_name_H-M "C 2/C"
_symmetry_group_IT_number 15
_symmetry_cell_setting 'monoclinic'
loop_
_space_group_symop_operation_xyz
x,y,z
-x,y,1/2-z
-x,-y,-z
x,-y,1/2+z
1/2+x,1/2+y,z
1/2-x,1/2+y,1/2-z
1/2-x,1/2-y,-z
1/2+x,1/2-y,1/2+z
loop_
_atom_site_type_symbol
_atom_site_label
_atom_site_fract_x
_atom_site_fract_y
_atom_site_fract_z
Si Si1 0.471264 0.581245 0.556222
Si Si2 0.301760 0.389779 0.633354
Si Si3 0.346768 0.176363 0.842413
Si Si4 0.000000 0.271650 0.750000
Si Si5 0.259844 0.805915 0.232389
Si Si6 0.724703 0.340767 0.053947
Si Si7 0.937134 0.497936 0.669002
Si Si8 0.320357 0.860875 0.580590
O O1 0.500000 0.500000 0.500000
O O2 0.420832 0.466487 0.603711
O O3 0.587371 0.648049 0.573247
O O4 0.381828 0.717847 0.548256
O O5 0.202669 0.515429 0.634157
O O6 0.304483 0.336197 0.693674
O O7 0.276924 0.240623 0.600833
O O8 0.306170 0.220193 0.787299
O O9 0.299986 0.309688 0.882960
O O10 0.486432 0.154562 0.838433
O O11 0.881027 0.173045 0.757505
O O12 0.006976 0.375261 0.697960
O O13 0.314485 0.962180 0.206100
O O14 0.784866 0.506596 0.042728
O O15 0.750000 0.250000 0.000000
O O16 0.914514 0.427657 0.614252
#
# Coordination Sequence:
#
# PCOD8153738 Si02
#       8
#     8   8   8   4   8   8   8   8
#     4  11  26  50  73 107 147 183 244 318 369 435
#     4  11  24  46  71 107 147 187 245 302 358 442
#     4  11  24  44  72 108 147 195 241 296 361 439
#     4  12  24  42  66 102 152 196 232 302 342 432
#     4  12  23  40  74 106 146 200 238 290 368 427
#     4  12  26  48  73 105 142 191 247 309 378 438
#     4  12  22  44  67 101 147 192 242 294 352 432
#     4  11  27  45  76 108 141 194 248 293 383 443
#
# _framework density 23.298518000000001
#
# number of rings (size 3 to 8) (size 9 to 14) (size 15 to 20)
#    0.000    0.533    6.667    0.800    1.867    1.067 
#    0.000    1.333    0.000    0.000    0.000    0.000 
#    0.000    0.000    0.000    0.000    0.000    0.000 
#
# Total GULP energy -372042.609499 kJ/mol
# GULP energy per Si atom -12401.420317 kJ/mol
# Density = 2.324549 g / cm^3
# Si number density = 23.298518 Si / 1000 Ang^3
#
#
#
# Elastic Constant Matrix: (Units=GPa)
#
#
# Indices 1 2 3 4 5 6 
#
# 1 143.1618 45.4409 36.1871 0.0000 -18.6902 0.0000
# 2 45.4409 115.2969 45.4532 0.0000 -7.1808 0.0000
# 3 36.1871 45.4532 98.0980 0.0000 -17.8608 0.0000
# 4 0.0000 0.0000 0.0000 37.8911 0.0000 -3.7878
# 5 -18.6902 -7.1808 -17.8608 0.0000 25.0787 0.0000
# 6 0.0000 0.0000 0.0000 -3.7878 0.0000 45.7283
#
#
#
# Elastic Compliance Matrix: (Units=1/GPa)
#
#
# Indices 1 2 3 4 5 6 
#
# 1 0.008772 -0.002727 -0.001062 0.000000 0.005000 0.000000
# 2 -0.002727 0.011466 -0.004687 0.000000 -0.002087 0.000000
# 3 -0.001062 -0.004687 0.014211 0.000000 0.007988 0.000000
# 4 0.000000 0.000000 0.000000 0.026612 0.000000 0.002204
# 5 0.005000 -0.002087 0.007988 0.000000 0.048692 0.000000
# 6 0.000000 0.000000 0.000000 0.002204 0.000000 0.022051
#
#
# Mechanical properties :
#
#
# Convention : Reuss Voigt Hill
#
# Bulk Modulus (GPa) = 57.14958 67.85770 62.50364
# Shear Modulus (GPa) = 32.34405 37.03799 34.69102
#
# Velocity S-wave (km/s) = 3.72996 3.99145 3.86292
# Velocity P-wave (km/s) = 6.56754 7.10146 6.83972
#
# Compressibility (1/GPa) = 0.01749794
#
# Stress axis : x y z
#
# Youngs Moduli (GPa) = 113.99982 87.21674 70.36574
#
# Poissons Ratio (x) = 0.23786 0.07472
# Poissons Ratio (y) = 0.31090 0.32977
# Poissons Ratio (z) = 0.12105 0.40875
#
# Static dielectric constant tensor:
#      x y z
#    x 4.506140 0.000000 -0.152950 
#    y 0.000000 4.301140 0.000000 
#    z -0.152950 0.000000 4.097680 
# 
# 
# High freq. dielectric constant tensor:
#      x y z
#    x 1.929310 0.000000 -0.009340 
#    y 0.000000 1.926100 0.000000 
#    z -0.009340 0.000000 1.912910 
# 
# From -- ./inp_files/291586.got.cif
#   From: 2010.06.25/outbox.cif.g09.slc.cpg/sg15_146_cif.got.tgz:291586.got - 2010.06.28 07:06:18.
