data_PCOD8153161
_publ_section_title
;
Structure prediction by ZEFSAII (Michael W. Deem and Ramdas Pophale) SiO2 
 PCOD8153161
Probable space group: C 2/C
;
_chemical_formula_sum "Si O2"
_cell_formula_units_Z 48
_cell_length_a 16.975532
_cell_length_b 16.879340
_cell_length_c 13.574349
_cell_angle_alpha 90.000000
_cell_angle_beta 30.853061
_cell_angle_gamma 90.000000
_cell_volume 1994.702647
_symmetry_space_group_name_H-M "C 2/C"
_symmetry_group_IT_number 15
_symmetry_cell_setting 'monoclinic'
loop_
_space_group_symop_operation_xyz
x,y,z
-x,y,1/2-z
-x,-y,-z
x,-y,1/2+z
1/2+x,1/2+y,z
1/2-x,1/2+y,1/2-z
1/2-x,1/2-y,-z
1/2+x,1/2-y,1/2+z
loop_
_atom_site_type_symbol
_atom_site_label
_atom_site_fract_x
_atom_site_fract_y
_atom_site_fract_z
Si Si1 0.963763 0.361663 0.522223
Si Si2 0.601050 0.315366 0.368742
Si Si3 0.753533 0.089378 0.620057
Si Si4 0.123986 0.628668 0.041074
Si Si5 0.850163 0.938866 0.637070
Si Si6 0.141577 0.000454 0.659510
O O1 0.977541 0.269046 0.534945
O O2 0.792537 0.384393 0.677020
O O3 0.074076 0.386662 0.313757
O O4 0.031766 0.406347 0.546019
O O5 0.653473 0.343842 0.420555
O O6 0.479916 0.379409 0.454393
O O7 0.745409 0.310007 0.137816
O O8 0.810079 0.082470 0.446205
O O9 0.785591 0.001790 0.629414
O O10 0.000000 0.667636 0.250000
O O11 0.209914 0.556501 0.002265
O O12 0.914611 0.982259 0.667657
O O13 0.000000 0.038398 0.750000
#
# Coordination Sequence:
#
# PCOD8153161 Si02
#       6
#     8   8   8   8   8   8
#     4  11  25  44  69 102 147 191 233 294 374 421
#     4  11  23  46  69 100 147 194 229 292 368 432
#     4  11  23  43  69 104 140 185 247 293 351 428
#     4  11  25  44  69 104 141 181 239 304 360 421
#     4  12  22  43  73 101 139 191 244 296 350 427
#     4  12  24  41  72 108 138 183 244 297 350 421
#
# _framework density 24.063737
#
# number of rings (size 3 to 8) (size 9 to 14) (size 15 to 20)
#    0.000    0.667    5.000    5.000    2.333    0.667 
#    0.000    7.500    0.000    0.000    0.000    0.000 
#    0.000    0.000    0.000    0.000    0.000    0.000 
#
# Total GULP energy -297544.781280 kJ/mol
# GULP energy per Si atom -12397.699220 kJ/mol
# Density = 2.400897 g / cm^3
# Si number density = 24.063737 Si / 1000 Ang^3
#
#
#
# Elastic Constant Matrix: (Units=GPa)
#
#
# Indices 1 2 3 4 5 6 
#
# 1 76.6664 16.2233 15.2841 -0.0010 -5.5520 0.0004
# 2 16.2233 92.6592 35.7211 -0.0015 -12.5823 0.0007
# 3 15.2841 35.7211 131.2063 -0.0021 -3.2379 0.0012
# 4 -0.0010 -0.0015 -0.0021 35.2224 0.0022 -8.8026
# 5 -5.5520 -12.5823 -3.2379 0.0022 50.7416 -0.0009
# 6 0.0004 0.0007 0.0012 -8.8026 -0.0009 17.3581
#
#
#
# Elastic Compliance Matrix: (Units=1/GPa)
#
#
# Indices 1 2 3 4 5 6 
#
# 1 0.013720 -0.001858 -0.001068 0.000000 0.000972 0.000000
# 2 -0.001858 0.012716 -0.003178 0.000000 0.002747 0.000000
# 3 -0.001068 -0.003178 0.008602 0.000000 -0.000356 0.000000
# 4 0.000000 0.000000 0.000000 0.032511 -0.000001 0.016487
# 5 0.000972 0.002747 -0.000356 -0.000001 0.020473 0.000000
# 6 0.000000 0.000000 0.000000 0.016487 0.000000 0.065971
#
#
# Mechanical properties :
#
#
# Convention : Reuss Voigt Hill
#
# Bulk Modulus (GPa) = 43.80268 48.33210 46.06739
# Shear Modulus (GPa) = 28.76687 36.21800 32.49243
#
# Velocity S-wave (km/s) = 3.46127 3.88375 3.67858
# Velocity P-wave (km/s) = 5.84946 6.34350 6.10148
#
# Compressibility (1/GPa) = 0.02282965
#
# Stress axis : x y z
#
# Youngs Moduli (GPa) = 72.88549 78.64356 116.24735
#
# Poissons Ratio (x) = 0.14615 0.12419
# Poissons Ratio (y) = 0.13545 0.36938
# Poissons Ratio (z) = 0.07786 0.24990
#
# Static dielectric constant tensor:
#      x y z
#    x 4.278170 0.000000 -0.101380 
#    y 0.000000 3.980920 0.000000 
#    z -0.101380 0.000000 4.822260 
# 
# 
# High freq. dielectric constant tensor:
#      x y z
#    x 1.946780 0.000000 -0.017620 
#    y 0.000000 1.921530 0.000000 
#    z -0.017620 0.000000 1.984670 
# 
# From -- ./inp_files/163200.got.cif
#   From: 2010.06.25/outbox.cif.g09.slc.cpg/sg15_82_cif.got.tgz:163200.got - 2010.06.28 07:06:18.
