data_PCOD8153644
_publ_section_title
;
Structure prediction by ZEFSAII (Michael W. Deem and Ramdas Pophale) SiO2 
 PCOD8153644
Probable space group: C 2/C
;
_chemical_formula_sum "Si O2"
_cell_formula_units_Z 60
_cell_length_a 21.596344
_cell_length_b 15.757942
_cell_length_c 11.857062
_cell_angle_alpha 90.000000
_cell_angle_beta 135.916830
_cell_angle_gamma 90.000000
_cell_volume 2807.242741
_symmetry_space_group_name_H-M "C 2/C"
_symmetry_group_IT_number 15
_symmetry_cell_setting 'monoclinic'
loop_
_space_group_symop_operation_xyz
x,y,z
-x,y,1/2-z
-x,-y,-z
x,-y,1/2+z
1/2+x,1/2+y,z
1/2-x,1/2+y,1/2-z
1/2-x,1/2-y,-z
1/2+x,1/2-y,1/2+z
loop_
_atom_site_type_symbol
_atom_site_label
_atom_site_fract_x
_atom_site_fract_y
_atom_site_fract_z
Si Si1 0.198079 0.836535 0.451601
Si Si2 0.846412 0.096341 0.376744
Si Si3 0.831003 0.427779 0.488870
Si Si4 0.302934 0.108235 0.492494
Si Si5 0.915169 0.769883 0.565737
Si Si6 0.000000 0.676368 0.250000
Si Si7 0.020953 0.193950 0.591478
Si Si8 0.726910 0.583827 0.635923
O O1 0.250000 0.750000 0.500000
O O2 0.183267 0.839129 0.565089
O O3 0.253838 0.916908 0.481415
O O4 0.105821 0.844690 0.264986
O O5 0.791539 0.120544 0.193310
O O6 0.950118 0.116434 0.483024
O O7 0.826422 0.001701 0.397366
O O8 0.852573 0.527247 0.502325
O O9 0.914555 0.381496 0.651937
O O10 0.796470 0.390142 0.324951
O O11 0.367264 0.187583 0.556034
O O12 0.286194 0.084648 0.600784
O O13 0.949918 0.758295 0.484237
O O14 0.847381 0.846525 0.479086
O O15 0.000000 0.794222 0.750000
O O16 0.980113 0.732320 0.114549
#
# Coordination Sequence:
#
# PCOD8153644 Si02
#       8
#     8   8   8   8   8   4   8   8
#     4  12  20  42  70 100 138 171 228 290 350 407
#     4  11  24  43  71 104 133 176 227 295 346 396
#     4  11  25  44  71 101 131 176 231 286 347 398
#     4  11  26  47  67  95 139 188 229 275 337 417
#     4  12  28  43  66  98 140 193 224 271 339 421
#     4  12  26  40  74 106 130 170 226 302 338 398
#     4  12  24  42  69 108 135 171 230 293 349 401
#     4  11  25  47  69  95 137 184 229 279 340 414
#
# _framework density 21.373286
#
# number of rings (size 3 to 8) (size 9 to 14) (size 15 to 20)
#    0.000    0.533    5.333    2.000    4.667    1.600 
#    0.000    1.333    0.000    0.000    0.000    0.000 
#    0.000    0.000    0.000    0.000    0.000    0.000 
#
# Total GULP energy -371928.941968 kJ/mol
# GULP energy per Si atom -12397.631399 kJ/mol
# Density = 2.132464 g / cm^3
# Si number density = 21.373286 Si / 1000 Ang^3
#
#
#
# Elastic Constant Matrix: (Units=GPa)
#
#
# Indices 1 2 3 4 5 6 
#
# 1 95.0877 22.8542 24.4344 0.0000 -5.5811 0.0000
# 2 22.8542 98.1796 21.3167 0.0000 13.8509 0.0000
# 3 24.4344 21.3167 93.4556 0.0000 -4.4339 0.0000
# 4 0.0000 0.0000 0.0000 12.0037 0.0000 0.6746
# 5 -5.5811 13.8509 -4.4339 0.0000 30.9763 0.0000
# 6 0.0000 0.0000 0.0000 0.6746 0.0000 68.8228
#
#
#
# Elastic Compliance Matrix: (Units=1/GPa)
#
#
# Indices 1 2 3 4 5 6 
#
# 1 0.011949 -0.002694 -0.002367 0.000000 0.003019 0.000000
# 2 -0.002694 0.012216 -0.002381 0.000000 -0.006289 0.000000
# 3 -0.002367 -0.002381 0.011974 0.000000 0.002352 0.000000
# 4 0.000000 0.000000 0.000000 0.083354 0.000000 -0.000817
# 5 0.003019 -0.006289 0.002352 0.000000 0.035975 0.000000
# 6 0.000000 0.000000 0.000000 -0.000817 0.000000 0.014538
#
#
# Mechanical properties :
#
#
# Convention : Reuss Voigt Hill
#
# Bulk Modulus (GPa) = 47.04148 47.10370 47.07259
# Shear Modulus (GPa) = 26.04521 36.90174 31.47347
#
# Velocity S-wave (km/s) = 3.49461 4.15967 3.84156
# Velocity P-wave (km/s) = 6.19196 6.71989 6.46132
#
# Compressibility (1/GPa) = 0.02125783
#
# Stress axis : x y z
#
# Youngs Moduli (GPa) = 83.68678 81.85667 83.51700
#
# Poissons Ratio (x) = 0.22049 0.19765
# Poissons Ratio (y) = 0.22542 0.19882
# Poissons Ratio (z) = 0.19805 0.19487
#
# Static dielectric constant tensor:
#      x y z
#    x 4.086140 0.000000 -0.153980 
#    y 0.000000 3.914960 0.000000 
#    z -0.153980 0.000000 3.979600 
# 
# 
# High freq. dielectric constant tensor:
#      x y z
#    x 1.846160 0.000000 -0.005440 
#    y 0.000000 1.841730 0.000000 
#    z -0.005440 0.000000 1.848540 
# 
# From -- ./inp_files/113839.got.cif
#   From: 2010.06.25/outbox.cif.g09.slc.cpg/sg15_57_cif.got.tgz:113839.got - 2010.06.28 07:06:18.
