data_PCOD8153842
_publ_section_title
;
Structure prediction by ZEFSAII (Michael W. Deem and Ramdas Pophale) SiO2 
 PCOD8153842
Probable space group: C 2/C
;
_chemical_formula_sum "Si O2"
_cell_formula_units_Z 36
_cell_length_a 10.963257
_cell_length_b 23.395510
_cell_length_c 5.501572
_cell_angle_alpha 90.000000
_cell_angle_beta 84.953350
_cell_angle_gamma 90.000000
_cell_volume 1405.633366
_symmetry_space_group_name_H-M "C 2/C"
_symmetry_group_IT_number 15
_symmetry_cell_setting 'monoclinic'
loop_
_space_group_symop_operation_xyz
x,y,z
-x,y,1/2-z
-x,-y,-z
x,-y,1/2+z
1/2+x,1/2+y,z
1/2-x,1/2+y,1/2-z
1/2-x,1/2-y,-z
1/2+x,1/2-y,1/2+z
loop_
_atom_site_type_symbol
_atom_site_label
_atom_site_fract_x
_atom_site_fract_y
_atom_site_fract_z
Si Si1 0.172119 0.834810 0.559851
Si Si2 0.000000 0.094909 0.750000
Si Si3 0.259779 0.533194 0.890118
Si Si4 0.369330 0.222845 0.695632
Si Si5 0.365869 0.870905 0.855314
O O1 0.250259 0.799060 0.355045
O O2 0.121374 0.791368 0.777946
O O3 0.263053 0.881427 0.665401
O O4 0.058740 0.866292 0.452137
O O5 0.100578 0.054096 0.612237
O O6 0.231481 0.496357 0.137211
O O7 0.170955 0.588831 0.911192
O O8 0.500000 0.195212 0.750000
O O9 0.356807 0.197478 0.424055
O O10 0.500000 0.888959 0.750000
#
# Coordination Sequence:
#
# PCOD8153842 Si02
#       5
#     8   4   8   8   8
#     4  11  26  45  74 115 155 204 259 314 396 484
#     4  12  26  52  82 114 162 206 262 334 404 482
#     4  12  29  52  82 116 156 210 277 343 406 466
#     4  11  24  45  74 110 157 204 260 311 392 478
#     4  12  26  49  79 108 159 207 266 331 397 475
#
# _framework density 25.611229000000002
#
# number of rings (size 3 to 8) (size 9 to 14) (size 15 to 20)
#    0.000    0.444    4.444    2.667    3.111    6.222 
#    0.000    0.000    0.000    0.000    0.000    0.000 
#    0.000    0.000    0.000    0.000    0.000    0.000 
#
# Total GULP energy -223065.212472 kJ/mol
# GULP energy per Si atom -12392.511804 kJ/mol
# Density = 2.555294 g / cm^3
# Si number density = 25.611229 Si / 1000 Ang^3
#
#
#
# Elastic Constant Matrix: (Units=GPa)
#
#
# Indices 1 2 3 4 5 6 
#
# 1 89.5546 7.9799 27.5208 0.0000 3.7345 0.0000
# 2 7.9799 84.6577 44.2910 0.0000 5.9023 0.0000
# 3 27.5208 44.2910 103.2445 0.0000 8.0462 0.0000
# 4 0.0000 0.0000 0.0000 38.4709 0.0000 -2.8960
# 5 3.7345 5.9023 8.0462 0.0000 47.3328 0.0000
# 6 0.0000 0.0000 0.0000 -2.8960 0.0000 39.5873
#
#
#
# Elastic Compliance Matrix: (Units=1/GPa)
#
#
# Indices 1 2 3 4 5 6 
#
# 1 0.012205 0.000728 -0.003530 0.000000 -0.000454 0.000000
# 2 0.000728 0.015304 -0.006695 0.000000 -0.000828 0.000000
# 3 -0.003530 -0.006695 0.013592 0.000000 -0.001197 0.000000
# 4 0.000000 0.000000 0.000000 0.026138 0.000000 0.001912
# 5 -0.000454 -0.000828 -0.001197 0.000000 0.021470 0.000000
# 6 0.000000 0.000000 0.000000 0.001912 0.000000 0.025401
#
#
# Mechanical properties :
#
#
# Convention : Reuss Voigt Hill
#
# Bulk Modulus (GPa) = 45.23417 48.56002 46.89710
# Shear Modulus (GPa) = 35.59417 38.25586 36.92501
#
# Velocity S-wave (km/s) = 3.73203 3.86905 3.80116
# Velocity P-wave (km/s) = 6.02253 6.24188 6.13319
#
# Compressibility (1/GPa) = 0.02210718
#
# Stress axis : x y z
#
# Youngs Moduli (GPa) = 81.93129 65.34267 73.57184
#
# Poissons Ratio (x) = -0.04758 0.25974
# Poissons Ratio (y) = -0.05966 0.49255
# Poissons Ratio (z) = 0.28926 0.43746
#
# Static dielectric constant tensor:
#      x y z
#    x 4.779460 0.000000 -0.160410 
#    y 0.000000 4.852760 0.000000 
#    z -0.160410 0.000000 4.565220 
# 
# 
# High freq. dielectric constant tensor:
#      x y z
#    x 2.040890 0.000000 -0.007250 
#    y 0.000000 2.020510 0.000000 
#    z -0.007250 0.000000 2.019050 
# 
# From -- ./inp_files/4257.got.cif
#   From: 2010.06.25/outbox.cif.g09.slc.cpg/sg15_3_cif.got.tgz:4257.got - 2010.06.28 07:06:18.
