data_PCOD8153497
_publ_section_title
;
Structure prediction by ZEFSAII (Michael W. Deem and Ramdas Pophale) SiO2 
 PCOD8153497
Probable space group: C 2/C
;
_chemical_formula_sum "Si O2"
_cell_formula_units_Z 32
_cell_length_a 12.197461
_cell_length_b 7.276133
_cell_length_c 14.529712
_cell_angle_alpha 90.000000
_cell_angle_beta 96.429415
_cell_angle_gamma 90.000000
_cell_volume 1281.406665
_symmetry_space_group_name_H-M "C 2/C"
_symmetry_group_IT_number 15
_symmetry_cell_setting 'monoclinic'
loop_
_space_group_symop_operation_xyz
x,y,z
-x,y,1/2-z
-x,-y,-z
x,-y,1/2+z
1/2+x,1/2+y,z
1/2-x,1/2+y,1/2-z
1/2-x,1/2-y,-z
1/2+x,1/2-y,1/2+z
loop_
_atom_site_type_symbol
_atom_site_label
_atom_site_fract_x
_atom_site_fract_y
_atom_site_fract_z
Si Si1 0.489351 0.921806 0.895552
Si Si2 0.715418 0.728994 0.893018
Si Si3 0.240620 0.693421 0.103841
Si Si4 0.607045 0.751474 0.228924
O O1 0.595678 0.815324 0.867843
O O2 0.387265 0.778966 0.882582
O O3 0.460130 0.082314 0.823325
O O4 0.500000 0.000000 0.000000
O O5 0.717928 0.513521 0.869463
O O6 0.806523 0.833841 0.837052
O O7 0.750000 0.750000 0.000000
O O8 0.320159 0.817311 0.175253
O O9 0.250000 0.750000 0.000000
O O10 0.500000 0.624568 0.250000
#
# Coordination Sequence:
#
# PCOD8153497 Si02
#       4
#     8   8   8   8
#     4  11  23  49  79 107 156 208 251 333 391 460
#     4  11  25  46  80 114 147 205 264 316 401 470
#     4  11  26  46  73 116 156 205 257 322 393 468
#     4  11  26  46  74 110 154 198 257 317 391 460
#
# _framework density 24.972557999999999
#
# number of rings (size 3 to 8) (size 9 to 14) (size 15 to 20)
#    0.000    1.000    5.000    1.500    7.000    1.000 
#    9.000    0.000    0.000    0.000    0.000    0.000 
#    0.000    0.000    0.000    0.000    0.000    0.000 
#
# Total GULP energy -198210.508755 kJ/mol
# GULP energy per Si atom -12388.156797 kJ/mol
# Density = 2.491572 g / cm^3
# Si number density = 24.972558 Si / 1000 Ang^3
#
#
#
# Elastic Constant Matrix: (Units=GPa)
#
#
# Indices 1 2 3 4 5 6 
#
# 1 324.8407 48.2318 87.8194 0.0000 -0.8489 0.0000
# 2 48.2318 57.9805 8.2402 0.0000 7.4417 0.0000
# 3 87.8194 8.2402 199.0482 0.0000 7.9890 0.0000
# 4 0.0000 0.0000 0.0000 30.8087 0.0000 13.6924
# 5 -0.8489 7.4417 7.9890 0.0000 56.3523 0.0000
# 6 0.0000 0.0000 0.0000 13.6924 0.0000 43.5558
#
#
#
# Elastic Compliance Matrix: (Units=1/GPa)
#
#
# Indices 1 2 3 4 5 6 
#
# 1 0.004003 -0.003185 -0.001663 0.000000 0.000717 0.000000
# 2 -0.003185 0.020160 0.000683 0.000000 -0.002807 0.000000
# 3 -0.001663 0.000683 0.005767 0.000000 -0.000933 0.000000
# 4 0.000000 0.000000 0.000000 0.037730 0.000000 -0.011861
# 5 0.000717 -0.002807 -0.000933 0.000000 0.018259 0.000000
# 6 0.000000 0.000000 0.000000 -0.011861 0.000000 0.026688
#
#
# Mechanical properties :
#
#
# Convention : Reuss Voigt Hill
#
# Bulk Modulus (GPa) = 46.29641 96.71691 71.50666
# Shear Modulus (GPa) = 39.02098 55.31525 47.16811
#
# Velocity S-wave (km/s) = 3.95720 4.71153 4.35075
# Velocity P-wave (km/s) = 6.28160 8.27112 7.34404
#
# Compressibility (1/GPa) = 0.02159995
#
# Stress axis : x y z
#
# Youngs Moduli (GPa) = 249.82244 49.60272 173.40839
#
# Poissons Ratio (x) = 0.15801 0.28837
# Poissons Ratio (y) = 0.79580 -0.11852
# Poissons Ratio (z) = 0.41544 -0.03390
#
# Static dielectric constant tensor:
#      x y z
#    x 8.589650 0.000000 6.486150 
#    y 0.000000 4.755830 0.000000 
#    z 6.486150 0.000000 21.004890 
# 
# 
# High freq. dielectric constant tensor:
#      x y z
#    x 2.038650 0.000000 -0.003360 
#    y 0.000000 1.945190 0.000000 
#    z -0.003360 0.000000 2.022800 
# 
# From -- ./inp_files/140824.got.cif
#   From: 2010.06.25/outbox.cif.g09.slc.cpg/sg15_71_cif.got.tgz:140824.got - 2010.06.28 07:06:18.
