data_PCOD8153780
_publ_section_title
;
Structure prediction by ZEFSAII (Michael W. Deem and Ramdas Pophale) SiO2 
 PCOD8153780
Probable space group: C 2/C
;
_chemical_formula_sum "Si O2"
_cell_formula_units_Z 48
_cell_length_a 14.845937
_cell_length_b 13.186978
_cell_length_c 12.105043
_cell_angle_alpha 90.000000
_cell_angle_beta 77.082183
_cell_angle_gamma 90.000000
_cell_volume 2309.864530
_symmetry_space_group_name_H-M "C 2/C"
_symmetry_group_IT_number 15
_symmetry_cell_setting 'monoclinic'
loop_
_space_group_symop_operation_xyz
x,y,z
-x,y,1/2-z
-x,-y,-z
x,-y,1/2+z
1/2+x,1/2+y,z
1/2-x,1/2+y,1/2-z
1/2-x,1/2-y,-z
1/2+x,1/2-y,1/2+z
loop_
_atom_site_type_symbol
_atom_site_label
_atom_site_fract_x
_atom_site_fract_y
_atom_site_fract_z
Si Si1 0.500000 0.600039 0.750000
Si Si2 0.000000 0.430779 0.750000
Si Si3 0.922392 0.763357 0.677294
Si Si4 0.665710 0.074031 0.703787
Si Si5 0.670330 0.462181 0.734513
Si Si6 0.516406 0.772427 0.918826
Si Si7 0.200046 0.346447 0.964186
O O1 0.589556 0.530870 0.706380
O O2 0.512754 0.665818 0.856853
O O3 0.914833 0.499184 0.733854
O O4 0.033668 0.359446 0.639715
O O5 0.845286 0.680032 0.728437
O O6 0.872864 0.871591 0.681141
O O7 0.000000 0.764548 0.750000
O O8 0.967200 0.736498 0.548912
O O9 0.655098 0.088946 0.575509
O O10 0.765682 0.028990 0.703443
O O11 0.727159 0.417766 0.616774
O O12 0.622493 0.806447 0.902031
O O13 0.250000 0.250000 0.000000
#
# Coordination Sequence:
#
# PCOD8153780 Si02
#       7
#     4   4   8   8   8   8   8
#     4  11  28  47  68 100 142 183 222 279 350 402
#     4  11  24  45  68 104 134 177 224 289 346 396
#     4  12  24  46  69 100 137 180 229 280 336 403
#     4  12  25  42  72 102 135 178 231 279 342 403
#     4  12  27  44  68 105 137 179 229 278 343 410
#     4  11  25  46  70  98 142 177 226 288 339 401
#     4  12  23  44  69  98 137 179 228 282 335 408
#
# _framework density 20.780439000000001
#
# number of rings (size 3 to 8) (size 9 to 14) (size 15 to 20)
#    0.000    0.333    6.667    1.000    4.667    2.000 
#    0.000    1.667    0.000    0.000    0.000    0.000 
#    0.000    0.000    0.000    0.000    0.000    0.000 
#
# Total GULP energy -297770.578006 kJ/mol
# GULP energy per Si atom -12407.107417 kJ/mol
# Density = 2.073314 g / cm^3
# Si number density = 20.780439 Si / 1000 Ang^3
#
#
#
# Elastic Constant Matrix: (Units=GPa)
#
#
# Indices 1 2 3 4 5 6 
#
# 1 130.6395 67.2134 34.9228 0.0000 2.8021 0.0000
# 2 67.2134 135.7240 39.4249 0.0000 4.3478 0.0000
# 3 34.9228 39.4249 120.5740 0.0000 -0.7028 0.0000
# 4 0.0000 0.0000 0.0000 25.0504 0.0000 -4.4813
# 5 2.8021 4.3478 -0.7028 0.0000 29.2707 0.0000
# 6 0.0000 0.0000 0.0000 -4.4813 0.0000 53.0441
#
#
#
# Elastic Compliance Matrix: (Units=1/GPa)
#
#
# Indices 1 2 3 4 5 6 
#
# 1 0.010510 -0.004761 -0.001489 0.000000 -0.000335 0.000000
# 2 -0.004761 0.010346 -0.002010 0.000000 -0.001129 0.000000
# 3 -0.001489 -0.002010 0.009386 0.000000 0.000667 0.000000
# 4 0.000000 0.000000 0.000000 0.040532 0.000000 0.003424
# 5 -0.000335 -0.001129 0.000667 0.000000 0.034380 0.000000
# 6 0.000000 0.000000 0.000000 0.003424 0.000000 0.019142
#
#
# Mechanical properties :
#
#
# Convention : Reuss Voigt Hill
#
# Bulk Modulus (GPa) = 72.88568 74.45110 73.66839
# Shear Modulus (GPa) = 34.39027 37.83146 36.11086
#
# Velocity S-wave (km/s) = 4.07250 4.27140 4.17314
# Velocity P-wave (km/s) = 7.56730 7.76091 7.66472
#
# Compressibility (1/GPa) = 0.01372012
#
# Stress axis : x y z
#
# Youngs Moduli (GPa) = 95.15149 96.65629 106.53941
#
# Poissons Ratio (x) = 0.46021 0.15865
# Poissons Ratio (y) = 0.45304 0.21419
# Poissons Ratio (z) = 0.14169 0.19432
#
# Static dielectric constant tensor:
#      x y z
#    x 3.936830 0.000000 0.145790 
#    y 0.000000 4.083610 0.000000 
#    z 0.145790 0.000000 3.920410 
# 
# 
# High freq. dielectric constant tensor:
#      x y z
#    x 1.816440 0.000000 -0.002820 
#    y 0.000000 1.834430 0.000000 
#    z -0.002820 0.000000 1.813170 
# 
# From -- ./inp_files/104221.got.cif
#   From: 2010.06.25/outbox.cif.g09.slc.cpg/sg15_53_cif.got.tgz:104221.got - 2010.06.28 07:06:18.
