data_PCOD8153790
_publ_section_title
;
Structure prediction by ZEFSAII (Michael W. Deem and Ramdas Pophale) SiO2 
 PCOD8153790
Probable space group: C 2/C
;
_chemical_formula_sum "Si O2"
_cell_formula_units_Z 36
_cell_length_a 16.260387
_cell_length_b 9.836239
_cell_length_c 9.724776
_cell_angle_alpha 90.000000
_cell_angle_beta 105.532047
_cell_angle_gamma 90.000000
_cell_volume 1498.589325
_symmetry_space_group_name_H-M "C 2/C"
_symmetry_group_IT_number 15
_symmetry_cell_setting 'monoclinic'
loop_
_space_group_symop_operation_xyz
x,y,z
-x,y,1/2-z
-x,-y,-z
x,-y,1/2+z
1/2+x,1/2+y,z
1/2-x,1/2+y,1/2-z
1/2-x,1/2-y,-z
1/2+x,1/2-y,1/2+z
loop_
_atom_site_type_symbol
_atom_site_label
_atom_site_fract_x
_atom_site_fract_y
_atom_site_fract_z
Si Si1 0.808459 0.960864 0.010440
Si Si2 0.539215 0.713279 0.996995
Si Si3 0.368755 0.641759 0.821725
Si Si4 0.000000 0.362003 0.250000
Si Si5 0.375866 0.903988 0.664018
O O1 0.870572 0.863610 0.946987
O O2 0.711053 0.914883 0.961136
O O3 0.816137 0.107127 0.937648
O O4 0.838137 0.955101 0.182230
O O5 0.497741 0.763487 0.119152
O O6 0.469356 0.614394 0.893942
O O7 0.551880 0.842373 0.902946
O O8 0.356123 0.802232 0.782821
O O9 0.913228 0.450955 0.226812
#
# Coordination Sequence:
#
# PCOD8153790 Si02
#       5
#     8   8   8   4   8
#     4  11  26  42  76  98 146 178 234 287 345 408
#     4  11  24  45  69 101 140 184 234 279 352 409
#     4  11  24  46  69 104 140 185 225 289 347 409
#     4  12  26  42  74 102 138 188 234 282 342 422
#     4  11  24  46  69 100 144 183 229 288 347 406
#
# _framework density 24.022594000000002
#
# number of rings (size 3 to 8) (size 9 to 14) (size 15 to 20)
#    0.000    0.889    2.222    6.000    9.333    0.000 
#    0.000    2.222    0.000    0.000    0.000    0.000 
#    0.000    0.000    0.000    0.000    0.000    0.000 
#
# Total GULP energy -223158.576470 kJ/mol
# GULP energy per Si atom -12397.698693 kJ/mol
# Density = 2.396792 g / cm^3
# Si number density = 24.022594 Si / 1000 Ang^3
#
#
#
# Elastic Constant Matrix: (Units=GPa)
#
#
# Indices 1 2 3 4 5 6 
#
# 1 84.2580 10.2018 39.3367 0.0000 31.1704 0.0000
# 2 10.2018 35.7994 35.2754 0.0000 6.2518 0.0000
# 3 39.3367 35.2754 121.6564 0.0000 19.1864 0.0000
# 4 0.0000 0.0000 0.0000 23.8517 0.0000 -1.7547
# 5 31.1704 6.2518 19.1864 0.0000 37.2813 0.0000
# 6 0.0000 0.0000 0.0000 -1.7547 0.0000 24.9214
#
#
#
# Elastic Compliance Matrix: (Units=1/GPa)
#
#
# Indices 1 2 3 4 5 6 
#
# 1 0.018787 0.001254 -0.004275 0.000000 -0.013718 0.000000
# 2 0.001254 0.039212 -0.011507 0.000000 -0.001702 0.000000
# 3 -0.004275 -0.011507 0.013137 0.000000 -0.001257 0.000000
# 4 0.000000 0.000000 0.000000 0.042144 0.000000 0.002967
# 5 -0.013718 -0.001702 -0.001257 0.000000 0.039225 0.000000
# 6 0.000000 0.000000 0.000000 0.002967 0.000000 0.040335
#
#
# Mechanical properties :
#
#
# Convention : Reuss Voigt Hill
#
# Bulk Modulus (GPa) = 23.76404 45.70462 34.73433
# Shear Modulus (GPa) = 21.19349 27.67087 24.43218
#
# Velocity S-wave (km/s) = 2.97346 3.39760 3.19258
# Velocity P-wave (km/s) = 4.65859 5.87014 5.29911
#
# Compressibility (1/GPa) = 0.04208039
#
# Stress axis : x y z
#
# Youngs Moduli (GPa) = 53.22829 25.50258 76.12171
#
# Poissons Ratio (x) = -0.03198 0.32541
# Poissons Ratio (y) = -0.06675 0.87592
# Poissons Ratio (z) = 0.22754 0.29345
#
# Static dielectric constant tensor:
#      x y z
#    x 4.239540 0.000000 0.170250 
#    y 0.000000 4.264200 0.000000 
#    z 0.170250 0.000000 4.365840 
# 
# 
# High freq. dielectric constant tensor:
#      x y z
#    x 1.956160 0.000000 0.016590 
#    y 0.000000 1.935610 0.000000 
#    z 0.016590 0.000000 1.955190 
# 
# From -- ./inp_files/109361.got.cif
#   From: 2010.06.25/outbox.cif.g09.slc.cpg/sg15_55_cif.got.tgz:109361.got - 2010.06.28 07:06:18.
