data_PCOD8153269
_publ_section_title
;
Structure prediction by ZEFSAII (Michael W. Deem and Ramdas Pophale) SiO2 
 PCOD8153269
Probable space group: C 2/C
;
_chemical_formula_sum "Si O2"
_cell_formula_units_Z 56
_cell_length_a 29.672776
_cell_length_b 8.516965
_cell_length_c 11.064010
_cell_angle_alpha 90.000000
_cell_angle_beta 113.413456
_cell_angle_gamma 90.000000
_cell_volume 2565.889982
_symmetry_space_group_name_H-M "C 2/C"
_symmetry_group_IT_number 15
_symmetry_cell_setting 'monoclinic'
loop_
_space_group_symop_operation_xyz
x,y,z
-x,y,1/2-z
-x,-y,-z
x,-y,1/2+z
1/2+x,1/2+y,z
1/2-x,1/2+y,1/2-z
1/2-x,1/2-y,-z
1/2+x,1/2-y,1/2+z
loop_
_atom_site_type_symbol
_atom_site_label
_atom_site_fract_x
_atom_site_fract_y
_atom_site_fract_z
Si Si1 0.630398 0.579704 0.566647
Si Si2 0.858802 0.413279 0.304781
Si Si3 0.198344 0.703529 0.300223
Si Si4 0.076755 0.702581 0.824093
Si Si5 0.545296 0.048757 0.468201
Si Si6 0.811045 0.801949 0.942059
Si Si7 0.955841 0.878048 0.939072
O O1 0.665355 0.679099 0.689589
O O2 0.592769 0.681181 0.447259
O O3 0.668982 0.480213 0.526051
O O4 0.595560 0.469692 0.610827
O O5 0.812601 0.526094 0.248481
O O6 0.872641 0.348030 0.187393
O O7 0.906210 0.504422 0.406911
O O8 0.846654 0.274656 0.382880
O O9 0.184039 0.720713 0.424152
O O10 0.255766 0.720818 0.335554
O O11 0.048051 0.547153 0.844413
O O12 0.041224 0.790329 0.688867
O O13 0.542935 0.240935 0.455146
O O14 0.500000 0.000000 0.500000
O O15 0.000000 0.000000 0.000000
#
# Coordination Sequence:
#
# PCOD8153269 Si02
#       7
#     8   8   8   8   8   8   8
#     4  12  23  45  69 104 140 185 236 299 361 421
#     4  11  23  45  68 101 139 184 233 289 357 432
#     4  11  25  42  71  95 140 186 237 296 353 424
#     4  11  24  46  72 103 147 184 234 293 359 436
#     4  11  23  44  71 101 140 181 231 280 351 429
#     4  11  24  45  64 104 136 184 242 292 354 420
#     4  11  26  46  72 107 146 185 239 294 358 425
#
# _framework density 21.824787000000001
#
# number of rings (size 3 to 8) (size 9 to 14) (size 15 to 20)
#    0.000    0.857    4.286    3.429    0.000    5.143 
#    0.000    4.286    0.000    0.000    0.000    0.000 
#    0.000    0.000    0.000    0.000    0.000    0.000 
#
# Total GULP energy -347082.518173 kJ/mol
# GULP energy per Si atom -12395.804220 kJ/mol
# Density = 2.177511 g / cm^3
# Si number density = 21.824787 Si / 1000 Ang^3
#
#
#
# Elastic Constant Matrix: (Units=GPa)
#
#
# Indices 1 2 3 4 5 6 
#
# 1 108.8223 48.8752 46.2291 0.0000 -5.7423 0.0000
# 2 48.8752 134.0822 54.3228 0.0000 6.7247 0.0000
# 3 46.2291 54.3228 94.0010 0.0000 6.4373 0.0000
# 4 0.0000 0.0000 0.0000 39.4743 0.0000 1.5512
# 5 -5.7423 6.7247 6.4373 0.0000 35.9732 0.0000
# 6 0.0000 0.0000 0.0000 1.5512 0.0000 28.9416
#
#
#
# Elastic Compliance Matrix: (Units=1/GPa)
#
#
# Indices 1 2 3 4 5 6 
#
# 1 0.012702 -0.002841 -0.004839 0.000000 0.003425 0.000000
# 2 -0.002841 0.010398 -0.004503 0.000000 -0.001592 0.000000
# 3 -0.004839 -0.004503 0.015809 0.000000 -0.002760 0.000000
# 4 0.000000 0.000000 0.000000 0.025386 0.000000 -0.001361
# 5 0.003425 -0.001592 -0.002760 0.000000 0.029136 0.000000
# 6 0.000000 0.000000 0.000000 -0.001361 0.000000 0.034625
#
#
# Mechanical properties :
#
#
# Convention : Reuss Voigt Hill
#
# Bulk Modulus (GPa) = 68.76323 70.63996 69.70159
# Shear Modulus (GPa) = 31.79233 33.37639 32.58436
#
# Velocity S-wave (km/s) = 3.82082 3.91485 3.86812
# Velocity P-wave (km/s) = 7.14425 7.27131 7.20806
#
# Compressibility (1/GPa) = 0.01454266
#
# Stress axis : x y z
#
# Youngs Moduli (GPa) = 78.72857 96.17432 63.25448
#
# Poissons Ratio (x) = 0.27325 0.30611
# Poissons Ratio (y) = 0.22368 0.28481
# Poissons Ratio (z) = 0.38099 0.43303
#
# Static dielectric constant tensor:
#      x y z
#    x 4.028370 0.000000 0.041800 
#    y 0.000000 4.586120 0.000000 
#    z 0.041800 0.000000 3.921840 
# 
# 
# High freq. dielectric constant tensor:
#      x y z
#    x 1.872770 0.000000 0.005330 
#    y 0.000000 1.869930 0.000000 
#    z 0.005330 0.000000 1.847350 
# 
# From -- ./inp_files/125633.got.cif
#   From: 2010.06.25/outbox.cif.g09.slc.cpg/sg15_63_cif.got.tgz:125633.got - 2010.06.28 07:06:18.
