data_PCOD8153555
_publ_section_title
;
Structure prediction by ZEFSAII (Michael W. Deem and Ramdas Pophale) SiO2 
 PCOD8153555
Probable space group: C 2/C
;
_chemical_formula_sum "Si O2"
_cell_formula_units_Z 36
_cell_length_a 15.950080
_cell_length_b 14.220762
_cell_length_c 12.230444
_cell_angle_alpha 90.000000
_cell_angle_beta 31.211804
_cell_angle_gamma 90.000000
_cell_volume 1437.566898
_symmetry_space_group_name_H-M "C 2/C"
_symmetry_group_IT_number 15
_symmetry_cell_setting 'monoclinic'
loop_
_space_group_symop_operation_xyz
x,y,z
-x,y,1/2-z
-x,-y,-z
x,-y,1/2+z
1/2+x,1/2+y,z
1/2-x,1/2+y,1/2-z
1/2-x,1/2-y,-z
1/2+x,1/2-y,1/2+z
loop_
_atom_site_type_symbol
_atom_site_label
_atom_site_fract_x
_atom_site_fract_y
_atom_site_fract_z
Si Si1 0.500000 0.409828 0.750000
Si Si2 0.937990 0.662357 0.610774
Si Si3 0.246033 0.156546 0.136653
Si Si4 0.360057 0.168764 0.324940
Si Si5 0.786090 0.987513 0.639240
O O1 0.336912 0.354393 0.891644
O O2 0.548782 0.464090 0.585059
O O3 0.056970 0.653971 0.584698
O O4 0.060283 0.697234 0.379196
O O5 0.144326 0.437555 0.324093
O O6 0.801223 0.740032 0.770810
O O7 0.181392 0.075862 0.291168
O O8 0.500000 0.139558 0.250000
O O9 0.250000 0.250000 0.500000
O O10 0.256330 0.075387 0.419829
#
# Coordination Sequence:
#
# PCOD8153555 Si02
#       5
#     4   8   8   8   8
#     4  12  28  42  74 102 142 200 248 300 356 454
#     4  11  25  47  73 103 152 188 234 316 363 430
#     4  11  25  47  70 102 145 187 247 296 369 431
#     4  11  24  41  72 106 141 189 241 294 365 432
#     4  11  27  45  71 108 148 188 244 310 365 430
#
# _framework density 25.042313
#
# number of rings (size 3 to 8) (size 9 to 14) (size 15 to 20)
#    0.000    0.889    0.000    7.333   10.889    3.556 
#    0.000    0.000    0.000    0.000    0.000    0.000 
#    0.000    0.000    0.000    0.000    0.000    0.000 
#
# Total GULP energy -223063.145989 kJ/mol
# GULP energy per Si atom -12392.396999 kJ/mol
# Density = 2.498532 g / cm^3
# Si number density = 25.042313 Si / 1000 Ang^3
#
#
#
# Elastic Constant Matrix: (Units=GPa)
#
#
# Indices 1 2 3 4 5 6 
#
# 1 145.6935 38.6647 14.8159 0.0001 -28.5023 -0.0001
# 2 38.6647 137.6485 33.6681 0.0001 0.6013 0.0000
# 3 14.8159 33.6681 69.5892 0.0004 5.8951 -0.0001
# 4 0.0001 0.0001 0.0004 36.8424 -0.0001 3.5761
# 5 -28.5023 0.6013 5.8951 -0.0001 44.8335 0.0000
# 6 -0.0001 0.0000 -0.0001 3.5761 0.0000 30.4409
#
#
#
# Elastic Compliance Matrix: (Units=1/GPa)
#
#
# Indices 1 2 3 4 5 6 
#
# 1 0.008684 -0.002148 -0.001294 0.000000 0.005720 0.000000
# 2 -0.002148 0.008779 -0.003706 0.000000 -0.000996 0.000000
# 3 -0.001294 -0.003706 0.016690 0.000000 -0.002968 0.000000
# 4 0.000000 0.000000 0.000000 0.027456 0.000000 -0.003225
# 5 0.005720 -0.000996 -0.002968 0.000000 0.026345 0.000000
# 6 0.000000 0.000000 0.000000 -0.003225 0.000000 0.033229
#
#
# Mechanical properties :
#
#
# Convention : Reuss Voigt Hill
#
# Bulk Modulus (GPa) = 50.35897 58.58096 54.46996
# Shear Modulus (GPa) = 35.18699 40.14218 37.66459
#
# Velocity S-wave (km/s) = 3.75253 4.00806 3.88240
# Velocity P-wave (km/s) = 6.23928 6.69798 6.47269
#
# Compressibility (1/GPa) = 0.01985744
#
# Stress axis : x y z
#
# Youngs Moduli (GPa) = 115.14973 113.90915 59.91646
#
# Poissons Ratio (x) = 0.24465 0.07755
# Poissons Ratio (y) = 0.24732 0.22203
# Poissons Ratio (z) = 0.14905 0.42212
#
# Static dielectric constant tensor:
#      x y z
#    x 5.032740 0.000000 -0.114220 
#    y 0.000000 4.452880 0.000000 
#    z -0.114220 0.000000 4.756790 
# 
# 
# High freq. dielectric constant tensor:
#      x y z
#    x 2.011820 0.000000 -0.012830 
#    y 0.000000 1.999880 0.000000 
#    z -0.012830 0.000000 2.002500 
# 
# From -- ./inp_files/46613.got.cif
#   From: 2010.06.25/outbox.cif.g09.slc.cpg/sg15_24_cif.got.tgz:46613.got - 2010.06.28 07:06:18.
