data_PCOD8153065
_publ_section_title
;
Structure prediction by ZEFSAII (Michael W. Deem and Ramdas Pophale) SiO2 
 PCOD8153065
Probable space group: C 2/C
;
_chemical_formula_sum "Si O2"
_cell_formula_units_Z 48
_cell_length_a 9.453314
_cell_length_b 27.774566
_cell_length_c 17.031519
_cell_angle_alpha 90.000000
_cell_angle_beta 28.634042
_cell_angle_gamma 90.000000
_cell_volume 2142.958311
_symmetry_space_group_name_H-M "C 2/C"
_symmetry_group_IT_number 15
_symmetry_cell_setting 'monoclinic'
loop_
_space_group_symop_operation_xyz
x,y,z
-x,y,1/2-z
-x,-y,-z
x,-y,1/2+z
1/2+x,1/2+y,z
1/2-x,1/2+y,1/2-z
1/2-x,1/2-y,-z
1/2+x,1/2-y,1/2+z
loop_
_atom_site_type_symbol
_atom_site_label
_atom_site_fract_x
_atom_site_fract_y
_atom_site_fract_z
Si Si1 0.692791 0.959388 0.943663
Si Si2 0.649204 0.143753 0.414330
Si Si3 0.251086 0.016166 0.432768
Si Si4 0.803699 0.267623 0.148841
Si Si5 0.320142 0.877397 0.918133
Si Si6 0.815556 0.803993 0.128486
O O1 0.558089 0.906378 0.000360
O O2 0.000000 0.959850 0.750000
O O3 0.500000 0.000000 0.000000
O O4 0.714818 0.972186 0.023995
O O5 0.467982 0.182904 0.550238
O O6 0.540925 0.143189 0.376837
O O7 0.000000 0.153713 0.250000
O O8 0.500000 0.023186 0.250000
O O9 0.217689 0.068253 0.490908
O O10 0.000000 0.000000 0.500000
O O11 0.500000 0.262251 0.250000
O O12 0.735005 0.266302 0.275319
O O13 0.016421 0.223359 0.023671
O O14 0.500000 0.873931 0.750000
O O15 0.016219 0.847694 0.061492
O O16 0.500000 0.823060 0.250000
#
# Coordination Sequence:
#
# PCOD8153065 Si02
#       6
#     8   8   8   8   8   8
#     4  11  23  42  69  97 134 184 232 285 348 403
#     4  11  26  45  72 101 142 188 239 289 349 420
#     4  11  25  44  67 102 141 182 232 291 351 416
#     4  12  26  48  73 107 141 184 236 290 352 422
#     4  11  26  46  71 102 144 188 235 290 356 416
#     4  12  28  47  75 105 144 185 233 291 356 421
#
# _framework density 22.398942000000002
#
# number of rings (size 3 to 8) (size 9 to 14) (size 15 to 20)
#    0.000    0.667    3.333    3.000   11.667    4.000 
#    0.000    0.000    0.000    0.000    0.000    0.000 
#    0.000    0.000    0.000    0.000    0.000    0.000 
#
# Total GULP energy -297579.457700 kJ/mol
# GULP energy per Si atom -12399.144071 kJ/mol
# Density = 2.234796 g / cm^3
# Si number density = 22.398942 Si / 1000 Ang^3
#
#
#
# Elastic Constant Matrix: (Units=GPa)
#
#
# Indices 1 2 3 4 5 6 
#
# 1 135.2947 9.0680 33.2748 0.0000 -18.6661 -0.0001
# 2 9.0680 87.6934 43.1742 -0.0001 -8.6883 0.0000
# 3 33.2748 43.1742 89.0402 -0.0010 -23.0101 -0.0002
# 4 0.0000 -0.0001 -0.0010 36.4439 -0.0001 -1.5558
# 5 -18.6661 -8.6883 -23.0101 -0.0001 52.9395 0.0002
# 6 -0.0001 0.0000 -0.0002 -1.5558 0.0002 35.2586
#
#
#
# Elastic Compliance Matrix: (Units=1/GPa)
#
#
# Indices 1 2 3 4 5 6 
#
# 1 0.008329 0.000817 -0.003059 0.000000 0.001741 0.000000
# 2 0.000817 0.015089 -0.007781 0.000000 -0.000618 0.000000
# 3 -0.003059 -0.007781 0.017504 0.000000 0.005253 0.000000
# 4 0.000000 0.000000 0.000000 0.027491 0.000000 0.001213
# 5 0.001741 -0.000618 0.005253 0.000000 0.021685 0.000000
# 6 0.000000 0.000000 0.000000 0.001213 0.000000 0.028415
#
#
# Mechanical properties :
#
#
# Convention : Reuss Voigt Hill
#
# Bulk Modulus (GPa) = 47.90118 53.67360 50.78739
# Shear Modulus (GPa) = 34.35991 40.02916 37.19453
#
# Velocity S-wave (km/s) = 3.92088 4.23200 4.07940
# Velocity P-wave (km/s) = 6.47531 6.92057 6.70164
#
# Compressibility (1/GPa) = 0.02087631
#
# Stress axis : x y z
#
# Youngs Moduli (GPa) = 120.06173 66.27511 57.12840
#
# Poissons Ratio (x) = -0.05416 0.17475
# Poissons Ratio (y) = -0.09812 0.44453
# Poissons Ratio (z) = 0.36725 0.51570
#
# Static dielectric constant tensor:
#      x y z
#    x 4.302900 0.000000 -0.017780 
#    y 0.000000 4.116270 0.000000 
#    z -0.017780 0.000000 4.119640 
# 
# 
# High freq. dielectric constant tensor:
#      x y z
#    x 1.898480 0.000000 -0.005670 
#    y 0.000000 1.891630 0.000000 
#    z -0.005670 0.000000 1.890020 
# 
# From -- ./inp_files/194158.got.cif
#   From: 2010.06.25/outbox.cif.g09.slc.cpg/sg15_98_cif.got.tgz:194158.got - 2010.06.28 07:06:18.
