data_PCOD8153627
_publ_section_title
;
Structure prediction by ZEFSAII (Michael W. Deem and Ramdas Pophale) SiO2 
 PCOD8153627
Probable space group: C 2/C
;
_chemical_formula_sum "Si O2"
_cell_formula_units_Z 40
_cell_length_a 26.108829
_cell_length_b 6.471528
_cell_length_c 19.199289
_cell_angle_alpha 90.000000
_cell_angle_beta 31.160214
_cell_angle_gamma 90.000000
_cell_volume 1678.546714
_symmetry_space_group_name_H-M "C 2/C"
_symmetry_group_IT_number 15
_symmetry_cell_setting 'monoclinic'
loop_
_space_group_symop_operation_xyz
x,y,z
-x,y,1/2-z
-x,-y,-z
x,-y,1/2+z
1/2+x,1/2+y,z
1/2-x,1/2+y,1/2-z
1/2-x,1/2-y,-z
1/2+x,1/2-y,1/2+z
loop_
_atom_site_type_symbol
_atom_site_label
_atom_site_fract_x
_atom_site_fract_y
_atom_site_fract_z
Si Si1 0.986226 0.623566 0.424112
Si Si2 0.834434 0.939661 0.566595
Si Si3 0.082447 0.703272 0.711325
Si Si4 0.864832 0.296969 0.639067
Si Si5 0.723144 0.516031 0.520913
O O1 0.043849 0.436503 0.318932
O O2 0.065134 0.758203 0.376552
O O3 0.926718 0.783777 0.444259
O O4 0.902938 0.520197 0.569442
O O5 0.748318 0.814811 0.705799
O O6 0.797175 0.029862 0.537007
O O7 0.874526 0.126383 0.567520
O O8 0.179736 0.600474 0.564071
O O9 0.000000 0.728831 0.750000
O O10 0.126562 0.934873 0.677929
O O11 0.750000 0.750000 0.500000
#
# Coordination Sequence:
#
# PCOD8153627 Si02
#       5
#     8   8   8   8   8
#     4  11  24  45  71 104 146 190 243 305 370 444
#     4  12  23  46  72 105 147 191 247 306 367 445
#     4  11  24  46  70 106 144 190 246 301 365 437
#     4  11  24  43  68 107 141 189 246 300 373 436
#     4  11  26  46  71 105 142 197 246 303 365 437
#
# _framework density 23.830138000000002
#
# number of rings (size 3 to 8) (size 9 to 14) (size 15 to 20)
#    0.000    0.800    4.000    3.000    0.000    5.600 
#    7.200    0.000    0.000    0.000    0.000    0.000 
#    0.000    0.000    0.000    0.000    0.000    0.000 
#
# Total GULP energy -247855.310607 kJ/mol
# GULP energy per Si atom -12392.765530 kJ/mol
# Density = 2.377590 g / cm^3
# Si number density = 23.830138 Si / 1000 Ang^3
#
#
#
# Elastic Constant Matrix: (Units=GPa)
#
#
# Indices 1 2 3 4 5 6 
#
# 1 102.1662 62.9254 49.2665 -0.0090 -30.2964 0.0006
# 2 62.9254 125.5068 51.2470 -0.0701 -20.2219 0.0023
# 3 49.2665 51.2470 108.4071 -0.0154 -24.6439 0.0062
# 4 -0.0090 -0.0701 -0.0154 55.2333 0.0100 0.8695
# 5 -30.2964 -20.2219 -24.6439 0.0100 41.1183 -0.0037
# 6 0.0006 0.0023 0.0062 0.8695 -0.0037 33.2118
#
#
#
# Elastic Compliance Matrix: (Units=1/GPa)
#
#
# Indices 1 2 3 4 5 6 
#
# 1 0.017500 -0.006178 -0.003232 -0.000007 0.007919 0.000002
# 2 -0.006178 0.012261 -0.003071 0.000014 -0.000363 -0.000001
# 3 -0.003232 -0.003071 0.013036 -0.000001 0.003922 -0.000002
# 4 -0.000007 0.000014 -0.000001 0.018113 -0.000004 -0.000474
# 5 0.007919 -0.000363 0.003922 -0.000004 0.032326 0.000003
# 6 0.000002 -0.000001 -0.000002 -0.000474 0.000003 0.030122
#
#
# Mechanical properties :
#
#
# Convention : Reuss Voigt Hill
#
# Bulk Modulus (GPa) = 56.07051 73.66200 64.86626
# Shear Modulus (GPa) = 32.41153 37.42209 34.91681
#
# Velocity S-wave (km/s) = 3.69196 3.96709 3.83199
# Velocity P-wave (km/s) = 6.46177 7.20847 6.84531
#
# Compressibility (1/GPa) = 0.01783469
#
# Stress axis : x y z
#
# Youngs Moduli (GPa) = 57.14229 81.56139 76.70774
#
# Poissons Ratio (x) = 0.50392 0.24794
# Poissons Ratio (y) = 0.35305 0.23554
# Poissons Ratio (z) = 0.18470 0.25045
#
# Static dielectric constant tensor:
#      x y z
#    x 4.437180 0.000050 -0.280440 
#    y 0.000050 4.653900 0.000130 
#    z -0.280440 0.000130 4.586370 
# 
# 
# High freq. dielectric constant tensor:
#      x y z
#    x 1.942190 0.000000 -0.029480 
#    y 0.000000 1.950530 0.000010 
#    z -0.029480 0.000010 1.953250 
# 
# From -- ./inp_files/284046.got.cif
#   From: 2010.06.25/outbox.cif.g09.slc.cpg/sg15_143_cif.got.tgz:284046.got - 2010.06.28 07:06:18.
