data_PCOD8153153
_publ_section_title
;
Structure prediction by ZEFSAII (Michael W. Deem and Ramdas Pophale) SiO2 
 PCOD8153153
Probable space group: C 2/C
;
_chemical_formula_sum "Si O2"
_cell_formula_units_Z 32
_cell_length_a 24.961118
_cell_length_b 8.558696
_cell_length_c 9.098001
_cell_angle_alpha 90.000000
_cell_angle_beta 140.156116
_cell_angle_gamma 90.000000
_cell_volume 1245.291296
_symmetry_space_group_name_H-M "C 2/C"
_symmetry_group_IT_number 15
_symmetry_cell_setting 'monoclinic'
loop_
_space_group_symop_operation_xyz
x,y,z
-x,y,1/2-z
-x,-y,-z
x,-y,1/2+z
1/2+x,1/2+y,z
1/2-x,1/2+y,1/2-z
1/2-x,1/2-y,-z
1/2+x,1/2-y,1/2+z
loop_
_atom_site_type_symbol
_atom_site_label
_atom_site_fract_x
_atom_site_fract_y
_atom_site_fract_z
Si Si1 0.399096 0.815389 0.834699
Si Si2 0.639017 0.484800 0.078655
Si Si3 0.415957 0.295098 0.797013
Si Si4 0.328796 0.971322 0.957935
O O1 0.355936 0.653812 0.790744
O O2 0.381067 0.948480 0.918593
O O3 0.359709 0.867774 0.597154
O O4 0.498109 0.798931 0.027348
O O5 0.600280 0.637094 0.075239
O O6 0.731377 0.520309 0.214260
O O7 0.581256 0.436362 0.817877
O O8 0.342738 0.175804 0.596729
#
# Coordination Sequence:
#
# PCOD8153153 Si02
#       4
#     8   8   8   8
#     4  11  25  45  67  99 134 174 223 272 329 396
#     4  11  23  43  68  99 133 172 220 274 329 394
#     4  11  25  45  67  99 134 174 223 272 329 396
#     4  11  23  43  68  99 133 172 220 274 329 394
#
# _framework density 25.696801000000001
#
# number of rings (size 3 to 8) (size 9 to 14) (size 15 to 20)
#    0.000    1.000    0.000    7.500    0.000    6.000 
#    0.000    5.000    0.000    0.000    0.000    0.000 
#    0.000    0.000    0.000    0.000    0.000    0.000 
#
# Total GULP energy -198520.400616 kJ/mol
# GULP energy per Si atom -12407.525039 kJ/mol
# Density = 2.563831 g / cm^3
# Si number density = 25.696801 Si / 1000 Ang^3
#
#
#
# Elastic Constant Matrix: (Units=GPa)
#
#
# Indices 1 2 3 4 5 6 
#
# 1 113.8812 31.0086 62.7555 0.0000 17.1972 0.0000
# 2 31.0086 34.2314 15.9294 0.0000 2.8850 0.0000
# 3 62.7555 15.9294 67.8151 0.0000 12.4908 0.0000
# 4 0.0000 0.0000 0.0000 53.8170 0.0000 -4.8410
# 5 17.1972 2.8850 12.4908 0.0000 36.2278 0.0000
# 6 0.0000 0.0000 0.0000 -4.8410 0.0000 59.0774
#
#
#
# Elastic Compliance Matrix: (Units=1/GPa)
#
#
# Indices 1 2 3 4 5 6 
#
# 1 0.021653 -0.011559 -0.016657 0.000000 -0.003615 0.000000
# 2 -0.011559 0.038968 0.001179 0.000000 0.001977 0.000000
# 3 -0.016657 0.001179 0.030373 0.000000 -0.002659 0.000000
# 4 0.000000 0.000000 0.000000 0.018719 0.000000 0.001534
# 5 -0.003615 0.001977 -0.002659 0.000000 0.030079 0.000000
# 6 0.000000 0.000000 0.000000 0.001534 0.000000 0.017053
#
#
# Mechanical properties :
#
#
# Convention : Reuss Voigt Hill
#
# Bulk Modulus (GPa) = 27.08495 48.36829 37.72662
# Shear Modulus (GPa) = 22.39889 36.90672 29.65281
#
# Velocity S-wave (km/s) = 2.95559 3.79388 3.40067
# Velocity P-wave (km/s) = 4.71280 6.16887 5.48933
#
# Compressibility (1/GPa) = 0.03692087
#
# Stress axis : x y z
#
# Youngs Moduli (GPa) = 46.18255 25.66190 32.92416
#
# Poissons Ratio (x) = 0.29662 0.54841
# Poissons Ratio (y) = 0.53381 -0.03881
# Poissons Ratio (z) = 0.76925 -0.03025
#
# Static dielectric constant tensor:
#      x y z
#    x 4.635030 0.000000 -0.090290 
#    y 0.000000 4.787220 0.000000 
#    z -0.090290 0.000000 4.353420 
# 
# 
# High freq. dielectric constant tensor:
#      x y z
#    x 2.031830 0.000000 -0.000500 
#    y 0.000000 2.034950 0.000000 
#    z -0.000500 0.000000 2.020190 
# 
# From -- ./inp_files/126031.got.cif
#   From: 2010.06.25/outbox.cif.g09.slc.cpg/sg15_64_cif.got.tgz:126031.got - 2010.06.28 07:06:18.
