data_PCOD8153653
_publ_section_title
;
Structure prediction by ZEFSAII (Michael W. Deem and Ramdas Pophale) SiO2 
 PCOD8153653
Probable space group: C 2/C
;
_chemical_formula_sum "Si O2"
_cell_formula_units_Z 48
_cell_length_a 26.390668
_cell_length_b 8.311940
_cell_length_c 14.705345
_cell_angle_alpha 90.000000
_cell_angle_beta 42.566201
_cell_angle_gamma 90.000000
_cell_volume 2182.017981
_symmetry_space_group_name_H-M "C 2/C"
_symmetry_group_IT_number 15
_symmetry_cell_setting 'monoclinic'
loop_
_space_group_symop_operation_xyz
x,y,z
-x,y,1/2-z
-x,-y,-z
x,-y,1/2+z
1/2+x,1/2+y,z
1/2-x,1/2+y,1/2-z
1/2-x,1/2-y,-z
1/2+x,1/2-y,1/2+z
loop_
_atom_site_type_symbol
_atom_site_label
_atom_site_fract_x
_atom_site_fract_y
_atom_site_fract_z
Si Si1 0.468048 0.826843 0.065879
Si Si2 0.763181 0.680246 0.384040
Si Si3 0.602250 0.604906 0.837036
Si Si4 0.069946 0.863663 0.717909
Si Si5 0.774187 0.821403 0.061769
Si Si6 0.330828 0.310686 0.658845
O O1 0.447855 0.798254 0.199340
O O2 0.393430 0.817379 0.104228
O O3 0.521939 0.677146 0.969616
O O4 0.500000 0.000000 0.000000
O O5 0.750000 0.750000 0.500000
O O6 0.841984 0.745958 0.244882
O O7 0.768912 0.489507 0.373167
O O8 0.692504 0.726998 0.413597
O O9 0.595660 0.506059 0.751653
O O10 0.635739 0.490354 0.872067
O O11 0.135728 0.831985 0.557821
O O12 0.000000 0.918802 0.750000
O O13 0.744794 0.705906 0.180684
O O14 0.750000 0.750000 0.000000
#
# Coordination Sequence:
#
# PCOD8153653 Si02
#       6
#     8   8   8   8   8   8
#     4  11  25  46  68 101 139 180 226 279 343 408
#     4  12  25  42  68 105 132 180 232 281 337 402
#     4  11  24  43  72  98 139 182 227 280 342 408
#     4  11  25  44  71 101 137 184 223 280 344 408
#     4  12  23  45  70  98 143 176 230 281 340 406
#     4  11  24  45  69 100 138 183 226 284 339 404
#
# _framework density 21.997985
#
# number of rings (size 3 to 8) (size 9 to 14) (size 15 to 20)
#    0.000    0.667    5.000    4.000    7.000    0.000 
#    3.000    0.833    0.000    0.000    0.000    0.000 
#    0.000    0.000    0.000    0.000    0.000    0.000 
#
# Total GULP energy -297607.175828 kJ/mol
# GULP energy per Si atom -12400.298993 kJ/mol
# Density = 2.194792 g / cm^3
# Si number density = 21.997985 Si / 1000 Ang^3
#
#
#
# Elastic Constant Matrix: (Units=GPa)
#
#
# Indices 1 2 3 4 5 6 
#
# 1 164.1853 24.6988 50.1803 0.0000 0.2039 0.0000
# 2 24.6988 104.0654 42.7282 -0.0021 -3.4223 0.0007
# 3 50.1803 42.7282 116.8605 -0.0009 -16.4778 0.0003
# 4 0.0000 -0.0021 -0.0009 44.1258 0.0003 -7.0858
# 5 0.2039 -3.4223 -16.4778 0.0003 37.8097 -0.0001
# 6 0.0000 0.0007 0.0003 -7.0858 -0.0001 22.0534
#
#
#
# Elastic Compliance Matrix: (Units=1/GPa)
#
#
# Indices 1 2 3 4 5 6 
#
# 1 0.007104 -0.000468 -0.003080 0.000000 -0.001423 0.000000
# 2 -0.000468 0.011362 -0.004057 0.000000 -0.000737 0.000000
# 3 -0.003080 -0.004057 0.012055 0.000000 0.004903 0.000000
# 4 0.000000 0.000000 0.000000 0.023895 0.000000 0.007678
# 5 -0.001423 -0.000737 0.004903 0.000000 0.028526 0.000000
# 6 0.000000 0.000000 0.000000 0.007678 0.000000 0.047811
#
#
# Mechanical properties :
#
#
# Convention : Reuss Voigt Hill
#
# Bulk Modulus (GPa) = 65.31750 68.92508 67.12129
# Shear Modulus (GPa) = 33.09771 38.63137 35.86454
#
# Velocity S-wave (km/s) = 3.88310 4.19517 4.04215
# Velocity P-wave (km/s) = 7.06127 7.40719 7.23630
#
# Compressibility (1/GPa) = 0.01530983
#
# Stress axis : x y z
#
# Youngs Moduli (GPa) = 140.76090 88.01191 82.95618
#
# Poissons Ratio (x) = 0.04122 0.25551
# Poissons Ratio (y) = 0.06592 0.33657
# Poissons Ratio (z) = 0.43355 0.35708
#
# Static dielectric constant tensor:
#      x y z
#    x 4.070120 0.000000 -0.190690 
#    y 0.000000 4.033330 0.000020 
#    z -0.190690 0.000020 1.507700 
# 
# 
# High freq. dielectric constant tensor:
#      x y z
#    x 1.873370 0.000000 -0.010500 
#    y 0.000000 1.858750 0.000000 
#    z -0.010500 0.000000 1.876730 
# 
# From -- ./inp_files/176908.got.cif
#   From: 2010.06.25/outbox.cif.g09.slc.cpg/sg15_89_cif.got.tgz:176908.got - 2010.06.28 07:06:18.
