data_PCOD8153703
_publ_section_title
;
Structure prediction by ZEFSAII (Michael W. Deem and Ramdas Pophale) SiO2 
 PCOD8153703
Probable space group: C 2/C
;
_chemical_formula_sum "Si O2"
_cell_formula_units_Z 48
_cell_length_a 20.675549
_cell_length_b 11.959863
_cell_length_c 14.174864
_cell_angle_alpha 90.000000
_cell_angle_beta 37.885509
_cell_angle_gamma 90.000000
_cell_volume 2152.440106
_symmetry_space_group_name_H-M "C 2/C"
_symmetry_group_IT_number 15
_symmetry_cell_setting 'monoclinic'
loop_
_space_group_symop_operation_xyz
x,y,z
-x,y,1/2-z
-x,-y,-z
x,-y,1/2+z
1/2+x,1/2+y,z
1/2-x,1/2+y,1/2-z
1/2-x,1/2-y,-z
1/2+x,1/2-y,1/2+z
loop_
_atom_site_type_symbol
_atom_site_label
_atom_site_fract_x
_atom_site_fract_y
_atom_site_fract_z
Si Si1 0.913122 0.276195 0.112251
Si Si2 0.397485 0.200586 0.410039
Si Si3 0.799426 0.085691 0.952130
Si Si4 0.582739 0.767853 0.066564
Si Si5 0.218289 0.928081 0.682175
Si Si6 0.269058 0.432502 0.149903
O O1 0.869770 0.152315 0.175674
O O2 0.835554 0.363340 0.250815
O O3 0.024569 0.293032 0.034781
O O4 0.920154 0.294363 0.993725
O O5 0.500000 0.140117 0.250000
O O6 0.295115 0.130643 0.503888
O O7 0.387759 0.321254 0.368948
O O8 0.837245 0.979172 0.847788
O O9 0.761720 0.045508 0.097777
O O10 0.500000 0.770514 0.250000
O O11 0.673200 0.863321 0.970930
O O12 0.632387 0.644394 0.995750
O O13 0.232146 0.029573 0.740011
#
# Coordination Sequence:
#
# PCOD8153703 Si02
#       6
#     8   8   8   8   8   8
#     4  11  24  45  69  99 132 172 226 278 328 400
#     4  11  26  40  66  99 133 172 218 280 327 390
#     4  11  24  45  66  92 136 171 222 269 342 390
#     4  11  26  44  69 101 137 175 228 278 332 401
#     4  11  24  44  69  97 132 179 220 274 339 393
#     4  11  24  44  69  97 132 179 220 274 339 393
#
# _framework density 22.300270999999999
#
# number of rings (size 3 to 8) (size 9 to 14) (size 15 to 20)
#    0.000    1.000    3.333    2.000    4.667    8.000 
#    0.000    0.000    0.000    0.000    0.000    0.000 
#    0.000    0.000    0.000    0.000    0.000    0.000 
#
# Total GULP energy -297502.840176 kJ/mol
# GULP energy per Si atom -12395.951674 kJ/mol
# Density = 2.224951 g / cm^3
# Si number density = 22.300271 Si / 1000 Ang^3
#
#
#
# Elastic Constant Matrix: (Units=GPa)
#
#
# Indices 1 2 3 4 5 6 
#
# 1 97.9978 -8.4695 13.8630 0.0000 15.4862 0.0000
# 2 -8.4695 52.6725 4.9455 0.0000 8.9278 0.0000
# 3 13.8630 4.9455 92.3325 0.0000 18.2117 0.0000
# 4 0.0000 0.0000 0.0000 23.6913 0.0000 20.8844
# 5 15.4862 8.9278 18.2117 0.0000 29.2804 0.0000
# 6 0.0000 0.0000 0.0000 20.8844 0.0000 16.7212
#
#
#
# Elastic Compliance Matrix: (Units=1/GPa)
#
#
# Indices 1 2 3 4 5 6 
#
# 1 0.011612 0.003059 -0.000584 0.000000 -0.006711 0.000000
# 2 0.003059 0.020828 -0.000004 0.000000 -0.007966 0.000000
# 3 -0.000584 -0.000004 0.012375 0.000000 -0.007387 0.000000
# 4 0.000000 0.000000 0.000000 -0.417932 0.000000 0.521986
# 5 -0.006711 -0.007966 -0.007387 0.000000 0.044726 0.000000
# 6 0.000000 0.000000 0.000000 0.521986 0.000000 -0.592144
#
#
# Mechanical properties :
#
#
# Convention : Reuss Voigt Hill
#
# Bulk Modulus (GPa) = 20.09664 29.29787 24.69725
# Shear Modulus (GPa) = -5.50120 29.44950 11.97415
#
# Velocity S-wave (km/s) = -1.57233 3.63793 2.31973
# Velocity P-wave (km/s) = 2.39481 5.55090 4.27479
#
# Compressibility (1/GPa) = 0.04975957
#
# Stress axis : x y z
#
# Youngs Moduli (GPa) = 86.11894 48.01270 80.80593
#
# Poissons Ratio (x) = -0.14689 0.04715
# Poissons Ratio (y) = -0.26348 0.00029
# Poissons Ratio (z) = 0.05026 0.00017
#
# Static dielectric constant tensor:
#      x y z
#    x 4.145660 0.000000 0.097010 
#    y 0.000000 4.143200 0.000000 
#    z 0.097010 0.000000 3.933020 
# 
# 
# High freq. dielectric constant tensor:
#      x y z
#    x 1.890830 0.000000 0.014250 
#    y 0.000000 1.887350 0.000000 
#    z 0.014250 0.000000 1.875070 
# 
# From -- ./inp_files/167821.got.cif
#   From: 2010.06.25/outbox.cif.g09.slc.cpg/sg15_84_cif.got.tgz:167821.got - 2010.06.28 07:06:18.
