data_PCOD8153192
_publ_section_title
;
Structure prediction by ZEFSAII (Michael W. Deem and Ramdas Pophale) SiO2 
 PCOD8153192
Probable space group: C 2/C
;
_chemical_formula_sum "Si O2"
_cell_formula_units_Z 48
_cell_length_a 14.090091
_cell_length_b 27.005688
_cell_length_c 8.032790
_cell_angle_alpha 90.000000
_cell_angle_beta 44.851954
_cell_angle_gamma 90.000000
_cell_volume 2155.735063
_symmetry_space_group_name_H-M "C 2/C"
_symmetry_group_IT_number 15
_symmetry_cell_setting 'monoclinic'
loop_
_space_group_symop_operation_xyz
x,y,z
-x,y,1/2-z
-x,-y,-z
x,-y,1/2+z
1/2+x,1/2+y,z
1/2-x,1/2+y,1/2-z
1/2-x,1/2-y,-z
1/2+x,1/2-y,1/2+z
loop_
_atom_site_type_symbol
_atom_site_label
_atom_site_fract_x
_atom_site_fract_y
_atom_site_fract_z
Si Si1 0.770981 0.969979 0.338442
Si Si2 0.679085 0.348360 0.800584
Si Si3 0.000000 0.916074 0.250000
Si Si4 0.394853 0.749821 0.239075
Si Si5 0.982450 0.648629 0.964013
Si Si6 0.500000 0.922108 0.750000
Si Si7 0.844741 0.065735 0.400166
O O1 0.906718 0.949012 0.250192
O O2 0.633752 0.955479 0.606345
O O3 0.793712 0.029455 0.314290
O O4 0.757236 0.949932 0.168611
O O5 0.599716 0.296360 0.893238
O O6 0.827081 0.337277 0.685436
O O7 0.687264 0.377540 0.612370
O O8 0.597241 0.382598 0.023124
O O9 0.500000 0.738530 0.250000
O O10 0.250000 0.750000 0.500000
O O11 0.428066 0.802307 0.111843
O O12 0.000000 0.629612 0.750000
O O13 0.023745 0.609238 0.052035
O O14 0.000000 0.058688 0.250000
#
# Coordination Sequence:
#
# PCOD8153192 Si02
#       7
#     8   8   4   8   8   4   8
#     4  12  26  45  68 107 142 186 237 296 355 430
#     4  12  24  45  71 103 136 190 237 298 355 423
#     4  12  24  43  70  98 144 180 241 288 348 434
#     4  11  23  43  72 105 138 184 237 291 360 423
#     4  11  24  48  73 100 148 187 231 304 355 418
#     4  12  28  47  72 110 150 190 237 290 370 438
#     4  12  24  44  75  99 141 188 242 295 351 424
#
# _framework density 22.266186000000001
#
# number of rings (size 3 to 8) (size 9 to 14) (size 15 to 20)
#    0.000    0.333    7.500    3.000    0.000    1.333 
#    1.500    1.667    0.000    0.000    0.000    0.000 
#    0.000    0.000    0.000    0.000    0.000    0.000 
#
# Total GULP energy -297576.167264 kJ/mol
# GULP energy per Si atom -12399.006969 kJ/mol
# Density = 2.221551 g / cm^3
# Si number density = 22.266186 Si / 1000 Ang^3
#
#
#
# Elastic Constant Matrix: (Units=GPa)
#
#
# Indices 1 2 3 4 5 6 
#
# 1 73.1529 28.0245 28.9815 0.0000 -8.0283 0.0000
# 2 28.0245 111.2692 30.9393 0.0000 -8.7716 0.0000
# 3 28.9815 30.9393 86.4883 0.0000 -24.5773 0.0000
# 4 0.0000 0.0000 0.0000 45.6451 0.0000 -9.2489
# 5 -8.0283 -8.7716 -24.5773 0.0000 44.9590 0.0000
# 6 0.0000 0.0000 0.0000 -9.2489 0.0000 17.0898
#
#
#
# Elastic Compliance Matrix: (Units=1/GPa)
#
#
# Indices 1 2 3 4 5 6 
#
# 1 0.016576 -0.002921 -0.004535 0.000000 -0.000089 0.000000
# 2 -0.002921 0.010495 -0.002773 0.000000 0.000010 0.000000
# 3 -0.004535 -0.002773 0.016208 0.000000 0.007509 0.000000
# 4 0.000000 0.000000 0.000000 0.024606 0.000000 0.013317
# 5 -0.000089 0.000010 0.007509 0.000000 0.026334 0.000000
# 6 0.000000 0.000000 0.000000 0.013317 0.000000 0.065721
#
#
# Mechanical properties :
#
#
# Convention : Reuss Voigt Hill
#
# Bulk Modulus (GPa) = 43.81823 49.64455 46.73139
# Shear Modulus (GPa) = 26.59532 33.73647 30.16589
#
# Velocity S-wave (km/s) = 3.45980 3.89671 3.68473
# Velocity P-wave (km/s) = 5.97346 6.52611 6.25589
#
# Compressibility (1/GPa) = 0.02282155
#
# Stress axis : x y z
#
# Youngs Moduli (GPa) = 60.32888 95.28706 61.69960
#
# Poissons Ratio (x) = 0.27832 0.27980
# Poissons Ratio (y) = 0.17621 0.17106
# Poissons Ratio (z) = 0.27358 0.26419
#
# Static dielectric constant tensor:
#      x y z
#    x 4.016140 0.000000 -0.126320 
#    y 0.000000 4.639690 0.000000 
#    z -0.126320 0.000000 4.219960 
# 
# 
# High freq. dielectric constant tensor:
#      x y z
#    x 1.873600 0.000000 -0.017440 
#    y 0.000000 1.882550 0.000000 
#    z -0.017440 0.000000 1.884120 
# 
# From -- ./inp_files/43850.got.cif
#   From: 2010.06.25/outbox.cif.g09.slc.cpg/sg15_22_cif.got.tgz:43850.got - 2010.06.28 07:06:18.
