data_PCOD8153820
_publ_section_title
;
Structure prediction by ZEFSAII (Michael W. Deem and Ramdas Pophale) SiO2 
 PCOD8153820
Probable space group: C 2/C
;
_chemical_formula_sum "Si O2"
_cell_formula_units_Z 48
_cell_length_a 8.607193
_cell_length_b 27.089649
_cell_length_c 13.814926
_cell_angle_alpha 90.000000
_cell_angle_beta 45.814021
_cell_angle_gamma 90.000000
_cell_volume 2309.839551
_symmetry_space_group_name_H-M "C 2/C"
_symmetry_group_IT_number 15
_symmetry_cell_setting 'monoclinic'
loop_
_space_group_symop_operation_xyz
x,y,z
-x,y,1/2-z
-x,-y,-z
x,-y,1/2+z
1/2+x,1/2+y,z
1/2-x,1/2+y,1/2-z
1/2-x,1/2-y,-z
1/2+x,1/2-y,1/2+z
loop_
_atom_site_type_symbol
_atom_site_label
_atom_site_fract_x
_atom_site_fract_y
_atom_site_fract_z
Si Si1 0.330513 0.388461 0.907302
Si Si2 0.089008 0.025061 0.368951
Si Si3 0.380610 0.879478 0.006879
Si Si4 0.000000 0.586191 0.250000
Si Si5 0.000000 0.948000 0.250000
Si Si6 0.740722 0.271344 0.110347
Si Si7 0.446360 0.716306 0.386998
O O1 0.500000 0.381020 0.750000
O O2 0.394471 0.436748 0.937058
O O3 0.364312 0.338346 0.954526
O O4 0.092464 0.398963 0.969583
O O5 0.316669 0.051568 0.284737
O O6 0.000000 0.000000 0.500000
O O7 0.120525 0.983971 0.272770
O O8 0.411528 0.879807 0.876443
O O9 0.356097 0.824248 0.057086
O O10 0.177346 0.913857 0.120900
O O11 0.500000 0.280321 0.250000
O O12 0.848581 0.233162 0.138771
O O13 0.750000 0.250000 0.000000
O O14 0.500000 0.720779 0.250000
O O15 0.250000 0.750000 0.500000
#
# Coordination Sequence:
#
# PCOD8153820 Si02
#       7
#     8   8   8   4   4   8   8
#     4  11  24  45  71  97 138 184 239 282 353 424
#     4  12  26  44  69 106 135 190 236 296 358 421
#     4  12  26  47  70 105 143 190 233 299 356 427
#     4  12  26  44  73 100 140 185 250 284 360 434
#     4  12  26  48  71 100 156 177 238 304 358 422
#     4  12  28  45  71 108 146 186 235 297 365 424
#     4  11  24  46  71 100 136 182 233 284 346 431
#
# _framework density 20.780664000000002
#
# number of rings (size 3 to 8) (size 9 to 14) (size 15 to 20)
#    0.000    0.333    6.667    1.000    8.167    1.333 
#    3.000    0.000    0.000    0.000    0.000    0.000 
#    0.000    0.000    0.000    0.000    0.000    0.000 
#
# Total GULP energy -297551.638378 kJ/mol
# GULP energy per Si atom -12397.984932 kJ/mol
# Density = 2.073337 g / cm^3
# Si number density = 20.780664 Si / 1000 Ang^3
#
#
#
# Elastic Constant Matrix: (Units=GPa)
#
#
# Indices 1 2 3 4 5 6 
#
# 1 130.5153 43.7846 39.3467 0.0000 -1.9935 0.0000
# 2 43.7846 117.5663 32.9122 0.0000 8.3505 0.0000
# 3 39.3467 32.9122 112.3128 0.0000 3.0657 0.0000
# 4 0.0000 0.0000 0.0000 30.6604 0.0000 4.8822
# 5 -1.9935 8.3505 3.0657 0.0000 44.7489 0.0000
# 6 0.0000 0.0000 0.0000 4.8822 0.0000 45.4519
#
#
#
# Elastic Compliance Matrix: (Units=1/GPa)
#
#
# Indices 1 2 3 4 5 6 
#
# 1 0.009394 -0.002885 -0.002476 0.000000 0.001127 0.000000
# 2 -0.002885 0.010260 -0.001944 0.000000 -0.001910 0.000000
# 3 -0.002476 -0.001944 0.010353 0.000000 -0.000457 0.000000
# 4 0.000000 0.000000 0.000000 0.033183 0.000000 -0.003564
# 5 0.001127 -0.001910 -0.000457 0.000000 0.022785 0.000000
# 6 0.000000 0.000000 0.000000 -0.003564 0.000000 0.022384
#
#
# Mechanical properties :
#
#
# Convention : Reuss Voigt Hill
#
# Bulk Modulus (GPa) = 64.94853 65.83128 65.38991
# Shear Modulus (GPa) = 39.03165 40.46230 39.74697
#
# Velocity S-wave (km/s) = 4.33860 4.41740 4.37818
# Velocity P-wave (km/s) = 7.51133 7.60038 7.55599
#
# Compressibility (1/GPa) = 0.01539681
#
# Stress axis : x y z
#
# Youngs Moduli (GPa) = 106.45617 97.46430 96.58829
#
# Poissons Ratio (x) = 0.28121 0.23916
# Poissons Ratio (y) = 0.30715 0.18774
# Poissons Ratio (z) = 0.26360 0.18944
#
# Static dielectric constant tensor:
#      x y z
#    x 3.872490 0.000000 0.078930 
#    y 0.000000 3.626970 0.000000 
#    z 0.078930 0.000000 3.716110 
# 
# 
# High freq. dielectric constant tensor:
#      x y z
#    x 1.824610 0.000000 -0.005270 
#    y 0.000000 1.833850 0.000000 
#    z -0.005270 0.000000 1.819010 
# 
# From -- ./inp_files/79174.got.cif
#   From: 2010.06.25/outbox.cif.g09.slc.cpg/sg15_40_cif.got.tgz:79174.got - 2010.06.28 07:06:18.
