data_PCOD8153651
_publ_section_title
;
Structure prediction by ZEFSAII (Michael W. Deem and Ramdas Pophale) SiO2 
 PCOD8153651
Probable space group: C 2/C
;
_chemical_formula_sum "Si O2"
_cell_formula_units_Z 36
_cell_length_a 14.182684
_cell_length_b 26.730836
_cell_length_c 9.140439
_cell_angle_alpha 90.000000
_cell_angle_beta 26.895657
_cell_angle_gamma 90.000000
_cell_volume 1567.577583
_symmetry_space_group_name_H-M "C 2/C"
_symmetry_group_IT_number 15
_symmetry_cell_setting 'monoclinic'
loop_
_space_group_symop_operation_xyz
x,y,z
-x,y,1/2-z
-x,-y,-z
x,-y,1/2+z
1/2+x,1/2+y,z
1/2-x,1/2+y,1/2-z
1/2-x,1/2-y,-z
1/2+x,1/2-y,1/2+z
loop_
_atom_site_type_symbol
_atom_site_label
_atom_site_fract_x
_atom_site_fract_y
_atom_site_fract_z
Si Si1 0.000000 0.903720 0.250000
Si Si2 0.448005 0.050935 0.151839
Si Si3 0.540786 0.227627 0.345784
Si Si4 0.456947 0.331312 0.577472
Si Si5 0.168769 0.646327 0.726734
O O1 0.795568 0.938200 0.535807
O O2 0.011794 0.869199 0.374522
O O3 0.500000 0.046770 0.250000
O O4 0.599544 0.091332 0.866603
O O5 0.500000 0.000000 0.000000
O O6 0.500000 0.198645 0.250000
O O7 0.403760 0.275622 0.588881
O O8 0.530961 0.184215 0.482702
O O9 0.750000 0.250000 0.000000
O O10 0.656205 0.329325 0.409516
O O11 0.255042 0.353026 0.942344
#
# Coordination Sequence:
#
# PCOD8153651 Si02
#       5
#     4   8   8   8   8
#     4  12  26  48  78 106 142 190 236 292 372 428
#     4  12  29  51  76 107 143 186 241 303 362 424
#     4  12  22  39  66  98 144 192 231 284 353 422
#     4  11  24  43  72 106 141 191 239 289 360 436
#     4  11  25  46  68 101 150 186 240 303 351 425
#
# _framework density 22.965371000000001
#
# number of rings (size 3 to 8) (size 9 to 14) (size 15 to 20)
#    0.000    0.444    5.556    2.667    3.111    2.667 
#    0.000    0.000    0.000    0.000    0.000    0.000 
#    0.000    0.000    0.000    0.000    0.000    0.000 
#
# Total GULP energy -223005.331615 kJ/mol
# GULP energy per Si atom -12389.185090 kJ/mol
# Density = 2.291310 g / cm^3
# Si number density = 22.965371 Si / 1000 Ang^3
#
#
#
# Elastic Constant Matrix: (Units=GPa)
#
#
# Indices 1 2 3 4 5 6 
#
# 1 41.5509 18.4901 19.0813 0.0000 23.3109 -0.0003
# 2 18.4901 183.8259 77.0899 0.0000 25.6142 0.0000
# 3 19.0813 77.0899 154.2178 0.0000 35.9353 0.0000
# 4 0.0000 0.0000 0.0000 57.0222 -0.0001 8.1213
# 5 23.3109 25.6142 35.9353 -0.0001 37.9834 0.0002
# 6 -0.0003 0.0000 0.0000 8.1213 0.0002 23.8856
#
#
#
# Elastic Compliance Matrix: (Units=1/GPa)
#
#
# Indices 1 2 3 4 5 6 
#
# 1 0.036961 -0.001052 0.001376 0.000000 -0.023277 0.000001
# 2 -0.001052 0.007008 -0.003107 0.000000 -0.001141 0.000000
# 3 0.001376 -0.003107 0.009718 0.000000 -0.007944 0.000000
# 4 0.000000 0.000000 0.000000 0.018430 0.000000 -0.006266
# 5 -0.023277 -0.001141 -0.007944 0.000000 0.048897 -0.000001
# 6 0.000001 0.000000 0.000000 -0.006266 -0.000001 0.043997
#
#
# Mechanical properties :
#
#
# Convention : Reuss Voigt Hill
#
# Bulk Modulus (GPa) = 20.78025 67.65746 44.21885
# Shear Modulus (GPa) = 26.79298 41.44044 34.11671
#
# Velocity S-wave (km/s) = 3.41936 4.25252 3.85849
# Velocity P-wave (km/s) = 4.96563 7.32369 6.25676
#
# Compressibility (1/GPa) = 0.04812261
#
# Stress axis : x y z
#
# Youngs Moduli (GPa) = 27.05519 142.70167 102.90017
#
# Poissons Ratio (x) = 0.15006 -0.14162
# Poissons Ratio (y) = 0.02845 0.31971
# Poissons Ratio (z) = -0.03723 0.44338
#
# Static dielectric constant tensor:
#      x y z
#    x 4.278880 0.000000 0.065500 
#    y 0.000000 4.212990 0.000000 
#    z 0.065500 0.000000 4.862440 
# 
# 
# High freq. dielectric constant tensor:
#      x y z
#    x 1.915470 0.000000 0.009310 
#    y 0.000000 1.898480 0.000000 
#    z 0.009310 0.000000 1.936390 
# 
# From -- ./inp_files/23317.got.cif
#   From: 2010.06.25/outbox.cif.g09.slc.cpg/sg15_12_cif.got.tgz:23317.got - 2010.06.28 07:06:18.
