data_PCOD8153266
_publ_section_title
;
Structure prediction by ZEFSAII (Michael W. Deem and Ramdas Pophale) SiO2 
 PCOD8153266
Probable space group: C 2/C
;
_chemical_formula_sum "Si O2"
_cell_formula_units_Z 48
_cell_length_a 9.763039
_cell_length_b 14.303488
_cell_length_c 26.924303
_cell_angle_alpha 90.000000
_cell_angle_beta 142.070221
_cell_angle_gamma 90.000000
_cell_volume 2311.166838
_symmetry_space_group_name_H-M "C 2/C"
_symmetry_group_IT_number 15
_symmetry_cell_setting 'monoclinic'
loop_
_space_group_symop_operation_xyz
x,y,z
-x,y,1/2-z
-x,-y,-z
x,-y,1/2+z
1/2+x,1/2+y,z
1/2-x,1/2+y,1/2-z
1/2-x,1/2-y,-z
1/2+x,1/2-y,1/2+z
loop_
_atom_site_type_symbol
_atom_site_label
_atom_site_fract_x
_atom_site_fract_y
_atom_site_fract_z
Si Si1 0.214568 0.746358 0.616449
Si Si2 0.213274 0.793031 0.248846
Si Si3 0.484964 0.553355 0.047215
Si Si4 0.026246 0.127012 0.202785
Si Si5 0.882348 0.407095 0.985509
Si Si6 0.732873 0.016418 0.789778
O O1 0.219426 0.714154 0.674608
O O2 0.462836 0.740579 0.665584
O O3 0.128476 0.851879 0.586313
O O4 0.058030 0.676608 0.540615
O O5 0.388918 0.733066 0.267176
O O6 0.244321 0.898383 0.240853
O O7 0.233870 0.576805 0.993720
O O8 0.580321 0.479412 0.114250
O O9 0.500000 0.500000 0.000000
O O10 0.797603 0.122898 0.107042
O O11 0.000000 0.082909 0.250000
O O12 0.226566 0.075446 0.231518
O O13 0.000000 0.500000 0.000000
O O14 0.500000 0.007816 0.750000
#
# Coordination Sequence:
#
# PCOD8153266 Si02
#       6
#     8   8   8   8   8   8
#     4  11  23  44  70  98 137 183 224 281 351 398
#     4  11  24  42  69  98 136 179 227 284 336 409
#     4  11  25  43  68  97 135 177 226 281 341 405
#     4  11  25  44  67 101 138 177 227 284 338 408
#     4  11  25  44  67 101 137 176 232 279 342 411
#     4  11  24  42  66 100 134 173 233 273 338 401
#
# _framework density 20.768730999999999
#
# number of rings (size 3 to 8) (size 9 to 14) (size 15 to 20)
#    0.000    1.000    3.333    4.000    7.000    2.667 
#    0.000    2.500    0.000    0.000    0.000    0.000 
#    0.000    0.000    0.000    0.000    0.000    0.000 
#
# Total GULP energy -297622.876635 kJ/mol
# GULP energy per Si atom -12400.953193 kJ/mol
# Density = 2.072146 g / cm^3
# Si number density = 20.768731 Si / 1000 Ang^3
#
#
#
# Elastic Constant Matrix: (Units=GPa)
#
#
# Indices 1 2 3 4 5 6 
#
# 1 99.0960 22.3100 61.9237 0.0000 -4.3958 0.0000
# 2 22.3100 112.5171 68.2981 0.0000 -3.6607 0.0000
# 3 61.9237 68.2981 119.4149 -0.0001 5.8764 0.0000
# 4 0.0000 0.0000 -0.0001 36.8364 0.0000 -8.0628
# 5 -4.3958 -3.6607 5.8764 0.0000 42.2641 0.0000
# 6 0.0000 0.0000 0.0000 -8.0628 0.0000 26.8966
#
#
#
# Elastic Compliance Matrix: (Units=1/GPa)
#
#
# Indices 1 2 3 4 5 6 
#
# 1 0.015920 0.003161 -0.010228 0.000000 0.003352 0.000000
# 2 0.003161 0.014463 -0.010058 0.000000 0.002980 0.000000
# 3 -0.010228 -0.010058 0.019660 0.000000 -0.004669 0.000000
# 4 0.000000 0.000000 0.000000 0.029053 0.000000 0.008709
# 5 0.003352 0.002980 -0.004669 0.000000 0.024917 0.000000
# 6 0.000000 0.000000 0.000000 0.008709 0.000000 0.039790
#
#
# Mechanical properties :
#
#
# Convention : Reuss Voigt Hill
#
# Bulk Modulus (GPa) = 63.31907 70.67685 66.99796
# Shear Modulus (GPa) = 27.27523 33.09917 30.18720
#
# Velocity S-wave (km/s) = 3.62786 3.99645 3.81661
# Velocity P-wave (km/s) = 6.93558 7.44310 7.19382
#
# Compressibility (1/GPa) = 0.01579303
#
# Stress axis : x y z
#
# Youngs Moduli (GPa) = 62.81538 69.14331 50.86433
#
# Poissons Ratio (x) = -0.21856 0.52025
# Poissons Ratio (y) = -0.19856 0.51157
# Poissons Ratio (z) = 0.64248 0.69542
#
# Static dielectric constant tensor:
#      x y z
#    x 3.935860 0.000000 0.162070 
#    y 0.000000 3.831170 0.000000 
#    z 0.162070 0.000000 3.980380 
# 
# 
# High freq. dielectric constant tensor:
#      x y z
#    x 1.822000 0.000000 0.008340 
#    y 0.000000 1.821320 0.000000 
#    z 0.008340 0.000000 1.816260 
# 
# From -- ./inp_files/289130.got.cif
#   From: 2010.06.25/outbox.cif.g09.slc.cpg/sg15_145_cif.got.tgz:289130.got - 2010.06.28 07:06:18.
