data_PCOD8153847
_publ_section_title
;
Structure prediction by ZEFSAII (Michael W. Deem and Ramdas Pophale) SiO2 
 PCOD8153847
Probable space group: C 2/C
;
_chemical_formula_sum "Si O2"
_cell_formula_units_Z 48
_cell_length_a 19.578308
_cell_length_b 8.272787
_cell_length_c 21.348846
_cell_angle_alpha 90.000000
_cell_angle_beta 142.588136
_cell_angle_gamma 90.000000
_cell_volume 2100.760346
_symmetry_space_group_name_H-M "C 2/C"
_symmetry_group_IT_number 15
_symmetry_cell_setting 'monoclinic'
loop_
_space_group_symop_operation_xyz
x,y,z
-x,y,1/2-z
-x,-y,-z
x,-y,1/2+z
1/2+x,1/2+y,z
1/2-x,1/2+y,1/2-z
1/2-x,1/2-y,-z
1/2+x,1/2-y,1/2+z
loop_
_atom_site_type_symbol
_atom_site_label
_atom_site_fract_x
_atom_site_fract_y
_atom_site_fract_z
Si Si1 0.663162 0.241025 0.348064
Si Si2 0.388548 0.585681 0.562402
Si Si3 0.340500 0.773847 0.012672
Si Si4 0.867239 0.895127 0.297556
Si Si5 0.534823 0.062121 0.711322
Si Si6 0.727323 0.727944 0.299762
O O1 0.616970 0.359583 0.368986
O O2 0.773802 0.141557 0.446767
O O3 0.696275 0.348578 0.312869
O O4 0.564831 0.119335 0.254013
O O5 0.407029 0.394993 0.563648
O O6 0.501113 0.653391 0.611849
O O7 0.422794 0.926425 0.086917
O O8 0.250000 0.750000 0.000000
O O9 0.286080 0.821513 0.907243
O O10 0.822740 0.796662 0.324069
O O11 0.838268 0.084312 0.283325
O O12 0.500000 0.158836 0.750000
O O13 0.638320 0.132924 0.748986
#
# Coordination Sequence:
#
# PCOD8153847 Si02
#       6
#     8   8   8   8   8   8
#     4  11  25  45  74 110 143 187 246 297 367 436
#     4  11  24  45  75 106 145 194 237 306 365 428
#     4  12  24  43  76 111 143 187 247 300 364 432
#     4  12  27  46  71 100 150 193 242 301 368 433
#     4  12  23  44  73 104 146 181 238 306 358 428
#     4  12  27  45  70 106 144 196 247 293 367 435
#
# _framework density 22.848870000000002
#
# number of rings (size 3 to 8) (size 9 to 14) (size 15 to 20)
#    0.000    0.333    5.000    3.500    0.000    6.000 
#    0.000    2.500    0.000    0.000    0.000    0.000 
#    0.000    0.000    0.000    0.000    0.000    0.000 
#
# Total GULP energy -297492.957281 kJ/mol
# GULP energy per Si atom -12395.539887 kJ/mol
# Density = 2.279686 g / cm^3
# Si number density = 22.848870 Si / 1000 Ang^3
#
#
#
# Elastic Constant Matrix: (Units=GPa)
#
#
# Indices 1 2 3 4 5 6 
#
# 1 155.2115 11.5801 33.4055 0.0000 0.3248 0.0000
# 2 11.5801 72.9419 20.7688 0.0000 3.8900 0.0000
# 3 33.4055 20.7688 90.8265 0.0000 8.4445 0.0000
# 4 0.0000 0.0000 0.0000 37.4218 0.0000 -1.5909
# 5 0.3248 3.8900 8.4445 0.0000 27.7583 0.0000
# 6 0.0000 0.0000 0.0000 -1.5909 0.0000 36.1011
#
#
#
# Elastic Compliance Matrix: (Units=1/GPa)
#
#
# Indices 1 2 3 4 5 6 
#
# 1 0.007023 -0.000428 -0.002556 0.000000 0.000755 0.000000
# 2 -0.000428 0.014721 -0.003105 0.000000 -0.001113 0.000000
# 3 -0.002556 -0.003105 0.012984 0.000000 -0.003485 0.000000
# 4 0.000000 0.000000 0.000000 0.026773 0.000000 0.001180
# 5 0.000755 -0.001113 -0.003485 0.000000 0.037233 0.000000
# 6 0.000000 0.000000 0.000000 0.001180 0.000000 0.027752
#
#
# Mechanical properties :
#
#
# Convention : Reuss Voigt Hill
#
# Bulk Modulus (GPa) = 44.34369 50.05428 47.19898
# Shear Modulus (GPa) = 34.20454 37.13793 35.67123
#
# Velocity S-wave (km/s) = 3.87329 4.03596 3.95547
# Velocity P-wave (km/s) = 6.28114 6.60855 6.44692
#
# Compressibility (1/GPa) = 0.02255112
#
# Stress axis : x y z
#
# Youngs Moduli (GPa) = 142.38618 67.93013 77.01784
#
# Poissons Ratio (x) = 0.02905 0.19682
# Poissons Ratio (y) = 0.06089 0.23917
# Poissons Ratio (z) = 0.36387 0.21095
#
# Static dielectric constant tensor:
#      x y z
#    x 4.198250 0.000000 0.004620 
#    y 0.000000 4.892060 0.000000 
#    z 0.004620 0.000000 4.245480 
# 
# 
# High freq. dielectric constant tensor:
#      x y z
#    x 1.909760 0.000000 0.010740 
#    y 0.000000 1.902210 0.000000 
#    z 0.010740 0.000000 1.904930 
# 
# From -- ./inp_files/252015.got.cif
#   From: 2010.06.25/outbox.cif.g09.slc.cpg/sg15_127_cif.got.tgz:252015.got - 2010.06.28 07:06:18.
