data_PCOD8153334
_publ_section_title
;
Structure prediction by ZEFSAII (Michael W. Deem and Ramdas Pophale) SiO2 
 PCOD8153334
Probable space group: C 2/C
;
_chemical_formula_sum "Si O2"
_cell_formula_units_Z 48
_cell_length_a 15.745300
_cell_length_b 9.582415
_cell_length_c 26.567613
_cell_angle_alpha 90.000000
_cell_angle_beta 33.566221
_cell_angle_gamma 90.000000
_cell_volume 2216.283720
_symmetry_space_group_name_H-M "C 2/C"
_symmetry_group_IT_number 15
_symmetry_cell_setting 'monoclinic'
loop_
_space_group_symop_operation_xyz
x,y,z
-x,y,1/2-z
-x,-y,-z
x,-y,1/2+z
1/2+x,1/2+y,z
1/2-x,1/2+y,1/2-z
1/2-x,1/2-y,-z
1/2+x,1/2-y,1/2+z
loop_
_atom_site_type_symbol
_atom_site_label
_atom_site_fract_x
_atom_site_fract_y
_atom_site_fract_z
Si Si1 0.051072 0.482816 0.856727
Si Si2 0.662935 0.512173 0.220463
Si Si3 0.057660 0.817128 0.118113
Si Si4 0.465401 0.373044 0.054244
Si Si5 0.895800 0.678022 0.757436
Si Si6 0.157588 0.389662 0.460747
O O1 0.227810 0.472019 0.785466
O O2 0.036078 0.613768 0.827408
O O3 0.006117 0.339383 0.851581
O O4 0.946180 0.503585 0.958270
O O5 0.536560 0.394689 0.291719
O O6 0.574788 0.657191 0.257460
O O7 0.756288 0.471792 0.124729
O O8 0.234043 0.819407 0.049770
O O9 0.031968 0.897961 0.077715
O O10 0.282775 0.354696 0.146281
O O11 0.500000 0.500000 0.000000
O O12 0.547485 0.232398 0.992796
O O13 0.000000 0.611801 0.750000
#
# Coordination Sequence:
#
# PCOD8153334 Si02
#       6
#     8   8   8   8   8   8
#     4  11  23  45  69  95 135 180 219 279 334 392
#     4  12  23  48  66 102 136 179 220 276 339 405
#     4  11  24  45  72  98 133 180 233 267 333 413
#     4  11  25  43  67 104 133 170 230 283 332 397
#     4  12  27  43  65 101 139 171 223 281 344 392
#     4  11  25  44  74  97 135 182 231 272 332 413
#
# _framework density 21.657876999999999
#
# number of rings (size 3 to 8) (size 9 to 14) (size 15 to 20)
#    0.000    0.667    5.000    4.000    7.000    1.333 
#    0.000    1.667    0.000    0.000    0.000    0.000 
#    0.000    0.000    0.000    0.000    0.000    0.000 
#
# Total GULP energy -297608.058684 kJ/mol
# GULP energy per Si atom -12400.335779 kJ/mol
# Density = 2.160858 g / cm^3
# Si number density = 21.657877 Si / 1000 Ang^3
#
#
#
# Elastic Constant Matrix: (Units=GPa)
#
#
# Indices 1 2 3 4 5 6 
#
# 1 117.5095 36.3004 22.5846 0.0000 -12.6215 0.0001
# 2 36.3004 117.0747 58.0098 -0.0001 28.9589 0.0003
# 3 22.5846 58.0098 83.8913 -0.0001 16.4322 0.0000
# 4 0.0000 -0.0001 -0.0001 38.2541 0.0000 11.6423
# 5 -12.6215 28.9589 16.4322 0.0000 46.5211 0.0000
# 6 0.0001 0.0003 0.0000 11.6423 0.0000 28.7925
#
#
#
# Elastic Compliance Matrix: (Units=1/GPa)
#
#
# Indices 1 2 3 4 5 6 
#
# 1 0.010661 -0.004216 -0.001112 0.000000 0.005910 0.000000
# 2 -0.004216 0.015992 -0.008325 0.000000 -0.008158 0.000000
# 3 -0.001112 -0.008325 0.018285 0.000000 -0.001578 0.000000
# 4 0.000000 0.000000 0.000000 0.029809 0.000000 -0.012054
# 5 0.005910 -0.008158 -0.001578 0.000000 0.028735 0.000000
# 6 0.000000 0.000000 0.000000 -0.012054 0.000000 0.039605
#
#
# Mechanical properties :
#
#
# Convention : Reuss Voigt Hill
#
# Bulk Modulus (GPa) = 56.71790 61.36278 59.04034
# Shear Modulus (GPa) = 28.36531 36.15226 32.25878
#
# Velocity S-wave (km/s) = 3.62290 4.09007 3.86355
# Velocity P-wave (km/s) = 6.61404 7.12034 6.87185
#
# Compressibility (1/GPa) = 0.01763112
#
# Stress axis : x y z
#
# Youngs Moduli (GPa) = 93.80038 62.53186 54.68833
#
# Poissons Ratio (x) = 0.26365 0.06082
# Poissons Ratio (y) = 0.39549 0.45529
# Poissons Ratio (z) = 0.10432 0.52058
#
# Static dielectric constant tensor:
#      x y z
#    x 4.237280 0.000000 -0.213220 
#    y 0.000000 3.805860 0.000000 
#    z -0.213220 0.000000 4.066150 
# 
# 
# High freq. dielectric constant tensor:
#      x y z
#    x 1.870310 0.000000 -0.009570 
#    y 0.000000 1.838680 0.000000 
#    z -0.009570 0.000000 1.861040 
# 
# From -- ./inp_files/315613.got.cif
#   From: 2010.06.25/outbox.cif.g09.slc.cpg/sg15_158_cif.got.tgz:315613.got - 2010.06.28 07:06:18.
