data_PCOD8153897
_publ_section_title
;
Structure prediction by ZEFSAII (Michael W. Deem and Ramdas Pophale) SiO2 
 PCOD8153897
Probable space group: C 2/C
;
_chemical_formula_sum "Si O2"
_cell_formula_units_Z 48
_cell_length_a 8.440240
_cell_length_b 14.974684
_cell_length_c 17.407025
_cell_angle_alpha 90.000000
_cell_angle_beta 87.879640
_cell_angle_gamma 90.000000
_cell_volume 2198.566248
_symmetry_space_group_name_H-M "C 2/C"
_symmetry_group_IT_number 15
_symmetry_cell_setting 'monoclinic'
loop_
_space_group_symop_operation_xyz
x,y,z
-x,y,1/2-z
-x,-y,-z
x,-y,1/2+z
1/2+x,1/2+y,z
1/2-x,1/2+y,1/2-z
1/2-x,1/2-y,-z
1/2+x,1/2-y,1/2+z
loop_
_atom_site_type_symbol
_atom_site_label
_atom_site_fract_x
_atom_site_fract_y
_atom_site_fract_z
Si Si1 0.268753 0.961370 0.694460
Si Si2 0.720020 0.367676 0.431841
Si Si3 0.124756 0.186811 0.099767
Si Si4 0.262150 0.285378 0.585396
Si Si5 0.421656 0.363203 0.331540
Si Si6 0.878101 0.537841 0.363178
O O1 0.193405 0.867183 0.670878
O O2 0.437173 0.978954 0.652387
O O3 0.281682 0.960669 0.785663
O O4 0.151876 0.039243 0.671471
O O5 0.826244 0.289828 0.392686
O O6 0.701846 0.356141 0.522797
O O7 0.547756 0.365226 0.397451
O O8 0.808902 0.460543 0.417857
O O9 0.936133 0.179703 0.102390
O O10 0.250000 0.250000 0.500000
O O11 0.213083 0.208944 0.646511
O O12 0.141222 0.367935 0.593815
O O13 0.500000 0.334151 0.250000
#
# Coordination Sequence:
#
# PCOD8153897 Si02
#       6
#     8   8   8   8   8   8
#     4  11  26  45  72 102 138 186 231 290 350 414
#     4  11  24  46  72 103 140 181 233 288 343 418
#     4  11  26  45  72 103 141 184 232 285 352 409
#     4  12  27  45  71 104 141 186 231 286 348 414
#     4  12  25  46  73 103 139 184 233 286 350 409
#     4  11  26  46  71 103 141 181 239 284 350 414
#
# _framework density 21.832412000000001
#
# number of rings (size 3 to 8) (size 9 to 14) (size 15 to 20)
#    0.000    0.667    3.333    3.000    9.333    2.000 
#    0.000    0.000    0.000    0.000    0.000    0.000 
#    0.000    0.000    0.000    0.000    0.000    0.000 
#
# Total GULP energy -297839.540802 kJ/mol
# GULP energy per Si atom -12409.980867 kJ/mol
# Density = 2.178272 g / cm^3
# Si number density = 21.832412 Si / 1000 Ang^3
#
#
#
# Elastic Constant Matrix: (Units=GPa)
#
#
# Indices 1 2 3 4 5 6 
#
# 1 78.2694 5.5265 19.0010 0.0000 -2.1272 0.0000
# 2 5.5265 102.7269 34.3190 0.0000 -15.2365 0.0000
# 3 19.0010 34.3190 65.2637 0.0000 -3.2036 0.0000
# 4 0.0000 0.0000 0.0000 37.5924 0.0000 -3.0923
# 5 -2.1272 -15.2365 -3.2036 0.0000 37.8852 0.0000
# 6 0.0000 0.0000 0.0000 -3.0923 0.0000 49.8950
#
#
#
# Elastic Compliance Matrix: (Units=1/GPa)
#
#
# Indices 1 2 3 4 5 6 
#
# 1 0.013812 0.000847 -0.004430 0.000000 0.000742 0.000000
# 2 0.000847 0.012581 -0.006639 0.000000 0.004546 0.000000
# 3 -0.004430 -0.006639 0.020044 0.000000 -0.001224 0.000000
# 4 0.000000 0.000000 0.000000 0.026737 0.000000 0.001657
# 5 0.000742 0.004546 -0.001224 0.000000 0.028162 0.000000
# 6 0.000000 0.000000 0.000000 0.001657 0.000000 0.020145
#
#
# Mechanical properties :
#
#
# Convention : Reuss Voigt Hill
#
# Bulk Modulus (GPa) = 38.47376 40.43925 39.45650
# Shear Modulus (GPa) = 33.20260 37.56876 35.38568
#
# Velocity S-wave (km/s) = 3.90397 4.15273 4.03027
# Velocity P-wave (km/s) = 6.16294 6.44642 6.30627
#
# Compressibility (1/GPa) = 0.02599174
#
# Stress axis : x y z
#
# Youngs Moduli (GPa) = 72.39943 79.48286 49.89132
#
# Poissons Ratio (x) = -0.06732 0.22104
# Poissons Ratio (y) = -0.06132 0.33125
# Poissons Ratio (z) = 0.32075 0.52772
#
# Static dielectric constant tensor:
#      x y z
#    x 4.132060 0.000000 -0.102550 
#    y 0.000000 4.031680 0.000000 
#    z -0.102550 0.000000 3.969470 
# 
# 
# High freq. dielectric constant tensor:
#      x y z
#    x 1.874120 0.000000 -0.003810 
#    y 0.000000 1.870890 0.000000 
#    z -0.003810 0.000000 1.862830 
# 
# From -- ./inp_files/189230.got.cif
#   From: 2010.06.25/outbox.cif.g09.slc.cpg/sg15_95_cif.got.tgz:189230.got - 2010.06.28 07:06:18.
