data_PCOD8153370
_publ_section_title
;
Structure prediction by ZEFSAII (Michael W. Deem and Ramdas Pophale) SiO2 
 PCOD8153370
Probable space group: C 2/C
;
_chemical_formula_sum "Si O2"
_cell_formula_units_Z 48
_cell_length_a 29.576433
_cell_length_b 8.612432
_cell_length_c 18.348043
_cell_angle_alpha 90.000000
_cell_angle_beta 152.424306
_cell_angle_gamma 90.000000
_cell_volume 2163.552015
_symmetry_space_group_name_H-M "C 2/C"
_symmetry_group_IT_number 15
_symmetry_cell_setting 'monoclinic'
loop_
_space_group_symop_operation_xyz
x,y,z
-x,y,1/2-z
-x,-y,-z
x,-y,1/2+z
1/2+x,1/2+y,z
1/2-x,1/2+y,1/2-z
1/2-x,1/2-y,-z
1/2+x,1/2-y,1/2+z
loop_
_atom_site_type_symbol
_atom_site_label
_atom_site_fract_x
_atom_site_fract_y
_atom_site_fract_z
Si Si1 0.315762 0.147971 0.647976
Si Si2 0.925028 0.579953 0.196093
Si Si3 0.740751 0.866803 0.151487
Si Si4 0.089624 0.944160 0.675483
Si Si5 0.263001 0.530084 0.328544
Si Si6 0.013733 0.100909 0.850536
O O1 0.250000 0.250000 0.500000
O O2 0.375167 0.022691 0.686179
O O3 0.394204 0.258473 0.800905
O O4 0.249098 0.067202 0.614241
O O5 0.986066 0.717727 0.322339
O O6 0.000000 0.484044 0.250000
O O7 0.849713 0.660530 0.032106
O O8 0.788417 0.697814 0.234406
O O9 0.811892 0.978779 0.210423
O O10 0.711296 0.943188 0.187035
O O11 0.066602 0.998206 0.723638
O O12 0.000000 0.000000 0.500000
O O13 0.375785 0.562171 0.466469
O O14 0.000000 0.043500 0.750000
#
# Coordination Sequence:
#
# PCOD8153370 Si02
#       6
#     8   8   8   8   8   8
#     4  12  27  44  74 110 147 191 245 303 362 433
#     4  11  25  47  75 106 142 191 247 302 360 436
#     4  12  25  47  74 105 152 189 241 304 371 431
#     4  12  26  47  70 106 148 193 241 299 361 435
#     4  12  26  46  74 110 145 192 238 306 371 429
#     4  11  23  45  74 103 140 190 242 296 363 427
#
# _framework density 22.185738000000001
#
# number of rings (size 3 to 8) (size 9 to 14) (size 15 to 20)
#    0.000    0.333    6.667    3.000    0.000    4.667 
#    0.000    2.500    0.000    0.000    0.000    0.000 
#    0.000    0.000    0.000    0.000    0.000    0.000 
#
# Total GULP energy -297533.397976 kJ/mol
# GULP energy per Si atom -12397.224916 kJ/mol
# Density = 2.213524 g / cm^3
# Si number density = 22.185738 Si / 1000 Ang^3
#
#
#
# Elastic Constant Matrix: (Units=GPa)
#
#
# Indices 1 2 3 4 5 6 
#
# 1 157.7166 69.1943 18.0181 0.0000 2.3739 0.0000
# 2 69.1943 145.9950 36.6649 0.0000 -8.6403 0.0000
# 3 18.0181 36.6649 74.2696 0.0000 -4.3555 0.0000
# 4 0.0000 0.0000 0.0000 33.5179 0.0000 -1.3203
# 5 2.3739 -8.6403 -4.3555 0.0000 30.1680 0.0000
# 6 0.0000 0.0000 0.0000 -1.3203 0.0000 49.9466
#
#
#
# Elastic Compliance Matrix: (Units=1/GPa)
#
#
# Indices 1 2 3 4 5 6 
#
# 1 0.008098 -0.003908 -0.000139 0.000000 -0.001777 0.000000
# 2 -0.003908 0.009792 -0.003735 0.000000 0.002573 0.000000
# 3 -0.000139 -0.003735 0.015411 0.000000 0.001166 0.000000
# 4 0.000000 0.000000 0.000000 0.029866 0.000000 0.000789
# 5 -0.001777 0.002573 0.001166 0.000000 0.034193 0.000000
# 6 0.000000 0.000000 0.000000 0.000789 0.000000 0.020042
#
#
# Mechanical properties :
#
#
# Convention : Reuss Voigt Hill
#
# Bulk Modulus (GPa) = 56.38496 69.52620 62.95558
# Shear Modulus (GPa) = 36.00280 39.66675 37.83478
#
# Velocity S-wave (km/s) = 4.03276 4.23299 4.13409
# Velocity P-wave (km/s) = 6.86690 7.43621 7.15722
#
# Compressibility (1/GPa) = 0.01773523
#
# Stress axis : x y z
#
# Youngs Moduli (GPa) = 123.49173 102.12370 64.89045
#
# Poissons Ratio (x) = 0.39910 0.00905
# Poissons Ratio (y) = 0.48261 0.24237
# Poissons Ratio (z) = 0.01722 0.38144
#
# Static dielectric constant tensor:
#      x y z
#    x -8.403410 0.000000 -15.580410 
#    y 0.000000 4.130120 0.000000 
#    z -15.580410 0.000000 -15.018610 
# 
# 
# High freq. dielectric constant tensor:
#      x y z
#    x 1.897000 0.000000 -0.003320 
#    y 0.000000 1.873440 0.000000 
#    z -0.003320 0.000000 1.867660 
# 
# From -- ./inp_files/224698.got.cif
#   From: 2010.06.25/outbox.cif.g09.slc.cpg/sg15_113_cif.got.tgz:224698.got - 2010.06.28 07:06:18.
