data_PCOD8153248
_publ_section_title
;
Structure prediction by ZEFSAII (Michael W. Deem and Ramdas Pophale) SiO2 
 PCOD8153248
Probable space group: C 2/C
;
_chemical_formula_sum "Si O2"
_cell_formula_units_Z 60
_cell_length_a 10.498492
_cell_length_b 8.751979
_cell_length_c 29.206016
_cell_angle_alpha 90.000000
_cell_angle_beta 80.584800
_cell_angle_gamma 90.000000
_cell_volume 2647.373850
_symmetry_space_group_name_H-M "C 2/C"
_symmetry_group_IT_number 15
_symmetry_cell_setting 'monoclinic'
loop_
_space_group_symop_operation_xyz
x,y,z
-x,y,1/2-z
-x,-y,-z
x,-y,1/2+z
1/2+x,1/2+y,z
1/2-x,1/2+y,1/2-z
1/2-x,1/2-y,-z
1/2+x,1/2-y,1/2+z
loop_
_atom_site_type_symbol
_atom_site_label
_atom_site_fract_x
_atom_site_fract_y
_atom_site_fract_z
Si Si1 0.325272 0.891948 0.405301
Si Si2 0.341025 0.457086 0.887065
Si Si3 0.000000 0.351645 0.250000
Si Si4 0.600167 0.162062 0.909139
Si Si5 0.657894 0.689714 0.310185
Si Si6 0.504972 0.405347 0.304351
Si Si7 0.565247 0.475450 0.947906
Si Si8 0.914496 0.400774 0.822901
O O1 0.322007 0.724277 0.382495
O O2 0.455292 0.900851 0.428920
O O3 0.340449 0.040412 0.371836
O O4 0.188255 0.910228 0.438765
O O5 0.207740 0.533796 0.912370
O O6 0.374341 0.524047 0.834887
O O7 0.457415 0.501012 0.914973
O O8 0.886693 0.246151 0.237163
O O9 0.961452 0.450831 0.295106
O O10 0.598903 0.212901 0.855561
O O11 0.624930 0.305346 0.940758
O O12 0.620588 0.510066 0.317213
O O13 0.812105 0.696990 0.299036
O O14 0.500000 0.411239 0.250000
O O15 0.524994 0.229872 0.322412
O O16 0.500000 0.500000 0.000000
#
# Coordination Sequence:
#
# PCOD8153248 Si02
#       8
#     8   8   4   8   8   8   8   8
#     4  11  23  46  70 100 133 183 223 287 349 417
#     4  11  24  45  72 103 141 188 228 290 351 409
#     4  12  26  40  60  98 130 184 238 280 330 402
#     4  11  23  44  69 102 138 174 228 284 349 415
#     4  12  24  43  62  90 139 181 230 286 334 400
#     4  12  23  41  64  96 136 183 232 281 330 402
#     4  11  25  48  73 102 140 179 230 289 353 428
#     4  12  25  41  64  95 135 182 234 282 338 405
#
# _framework density 22.663969000000002
#
# number of rings (size 3 to 8) (size 9 to 14) (size 15 to 20)
#    0.000    0.533    8.000    0.000    1.867    5.867 
#    0.000    1.333    0.000    0.000    0.000    0.000 
#    0.000    0.000    0.000    0.000    0.000    0.000 
#
# Total GULP energy -371751.543502 kJ/mol
# GULP energy per Si atom -12391.718117 kJ/mol
# Density = 2.261238 g / cm^3
# Si number density = 22.663969 Si / 1000 Ang^3
#
#
#
# Elastic Constant Matrix: (Units=GPa)
#
#
# Indices 1 2 3 4 5 6 
#
# 1 115.5754 49.5080 21.4622 0.0000 -13.1023 0.0000
# 2 49.5080 123.8393 31.8166 0.0000 -7.3830 0.0000
# 3 21.4622 31.8166 92.0759 0.0000 -16.1529 0.0000
# 4 0.0000 0.0000 0.0000 23.6844 0.0000 -9.5606
# 5 -13.1023 -7.3830 -16.1529 0.0000 25.8759 0.0000
# 6 0.0000 0.0000 0.0000 -9.5606 0.0000 31.4426
#
#
#
# Elastic Compliance Matrix: (Units=1/GPa)
#
#
# Indices 1 2 3 4 5 6 
#
# 1 0.010916 -0.004006 -0.000439 0.000000 0.004110 0.000000
# 2 -0.004006 0.010343 -0.002783 0.000000 -0.000815 0.000000
# 3 -0.000439 -0.002783 0.013191 0.000000 0.007218 0.000000
# 4 0.000000 0.000000 0.000000 0.048129 0.000000 0.014634
# 5 0.004110 -0.000815 0.007218 0.000000 0.045000 0.000000
# 6 0.000000 0.000000 0.000000 0.014634 0.000000 0.036254
#
#
# Mechanical properties :
#
#
# Convention : Reuss Voigt Hill
#
# Bulk Modulus (GPa) = 50.01702 59.67381 54.84541
# Shear Modulus (GPa) = 27.03371 31.44750 29.24061
#
# Velocity S-wave (km/s) = 3.45745 3.72903 3.59580
# Velocity P-wave (km/s) = 6.16891 6.70283 6.44140
#
# Compressibility (1/GPa) = 0.01999319
#
# Stress axis : x y z
#
# Youngs Moduli (GPa) = 91.60954 96.68393 75.80986
#
# Poissons Ratio (x) = 0.38732 0.03329
# Poissons Ratio (y) = 0.36699 0.21099
# Poissons Ratio (z) = 0.04022 0.26909
#
# Static dielectric constant tensor:
#      x y z
#    x 4.177090 0.000000 -0.178190 
#    y 0.000000 4.317750 0.000000 
#    z -0.178190 0.000000 3.774400 
# 
# 
# High freq. dielectric constant tensor:
#      x y z
#    x 1.896110 0.000000 -0.018210 
#    y 0.000000 1.910270 0.000000 
#    z -0.018210 0.000000 1.860720 
# 
# From -- ./inp_files/310279.got.cif
#   From: 2010.06.25/outbox.cif.g09.slc.cpg/sg15_156_cif.got.tgz:310279.got - 2010.06.28 07:06:18.
