data_PCOD8153533
_publ_section_title
;
Structure prediction by ZEFSAII (Michael W. Deem and Ramdas Pophale) SiO2 
 PCOD8153533
Probable space group: C 2/C
;
_chemical_formula_sum "Si O2"
_cell_formula_units_Z 52
_cell_length_a 13.522444
_cell_length_b 14.572180
_cell_length_c 13.639261
_cell_angle_alpha 90.000000
_cell_angle_beta 108.779099
_cell_angle_gamma 90.000000
_cell_volume 2544.565059
_symmetry_space_group_name_H-M "C 2/C"
_symmetry_group_IT_number 15
_symmetry_cell_setting 'monoclinic'
loop_
_space_group_symop_operation_xyz
x,y,z
-x,y,1/2-z
-x,-y,-z
x,-y,1/2+z
1/2+x,1/2+y,z
1/2-x,1/2+y,1/2-z
1/2-x,1/2-y,-z
1/2+x,1/2-y,1/2+z
loop_
_atom_site_type_symbol
_atom_site_label
_atom_site_fract_x
_atom_site_fract_y
_atom_site_fract_z
Si Si1 0.347010 0.551038 0.053147
Si Si2 0.753699 0.110798 0.218631
Si Si3 0.954661 0.180751 0.382825
Si Si4 0.346135 0.298990 0.262136
Si Si5 0.570524 0.346087 0.408799
Si Si6 0.207315 0.438636 0.317475
Si Si7 0.500000 0.837723 0.250000
O O1 0.264167 0.575890 0.110973
O O2 0.437542 0.626325 0.077943
O O3 0.399141 0.452619 0.085953
O O4 0.284272 0.553643 0.933010
O O5 0.871165 0.122421 0.295408
O O6 0.685430 0.202652 0.200202
O O7 0.691621 0.037521 0.263697
O O8 0.909184 0.197161 0.477627
O O9 0.971506 0.277537 0.335704
O O10 0.448805 0.338527 0.345765
O O11 0.362242 0.289546 0.149806
O O12 0.253703 0.370415 0.250853
O O13 0.095065 0.401628 0.314369
#
# Coordination Sequence:
#
# PCOD8153533 Si02
#       7
#     8   8   8   8   8   8   4
#     4  12  23  41  74 103 130 178 237 292 330 394
#     4  12  25  43  69 101 142 180 225 281 342 405
#     4  12  22  41  68 104 133 176 235 279 334 401
#     4  11  24  43  68 103 141 174 224 287 341 399
#     4  11  24  40  71 103 134 177 231 288 335 393
#     4  12  25  47  68  99 140 181 226 280 347 404
#     4  12  28  44  68  96 144 182 222 280 344 424
#
# _framework density 20.435713
#
# number of rings (size 3 to 8) (size 9 to 14) (size 15 to 20)
#    0.000    0.308    7.692    1.385    4.308    3.077 
#    2.769    0.769    0.000    0.000    0.000    0.000 
#    0.000    0.000    0.000    0.000    0.000    0.000 
#
# Total GULP energy -322521.137880 kJ/mol
# GULP energy per Si atom -12404.659149 kJ/mol
# Density = 2.038920 g / cm^3
# Si number density = 20.435713 Si / 1000 Ang^3
#
#
#
# Elastic Constant Matrix: (Units=GPa)
#
#
# Indices 1 2 3 4 5 6 
#
# 1 90.7519 52.3986 45.0943 0.0000 -4.5151 0.0000
# 2 52.3986 123.9830 36.2414 0.0000 6.6212 0.0000
# 3 45.0943 36.2414 76.8519 0.0000 -27.6637 0.0000
# 4 0.0000 0.0000 0.0000 18.7533 0.0000 -4.6444
# 5 -4.5151 6.6212 -27.6637 0.0000 30.9047 0.0000
# 6 0.0000 0.0000 0.0000 -4.6444 0.0000 51.0699
#
#
#
# Elastic Compliance Matrix: (Units=1/GPa)
#
#
# Indices 1 2 3 4 5 6 
#
# 1 0.018813 -0.004283 -0.011360 0.000000 -0.006502 0.000000
# 2 -0.004283 0.012284 -0.006569 0.000000 -0.009137 0.000000
# 3 -0.011360 -0.006569 0.033468 0.000000 0.029706 0.000000
# 4 0.000000 0.000000 0.000000 0.054553 0.000000 0.004961
# 5 -0.006502 -0.009137 0.029706 0.000000 0.059956 0.000000
# 6 0.000000 0.000000 0.000000 0.004961 0.000000 0.020032
#
#
# Mechanical properties :
#
#
# Convention : Reuss Voigt Hill
#
# Bulk Modulus (GPa) = 49.64678 62.11725 55.88202
# Shear Modulus (GPa) = 19.98059 30.66908 25.32484
#
# Velocity S-wave (km/s) = 3.13026 3.87817 3.52411
# Velocity P-wave (km/s) = 6.11650 7.10746 6.63052
#
# Compressibility (1/GPa) = 0.02014229
#
# Stress axis : x y z
#
# Youngs Moduli (GPa) = 53.15424 81.40803 29.87918
#
# Poissons Ratio (x) = 0.34868 0.33942
# Poissons Ratio (y) = 0.22767 0.19626
# Poissons Ratio (z) = 0.60382 0.53473
#
# Static dielectric constant tensor:
#      x y z
#    x 3.890090 0.000000 -0.267060 
#    y 0.000000 3.675940 0.000000 
#    z -0.267060 0.000000 3.896730 
# 
# 
# High freq. dielectric constant tensor:
#      x y z
#    x 1.805730 0.000000 -0.012470 
#    y 0.000000 1.795680 0.000000 
#    z -0.012470 0.000000 1.804380 
# 
# From -- ./inp_files/154071.got.cif
#   From: 2010.06.25/outbox.cif.g09.slc.cpg/sg15_78_cif.got.tgz:154071.got - 2010.06.28 07:06:18.
