data_PCOD8153333
_publ_section_title
;
Structure prediction by ZEFSAII (Michael W. Deem and Ramdas Pophale) SiO2 
 PCOD8153333
Probable space group: C 2/C
;
_chemical_formula_sum "Si O2"
_cell_formula_units_Z 48
_cell_length_a 22.730846
_cell_length_b 5.442171
_cell_length_c 21.402885
_cell_angle_alpha 90.000000
_cell_angle_beta 129.887419
_cell_angle_gamma 90.000000
_cell_volume 2031.555474
_symmetry_space_group_name_H-M "C 2/C"
_symmetry_group_IT_number 15
_symmetry_cell_setting 'monoclinic'
loop_
_space_group_symop_operation_xyz
x,y,z
-x,y,1/2-z
-x,-y,-z
x,-y,1/2+z
1/2+x,1/2+y,z
1/2-x,1/2+y,1/2-z
1/2-x,1/2-y,-z
1/2+x,1/2-y,1/2+z
loop_
_atom_site_type_symbol
_atom_site_label
_atom_site_fract_x
_atom_site_fract_y
_atom_site_fract_z
Si Si1 0.167232 0.804438 0.917609
Si Si2 0.422876 0.045176 0.222618
Si Si3 0.686211 0.572733 0.801224
Si Si4 0.926932 0.244966 0.341367
Si Si5 0.914178 0.057590 0.017980
Si Si6 0.636061 0.940283 0.083699
O O1 0.122126 0.556277 0.868502
O O2 0.120359 0.960383 0.936201
O O3 0.176569 0.960837 0.862541
O O4 0.250000 0.750000 0.000000
O O5 0.500000 0.185575 0.250000
O O6 0.455082 0.838923 0.292618
O O7 0.363646 0.181419 0.227658
O O8 0.650045 0.414573 0.720667
O O9 0.774306 0.613222 0.845416
O O10 0.905317 0.455803 0.377057
O O11 0.994286 0.078977 0.416362
O O12 0.877987 0.301521 0.960678
O O13 0.896607 0.799666 0.973455
#
# Coordination Sequence:
#
# PCOD8153333 Si02
#       6
#     8   8   8   8   8   8
#     4  11  23  45  69 103 142 186 245 299 364 426
#     4  11  25  44  72 105 142 190 247 306 368 427
#     4  11  28  43  75 108 146 198 240 312 365 436
#     4  11  28  47  74 105 151 192 251 299 368 440
#     4  12  27  48  77 109 148 197 244 306 361 440
#     4  12  29  49  75 110 151 195 247 295 373 438
#
# _framework density 23.627213999999999
#
# number of rings (size 3 to 8) (size 9 to 14) (size 15 to 20)
#    0.000    0.667    3.333    2.000   14.000    1.333 
#    0.000    0.000    0.000    0.000    0.000    0.000 
#    0.000    0.000    0.000    0.000    0.000    0.000 
#
# Total GULP energy -297499.736355 kJ/mol
# GULP energy per Si atom -12395.822348 kJ/mol
# Density = 2.357344 g / cm^3
# Si number density = 23.627214 Si / 1000 Ang^3
#
#
#
# Elastic Constant Matrix: (Units=GPa)
#
#
# Indices 1 2 3 4 5 6 
#
# 1 102.5345 -8.2236 34.5009 0.0015 12.8354 -0.0033
# 2 -8.2236 74.9050 25.6852 -0.0136 0.2011 0.0347
# 3 34.5009 25.6852 106.7819 0.0018 15.1755 -0.0069
# 4 0.0015 -0.0136 0.0018 23.0175 0.0012 8.2812
# 5 12.8354 0.2011 15.1755 0.0012 37.6255 -0.0046
# 6 -0.0033 0.0347 -0.0069 8.2812 -0.0046 31.6793
#
#
#
# Elastic Compliance Matrix: (Units=1/GPa)
#
#
# Indices 1 2 3 4 5 6 
#
# 1 0.011630 0.002678 -0.004069 0.000003 -0.002340 -0.000004
# 2 0.002678 0.015239 -0.004656 0.000017 0.000883 -0.000022
# 3 -0.004069 -0.004656 0.012304 -0.000006 -0.003550 0.000009
# 4 0.000003 0.000017 -0.000006 0.047955 -0.000002 -0.012536
# 5 -0.002340 0.000883 -0.003550 -0.000002 0.028803 0.000003
# 6 -0.000004 -0.000022 0.000009 -0.012536 0.000003 0.034843
#
#
# Mechanical properties :
#
#
# Convention : Reuss Voigt Hill
#
# Bulk Modulus (GPa) = 36.92990 43.12736 40.02863
# Shear Modulus (GPa) = 29.08759 33.94841 31.51800
#
# Velocity S-wave (km/s) = 3.51252 3.79467 3.65632
# Velocity P-wave (km/s) = 5.66697 6.12309 5.89944
#
# Compressibility (1/GPa) = 0.02707833
#
# Stress axis : x y z
#
# Youngs Moduli (GPa) = 85.98584 65.62273 81.27355
#
# Poissons Ratio (x) = -0.17577 0.33072
# Poissons Ratio (y) = -0.23031 0.37844
# Poissons Ratio (z) = 0.34989 0.30556
#
# Static dielectric constant tensor:
#      x y z
#    x 4.355370 0.000000 0.002630 
#    y 0.000000 3.912690 0.000050 
#    z 0.002630 0.000050 4.466870 
# 
# 
# High freq. dielectric constant tensor:
#      x y z
#    x 1.951680 0.000000 0.001500 
#    y 0.000000 1.917670 0.000000 
#    z 0.001500 0.000000 1.960070 
# 
# From -- ./inp_files/254435.got.cif
#   From: 2010.06.25/outbox.cif.g09.slc.cpg/sg15_128_cif.got.tgz:254435.got - 2010.06.28 07:06:18.
