data_PCOD8153720
_publ_section_title
;
Structure prediction by ZEFSAII (Michael W. Deem and Ramdas Pophale) SiO2 
 PCOD8153720
Probable space group: C 2/C
;
_chemical_formula_sum "Si O2"
_cell_formula_units_Z 48
_cell_length_a 27.315872
_cell_length_b 16.794367
_cell_length_c 8.966179
_cell_angle_alpha 90.000000
_cell_angle_beta 147.638302
_cell_angle_gamma 90.000000
_cell_volume 2201.672535
_symmetry_space_group_name_H-M "C 2/C"
_symmetry_group_IT_number 15
_symmetry_cell_setting 'monoclinic'
loop_
_space_group_symop_operation_xyz
x,y,z
-x,y,1/2-z
-x,-y,-z
x,-y,1/2+z
1/2+x,1/2+y,z
1/2-x,1/2+y,1/2-z
1/2-x,1/2-y,-z
1/2+x,1/2-y,1/2+z
loop_
_atom_site_type_symbol
_atom_site_label
_atom_site_fract_x
_atom_site_fract_y
_atom_site_fract_z
Si Si1 0.343140 0.439557 0.949348
Si Si2 0.977147 0.307548 0.471008
Si Si3 0.163664 0.560213 0.803585
Si Si4 0.155881 0.098216 0.710784
Si Si5 0.000000 0.217747 0.250000
Si Si6 0.159758 0.600016 0.452880
Si Si7 0.500000 0.674945 0.750000
O O1 0.254703 0.413895 0.626247
O O2 0.375928 0.527216 0.982032
O O3 0.320892 0.439772 0.068315
O O4 0.423784 0.378049 0.130801
O O5 0.953272 0.277506 0.245625
O O6 0.083815 0.331520 0.760860
O O7 0.918268 0.382475 0.363821
O O8 0.952025 0.232175 0.507359
O O9 0.179621 0.563925 0.667508
O O10 0.131726 0.472156 0.770385
O O11 0.077416 0.163677 0.524934
O O12 0.246852 0.137898 0.873348
#
# Coordination Sequence:
#
# PCOD8153720 Si02
#       7
#     8   8   8   8   4   8   4
#     4  11  25  43  71  94 131 170 220 269 315 387
#     4  12  27  44  64  99 134 172 213 267 329 385
#     4  11  24  44  70  96 128 174 218 267 320 379
#     4  11  25  45  67  99 126 172 222 265 321 380
#     4  12  29  42  67  96 134 172 212 270 325 390
#     4  11  24  44  70  95 131 170 222 266 316 385
#     4  12  25  46  63  96 136 168 214 266 329 384
#
# _framework density 21.801606
#
# number of rings (size 3 to 8) (size 9 to 14) (size 15 to 20)
#    0.000    0.667    3.333    5.000    9.333    4.000 
#    0.000    0.000    0.000    0.000    0.000    0.000 
#    0.000    0.000    0.000    0.000    0.000    0.000 
#
# Total GULP energy -297642.803657 kJ/mol
# GULP energy per Si atom -12401.783486 kJ/mol
# Density = 2.175199 g / cm^3
# Si number density = 21.801606 Si / 1000 Ang^3
#
#
#
# Elastic Constant Matrix: (Units=GPa)
#
#
# Indices 1 2 3 4 5 6 
#
# 1 117.9502 19.7207 23.9685 0.0000 -17.5356 0.0000
# 2 19.7207 54.9605 16.2246 0.0000 10.5157 0.0000
# 3 23.9685 16.2246 66.6451 0.0000 -7.7287 0.0000
# 4 0.0000 0.0000 0.0000 31.2136 0.0000 -15.3691
# 5 -17.5356 10.5157 -7.7287 0.0000 51.4871 0.0000
# 6 0.0000 0.0000 0.0000 -15.3691 0.0000 15.5543
#
#
#
# Elastic Compliance Matrix: (Units=1/GPa)
#
#
# Indices 1 2 3 4 5 6 
#
# 1 0.010138 -0.003698 -0.002298 0.000000 0.003863 0.000000
# 2 -0.003698 0.022194 -0.004829 0.000000 -0.006517 0.000000
# 3 -0.002298 -0.004829 0.017332 0.000000 0.002805 0.000000
# 4 0.000000 0.000000 0.000000 0.062393 0.000000 0.061650
# 5 0.003863 -0.006517 0.002805 0.000000 0.022490 0.000000
# 6 0.000000 0.000000 0.000000 0.061650 0.000000 0.125206
#
#
# Mechanical properties :
#
#
# Convention : Reuss Voigt Hill
#
# Bulk Modulus (GPa) = 35.69590 39.93148 37.81369
# Shear Modulus (GPa) = 17.19739 31.62713 24.41226
#
# Velocity S-wave (km/s) = 2.81163 3.81291 3.34989
# Velocity P-wave (km/s) = 5.19124 6.14329 5.68722
#
# Compressibility (1/GPa) = 0.02801442
#
# Stress axis : x y z
#
# Youngs Moduli (GPa) = 98.64118 45.05627 57.69645
#
# Poissons Ratio (x) = 0.16664 0.13256
# Poissons Ratio (y) = 0.36482 0.27861
# Poissons Ratio (z) = 0.22664 0.21757
#
# Static dielectric constant tensor:
#      x y z
#    x 3.922080 0.000000 -0.051450 
#    y 0.000000 3.838570 0.000000 
#    z -0.051450 0.000000 3.814280 
# 
# 
# High freq. dielectric constant tensor:
#      x y z
#    x 1.883970 0.000000 -0.006930 
#    y 0.000000 1.855570 0.000000 
#    z -0.006930 0.000000 1.850970 
# 
# From -- ./inp_files/48427.got.cif
#   From: 2010.06.25/outbox.cif.g09.slc.cpg/sg15_25_cif.got.tgz:48427.got - 2010.06.28 07:06:18.
