data_PCOD8153459
_publ_section_title
;
Structure prediction by ZEFSAII (Michael W. Deem and Ramdas Pophale) SiO2 
 PCOD8153459
Probable space group: C 2/C
;
_chemical_formula_sum "Si O2"
_cell_formula_units_Z 56
_cell_length_a 28.103387
_cell_length_b 12.183270
_cell_length_c 14.133355
_cell_angle_alpha 90.000000
_cell_angle_beta 31.788180
_cell_angle_gamma 90.000000
_cell_volume 2549.162095
_symmetry_space_group_name_H-M "C 2/C"
_symmetry_group_IT_number 15
_symmetry_cell_setting 'monoclinic'
loop_
_space_group_symop_operation_xyz
x,y,z
-x,y,1/2-z
-x,-y,-z
x,-y,1/2+z
1/2+x,1/2+y,z
1/2-x,1/2+y,1/2-z
1/2-x,1/2-y,-z
1/2+x,1/2-y,1/2+z
loop_
_atom_site_type_symbol
_atom_site_label
_atom_site_fract_x
_atom_site_fract_y
_atom_site_fract_z
Si Si1 0.285464 0.528397 0.765905
Si Si2 0.661386 0.677598 0.662516
Si Si3 0.523026 0.861553 0.916321
Si Si4 0.657811 0.817246 0.382721
Si Si5 0.895986 0.098733 0.927903
Si Si6 0.220449 0.690104 0.456624
Si Si7 0.459721 0.925876 0.216229
O O1 0.338089 0.619255 0.737114
O O2 0.190321 0.577549 0.888422
O O3 0.347220 0.490046 0.575419
O O4 0.267208 0.427963 0.867185
O O5 0.750000 0.750000 0.500000
O O6 0.571010 0.749173 0.810054
O O7 0.651155 0.589390 0.595351
O O8 0.574603 0.958972 0.771840
O O9 0.417083 0.856550 0.066135
O O10 0.530053 0.880427 0.018102
O O11 0.613804 0.724801 0.522902
O O12 0.748789 0.767969 0.181485
O O13 0.000000 0.064765 0.750000
O O14 0.250000 0.750000 0.500000
O O15 0.113898 0.668719 0.640948
O O16 0.500000 0.954343 0.250000
#
# Coordination Sequence:
#
# PCOD8153459 Si02
#       7
#     8   8   8   8   8   8   8
#     4  11  27  44  71 106 136 183 239 285 341 435
#     4  12  25  44  73 104 138 185 238 290 350 418
#     4  11  25  44  71 104 137 180 240 291 342 426
#     4  11  23  47  71  98 140 181 235 279 349 422
#     4  11  25  46  71 101 140 189 227 290 357 411
#     4  11  24  45  68  99 139 183 218 287 354 403
#     4  11  25  42  71 105 138 178 232 295 351 401
#
# _framework density 21.968004000000001
#
# number of rings (size 3 to 8) (size 9 to 14) (size 15 to 20)
#    0.000    0.857    4.286    1.714    6.000    2.857 
#    2.571    0.000    0.000    0.000    0.000    0.000 
#    0.000    0.000    0.000    0.000    0.000    0.000 
#
# Total GULP energy -347213.658787 kJ/mol
# GULP energy per Si atom -12400.487814 kJ/mol
# Density = 2.191800 g / cm^3
# Si number density = 21.968004 Si / 1000 Ang^3
#
#
#
# Elastic Constant Matrix: (Units=GPa)
#
#
# Indices 1 2 3 4 5 6 
#
# 1 142.3724 44.9780 58.4081 0.0000 14.4933 0.0000
# 2 44.9780 103.1755 42.9125 0.0000 2.5773 0.0000
# 3 58.4081 42.9125 107.9864 0.0000 5.8916 0.0000
# 4 0.0000 0.0000 0.0000 35.0994 0.0000 3.2681
# 5 14.4933 2.5773 5.8916 0.0000 35.8187 0.0000
# 6 0.0000 0.0000 0.0000 3.2681 0.0000 39.9734
#
#
#
# Elastic Compliance Matrix: (Units=1/GPa)
#
#
# Indices 1 2 3 4 5 6 
#
# 1 0.009831 -0.002476 -0.004164 0.000000 -0.003115 0.000000
# 2 -0.002476 0.012235 -0.003561 0.000000 0.000707 0.000000
# 3 -0.004164 -0.003561 0.012938 0.000000 -0.000187 0.000000
# 4 0.000000 0.000000 0.000000 0.028709 0.000000 -0.002347
# 5 -0.003115 0.000707 -0.000187 0.000000 0.029159 0.000000
# 6 0.000000 0.000000 0.000000 -0.002347 0.000000 0.025209
#
#
# Mechanical properties :
#
#
# Convention : Reuss Voigt Hill
#
# Bulk Modulus (GPa) = 68.48381 71.79240 70.13811
# Shear Modulus (GPa) = 34.87946 35.99400 35.43673
#
# Velocity S-wave (km/s) = 3.98897 4.05220 4.02071
# Velocity P-wave (km/s) = 7.24278 7.39223 7.31789
#
# Compressibility (1/GPa) = 0.01460199
#
# Stress axis : x y z
#
# Youngs Moduli (GPa) = 101.71520 81.73073 77.29224
#
# Poissons Ratio (x) = 0.20239 0.32182
# Poissons Ratio (y) = 0.25188 0.27527
# Poissons Ratio (z) = 0.42350 0.29107
#
# Static dielectric constant tensor:
#      x y z
#    x 5.571910 0.000000 -1.155970 
#    y 0.000000 4.004210 0.000000 
#    z -1.155970 0.000000 5.318400 
# 
# 
# High freq. dielectric constant tensor:
#      x y z
#    x 1.866950 0.000000 0.017850 
#    y 0.000000 1.863440 0.000000 
#    z 0.017850 0.000000 1.868540 
# 
# From -- ./inp_files/181935.got.cif
#   From: 2010.06.25/outbox.cif.g09.slc.cpg/sg15_91_cif.got.tgz:181935.got - 2010.06.28 07:06:18.
