data_PCOD8153254
_publ_section_title
;
Structure prediction by ZEFSAII (Michael W. Deem and Ramdas Pophale) SiO2 
 PCOD8153254
Probable space group: C 2/C
;
_chemical_formula_sum "Si O2"
_cell_formula_units_Z 64
_cell_length_a 9.291564
_cell_length_b 15.640813
_cell_length_c 29.695262
_cell_angle_alpha 90.000000
_cell_angle_beta 45.579293
_cell_angle_gamma 90.000000
_cell_volume 3082.245135
_symmetry_space_group_name_H-M "C 2/C"
_symmetry_group_IT_number 15
_symmetry_cell_setting 'monoclinic'
loop_
_space_group_symop_operation_xyz
x,y,z
-x,y,1/2-z
-x,-y,-z
x,-y,1/2+z
1/2+x,1/2+y,z
1/2-x,1/2+y,1/2-z
1/2-x,1/2-y,-z
1/2+x,1/2-y,1/2+z
loop_
_atom_site_type_symbol
_atom_site_label
_atom_site_fract_x
_atom_site_fract_y
_atom_site_fract_z
Si Si1 0.703584 0.569706 0.906635
Si Si2 0.196208 0.843289 0.030179
Si Si3 0.316074 0.973437 0.479377
Si Si4 0.971719 0.063199 0.120068
Si Si5 0.912919 0.363276 0.219444
Si Si6 0.537257 0.526151 0.789150
Si Si7 0.760943 0.269418 0.805632
Si Si8 0.711964 0.140113 0.888298
O O1 0.525242 0.637719 0.939922
O O2 0.703568 0.530491 0.956335
O O3 0.682785 0.495130 0.874302
O O4 0.909997 0.619549 0.854476
O O5 0.195751 0.835779 0.083914
O O6 0.250000 0.750000 0.000000
O O7 0.339410 0.924636 0.985437
O O8 0.529265 0.926617 0.432961
O O9 0.172513 0.922840 0.546257
O O10 0.053907 0.019876 0.147472
O O11 0.848885 0.140933 0.166954
O O12 0.765669 0.445325 0.249153
O O13 0.802453 0.277726 0.226764
O O14 0.000000 0.348861 0.250000
O O15 0.500000 0.474782 0.750000
O O16 0.387921 0.606683 0.816432
O O17 0.662637 0.225788 0.871793
O O18 0.000000 0.283808 0.750000
#
# Coordination Sequence:
#
# PCOD8153254 Si02
#       8
#     8   8   8   8   8   8   8   8
#     4  11  23  44  69  96 131 181 220 268 339 411
#     4  11  25  41  66 102 135 167 219 277 334 391
#     4  11  24  45  69  98 135 180 221 263 344 414
#     4  11  26  42  68 101 136 171 226 282 334 402
#     4  12  22  43  70  94 132 179 227 279 336 396
#     4  12  22  44  69  95 131 185 226 271 340 405
#     4  12  27  44  67 100 134 177 230 282 337 387
#     4  12  22  45  69  93 135 182 214 277 332 405
#
# _framework density 20.764085999999999
#
# number of rings (size 3 to 8) (size 9 to 14) (size 15 to 20)
#    0.000    0.500    7.500    1.875    5.250    2.000 
#    0.000    0.000    0.000    0.000    0.000    0.000 
#    0.000    0.000    0.000    0.000    0.000    0.000 
#
# Total GULP energy -396583.471486 kJ/mol
# GULP energy per Si atom -12393.233484 kJ/mol
# Density = 2.071683 g / cm^3
# Si number density = 20.764086 Si / 1000 Ang^3
#
#
#
# Elastic Constant Matrix: (Units=GPa)
#
#
# Indices 1 2 3 4 5 6 
#
# 1 110.3603 12.2796 37.2645 -0.0005 26.4842 -0.0002
# 2 12.2796 62.1274 25.6857 -0.0003 -1.4806 0.0000
# 3 37.2645 25.6857 95.8588 -0.0023 12.2232 -0.0017
# 4 -0.0005 -0.0003 -0.0023 30.1914 0.0003 2.0790
# 5 26.4842 -1.4806 12.2232 0.0003 56.9048 0.0005
# 6 -0.0002 0.0000 -0.0017 2.0790 0.0005 0.3732
#
#
#
# Elastic Compliance Matrix: (Units=1/GPa)
#
#
# Indices 1 2 3 4 5 6 
#
# 1 0.011491 -0.000872 -0.003648 0.000001 -0.004587 -0.000008
# 2 -0.000872 0.018302 -0.004809 0.000002 0.001915 -0.000040
# 3 -0.003648 -0.004809 0.013303 -0.000005 -0.001285 0.000091
# 4 0.000001 0.000002 -0.000005 0.053736 0.000004 -0.299360
# 5 -0.004587 0.001915 -0.001285 0.000004 0.020034 -0.000056
# 6 -0.000008 -0.000040 0.000091 -0.299360 -0.000056 4.347408
#
#
# Mechanical properties :
#
#
# Convention : Reuss Voigt Hill
#
# Bulk Modulus (GPa) = 40.92276 46.53400 43.72838
# Shear Modulus (GPa) = 1.11332 30.36832 15.74082
#
# Velocity S-wave (km/s) = 0.73303 3.82847 2.75631
# Velocity P-wave (km/s) = 4.52412 6.48092 5.58883
#
# Compressibility (1/GPa) = 0.02443628
#
# Stress axis : x y z
#
# Youngs Moduli (GPa) = 87.02449 54.63780 75.17215
#
# Poissons Ratio (x) = 0.04765 0.27426
# Poissons Ratio (y) = 0.07590 0.36153
# Poissons Ratio (z) = 0.31750 0.26277
#
# Static dielectric constant tensor:
#      x y z
#    x 3.907650 0.000000 0.108840 
#    y 0.000000 3.592280 0.000000 
#    z 0.108840 0.000000 3.920510 
# 
# 
# High freq. dielectric constant tensor:
#      x y z
#    x 1.834290 0.000000 0.008840 
#    y 0.000000 1.790920 0.000000 
#    z 0.008840 0.000000 1.827130 
# 
# From -- ./inp_files/308253.got.cif
#   From: 2010.06.25/outbox.cif.g09.slc.cpg/sg15_155_cif.got.tgz:308253.got - 2010.06.28 07:06:18.
