data_PCOD8153265
_publ_section_title
;
Structure prediction by ZEFSAII (Michael W. Deem and Ramdas Pophale) SiO2 
 PCOD8153265
Probable space group: C 2/C
;
_chemical_formula_sum "Si O2"
_cell_formula_units_Z 56
_cell_length_a 9.617824
_cell_length_b 21.789358
_cell_length_c 19.670435
_cell_angle_alpha 90.000000
_cell_angle_beta 143.294007
_cell_angle_gamma 90.000000
_cell_volume 2463.911048
_symmetry_space_group_name_H-M "C 2/C"
_symmetry_group_IT_number 15
_symmetry_cell_setting 'monoclinic'
loop_
_space_group_symop_operation_xyz
x,y,z
-x,y,1/2-z
-x,-y,-z
x,-y,1/2+z
1/2+x,1/2+y,z
1/2-x,1/2+y,1/2-z
1/2-x,1/2-y,-z
1/2+x,1/2-y,1/2+z
loop_
_atom_site_type_symbol
_atom_site_label
_atom_site_fract_x
_atom_site_fract_y
_atom_site_fract_z
Si Si1 0.902945 0.902754 0.039567
Si Si2 0.904028 0.694856 0.031530
Si Si3 0.297523 0.810056 0.725871
Si Si4 0.423807 0.183700 0.887265
Si Si5 0.185503 0.944180 0.268786
Si Si6 0.606884 0.007509 0.867264
Si Si7 0.866206 0.868525 0.494022
O O1 0.758380 0.864876 0.037794
O O2 0.738152 0.943133 0.925600
O O3 0.077023 0.944426 0.150787
O O4 0.042410 0.853815 0.046493
O O5 0.112067 0.676839 0.163272
O O6 0.750000 0.750000 0.000000
O O7 0.000223 0.704449 0.993256
O O8 0.500000 0.821428 0.750000
O O9 0.226091 0.739044 0.700421
O O10 0.081265 0.856075 0.629281
O O11 0.266407 0.123210 0.823884
O O12 0.653105 0.175019 0.931189
O O13 0.405463 0.989318 0.346281
O O14 0.000000 0.971093 0.250000
O O15 0.500000 0.015673 0.750000
O O16 0.791209 0.060387 0.959771
#
# Coordination Sequence:
#
# PCOD8153265 Si02
#       7
#     8   8   8   8   8   8   8
#     4  12  24  42  71 101 133 184 233 284 350 422
#     4  12  24  42  70 104 136 182 233 287 355 415
#     4  12  23  40  72 101 136 183 231 288 349 416
#     4  11  24  45  67 101 141 178 237 291 345 424
#     4  11  23  44  70  97 139 185 231 287 354 417
#     4  11  26  44  70 101 140 183 236 293 348 422
#     4  11  25  45  66 101 139 178 235 288 349 410
#
# _framework density 22.728093000000001
#
# number of rings (size 3 to 8) (size 9 to 14) (size 15 to 20)
#    0.000    0.571    5.714    2.143    2.000    1.143 
#    0.000    1.429    0.000    0.000    0.000    0.000 
#    0.000    0.000    0.000    0.000    0.000    0.000 
#
# Total GULP energy -347131.026654 kJ/mol
# GULP energy per Si atom -12397.536666 kJ/mol
# Density = 2.267636 g / cm^3
# Si number density = 22.728093 Si / 1000 Ang^3
#
#
#
# Elastic Constant Matrix: (Units=GPa)
#
#
# Indices 1 2 3 4 5 6 
#
# 1 135.8840 26.7856 44.8790 -0.0013 5.7825 -0.0006
# 2 26.7856 62.3605 15.6040 0.0005 4.3172 0.0005
# 3 44.8790 15.6040 113.1514 -0.0009 -0.9194 0.0005
# 4 -0.0013 0.0005 -0.0009 37.9916 -0.0013 3.2065
# 5 5.7825 4.3172 -0.9194 -0.0013 36.1728 -0.0006
# 6 -0.0006 0.0005 0.0005 3.2065 -0.0006 23.8584
#
#
#
# Elastic Compliance Matrix: (Units=1/GPa)
#
#
# Indices 1 2 3 4 5 6 
#
# 1 0.009055 -0.003011 -0.003186 0.000000 -0.001169 0.000000
# 2 -0.003011 0.017762 -0.001269 0.000000 -0.001671 0.000000
# 3 -0.003186 -0.001269 0.010284 0.000000 0.000922 0.000000
# 4 0.000000 0.000000 0.000000 0.026624 0.000001 -0.003578
# 5 -0.001169 -0.001671 0.000922 0.000001 0.028055 0.000001
# 6 0.000000 0.000000 0.000000 -0.003578 0.000001 0.042395
#
#
# Mechanical properties :
#
#
# Convention : Reuss Voigt Hill
#
# Bulk Modulus (GPa) = 45.10676 53.99255 49.54966
# Shear Modulus (GPa) = 31.94994 34.54638 33.24816
#
# Velocity S-wave (km/s) = 3.75340 3.90293 3.82889
# Velocity P-wave (km/s) = 6.21879 6.64213 6.43394
#
# Compressibility (1/GPa) = 0.02216963
#
# Stress axis : x y z
#
# Youngs Moduli (GPa) = 110.44050 56.29893 97.24165
#
# Poissons Ratio (x) = 0.16953 0.30977
# Poissons Ratio (y) = 0.33256 0.12337
# Poissons Ratio (z) = 0.35182 0.07143
#
# Static dielectric constant tensor:
#      x y z
#    x 4.260610 0.000000 0.191250 
#    y 0.000000 3.861260 0.000000 
#    z 0.191250 0.000000 4.196600 
# 
# 
# High freq. dielectric constant tensor:
#      x y z
#    x 1.903880 0.000000 0.008810 
#    y 0.000000 1.883110 0.000000 
#    z 0.008810 0.000000 1.903330 
# 
# From -- ./inp_files/193891.got.cif
#   From: 2010.06.25/outbox.cif.g09.slc.cpg/sg15_97_cif.got.tgz:193891.got - 2010.06.28 07:06:18.
