data_PCOD8153382
_publ_section_title
;
Structure prediction by ZEFSAII (Michael W. Deem and Ramdas Pophale) SiO2 
 PCOD8153382
Probable space group: C 2/C
;
_chemical_formula_sum "Si O2"
_cell_formula_units_Z 48
_cell_length_a 30.233247
_cell_length_b 11.602084
_cell_length_c 21.740531
_cell_angle_alpha 90.000000
_cell_angle_beta 17.204358
_cell_angle_gamma 90.000000
_cell_volume 2255.593273
_symmetry_space_group_name_H-M "C 2/C"
_symmetry_group_IT_number 15
_symmetry_cell_setting 'monoclinic'
loop_
_space_group_symop_operation_xyz
x,y,z
-x,y,1/2-z
-x,-y,-z
x,-y,1/2+z
1/2+x,1/2+y,z
1/2-x,1/2+y,1/2-z
1/2-x,1/2-y,-z
1/2+x,1/2-y,1/2+z
loop_
_atom_site_type_symbol
_atom_site_label
_atom_site_fract_x
_atom_site_fract_y
_atom_site_fract_z
Si Si1 0.332199 0.334270 0.249225
Si Si2 0.184720 0.451563 0.885875
Si Si3 0.284961 0.404018 0.617446
Si Si4 0.850044 0.441324 0.300835
Si Si5 0.097767 0.010846 0.731320
Si Si6 0.380825 0.308681 0.708725
O O1 0.264544 0.427080 0.292032
O O2 0.222714 0.225106 0.399340
O O3 0.349251 0.386251 0.294488
O O4 0.492546 0.290622 0.011212
O O5 0.237159 0.400830 0.751632
O O6 0.231218 0.359428 0.876216
O O7 0.007714 0.468200 0.123159
O O8 0.168739 0.485533 0.736208
O O9 0.453031 0.449525 0.385503
O O10 0.726179 0.479360 0.513476
O O11 0.836185 0.307467 0.302505
O O12 0.054296 0.898430 0.828053
#
# Coordination Sequence:
#
# PCOD8153382 Si02
#       6
#     8   8   8   8   8   8
#     4  11  24  44  75  97 136 195 232 286 347 420
#     4  11  24  44  71 102 140 181 242 291 343 423
#     4  12  25  43  72  98 140 187 235 282 348 426
#     4  12  28  42  70 108 139 179 236 294 355 413
#     4  11  25  50  66 103 145 182 230 292 363 414
#     4  11  23  45  75  99 136 187 229 298 351 409
#
# _framework density 21.280432000000001
#
# number of rings (size 3 to 8) (size 9 to 14) (size 15 to 20)
#    0.000    0.667    5.000    2.500    7.000    3.333 
#    6.000    0.000    0.000    0.000    0.000    0.000 
#    0.000    0.000    0.000    0.000    0.000    0.000 
#
# Total GULP energy -297768.107652 kJ/mol
# GULP energy per Si atom -12407.004486 kJ/mol
# Density = 2.123200 g / cm^3
# Si number density = 21.280432 Si / 1000 Ang^3
#
#
#
# Elastic Constant Matrix: (Units=GPa)
#
#
# Indices 1 2 3 4 5 6 
#
# 1 73.8712 42.3941 31.6739 0.0003 -11.6963 0.0001
# 2 42.3941 130.4404 28.2632 -0.0023 -10.9020 0.0006
# 3 31.6739 28.2632 127.2180 -0.0022 -3.4201 0.0006
# 4 0.0003 -0.0023 -0.0022 28.2446 0.0009 0.3642
# 5 -11.6963 -10.9020 -3.4201 0.0009 41.2489 -0.0001
# 6 0.0001 0.0006 0.0006 0.3642 -0.0001 32.4257
#
#
#
# Elastic Compliance Matrix: (Units=1/GPa)
#
#
# Indices 1 2 3 4 5 6 
#
# 1 0.018400 -0.004943 -0.003385 -0.000001 0.003630 0.000000
# 2 -0.004943 0.009548 -0.000862 0.000001 0.001050 0.000000
# 3 -0.003385 -0.000862 0.008883 0.000001 -0.000451 0.000000
# 4 -0.000001 0.000001 0.000001 0.035410 -0.000001 -0.000398
# 5 0.003630 0.001050 -0.000451 -0.000001 0.025513 0.000000
# 6 0.000000 0.000000 0.000000 -0.000398 0.000000 0.030844
#
#
# Mechanical properties :
#
#
# Convention : Reuss Voigt Hill
#
# Bulk Modulus (GPa) = 54.20333 59.57688 56.89010
# Shear Modulus (GPa) = 32.65222 35.66372 34.15797
#
# Velocity S-wave (km/s) = 3.92136 4.09821 4.01076
# Velocity P-wave (km/s) = 6.78447 7.10286 6.94549
#
# Compressibility (1/GPa) = 0.01844905
#
# Stress axis : x y z
#
# Youngs Moduli (GPa) = 54.34678 104.73917 112.57722
#
# Poissons Ratio (x) = 0.51776 0.38112
# Poissons Ratio (y) = 0.26865 0.09706
# Poissons Ratio (z) = 0.18398 0.09030
#
# Static dielectric constant tensor:
#      x y z
#    x 4.009330 0.000000 -0.286940 
#    y 0.000000 3.946700 0.000000 
#    z -0.286940 0.000000 3.903140 
# 
# 
# High freq. dielectric constant tensor:
#      x y z
#    x 1.842340 0.000000 -0.011030 
#    y 0.000000 1.843630 0.000000 
#    z -0.011030 0.000000 1.833390 
# 
# From -- ./inp_files/103760.got.cif
#   From: 2010.06.25/outbox.cif.g09.slc.cpg/sg15_52_cif.got.tgz:103760.got - 2010.06.28 07:06:18.
