data_PCOD8153007
_publ_section_title
;
Structure prediction by ZEFSAII (Michael W. Deem and Ramdas Pophale) SiO2 
 PCOD8153007
Probable space group: C 2/C
;
_chemical_formula_sum "Si O2"
_cell_formula_units_Z 48
_cell_length_a 25.548797
_cell_length_b 6.861784
_cell_length_c 13.914314
_cell_angle_alpha 90.000000
_cell_angle_beta 105.426327
_cell_angle_gamma 90.000000
_cell_volume 2351.442129
_symmetry_space_group_name_H-M "C 2/C"
_symmetry_group_IT_number 15
_symmetry_cell_setting 'monoclinic'
loop_
_space_group_symop_operation_xyz
x,y,z
-x,y,1/2-z
-x,-y,-z
x,-y,1/2+z
1/2+x,1/2+y,z
1/2-x,1/2+y,1/2-z
1/2-x,1/2-y,-z
1/2+x,1/2-y,1/2+z
loop_
_atom_site_type_symbol
_atom_site_label
_atom_site_fract_x
_atom_site_fract_y
_atom_site_fract_z
Si Si1 0.940951 0.722122 0.180685
Si Si2 0.939787 0.006468 0.011743
Si Si3 0.127079 0.097747 0.696856
Si Si4 0.316724 0.941451 0.863346
Si Si5 0.121802 0.635250 0.920723
Si Si6 0.298283 0.278306 0.703185
O O1 0.914415 0.885277 0.235714
O O2 0.911271 0.515439 0.160475
O O3 0.000000 0.677496 0.250000
O O4 0.938276 0.813710 0.074352
O O5 0.920537 0.202050 0.059442
O O6 0.899483 0.977030 0.902932
O O7 0.000000 0.000000 0.000000
O O8 0.140640 0.318735 0.677419
O O9 0.181481 0.988328 0.752760
O O10 0.263977 0.807314 0.857508
O O11 0.302959 0.133466 0.796255
O O12 0.345988 0.981413 0.979575
O O13 0.167517 0.722313 0.873569
#
# Coordination Sequence:
#
# PCOD8153007 Si02
#       6
#     8   8   8   8   8   8
#     4  12  24  43  67  98 131 169 219 267 324 386
#     4  11  24  43  65  93 131 173 218 265 324 386
#     4  11  23  42  65  93 132 169 216 267 317 390
#     4  11  24  43  65  99 129 171 218 266 326 386
#     4  11  26  42  66 101 133 168 218 275 320 386
#     4  12  22  43  69  94 132 174 217 264 328 387
#
# _framework density 20.413004999999998
#
# number of rings (size 3 to 8) (size 9 to 14) (size 15 to 20)
#    0.000    0.667    6.667    1.500    0.000    2.667 
#    0.000    1.667    0.000    0.000    0.000    0.000 
#    0.000    0.000    0.000    0.000    0.000    0.000 
#
# Total GULP energy -297525.935764 kJ/mol
# GULP energy per Si atom -12396.913990 kJ/mol
# Density = 2.036654 g / cm^3
# Si number density = 20.413005 Si / 1000 Ang^3
#
#
#
# Elastic Constant Matrix: (Units=GPa)
#
#
# Indices 1 2 3 4 5 6 
#
# 1 110.3835 20.5704 39.0531 0.0000 -2.8914 0.0000
# 2 20.5704 56.9513 30.1598 0.0000 0.1145 0.0000
# 3 39.0531 30.1598 104.4560 0.0000 4.8201 0.0000
# 4 0.0000 0.0000 0.0000 -37.2316 0.0000 24.9980
# 5 -2.8914 0.1145 4.8201 0.0000 40.2836 0.0000
# 6 0.0000 0.0000 0.0000 24.9980 0.0000 30.0884
#
#
#
# Elastic Compliance Matrix: (Units=1/GPa)
#
#
# Indices 1 2 3 4 5 6 
#
# 1 0.010695 -0.002029 -0.003468 0.000000 0.001188 0.000000
# 2 -0.002029 0.021131 -0.005363 0.000000 0.000436 0.000000
# 3 -0.003468 -0.005363 0.012498 0.000000 -0.001729 0.000000
# 4 0.000000 0.000000 0.000000 -0.017241 0.000000 0.014324
# 5 0.001188 0.000436 -0.001729 0.000000 0.025115 0.000000
# 6 0.000000 0.000000 0.000000 0.014324 0.000000 0.021334
#
#
# Mechanical properties :
#
#
# Convention : Reuss Voigt Hill
#
# Bulk Modulus (GPa) = 44.23724 50.15083 47.19403
# Shear Modulus (GPa) = 48.64459 18.76191 33.70325
#
# Velocity S-wave (km/s) = 4.88691 3.03498 4.06774
# Velocity P-wave (km/s) = 7.31852 6.07477 6.72546
#
# Compressibility (1/GPa) = 0.02260539
#
# Stress axis : x y z
#
# Youngs Moduli (GPa) = 93.49786 47.32437 80.01261
#
# Poissons Ratio (x) = 0.09603 0.27746
# Poissons Ratio (y) = 0.18972 0.42908
# Poissons Ratio (z) = 0.32422 0.25378
#
# Static dielectric constant tensor:
#      x y z
#    x 3.768590 0.000000 -0.058670 
#    y 0.000000 3.625300 0.000000 
#    z -0.058670 0.000000 4.224140 
# 
# 
# High freq. dielectric constant tensor:
#      x y z
#    x 1.811750 0.000000 -0.002560 
#    y 0.000000 1.790890 0.000000 
#    z -0.002560 0.000000 1.811150 
# 
# From -- ./inp_files/180226.got.cif
#   From: 2010.06.25/outbox.cif.g09.slc.cpg/sg15_91_cif.got.tgz:180226.got - 2010.06.28 07:06:18.
