data_PCOD8153677
_publ_section_title
;
Structure prediction by ZEFSAII (Michael W. Deem and Ramdas Pophale) SiO2 
 PCOD8153677
Probable space group: C 2/C
;
_chemical_formula_sum "Si O2"
_cell_formula_units_Z 52
_cell_length_a 17.161179
_cell_length_b 18.557649
_cell_length_c 15.214697
_cell_angle_alpha 90.000000
_cell_angle_beta 150.284131
_cell_angle_gamma 90.000000
_cell_volume 2401.881795
_symmetry_space_group_name_H-M "C 2/C"
_symmetry_group_IT_number 15
_symmetry_cell_setting 'monoclinic'
loop_
_space_group_symop_operation_xyz
x,y,z
-x,y,1/2-z
-x,-y,-z
x,-y,1/2+z
1/2+x,1/2+y,z
1/2-x,1/2+y,1/2-z
1/2-x,1/2-y,-z
1/2+x,1/2-y,1/2+z
loop_
_atom_site_type_symbol
_atom_site_label
_atom_site_fract_x
_atom_site_fract_y
_atom_site_fract_z
Si Si1 0.842009 0.552369 0.512581
Si Si2 0.000000 0.577474 0.250000
Si Si3 0.096025 0.830243 0.255071
Si Si4 0.445320 0.814207 0.555807
Si Si5 0.141137 0.618325 0.710318
Si Si6 0.820673 0.174878 0.041243
Si Si7 0.355912 0.470249 0.308678
O O1 0.861260 0.476060 0.582451
O O2 0.770223 0.609027 0.507100
O O3 0.715209 0.537238 0.313881
O O4 0.003890 0.587159 0.637186
O O5 0.951576 0.627471 0.286926
O O6 0.280654 0.813021 0.448647
O O7 0.082050 0.903247 0.186752
O O8 0.000000 0.840837 0.250000
O O9 0.022601 0.763886 0.129837
O O10 0.429493 0.833433 0.437726
O O11 0.221626 0.549736 0.745988
O O12 0.277024 0.664540 0.895003
O O13 0.000000 0.172150 0.250000
O O14 0.750000 0.250000 0.000000
O O15 0.500000 0.500000 0.500000
#
# Coordination Sequence:
#
# PCOD8153677 Si02
#       7
#     8   4   8   8   8   8   8
#     4  12  24  45  71 101 137 190 232 287 353 421
#     4  12  22  44  72 102 136 182 236 274 356 416
#     4  11  24  44  64  96 136 178 225 276 344 412
#     4  11  26  42  70 101 136 182 231 281 345 413
#     4  11  24  45  69 100 139 179 240 286 347 416
#     4  12  27  47  73 100 142 186 233 290 354 425
#     4  11  26  42  66 106 138 176 235 294 351 408
#
# _framework density 21.649692000000002
#
# number of rings (size 3 to 8) (size 9 to 14) (size 15 to 20)
#    0.000    0.615    5.385    2.769    0.000   10.462 
#    0.000    0.000    0.000    0.000    0.000    0.000 
#    0.000    0.000    0.000    0.000    0.000    0.000 
#
# Total GULP energy -322242.045240 kJ/mol
# GULP energy per Si atom -12393.924817 kJ/mol
# Density = 2.160042 g / cm^3
# Si number density = 21.649692 Si / 1000 Ang^3
#
#
#
# Elastic Constant Matrix: (Units=GPa)
#
#
# Indices 1 2 3 4 5 6 
#
# 1 86.9648 26.0490 40.5246 0.0000 1.0017 0.0000
# 2 26.0490 104.3649 47.9707 0.0000 -4.6453 0.0001
# 3 40.5246 47.9707 152.8646 0.0001 -19.3984 0.0001
# 4 0.0000 0.0000 0.0001 45.8868 0.0000 6.6004
# 5 1.0017 -4.6453 -19.3984 0.0000 38.4887 0.0000
# 6 0.0000 0.0001 0.0001 6.6004 0.0000 9.9497
#
#
#
# Elastic Compliance Matrix: (Units=1/GPa)
#
#
# Indices 1 2 3 4 5 6 
#
# 1 0.013651 -0.002001 -0.003276 0.000000 -0.002248 0.000000
# 2 -0.002001 0.011498 -0.003093 0.000000 -0.000119 0.000000
# 3 -0.003276 -0.003093 0.008914 0.000000 0.004205 0.000000
# 4 0.000000 0.000000 0.000000 0.024092 0.000000 -0.015982
# 5 -0.002248 -0.000119 0.004205 0.000000 0.028145 0.000000
# 6 0.000000 0.000000 0.000000 -0.015982 0.000000 0.111107
#
#
# Mechanical properties :
#
#
# Convention : Reuss Voigt Hill
#
# Bulk Modulus (GPa) = 57.72811 63.69811 60.71311
# Shear Modulus (GPa) = 22.73545 34.17504 28.45525
#
# Velocity S-wave (km/s) = 3.24412 3.97740 3.62933
# Velocity P-wave (km/s) = 6.38396 7.11189 6.75773
#
# Compressibility (1/GPa) = 0.01732258
#
# Stress axis : x y z
#
# Youngs Moduli (GPa) = 73.25518 86.97539 112.17940
#
# Poissons Ratio (x) = 0.17408 0.36751
# Poissons Ratio (y) = 0.14662 0.34692
# Poissons Ratio (z) = 0.23999 0.26898
#
# Static dielectric constant tensor:
#      x y z
#    x 3.883690 0.000000 -0.174980 
#    y 0.000000 4.287780 0.000000 
#    z -0.174980 0.000000 4.268580 
# 
# 
# High freq. dielectric constant tensor:
#      x y z
#    x 1.840360 0.000000 -0.014330 
#    y 0.000000 1.865850 0.000000 
#    z -0.014330 0.000000 1.872160 
# 
# From -- ./inp_files/163639.got.cif
#   From: 2010.06.25/outbox.cif.g09.slc.cpg/sg15_82_cif.got.tgz:163639.got - 2010.06.28 07:06:18.
