data_PCOD8153132
_publ_section_title
;
Structure prediction by ZEFSAII (Michael W. Deem and Ramdas Pophale) SiO2 
 PCOD8153132
Probable space group: C 2/C
;
_chemical_formula_sum "Si O2"
_cell_formula_units_Z 64
_cell_length_a 27.694846
_cell_length_b 9.550784
_cell_length_c 13.267711
_cell_angle_alpha 90.000000
_cell_angle_beta 57.462803
_cell_angle_gamma 90.000000
_cell_volume 2958.580721
_symmetry_space_group_name_H-M "C 2/C"
_symmetry_group_IT_number 15
_symmetry_cell_setting 'monoclinic'
loop_
_space_group_symop_operation_xyz
x,y,z
-x,y,1/2-z
-x,-y,-z
x,-y,1/2+z
1/2+x,1/2+y,z
1/2-x,1/2+y,1/2-z
1/2-x,1/2-y,-z
1/2+x,1/2-y,1/2+z
loop_
_atom_site_type_symbol
_atom_site_label
_atom_site_fract_x
_atom_site_fract_y
_atom_site_fract_z
Si Si1 0.686329 0.438033 0.307880
Si Si2 0.563504 0.805178 0.698174
Si Si3 0.270848 0.522664 0.456749
Si Si4 0.667889 0.800154 0.110738
Si Si5 0.663740 0.668850 0.478701
Si Si6 0.688190 0.104737 0.796633
Si Si7 0.058275 0.610080 0.629610
Si Si8 0.390094 0.834820 0.631613
O O1 0.709298 0.498939 0.178287
O O2 0.650137 0.556306 0.406923
O O3 0.744344 0.408038 0.306640
O O4 0.645236 0.307378 0.338425
O O5 0.500000 0.743620 0.750000
O O6 0.607249 0.688329 0.609541
O O7 0.576715 0.842699 0.799709
O O8 0.569127 0.944909 0.625865
O O9 0.304069 0.658441 0.463006
O O10 0.203343 0.560296 0.536629
O O11 0.284771 0.385780 0.507778
O O12 0.661099 0.799794 0.239214
O O13 0.606221 0.801505 0.131471
O O14 0.682762 0.817067 0.410052
O O15 0.656515 0.956200 0.832994
O O16 0.060388 0.651875 0.509051
O O17 0.000000 0.654468 0.750000
#
# Coordination Sequence:
#
# PCOD8153132 Si02
#       8
#     8   8   8   8   8   8   8   8
#     4  12  25  41  68 104 142 181 222 283 361 431
#     4  11  26  47  73  99 136 183 243 303 347 412
#     4  11  24  41  70  98 147 182 225 290 355 417
#     4  11  23  43  67 106 138 186 234 287 347 420
#     4  12  24  46  65 104 138 186 230 287 350 419
#     4  12  24  39  71 104 141 183 231 281 350 427
#     4  11  25  44  70  99 137 184 235 290 340 412
#     4  12  25  46  71 105 138 186 238 287 358 420
#
# _framework density 21.631993000000001
#
# number of rings (size 3 to 8) (size 9 to 14) (size 15 to 20)
#    0.000    0.500    6.250    2.250    1.750    3.500 
#    0.000    3.125    0.000    0.000    0.000    0.000 
#    0.000    0.000    0.000    0.000    0.000    0.000 
#
# Total GULP energy -396874.592487 kJ/mol
# GULP energy per Si atom -12402.331015 kJ/mol
# Density = 2.158276 g / cm^3
# Si number density = 21.631993 Si / 1000 Ang^3
#
#
#
# Elastic Constant Matrix: (Units=GPa)
#
#
# Indices 1 2 3 4 5 6 
#
# 1 107.6939 35.9185 50.7949 0.0000 -0.0955 0.0000
# 2 35.9185 73.9429 30.2155 0.0000 -3.7063 0.0000
# 3 50.7949 30.2155 131.8476 0.0000 3.6206 0.0000
# 4 0.0000 0.0000 0.0000 35.7437 0.0000 2.2122
# 5 -0.0955 -3.7063 3.6206 0.0000 38.4770 0.0000
# 6 0.0000 0.0000 0.0000 2.2122 0.0000 26.5324
#
#
#
# Elastic Compliance Matrix: (Units=1/GPa)
#
#
# Indices 1 2 3 4 5 6 
#
# 1 0.012606 -0.004570 -0.003808 0.000000 -0.000051 0.000000
# 2 -0.004570 0.016698 -0.002115 0.000000 0.001796 0.000000
# 3 -0.003808 -0.002115 0.009567 0.000000 -0.001113 0.000000
# 4 0.000000 0.000000 0.000000 0.028122 0.000000 -0.002345
# 5 -0.000051 0.001796 -0.001113 0.000000 0.026267 0.000000
# 6 0.000000 0.000000 0.000000 -0.002345 0.000000 0.037885
#
#
# Mechanical properties :
#
#
# Convention : Reuss Voigt Hill
#
# Bulk Modulus (GPa) = 55.91410 60.81580 58.36495
# Shear Modulus (GPa) = 31.62692 33.25431 32.44061
#
# Velocity S-wave (km/s) = 3.82782 3.92506 3.87674
# Velocity P-wave (km/s) = 6.74094 6.97971 6.86136
#
# Compressibility (1/GPa) = 0.01788458
#
# Stress axis : x y z
#
# Youngs Moduli (GPa) = 79.32946 59.88629 104.52772
#
# Poissons Ratio (x) = 0.27367 0.39801
# Poissons Ratio (y) = 0.36253 0.22113
# Poissons Ratio (z) = 0.30206 0.12669
#
# Static dielectric constant tensor:
#      x y z
#    x 3.851300 0.000000 0.126350 
#    y 0.000000 3.837050 0.000000 
#    z 0.126350 0.000000 4.197280 
# 
# 
# High freq. dielectric constant tensor:
#      x y z
#    x 1.839800 0.000000 0.020540 
#    y 0.000000 1.847070 0.000000 
#    z 0.020540 0.000000 1.865380 
# 
# From -- ./inp_files/181138.got.cif
#   From: 2010.06.25/outbox.cif.g09.slc.cpg/sg15_91_cif.got.tgz:181138.got - 2010.06.28 07:06:18.
