data_PCOD8153716
_publ_section_title
;
Structure prediction by ZEFSAII (Michael W. Deem and Ramdas Pophale) SiO2 
 PCOD8153716
Probable space group: C 2/C
;
_chemical_formula_sum "Si O2"
_cell_formula_units_Z 52
_cell_length_a 8.901041
_cell_length_b 18.785258
_cell_length_c 16.132281
_cell_angle_alpha 90.000000
_cell_angle_beta 64.276665
_cell_angle_gamma 90.000000
_cell_volume 2430.135498
_symmetry_space_group_name_H-M "C 2/C"
_symmetry_group_IT_number 15
_symmetry_cell_setting 'monoclinic'
loop_
_space_group_symop_operation_xyz
x,y,z
-x,y,1/2-z
-x,-y,-z
x,-y,1/2+z
1/2+x,1/2+y,z
1/2-x,1/2+y,1/2-z
1/2-x,1/2-y,-z
1/2+x,1/2-y,1/2+z
loop_
_atom_site_type_symbol
_atom_site_label
_atom_site_fract_x
_atom_site_fract_y
_atom_site_fract_z
Si Si1 0.327950 0.375254 0.182082
Si Si2 0.734505 0.303895 0.928150
Si Si3 0.620084 0.049824 0.071506
Si Si4 0.500000 0.953930 0.250000
Si Si5 0.269045 0.060175 0.089403
Si Si6 0.000000 0.983069 0.250000
Si Si7 0.636007 0.682233 0.011603
Si Si8 0.000000 0.761123 0.250000
O O1 0.459403 0.436215 0.177810
O O2 0.374763 0.305892 0.223047
O O3 0.143142 0.402027 0.252322
O O4 0.336080 0.356011 0.083446
O O5 0.748721 0.386599 0.948849
O O6 0.553679 0.292491 0.931372
O O7 0.882823 0.290194 0.829743
O O8 0.750000 0.250000 0.000000
O O9 0.447491 0.084392 0.081772
O O10 0.587596 0.002930 0.160595
O O11 0.706220 0.001038 0.983247
O O12 0.159571 0.031255 0.191719
O O13 0.176006 0.127181 0.074023
O O14 0.750000 0.750000 0.000000
#
# Coordination Sequence:
#
# PCOD8153716 Si02
#       8
#     8   8   8   4   8   4   8   4
#     4  11  25  45  71 105 138 190 235 294 362 423
#     4  12  26  46  71 102 145 189 239 297 357 433
#     4  11  25  44  71 102 140 186 234 293 357 425
#     4  12  23  44  76 104 143 184 244 298 355 426
#     4  11  25  43  70 103 141 181 231 294 356 418
#     4  11  24  44  70 104 143 174 240 294 349 430
#     4  12  27  48  72 102 145 189 243 296 362 428
#     4  11  27  46  72 102 146 190 240 290 368 430
#
# _framework density 21.397983
#
# number of rings (size 3 to 8) (size 9 to 14) (size 15 to 20)
#    0.000    0.615    4.615    2.308    6.462    2.462 
#    0.000    0.000    0.000    0.000    0.000    0.000 
#    0.000    0.000    0.000    0.000    0.000    0.000 
#
# Total GULP energy -322486.539006 kJ/mol
# GULP energy per Si atom -12403.328423 kJ/mol
# Density = 2.134928 g / cm^3
# Si number density = 21.397983 Si / 1000 Ang^3
#
#
#
# Elastic Constant Matrix: (Units=GPa)
#
#
# Indices 1 2 3 4 5 6 
#
# 1 137.1608 61.8521 26.9219 0.0000 -14.6291 0.0000
# 2 61.8521 101.2900 33.5060 0.0000 -6.8078 0.0000
# 3 26.9219 33.5060 106.6168 0.0000 -8.8310 0.0000
# 4 0.0000 0.0000 0.0000 34.9643 0.0000 -5.3849
# 5 -14.6291 -6.8078 -8.8310 0.0000 38.4600 0.0000
# 6 0.0000 0.0000 0.0000 -5.3849 0.0000 45.8545
#
#
#
# Elastic Compliance Matrix: (Units=1/GPa)
#
#
# Indices 1 2 3 4 5 6 
#
# 1 0.010387 -0.005987 -0.000512 0.000000 0.002774 0.000000
# 2 -0.005987 0.014522 -0.003086 0.000000 -0.000415 0.000000
# 3 -0.000512 -0.003086 0.010619 0.000000 0.001697 0.000000
# 4 0.000000 0.000000 0.000000 0.029127 0.000000 0.003421
# 5 0.002774 -0.000415 0.001697 0.000000 0.027372 0.000000
# 6 0.000000 0.000000 0.000000 0.003421 0.000000 0.022210
#
#
# Mechanical properties :
#
#
# Convention : Reuss Voigt Hill
#
# Bulk Modulus (GPa) = 61.13284 65.51417 63.32351
# Shear Modulus (GPa) = 36.00779 38.70828 37.35804
#
# Velocity S-wave (km/s) = 4.10660 4.25781 4.18289
# Velocity P-wave (km/s) = 7.14962 7.40644 7.27916
#
# Compressibility (1/GPa) = 0.01635782
#
# Stress axis : x y z
#
# Youngs Moduli (GPa) = 96.27663 68.86330 94.17035
#
# Poissons Ratio (x) = 0.41228 0.04817
# Poissons Ratio (y) = 0.57640 0.29063
# Poissons Ratio (z) = 0.04925 0.21253
#
# Static dielectric constant tensor:
#      x y z
#    x 3.301930 0.000000 1.166270 
#    y 0.000000 3.911560 0.000000 
#    z 1.166270 0.000000 2.159300 
# 
# 
# High freq. dielectric constant tensor:
#      x y z
#    x 1.857430 0.000000 -0.005410 
#    y 0.000000 1.846260 0.000000 
#    z -0.005410 0.000000 1.839500 
# 
# From -- ./inp_files/190877.got.cif
#   From: 2010.06.25/outbox.cif.g09.slc.cpg/sg15_96_cif.got.tgz:190877.got - 2010.06.28 07:06:18.
