data_PCOD8154873
_publ_section_title
;
Structure prediction by ZEFSAII (Michael W. Deem and Ramdas Pophale) SiO2 
 PCOD8154873
Probable space group: C 2/C
;
_chemical_formula_sum "Si O2"
_cell_formula_units_Z 44
_cell_length_a 24.353953
_cell_length_b 5.155248
_cell_length_c 15.950359
_cell_angle_alpha 90.000000
_cell_angle_beta 68.690483
_cell_angle_gamma 90.000000
_cell_volume 1865.663704
_symmetry_space_group_name_H-M "C 2/C"
_symmetry_group_IT_number 15
_symmetry_cell_setting 'monoclinic'
loop_
_space_group_symop_operation_xyz
x,y,z
-x,y,1/2-z
-x,-y,-z
x,-y,1/2+z
1/2+x,1/2+y,z
1/2-x,1/2+y,1/2-z
1/2-x,1/2-y,-z
1/2+x,1/2-y,1/2+z
loop_
_atom_site_type_symbol
_atom_site_label
_atom_site_fract_x
_atom_site_fract_y
_atom_site_fract_z
Si Si1 0.000000 0.257024 0.750000
Si Si2 0.596108 0.881064 0.263631
Si Si3 0.189241 0.321645 0.491621
Si Si4 0.623049 0.318833 0.581974
Si Si5 0.785927 0.449166 0.211305
Si Si6 0.503008 0.389299 0.590480
O O1 0.059674 0.420664 0.726444
O O2 0.008282 0.100987 0.660228
O O3 0.612915 0.652032 0.188493
O O4 0.654691 0.007953 0.269427
O O5 0.555192 0.781933 0.362372
O O6 0.250000 0.250000 0.500000
O O7 0.170737 0.595910 0.540580
O O8 0.197030 0.345355 0.388582
O O9 0.142681 0.095522 0.535517
O O10 0.563576 0.227966 0.565840
O O11 0.751178 0.720344 0.223380
O O12 0.500000 0.500000 0.500000
#
# Coordination Sequence:
#
# PCOD8154873 Si02
#       6
#     4   8   8   8   8   8
#     4  12  24  48  74 108 160 202 258 320 402 456
#     4  12  26  46  74 108 153 203 255 322 395 465
#     4  12  26  46  72 106 144 198 256 311 386 456
#     4  12  24  46  71 106 145 197 247 318 379 455
#     4  12  28  49  75 111 148 203 258 325 392 468
#     4  12  27  45  74 113 154 205 260 322 396 471
#
# _framework density 23.584099999999999
#
# number of rings (size 3 to 8) (size 9 to 14) (size 15 to 20)
#    0.000    0.000    3.636    6.000    5.091    0.727 
#    0.000    0.000    0.000    0.000    0.000    0.000 
#    0.000    0.000    0.000    0.000    0.000    0.000 
#
# Total GULP energy -272850.892958 kJ/mol
# GULP energy per Si atom -12402.313316 kJ/mol
# Density = 2.353042 g / cm^3
# Si number density = 23.584100 Si / 1000 Ang^3
#
#
#
# Elastic Constant Matrix: (Units=GPa)
#
#
# Indices 1 2 3 4 5 6 
#
# 1 173.2030 22.5169 32.9764 0.0000 -0.0819 0.0000
# 2 22.5169 94.0217 17.7823 -0.0004 -5.7818 0.0003
# 3 32.9764 17.7823 121.9206 0.0001 12.9745 0.0000
# 4 0.0000 -0.0004 0.0001 36.7703 0.0000 -1.6414
# 5 -0.0819 -5.7818 12.9745 0.0000 44.6406 0.0000
# 6 0.0000 0.0003 0.0000 -1.6414 0.0000 21.9506
#
#
#
# Elastic Compliance Matrix: (Units=1/GPa)
#
#
# Indices 1 2 3 4 5 6 
#
# 1 0.006221 -0.001179 -0.001543 0.000000 0.000307 0.000000
# 2 -0.001179 0.011326 -0.001536 0.000000 0.001911 0.000000
# 3 -0.001543 -0.001536 0.009148 0.000000 -0.002861 0.000000
# 4 0.000000 0.000000 0.000000 0.027287 0.000000 0.002040
# 5 0.000307 0.001911 -0.002861 0.000000 0.023481 0.000000
# 6 0.000000 0.000000 0.000000 0.002040 0.000000 0.045709
#
#
# Mechanical properties :
#
#
# Convention : Reuss Voigt Hill
#
# Bulk Modulus (GPa) = 55.01289 59.52184 57.26736
# Shear Modulus (GPa) = 36.29788 41.73028 39.01408
#
# Velocity S-wave (km/s) = 3.92737 4.21102 4.07166
# Velocity P-wave (km/s) = 6.62892 6.99546 6.81465
#
# Compressibility (1/GPa) = 0.01817756
#
# Stress axis : x y z
#
# Youngs Moduli (GPa) = 160.75033 88.28984 109.31344
#
# Poissons Ratio (x) = 0.10410 0.16870
# Poissons Ratio (y) = 0.18953 0.16796
# Poissons Ratio (z) = 0.24809 0.13565
#
# Static dielectric constant tensor:
#      x y z
#    x 4.180660 0.000000 -0.457140 
#    y 0.000000 4.226730 0.000000 
#    z -0.457140 0.000000 4.440110 
# 
# 
# High freq. dielectric constant tensor:
#      x y z
#    x 1.952520 0.000000 -0.008170 
#    y 0.000000 1.928270 0.000000 
#    z -0.008170 0.000000 1.953090 
# 
# From -- ./inp_files/217698.got.cif
#   From: 2010.06.25/outbox.cif.g09.slc.cpg/sg15_109_cif.got.tgz:217698.got - 2010.06.28 07:06:18.
