data_PCOD8154972
_publ_section_title
;
Structure prediction by ZEFSAII (Michael W. Deem and Ramdas Pophale) SiO2 
 PCOD8154972
Probable space group: C 2/C
;
_chemical_formula_sum "Si O2"
_cell_formula_units_Z 48
_cell_length_a 20.149126
_cell_length_b 11.755162
_cell_length_c 8.716609
_cell_angle_alpha 90.000000
_cell_angle_beta 79.903331
_cell_angle_gamma 90.000000
_cell_volume 2032.609807
_symmetry_space_group_name_H-M "C 2/C"
_symmetry_group_IT_number 15
_symmetry_cell_setting 'monoclinic'
loop_
_space_group_symop_operation_xyz
x,y,z
-x,y,1/2-z
-x,-y,-z
x,-y,1/2+z
1/2+x,1/2+y,z
1/2-x,1/2+y,1/2-z
1/2-x,1/2-y,-z
1/2+x,1/2-y,1/2+z
loop_
_atom_site_type_symbol
_atom_site_label
_atom_site_fract_x
_atom_site_fract_y
_atom_site_fract_z
Si Si1 0.000000 0.672983 0.250000
Si Si2 0.695720 0.348099 0.348379
Si Si3 0.653427 0.111296 0.718007
Si Si4 0.862035 0.977801 0.404419
Si Si5 0.877409 0.388869 0.613682
Si Si6 0.924399 0.212051 0.044981
Si Si7 0.500000 0.421649 0.750000
O O1 0.952919 0.600528 0.153850
O O2 0.949396 0.748635 0.369610
O O3 0.775187 0.326849 0.339269
O O4 0.686644 0.430901 0.207213
O O5 0.667736 0.405575 0.515360
O O6 0.657856 0.230317 0.332279
O O7 0.616138 0.093863 0.571050
O O8 0.607194 0.186400 0.846067
O O9 0.666207 0.989593 0.792726
O O10 0.867887 0.884713 0.538395
O O11 0.936082 0.999022 0.305586
O O12 0.987909 0.158535 0.108230
#
# Coordination Sequence:
#
# PCOD8154972 Si02
#       7
#     4   8   8   8   8   8   4
#     4  12  25  47  76 110 148 185 253 302 368 444
#     4  12  27  48  78 108 155 191 253 304 368 447
#     4  12  29  50  75 107 148 204 249 299 374 442
#     4  12  25  43  75 113 145 197 237 312 368 434
#     4  12  28  49  76 106 150 196 249 312 365 442
#     4  12  25  44  74 108 149 194 241 304 371 437
#     4  12  25  45  74 114 156 187 251 302 384 438
#
# _framework density 23.61496
#
# number of rings (size 3 to 8) (size 9 to 14) (size 15 to 20)
#    0.000    0.000    3.333    6.500    2.333    4.000 
#    0.000    0.000    0.000    0.000    0.000    0.000 
#    0.000    0.000    0.000    0.000    0.000    0.000 
#
# Total GULP energy -297784.690870 kJ/mol
# GULP energy per Si atom -12407.695453 kJ/mol
# Density = 2.356121 g / cm^3
# Si number density = 23.614960 Si / 1000 Ang^3
#
#
#
# Elastic Constant Matrix: (Units=GPa)
#
#
# Indices 1 2 3 4 5 6 
#
# 1 110.7423 26.9842 46.7990 0.0000 7.8826 0.0000
# 2 26.9842 114.0429 48.2572 0.0000 -2.9344 0.0000
# 3 46.7990 48.2572 136.3218 0.0000 11.8351 0.0000
# 4 0.0000 0.0000 0.0000 28.8166 0.0000 7.9647
# 5 7.8826 -2.9344 11.8351 0.0000 36.2529 0.0000
# 6 0.0000 0.0000 0.0000 7.9647 0.0000 29.4618
#
#
#
# Elastic Compliance Matrix: (Units=1/GPa)
#
#
# Indices 1 2 3 4 5 6 
#
# 1 0.010758 -0.001260 -0.003124 0.000000 -0.001421 0.000000
# 2 -0.001260 0.010617 -0.003524 0.000000 0.002284 0.000000
# 3 -0.003124 -0.003524 0.009902 0.000000 -0.002839 0.000000
# 4 0.000000 0.000000 0.000000 0.037505 0.000000 -0.010139
# 5 -0.001421 0.002284 -0.002839 0.000000 0.029005 0.000000
# 6 0.000000 0.000000 0.000000 -0.010139 0.000000 0.036683
#
#
# Mechanical properties :
#
#
# Convention : Reuss Voigt Hill
#
# Bulk Modulus (GPa) = 64.67896 67.24308 65.96102
# Shear Modulus (GPa) = 32.16701 34.84406 33.50553
#
# Velocity S-wave (km/s) = 3.69473 3.84540 3.77082
# Velocity P-wave (km/s) = 6.75646 6.94642 6.85210
#
# Compressibility (1/GPa) = 0.01546098
#
# Stress axis : x y z
#
# Youngs Moduli (GPa) = 92.95124 94.19095 100.99149
#
# Poissons Ratio (x) = 0.11871 0.31547
# Poissons Ratio (y) = 0.11715 0.35588
# Poissons Ratio (z) = 0.29036 0.33192
#
# Static dielectric constant tensor:
#      x y z
#    x 4.201780 0.000000 0.255370 
#    y 0.000000 4.259260 0.000000 
#    z 0.255370 0.000000 4.287090 
# 
# 
# High freq. dielectric constant tensor:
#      x y z
#    x 1.935280 0.000000 0.018110 
#    y 0.000000 1.942560 0.000000 
#    z 0.018110 0.000000 1.947640 
# 
# From -- ./inp_files/60567.got.cif
#   From: 2010.06.25/outbox.cif.g09.slc.cpg/sg15_31_cif.got.tgz:60567.got - 2010.06.28 07:06:18.
