data_PCOD8154817
_publ_section_title
;
Structure prediction by ZEFSAII (Michael W. Deem and Ramdas Pophale) SiO2 
 PCOD8154817
Probable space group: C 2/C
;
_chemical_formula_sum "Si O2"
_cell_formula_units_Z 32
_cell_length_a 32.163077
_cell_length_b 4.867254
_cell_length_c 8.365471
_cell_angle_alpha 90.000000
_cell_angle_beta 88.279946
_cell_angle_gamma 90.000000
_cell_volume 1308.989819
_symmetry_space_group_name_H-M "C 2/C"
_symmetry_group_IT_number 15
_symmetry_cell_setting 'monoclinic'
loop_
_space_group_symop_operation_xyz
x,y,z
-x,y,1/2-z
-x,-y,-z
x,-y,1/2+z
1/2+x,1/2+y,z
1/2-x,1/2+y,1/2-z
1/2-x,1/2-y,-z
1/2+x,1/2-y,1/2+z
loop_
_atom_site_type_symbol
_atom_site_label
_atom_site_fract_x
_atom_site_fract_y
_atom_site_fract_z
Si Si1 0.923166 0.648522 0.858134
Si Si2 0.454556 0.378285 0.532083
Si Si3 0.171043 0.663927 0.733176
Si Si4 0.703698 0.318796 0.058175
O O1 0.950843 0.771846 0.712203
O O2 0.876324 0.614139 0.807198
O O3 0.943929 0.363529 0.908357
O O4 0.923186 0.867004 0.004113
O O5 0.500000 0.500000 0.500000
O O6 0.172285 0.753357 0.916945
O O7 0.193610 0.371606 0.711498
O O8 0.196216 0.870819 0.614783
O O9 0.750000 0.250000 0.000000
#
# Coordination Sequence:
#
# PCOD8154817 Si02
#       4
#     8   8   8   8
#     4  12  25  46  70 102 137 180 231 285 345 414
#     4  12  27  47  72 102 138 179 227 286 348 415
#     4  12  24  43  70 100 137 183 231 285 341 407
#     4  12  25  44  68 102 141 184 231 284 342 406
#
# _framework density 24.44633
#
# number of rings (size 3 to 8) (size 9 to 14) (size 15 to 20)
#    0.000    0.000    0.000   11.250    0.000    2.000 
#    0.000    0.000    0.000    0.000    0.000    0.000 
#    0.000    0.000    0.000    0.000    0.000    0.000 
#
# Total GULP energy -198489.687957 kJ/mol
# GULP energy per Si atom -12405.605497 kJ/mol
# Density = 2.439069 g / cm^3
# Si number density = 24.446330 Si / 1000 Ang^3
#
#
#
# Elastic Constant Matrix: (Units=GPa)
#
#
# Indices 1 2 3 4 5 6 
#
# 1 110.5213 52.4220 11.7692 0.0000 -3.4189 0.0000
# 2 52.4220 121.1597 7.1723 0.0000 7.4099 0.0000
# 3 11.7692 7.1723 64.7533 0.0000 7.6427 0.0000
# 4 0.0000 0.0000 0.0000 38.5836 0.0000 7.0560
# 5 -3.4189 7.4099 7.6427 0.0000 41.3822 0.0000
# 6 0.0000 0.0000 0.0000 7.0560 0.0000 44.6679
#
#
#
# Elastic Compliance Matrix: (Units=1/GPa)
#
#
# Indices 1 2 3 4 5 6 
#
# 1 0.011732 -0.005104 -0.001829 0.000000 0.002221 0.000000
# 2 -0.005104 0.010602 0.000028 0.000000 -0.002325 0.000000
# 3 -0.001829 0.000028 0.016143 0.000000 -0.003137 0.000000
# 4 0.000000 0.000000 0.000000 0.026689 0.000000 -0.004216
# 5 0.002221 -0.002325 -0.003137 0.000000 0.025344 0.000000
# 6 0.000000 0.000000 0.000000 -0.004216 0.000000 0.023053
#
#
# Mechanical properties :
#
#
# Convention : Reuss Voigt Hill
#
# Bulk Modulus (GPa) = 40.53986 48.79570 44.66778
# Shear Modulus (GPa) = 36.87400 39.93147 38.40273
#
# Velocity S-wave (km/s) = 3.88798 4.04596 3.96776
# Velocity P-wave (km/s) = 6.06419 6.46762 6.26915
#
# Compressibility (1/GPa) = 0.02466708
#
# Stress axis : x y z
#
# Youngs Moduli (GPa) = 85.23466 94.31857 61.94665
#
# Poissons Ratio (x) = 0.48138 0.11332
# Poissons Ratio (y) = 0.43502 -0.00172
# Poissons Ratio (z) = 0.15591 -0.00261
#
# Static dielectric constant tensor:
#      x y z
#    x 4.344500 0.000000 0.185470 
#    y 0.000000 4.795750 0.000000 
#    z 0.185470 0.000000 4.960950 
# 
# 
# High freq. dielectric constant tensor:
#      x y z
#    x 1.982010 0.000000 0.009870 
#    y 0.000000 1.992270 0.000000 
#    z 0.009870 0.000000 1.981380 
# 
# From -- ./inp_files/67885.got.cif
#   From: 2010.06.25/outbox.cif.g09.slc.cpg/sg15_34_cif.got.tgz:67885.got - 2010.06.28 07:06:18.
