data_PCOD8154252
_publ_section_title
;
Structure prediction by ZEFSAII (Michael W. Deem and Ramdas Pophale) SiO2 
 PCOD8154252
Probable space group: C 2/C
;
_chemical_formula_sum "Si O2"
_cell_formula_units_Z 32
_cell_length_a 20.104345
_cell_length_b 7.618036
_cell_length_c 11.362852
_cell_angle_alpha 90.000000
_cell_angle_beta 132.232612
_cell_angle_gamma 90.000000
_cell_volume 1288.545316
_symmetry_space_group_name_H-M "C 2/C"
_symmetry_group_IT_number 15
_symmetry_cell_setting 'monoclinic'
loop_
_space_group_symop_operation_xyz
x,y,z
-x,y,1/2-z
-x,-y,-z
x,-y,1/2+z
1/2+x,1/2+y,z
1/2-x,1/2+y,1/2-z
1/2-x,1/2-y,-z
1/2+x,1/2-y,1/2+z
loop_
_atom_site_type_symbol
_atom_site_label
_atom_site_fract_x
_atom_site_fract_y
_atom_site_fract_z
Si Si1 0.903295 0.307157 0.660763
Si Si2 0.640263 0.263286 0.142253
Si Si3 0.038465 0.315840 0.180938
Si Si4 0.331480 0.347822 0.847541
O O1 0.853470 0.210381 0.709042
O O2 0.916025 0.509216 0.713827
O O3 0.846207 0.285412 0.473696
O O4 0.000000 0.219829 0.750000
O O5 0.638800 0.455995 0.081958
O O6 0.725043 0.155004 0.192969
O O7 0.548735 0.153810 0.006935
O O8 0.114261 0.208546 0.203590
O O9 0.000000 0.211015 0.250000
#
# Coordination Sequence:
#
# PCOD8154252 Si02
#       4
#     8   8   8   8
#     4  11  25  47  78 103 150 193 248 303 372 428
#     4  12  27  47  76 111 152 194 249 303 374 438
#     4  11  27  47  78 104 150 196 248 300 377 431
#     4  12  28  47  76 112 152 192 251 307 367 443
#
# _framework density 24.834204
#
# number of rings (size 3 to 8) (size 9 to 14) (size 15 to 20)
#    0.000    0.500    2.500    3.750   14.000    1.000 
#    0.000    0.000    0.000    0.000    0.000    0.000 
#    0.000    0.000    0.000    0.000    0.000    0.000 
#
# Total GULP energy -198386.901459 kJ/mol
# GULP energy per Si atom -12399.181341 kJ/mol
# Density = 2.477768 g / cm^3
# Si number density = 24.834204 Si / 1000 Ang^3
#
#
#
# Elastic Constant Matrix: (Units=GPa)
#
#
# Indices 1 2 3 4 5 6 
#
# 1 181.9825 15.2431 40.5398 0.0000 3.3833 0.0000
# 2 15.2431 112.7930 35.0609 0.0000 6.1988 0.0000
# 3 40.5398 35.0609 58.1678 0.0000 -7.1871 0.0000
# 4 0.0000 0.0000 0.0000 31.5133 0.0000 -2.9066
# 5 3.3833 6.1988 -7.1871 0.0000 52.8514 0.0000
# 6 0.0000 0.0000 0.0000 -2.9066 0.0000 31.5991
#
#
#
# Elastic Compliance Matrix: (Units=1/GPa)
#
#
# Indices 1 2 3 4 5 6 
#
# 1 0.006620 0.000806 -0.005252 0.000000 -0.001232 0.000000
# 2 0.000806 0.011268 -0.007651 0.000000 -0.002414 0.000000
# 3 -0.005252 -0.007651 0.026054 0.000000 0.004777 0.000000
# 4 0.000000 0.000000 0.000000 0.032004 0.000000 0.002944
# 5 -0.001232 -0.002414 0.004777 0.000000 0.019933 0.000000
# 6 0.000000 0.000000 0.000000 0.002944 0.000000 0.031917
#
#
# Mechanical properties :
#
#
# Convention : Reuss Voigt Hill
#
# Bulk Modulus (GPa) = 50.64103 59.40343 55.02223
# Shear Modulus (GPa) = 31.53095 40.66608 36.09852
#
# Velocity S-wave (km/s) = 3.56709 4.05100 3.81672
# Velocity P-wave (km/s) = 6.11567 6.77146 6.45190
#
# Compressibility (1/GPa) = 0.01974683
#
# Stress axis : x y z
#
# Youngs Moduli (GPa) = 151.04760 88.74695 38.38164
#
# Poissons Ratio (x) = -0.07149 0.20158
# Poissons Ratio (y) = -0.12168 0.29368
# Poissons Ratio (z) = 0.79329 0.67905
#
# Static dielectric constant tensor:
#      x y z
#    x 4.982310 0.000000 -0.198210 
#    y 0.000000 4.040050 0.000000 
#    z -0.198210 0.000000 4.400010 
# 
# 
# High freq. dielectric constant tensor:
#      x y z
#    x 2.016410 0.000000 -0.003230 
#    y 0.000000 1.969700 0.000000 
#    z -0.003230 0.000000 1.981490 
# 
# From -- ./inp_files/102558.got.cif
#   From: 2010.06.25/outbox.cif.g09.slc.cpg/sg15_52_cif.got.tgz:102558.got - 2010.06.28 07:06:18.
