data_PCOD8154796
_publ_section_title
;
Structure prediction by ZEFSAII (Michael W. Deem and Ramdas Pophale) SiO2 
 PCOD8154796
Probable space group: C 2/C
;
_chemical_formula_sum "Si O2"
_cell_formula_units_Z 32
_cell_length_a 7.961158
_cell_length_b 18.863292
_cell_length_c 8.728499
_cell_angle_alpha 90.000000
_cell_angle_beta 67.489504
_cell_angle_gamma 90.000000
_cell_volume 1210.920637
_symmetry_space_group_name_H-M "C 2/C"
_symmetry_group_IT_number 15
_symmetry_cell_setting 'monoclinic'
loop_
_space_group_symop_operation_xyz
x,y,z
-x,y,1/2-z
-x,-y,-z
x,-y,1/2+z
1/2+x,1/2+y,z
1/2-x,1/2+y,1/2-z
1/2-x,1/2-y,-z
1/2+x,1/2-y,1/2+z
loop_
_atom_site_type_symbol
_atom_site_label
_atom_site_fract_x
_atom_site_fract_y
_atom_site_fract_z
Si Si1 0.134339 0.472852 0.325577
Si Si2 0.169989 0.885612 0.803529
Si Si3 0.278531 0.669316 0.888580
Si Si4 0.889527 0.731069 0.085996
O O1 0.263372 0.533159 0.204587
O O2 0.259223 0.410220 0.338579
O O3 0.000000 0.438470 0.250000
O O4 0.000000 0.500000 0.500000
O O5 0.339193 0.845247 0.669934
O O6 0.000000 0.879605 0.750000
O O7 0.123560 0.845604 0.979844
O O8 0.394785 0.708609 0.715171
O O9 0.099692 0.719004 0.963883
O O10 0.750000 0.750000 0.000000
#
# Coordination Sequence:
#
# PCOD8154796 Si02
#       4
#     8   8   8   8
#     4  12  23  49  81 108 152 204 262 322 402 464
#     4  12  27  48  73 112 158 205 266 328 385 473
#     4  12  27  49  81 113 161 209 258 331 396 475
#     4  12  25  48  79 116 155 204 263 323 403 476
#
# _framework density 26.426174
#
# number of rings (size 3 to 8) (size 9 to 14) (size 15 to 20)
#    0.000    0.000    5.000    5.250    0.000    3.000 
#    0.000    2.500    0.000    0.000    0.000    0.000 
#    0.000    0.000    0.000    0.000    0.000    0.000 
#
# Total GULP energy -198291.370854 kJ/mol
# GULP energy per Si atom -12393.210678 kJ/mol
# Density = 2.636603 g / cm^3
# Si number density = 26.426174 Si / 1000 Ang^3
#
#
#
# Elastic Constant Matrix: (Units=GPa)
#
#
# Indices 1 2 3 4 5 6 
#
# 1 162.7339 39.0418 70.5153 0.0000 45.5419 0.0000
# 2 39.0418 188.9392 57.1746 0.0000 7.5614 0.0000
# 3 70.5153 57.1746 150.9998 0.0000 16.3627 0.0000
# 4 0.0000 0.0000 0.0000 50.9117 0.0000 6.5000
# 5 45.5419 7.5614 16.3627 0.0000 71.3339 0.0000
# 6 0.0000 0.0000 0.0000 6.5000 0.0000 26.9275
#
#
#
# Elastic Compliance Matrix: (Units=1/GPa)
#
#
# Indices 1 2 3 4 5 6 
#
# 1 0.009229 -0.000640 -0.003524 0.000000 -0.005016 0.000000
# 2 -0.000640 0.006023 -0.002007 0.000000 0.000230 0.000000
# 3 -0.003524 -0.002007 0.008985 0.000000 0.000402 0.000000
# 4 0.000000 0.000000 0.000000 0.020266 0.000000 -0.004892
# 5 -0.005016 0.000230 0.000402 0.000000 0.017104 0.000000
# 6 0.000000 0.000000 0.000000 -0.004892 0.000000 0.038318
#
#
# Mechanical properties :
#
#
# Convention : Reuss Voigt Hill
#
# Bulk Modulus (GPa) = 84.06636 92.90405 88.48521
# Shear Modulus (GPa) = 43.01739 52.23070 47.62404
#
# Velocity S-wave (km/s) = 4.03902 4.45058 4.24978
# Velocity P-wave (km/s) = 7.32341 7.85128 7.59194
#
# Compressibility (1/GPa) = 0.01189536
#
# Stress axis : x y z
#
# Youngs Moduli (GPa) = 108.34931 166.03149 111.30233
#
# Poissons Ratio (x) = 0.10625 0.39225
# Poissons Ratio (y) = 0.06934 0.22335
# Poissons Ratio (z) = 0.38184 0.33317
#
# Static dielectric constant tensor:
#      x y z
#    x 4.942480 0.000000 0.055600 
#    y 0.000000 5.521320 0.000000 
#    z 0.055600 0.000000 4.461460 
# 
# 
# High freq. dielectric constant tensor:
#      x y z
#    x 2.086040 0.000000 0.010620 
#    y 0.000000 2.088670 0.000000 
#    z 0.010620 0.000000 2.076150 
# 
# From -- ./inp_files/22829.got.cif
#   From: 2010.06.25/outbox.cif.g09.slc.cpg/sg15_12_cif.got.tgz:22829.got - 2010.06.28 07:06:18.
