data_PCOD8154361
_publ_section_title
;
Structure prediction by ZEFSAII (Michael W. Deem and Ramdas Pophale) SiO2 
 PCOD8154361
Probable space group: C 2/C
;
_chemical_formula_sum "Si O2"
_cell_formula_units_Z 40
_cell_length_a 11.595355
_cell_length_b 14.488286
_cell_length_c 11.121995
_cell_angle_alpha 90.000000
_cell_angle_beta 82.138675
_cell_angle_gamma 90.000000
_cell_volume 1850.900027
_symmetry_space_group_name_H-M "C 2/C"
_symmetry_group_IT_number 15
_symmetry_cell_setting 'monoclinic'
loop_
_space_group_symop_operation_xyz
x,y,z
-x,y,1/2-z
-x,-y,-z
x,-y,1/2+z
1/2+x,1/2+y,z
1/2-x,1/2+y,1/2-z
1/2-x,1/2-y,-z
1/2+x,1/2-y,1/2+z
loop_
_atom_site_type_symbol
_atom_site_label
_atom_site_fract_x
_atom_site_fract_y
_atom_site_fract_z
Si Si1 0.237025 0.855574 0.983503
Si Si2 0.200752 0.295533 0.886298
Si Si3 0.371867 0.421096 0.722164
Si Si4 0.512617 0.926890 0.607352
Si Si5 0.865442 0.875483 0.255759
O O1 0.135394 0.867510 0.901279
O O2 0.355199 0.895211 0.913607
O O3 0.250000 0.750000 0.000000
O O4 0.195150 0.903135 0.110721
O O5 0.284163 0.378263 0.832495
O O6 0.072303 0.341043 0.913188
O O7 0.200429 0.210603 0.793252
O O8 0.250000 0.250000 0.000000
O O9 0.500000 0.406735 0.750000
O O10 0.348201 0.528048 0.689062
O O11 0.500000 0.962573 0.750000
O O12 0.500000 0.000000 0.500000
O O13 0.000000 0.848150 0.250000
#
# Coordination Sequence:
#
# PCOD8154361 Si02
#       5
#     8   8   8   8   8
#     4  12  24  46  74  99 144 187 238 295 359 430
#     4  12  27  45  72 107 146 185 243 301 361 436
#     4  11  27  45  69 105 139 184 241 288 361 423
#     4  12  27  49  76 109 150 194 246 302 368 437
#     4  11  26  46  73 102 143 189 235 296 365 426
#
# _framework density 21.611108999999999
#
# number of rings (size 3 to 8) (size 9 to 14) (size 15 to 20)
#    0.000    0.400    4.000    3.000   11.200    1.600 
#    0.000    0.000    0.000    0.000    0.000    0.000 
#    0.000    0.000    0.000    0.000    0.000    0.000 
#
# Total GULP energy -247876.751197 kJ/mol
# GULP energy per Si atom -12393.837560 kJ/mol
# Density = 2.156192 g / cm^3
# Si number density = 21.611109 Si / 1000 Ang^3
#
#
#
# Elastic Constant Matrix: (Units=GPa)
#
#
# Indices 1 2 3 4 5 6 
#
# 1 111.6074 55.0858 52.7831 0.0000 0.6752 0.0000
# 2 55.0858 123.7621 41.0027 0.0000 16.3939 0.0000
# 3 52.7831 41.0027 146.2791 0.0000 11.1337 0.0000
# 4 0.0000 0.0000 0.0000 17.8167 0.0000 -21.9306
# 5 0.6752 16.3939 11.1337 0.0000 42.9062 0.0000
# 6 0.0000 0.0000 0.0000 -21.9306 0.0000 11.6348
#
#
#
# Elastic Compliance Matrix: (Units=1/GPa)
#
#
# Indices 1 2 3 4 5 6 
#
# 1 0.013075 -0.005002 -0.003515 0.000000 0.002618 0.000000
# 2 -0.005002 0.011166 -0.001026 0.000000 -0.003921 0.000000
# 3 -0.003515 -0.001026 0.008527 0.000000 -0.001765 0.000000
# 4 0.000000 0.000000 0.000000 -0.042516 0.000000 -0.080139
# 5 0.002618 -0.003921 -0.001765 0.000000 0.025222 0.000000
# 6 0.000000 0.000000 0.000000 -0.080139 0.000000 -0.065106
#
#
# Mechanical properties :
#
#
# Convention : Reuss Voigt Hill
#
# Bulk Modulus (GPa) = 73.09594 75.48797 74.29195
# Shear Modulus (GPa) = -192.42797 29.99000 -81.21899
#
# Velocity S-wave (km/s) = -9.44640 3.72924 -6.13707
# Velocity P-wave (km/s) = 9.22402 7.31772 3.97075
#
# Compressibility (1/GPa) = 0.01368065
#
# Stress axis : x y z
#
# Youngs Moduli (GPa) = 76.47927 89.55880 117.27767
#
# Poissons Ratio (x) = 0.44797 0.41227
# Poissons Ratio (y) = 0.38254 0.12038
# Poissons Ratio (z) = 0.26885 0.09193
#
# Static dielectric constant tensor:
#      x y z
#    x 4.056520 0.000000 0.075050 
#    y 0.000000 4.007250 0.000000 
#    z 0.075050 0.000000 3.717490 
# 
# 
# High freq. dielectric constant tensor:
#      x y z
#    x 1.860040 0.000000 0.001520 
#    y 0.000000 1.860490 0.000000 
#    z 0.001520 0.000000 1.860020 
# 
# From -- ./inp_files/85486.got.cif
#   From: 2010.06.25/outbox.cif.g09.slc.cpg/sg15_43_cif.got.tgz:85486.got - 2010.06.28 07:06:18.
