data_PCOD8154750
_publ_section_title
;
Structure prediction by ZEFSAII (Michael W. Deem and Ramdas Pophale) SiO2 
 PCOD8154750
Probable space group: C 2/C
;
_chemical_formula_sum "Si O2"
_cell_formula_units_Z 56
_cell_length_a 5.016606
_cell_length_b 31.084604
_cell_length_c 19.565333
_cell_angle_alpha 90.000000
_cell_angle_beta 120.699883
_cell_angle_gamma 90.000000
_cell_volume 2623.414688
_symmetry_space_group_name_H-M "C 2/C"
_symmetry_group_IT_number 15
_symmetry_cell_setting 'monoclinic'
loop_
_space_group_symop_operation_xyz
x,y,z
-x,y,1/2-z
-x,-y,-z
x,-y,1/2+z
1/2+x,1/2+y,z
1/2-x,1/2+y,1/2-z
1/2-x,1/2-y,-z
1/2+x,1/2-y,1/2+z
loop_
_atom_site_type_symbol
_atom_site_label
_atom_site_fract_x
_atom_site_fract_y
_atom_site_fract_z
Si Si1 0.847678 0.130333 0.403605
Si Si2 0.368953 0.356848 0.414342
Si Si3 0.390138 0.741601 0.945199
Si Si4 0.131527 0.493284 0.091663
Si Si5 0.234441 0.536068 0.341264
Si Si6 0.726503 0.600909 0.843159
Si Si7 0.772452 0.177900 0.156828
O O1 0.714913 0.085190 0.361565
O O2 0.571370 0.164757 0.365262
O O3 0.984236 0.124986 0.496925
O O4 0.120187 0.146358 0.389673
O O5 0.313571 0.306109 0.410640
O O6 0.598164 0.365448 0.381569
O O7 0.049693 0.381160 0.357324
O O8 0.235467 0.773137 0.869734
O O9 0.250000 0.750000 0.000000
O O10 0.750000 0.750000 0.000000
O O11 0.423710 0.524663 0.140495
O O12 0.233477 0.444393 0.114289
O O13 0.860656 0.505094 0.109073
O O14 0.000000 0.500000 0.000000
O O15 0.000000 0.527192 0.250000
O O16 0.500000 0.595168 0.750000
O O17 0.000000 0.173850 0.250000
#
# Coordination Sequence:
#
# PCOD8154750 Si02
#       7
#     8   8   8   8   8   8   8
#     4  12  24  43  68  99 134 174 223 270 336 404
#     4  12  24  44  72  96 132 179 228 271 332 406
#     4  12  23  45  69  98 132 176 227 271 331 405
#     4  12  25  46  69  97 134 178 232 273 332 398
#     4  12  24  41  67  99 134 174 217 276 335 391
#     4  12  26  44  67 101 139 179 225 285 338 391
#     4  12  24  41  66 100 137 173 217 281 340 394
#
# _framework density 21.346225
#
# number of rings (size 3 to 8) (size 9 to 14) (size 15 to 20)
#    0.000    0.000    2.857    8.571    0.000    1.143 
#    0.000    0.000    0.000    0.000    0.000    0.000 
#    0.000    0.000    0.000    0.000    0.000    0.000 
#
# Total GULP energy -347494.196052 kJ/mol
# GULP energy per Si atom -12410.507002 kJ/mol
# Density = 2.129764 g / cm^3
# Si number density = 21.346225 Si / 1000 Ang^3
#
#
#
# Elastic Constant Matrix: (Units=GPa)
#
#
# Indices 1 2 3 4 5 6 
#
# 1 87.9131 9.3705 14.8085 0.0000 -0.4230 0.0000
# 2 9.3705 115.4120 36.7465 0.0000 -9.8133 0.0000
# 3 14.8085 36.7465 111.5625 0.0000 12.3125 0.0000
# 4 0.0000 0.0000 0.0000 27.7844 0.0000 7.0050
# 5 -0.4230 -9.8133 12.3125 0.0000 40.5295 0.0000
# 6 0.0000 0.0000 0.0000 7.0050 0.0000 29.1516
#
#
#
# Elastic Compliance Matrix: (Units=1/GPa)
#
#
# Indices 1 2 3 4 5 6 
#
# 1 0.011669 -0.000446 -0.001452 0.000000 0.000455 0.000000
# 2 -0.000446 0.010180 -0.003689 0.000000 0.003581 0.000000
# 3 -0.001452 -0.003689 0.010835 0.000000 -0.004200 0.000000
# 4 0.000000 0.000000 0.000000 0.038312 0.000000 -0.009206
# 5 0.000455 0.003581 -0.004200 0.000000 0.026821 0.000000
# 6 0.000000 0.000000 0.000000 -0.009206 0.000000 0.036516
#
#
# Mechanical properties :
#
#
# Convention : Reuss Voigt Hill
#
# Bulk Modulus (GPa) = 46.49211 48.52650 47.50931
# Shear Modulus (GPa) = 32.74867 36.42392 34.58629
#
# Velocity S-wave (km/s) = 3.92109 4.13527 4.02960
# Velocity P-wave (km/s) = 6.50594 6.75152 6.62987
#
# Compressibility (1/GPa) = 0.02150902
#
# Stress axis : x y z
#
# Youngs Moduli (GPa) = 85.69534 98.23293 92.29402
#
# Poissons Ratio (x) = 0.04385 0.13402
# Poissons Ratio (y) = 0.03826 0.34047
# Poissons Ratio (z) = 0.12444 0.36238
#
# Static dielectric constant tensor:
#      x y z
#    x 4.194820 0.000000 0.035620 
#    y 0.000000 4.125530 0.000000 
#    z 0.035620 0.000000 3.878740 
# 
# 
# High freq. dielectric constant tensor:
#      x y z
#    x 1.856930 0.000000 -0.000840 
#    y 0.000000 1.849500 0.000000 
#    z -0.000840 0.000000 1.848340 
# 
# From -- ./inp_files/186806.got.cif
#   From: 2010.06.25/outbox.cif.g09.slc.cpg/sg15_94_cif.got.tgz:186806.got - 2010.06.28 07:06:18.
