data_PCOD8154493
_publ_section_title
;
Structure prediction by ZEFSAII (Michael W. Deem and Ramdas Pophale) SiO2 
 PCOD8154493
Probable space group: C 2/C
;
_chemical_formula_sum "Si O2"
_cell_formula_units_Z 40
_cell_length_a 5.001596
_cell_length_b 24.532936
_cell_length_c 15.109239
_cell_angle_alpha 90.000000
_cell_angle_beta 72.681651
_cell_angle_gamma 90.000000
_cell_volume 1769.913172
_symmetry_space_group_name_H-M "C 2/C"
_symmetry_group_IT_number 15
_symmetry_cell_setting 'monoclinic'
loop_
_space_group_symop_operation_xyz
x,y,z
-x,y,1/2-z
-x,-y,-z
x,-y,1/2+z
1/2+x,1/2+y,z
1/2-x,1/2+y,1/2-z
1/2-x,1/2-y,-z
1/2+x,1/2-y,1/2+z
loop_
_atom_site_type_symbol
_atom_site_label
_atom_site_fract_x
_atom_site_fract_y
_atom_site_fract_z
Si Si1 0.579415 0.194259 0.591892
Si Si2 0.000000 0.385993 0.250000
Si Si3 0.683193 0.347973 0.996519
Si Si4 0.000000 0.044338 0.750000
Si Si5 0.792980 0.973296 0.452542
Si Si6 0.685327 0.695791 0.311160
O O1 0.446950 0.149353 0.668546
O O2 0.449047 0.185480 0.507540
O O3 0.493576 0.252755 0.637312
O O4 0.912197 0.185982 0.555546
O O5 0.723194 0.421757 0.285350
O O6 0.703560 0.348735 0.887897
O O7 0.699033 0.408596 0.033415
O O8 0.854241 0.010470 0.843502
O O9 0.500000 0.000000 0.500000
O O10 0.000000 0.000000 0.500000
O O11 0.500000 0.670074 0.250000
O O12 0.000000 0.712113 0.250000
#
# Coordination Sequence:
#
# PCOD8154493 Si02
#       6
#     8   4   8   4   8   8
#     4  12  22  41  71 103 135 179 228 288 339 401
#     4  12  20  38  72 101 134 171 224 292 338 394
#     4  12  25  46  69  99 140 179 235 292 348 405
#     4  12  24  46  72 103 132 181 230 298 364 404
#     4  12  26  47  72 102 137 176 236 299 354 422
#     4  12  26  43  66 101 148 191 230 271 347 436
#
# _framework density 22.599979999999999
#
# number of rings (size 3 to 8) (size 9 to 14) (size 15 to 20)
#    0.000    0.000    5.000    6.000    1.400    0.000 
#    5.400    0.000    0.000    0.000    0.000    0.000 
#    0.000    0.000    0.000    0.000    0.000    0.000 
#
# Total GULP energy -247985.711509 kJ/mol
# GULP energy per Si atom -12399.285575 kJ/mol
# Density = 2.254854 g / cm^3
# Si number density = 22.599980 Si / 1000 Ang^3
#
#
#
# Elastic Constant Matrix: (Units=GPa)
#
#
# Indices 1 2 3 4 5 6 
#
# 1 141.8030 35.4354 44.6117 0.0000 4.8834 0.0000
# 2 35.4354 48.7574 47.2997 0.0000 -11.7244 0.0000
# 3 44.6117 47.2997 174.1368 0.0000 13.4237 0.0000
# 4 0.0000 0.0000 0.0000 158.9857 0.0000 10.5645
# 5 4.8834 -11.7244 13.4237 0.0000 49.2175 0.0000
# 6 0.0000 0.0000 0.0000 10.5645 0.0000 29.6096
#
#
#
# Elastic Compliance Matrix: (Units=1/GPa)
#
#
# Indices 1 2 3 4 5 6 
#
# 1 0.008921 -0.006841 -0.000238 0.000000 -0.002450 0.000000
# 2 -0.006841 0.037498 -0.009371 0.000000 0.012167 0.000000
# 3 -0.000238 -0.009371 0.008702 0.000000 -0.004582 0.000000
# 4 0.000000 0.000000 0.000000 0.006443 0.000000 -0.002299
# 5 -0.002450 0.012167 -0.004582 0.000000 0.024709 0.000000
# 6 0.000000 0.000000 0.000000 -0.002299 0.000000 0.034593
#
#
# Mechanical properties :
#
#
# Convention : Reuss Voigt Hill
#
# Bulk Modulus (GPa) = 45.00345 68.82120 56.91233
# Shear Modulus (GPa) = 31.02248 63.38593 47.20421
#
# Velocity S-wave (km/s) = 3.70899 5.30168 4.57517
# Velocity P-wave (km/s) = 6.18857 8.24591 7.29018
#
# Compressibility (1/GPa) = 0.02222052
#
# Stress axis : x y z
#
# Youngs Moduli (GPa) = 112.09518 26.66807 114.91411
#
# Poissons Ratio (x) = 0.18245 0.02738
# Poissons Ratio (y) = 0.76689 1.07681
# Poissons Ratio (z) = 0.02671 0.24990
#
# Static dielectric constant tensor:
#      x y z
#    x 4.202800 0.000000 0.127890 
#    y 0.000000 3.907740 0.000000 
#    z 0.127890 0.000000 4.512370 
# 
# 
# High freq. dielectric constant tensor:
#      x y z
#    x 1.917020 0.000000 0.005520 
#    y 0.000000 1.860710 0.000000 
#    z 0.005520 0.000000 1.913080 
# 
# From -- ./inp_files/73131.got.cif
#   From: 2010.06.25/outbox.cif.g09.slc.cpg/sg15_37_cif.got.tgz:73131.got - 2010.06.28 07:06:18.
