data_PCOD8154662
_publ_section_title
;
Structure prediction by ZEFSAII (Michael W. Deem and Ramdas Pophale) SiO2 
 PCOD8154662
Probable space group: C 2/C
;
_chemical_formula_sum "Si O2"
_cell_formula_units_Z 40
_cell_length_a 4.979741
_cell_length_b 33.362587
_cell_length_c 11.163137
_cell_angle_alpha 90.000000
_cell_angle_beta 66.802903
_cell_angle_gamma 90.000000
_cell_volume 1704.675126
_symmetry_space_group_name_H-M "C 2/C"
_symmetry_group_IT_number 15
_symmetry_cell_setting 'monoclinic'
loop_
_space_group_symop_operation_xyz
x,y,z
-x,y,1/2-z
-x,-y,-z
x,-y,1/2+z
1/2+x,1/2+y,z
1/2-x,1/2+y,1/2-z
1/2-x,1/2-y,-z
1/2+x,1/2-y,1/2+z
loop_
_atom_site_type_symbol
_atom_site_label
_atom_site_fract_x
_atom_site_fract_y
_atom_site_fract_z
Si Si1 0.354548 0.074823 0.477753
Si Si2 0.694369 0.703189 0.004843
Si Si3 0.000000 0.096579 0.750000
Si Si4 0.956918 0.029648 0.393685
Si Si5 0.500000 0.154070 0.750000
Si Si6 0.922950 0.662457 0.394902
O O1 0.135727 0.066348 0.627233
O O2 0.405848 0.122294 0.476717
O O3 0.202897 0.063591 0.376967
O O4 0.638310 0.048838 0.455592
O O5 0.918577 0.683557 0.872126
O O6 0.750000 0.750000 0.000000
O O7 0.360957 0.690604 0.039101
O O8 0.792970 0.687258 0.116607
O O9 0.231699 0.125354 0.771221
O O10 0.000000 0.012670 0.250000
O O11 0.000000 0.000000 0.500000
O O12 0.000000 0.647952 0.250000
#
# Coordination Sequence:
#
# PCOD8154662 Si02
#       6
#     8   8   4   8   4   8
#     4  12  25  49  77 107 146 188 244 299 362 434
#     4  12  26  44  66 102 141 193 240 305 368 429
#     4  12  24  46  74 110 136 193 244 309 360 432
#     4  12  28  51  78 112 151 191 236 296 369 443
#     4  12  22  46  70  98 148 177 252 309 364 428
#     4  12  25  45  70 102 139 187 244 296 361 431
#
# _framework density 23.464883
#
# number of rings (size 3 to 8) (size 9 to 14) (size 15 to 20)
#    0.000    0.000    4.000    6.000    4.200    0.000 
#    0.000    0.000    0.000    0.000    0.000    0.000 
#    0.000    0.000    0.000    0.000    0.000    0.000 
#
# Total GULP energy -247945.868807 kJ/mol
# GULP energy per Si atom -12397.293440 kJ/mol
# Density = 2.341148 g / cm^3
# Si number density = 23.464883 Si / 1000 Ang^3
#
#
#
# Elastic Constant Matrix: (Units=GPa)
#
#
# Indices 1 2 3 4 5 6 
#
# 1 160.5390 54.3049 49.0480 0.0000 7.4345 0.0000
# 2 54.3049 103.8107 54.6335 0.0000 5.7659 0.0000
# 3 49.0480 54.6335 124.1873 0.0000 5.9797 0.0000
# 4 0.0000 0.0000 0.0000 36.4936 0.0000 -0.6948
# 5 7.4345 5.7659 5.9797 0.0000 39.9535 0.0000
# 6 0.0000 0.0000 0.0000 -0.6948 0.0000 45.2627
#
#
#
# Elastic Compliance Matrix: (Units=1/GPa)
#
#
# Indices 1 2 3 4 5 6 
#
# 1 0.007851 -0.003191 -0.001661 0.000000 -0.000752 0.000000
# 2 -0.003191 0.013871 -0.004809 0.000000 -0.000688 0.000000
# 3 -0.001661 -0.004809 0.010854 0.000000 -0.000621 0.000000
# 4 0.000000 0.000000 0.000000 0.027410 0.000000 0.000421
# 5 -0.000752 -0.000688 -0.000621 0.000000 0.025361 0.000000
# 6 0.000000 0.000000 0.000000 0.000421 0.000000 0.022100
#
#
# Mechanical properties :
#
#
# Convention : Reuss Voigt Hill
#
# Bulk Modulus (GPa) = 75.44624 78.27889 76.86257
# Shear Modulus (GPa) = 38.11385 39.71201 38.91293
#
# Velocity S-wave (km/s) = 4.03462 4.11834 4.07670
# Velocity P-wave (km/s) = 7.34349 7.48644 7.41531
#
# Compressibility (1/GPa) = 0.01325447
#
# Stress axis : x y z
#
# Youngs Moduli (GPa) = 127.37875 72.09141 92.13464
#
# Poissons Ratio (x) = 0.23005 0.15300
# Poissons Ratio (y) = 0.40648 0.44307
# Poissons Ratio (z) = 0.21152 0.34668
#
# Static dielectric constant tensor:
#      x y z
#    x 4.527040 0.000000 0.120520 
#    y 0.000000 4.180510 0.000000 
#    z 0.120520 0.000000 4.505090 
# 
# 
# High freq. dielectric constant tensor:
#      x y z
#    x 1.946230 0.000000 0.005030 
#    y 0.000000 1.931800 0.000000 
#    z 0.005030 0.000000 1.944740 
# 
# From -- ./inp_files/73812.got.cif
#   From: 2010.06.25/outbox.cif.g09.slc.cpg/sg15_37_cif.got.tgz:73812.got - 2010.06.28 07:06:18.
