data_PCOD8154939
_publ_section_title
;
Structure prediction by ZEFSAII (Michael W. Deem and Ramdas Pophale) SiO2 
 PCOD8154939
Probable space group: C 2/C
;
_chemical_formula_sum "Si O2"
_cell_formula_units_Z 28
_cell_length_a 18.493749
_cell_length_b 4.949499
_cell_length_c 22.178065
_cell_angle_alpha 90.000000
_cell_angle_beta 33.197040
_cell_angle_gamma 90.000000
_cell_volume 1111.500942
_symmetry_space_group_name_H-M "C 2/C"
_symmetry_group_IT_number 15
_symmetry_cell_setting 'monoclinic'
loop_
_space_group_symop_operation_xyz
x,y,z
-x,y,1/2-z
-x,-y,-z
x,-y,1/2+z
1/2+x,1/2+y,z
1/2-x,1/2+y,1/2-z
1/2-x,1/2-y,-z
1/2+x,1/2-y,1/2+z
loop_
_atom_site_type_symbol
_atom_site_label
_atom_site_fract_x
_atom_site_fract_y
_atom_site_fract_z
Si Si1 0.000000 0.504263 0.250000
Si Si2 0.175100 0.804302 0.824480
Si Si3 0.776873 0.253072 0.071709
Si Si4 0.581986 0.744649 0.071147
O O1 0.878538 0.698683 0.318516
O O2 0.971128 0.308326 0.325830
O O3 0.289204 0.605883 0.721103
O O4 0.161804 0.791260 0.905331
O O5 0.035211 0.723275 0.894667
O O6 0.800551 0.555492 0.031620
O O7 0.854826 0.053819 0.971767
#
# Coordination Sequence:
#
# PCOD8154939 Si02
#       4
#     4   8   8   8
#     4  12  28  50  76 108 160 188 248 302 372 444
#     4  12  24  48  78 108 148 196 246 306 366 430
#     4  12  27  48  76 109 147 197 246 302 368 437
#     4  12  27  48  76 109 147 197 246 302 368 437
#
# _framework density 25.19116
#
# number of rings (size 3 to 8) (size 9 to 14) (size 15 to 20)
#    0.000    0.000    2.857    6.857    0.000    2.286 
#    0.000    0.000    0.000    0.000    0.000    0.000 
#    0.000    0.000    0.000    0.000    0.000    0.000 
#
# Total GULP energy -173829.392331 kJ/mol
# GULP energy per Si atom -12416.385167 kJ/mol
# Density = 2.513382 g / cm^3
# Si number density = 25.191160 Si / 1000 Ang^3
#
#
#
# Elastic Constant Matrix: (Units=GPa)
#
#
# Indices 1 2 3 4 5 6 
#
# 1 128.6165 -16.2414 31.8480 0.7278 -11.7911 -1.8927
# 2 -16.2414 71.3056 -1.4484 0.8954 -7.6700 -2.3869
# 3 31.8480 -1.4484 94.2140 0.9489 -4.1738 -3.4202
# 4 0.7278 0.8954 0.9489 27.8683 0.8449 0.4791
# 5 -11.7911 -7.6700 -4.1738 0.8449 36.6802 0.4354
# 6 -1.8927 -2.3869 -3.4202 0.4791 0.4354 25.6275
#
#
#
# Elastic Compliance Matrix: (Units=1/GPa)
#
#
# Indices 1 2 3 4 5 6 
#
# 1 0.009077 0.002360 -0.002875 -0.000316 0.003086 0.000460
# 2 0.002360 0.015028 -0.000335 -0.000676 0.003861 0.001476
# 3 -0.002875 -0.000335 0.011646 -0.000343 0.000323 0.001312
# 4 -0.000316 -0.000676 -0.000343 0.035972 -0.001101 -0.000786
# 5 0.003086 0.003861 0.000323 -0.001101 0.029122 0.000156
# 6 0.000460 0.001476 0.001312 -0.000786 0.000156 0.039379
#
#
# Mechanical properties :
#
#
# Convention : Reuss Voigt Hill
#
# Bulk Modulus (GPa) = 29.36843 35.82805 32.59824
# Shear Modulus (GPa) = 32.62109 36.70038 34.66073
#
# Velocity S-wave (km/s) = 3.60243 3.82104 3.71335
# Velocity P-wave (km/s) = 5.38395 5.80694 5.59944
#
# Compressibility (1/GPa) = 0.03405017
#
# Stress axis : x y z
#
# Youngs Moduli (GPa) = 110.17382 66.54173 85.86385
#
# Poissons Ratio (x) = -0.15706 0.24689
# Poissons Ratio (y) = -0.26004 0.02880
# Poissons Ratio (z) = 0.31679 0.02232
#
# Static dielectric constant tensor:
#      x y z
#    x 4.839980 0.000410 -0.000740 
#    y 0.000410 4.538960 0.000410 
#    z -0.000740 0.000410 4.486770 
# 
# 
# High freq. dielectric constant tensor:
#      x y z
#    x 2.033400 -0.000050 -0.000420 
#    y -0.000050 2.010280 0.000080 
#    z -0.000420 0.000080 2.011940 
# 
# From -- ./inp_files/71675.got.cif
#   From: 2010.06.25/outbox.cif.g09.slc.cpg/sg15_36_cif.got.tgz:71675.got - 2010.06.28 07:06:18.
