data_PCOD8154175
_publ_section_title
;
Structure prediction by ZEFSAII (Michael W. Deem and Ramdas Pophale) SiO2 
 PCOD8154175
Probable space group: C 2/C
;
_chemical_formula_sum "Si O2"
_cell_formula_units_Z 44
_cell_length_a 17.707552
_cell_length_b 8.729409
_cell_length_c 17.511529
_cell_angle_alpha 90.000000
_cell_angle_beta 47.297697
_cell_angle_gamma 90.000000
_cell_volume 1989.244651
_symmetry_space_group_name_H-M "C 2/C"
_symmetry_group_IT_number 15
_symmetry_cell_setting 'monoclinic'
loop_
_space_group_symop_operation_xyz
x,y,z
-x,y,1/2-z
-x,-y,-z
x,-y,1/2+z
1/2+x,1/2+y,z
1/2-x,1/2+y,1/2-z
1/2-x,1/2-y,-z
1/2+x,1/2-y,1/2+z
loop_
_atom_site_type_symbol
_atom_site_label
_atom_site_fract_x
_atom_site_fract_y
_atom_site_fract_z
Si Si1 0.143090 0.836193 0.579544
Si Si2 0.134919 0.623348 0.918774
Si Si3 0.133759 0.085611 0.709663
Si Si4 0.500000 0.167886 0.250000
Si Si5 0.988221 0.573164 0.887991
Si Si6 0.954306 0.069747 0.955725
O O1 0.250000 0.750000 0.500000
O O2 0.051376 0.713530 0.635895
O O3 0.134247 0.922725 0.666466
O O4 0.133679 0.958171 0.517264
O O5 0.257230 0.621578 0.827345
O O6 0.090963 0.622879 0.862760
O O7 0.097741 0.472778 0.990287
O O8 0.097640 0.769004 0.991670
O O9 0.101261 0.222428 0.673346
O O10 0.047756 0.086185 0.833220
O O11 0.486280 0.067934 0.183962
O O12 0.000000 0.000000 0.000000
#
# Coordination Sequence:
#
# PCOD8154175 Si02
#       6
#     8   8   8   4   8   8
#     4  12  25  46  74 107 145 190 250 307 372 432
#     4  11  25  49  73 101 150 194 243 297 368 442
#     4  12  26  49  75 107 149 198 243 304 380 438
#     4  12  26  44  74 104 146 186 246 300 368 432
#     4  11  25  46  69 106 144 184 247 304 353 444
#     4  12  26  50  71 109 155 194 244 311 369 448
#
# _framework density 22.118950000000002
#
# number of rings (size 3 to 8) (size 9 to 14) (size 15 to 20)
#    0.000    0.364    7.273    0.000    5.091    2.909 
#    3.273    0.000    0.000    0.000    0.000    0.000 
#    0.000    0.000    0.000    0.000    0.000    0.000 
#
# Total GULP energy -272877.876868 kJ/mol
# GULP energy per Si atom -12403.539858 kJ/mol
# Density = 2.206861 g / cm^3
# Si number density = 22.118950 Si / 1000 Ang^3
#
#
#
# Elastic Constant Matrix: (Units=GPa)
#
#
# Indices 1 2 3 4 5 6 
#
# 1 194.6458 81.8753 76.1885 0.0000 -24.3639 0.0000
# 2 81.8753 147.6516 57.0376 0.0000 -5.9074 0.0000
# 3 76.1885 57.0376 95.2375 0.0000 -4.3477 0.0000
# 4 0.0000 0.0000 0.0000 37.5898 0.0000 4.1172
# 5 -24.3639 -5.9074 -4.3477 0.0000 31.4081 0.0000
# 6 0.0000 0.0000 0.0000 4.1172 0.0000 52.0523
#
#
#
# Elastic Compliance Matrix: (Units=1/GPa)
#
#
# Indices 1 2 3 4 5 6 
#
# 1 0.009134 -0.002748 -0.005396 0.000000 0.005822 0.000000
# 2 -0.002748 0.009665 -0.003627 0.000000 -0.000816 0.000000
# 3 -0.005396 -0.003627 0.016873 0.000000 -0.002532 0.000000
# 4 0.000000 0.000000 0.000000 0.026835 0.000000 -0.002123
# 5 0.005822 -0.000816 -0.002532 0.000000 0.035851 0.000000
# 6 0.000000 0.000000 0.000000 -0.002123 0.000000 0.019379
#
#
# Mechanical properties :
#
#
# Convention : Reuss Voigt Hill
#
# Bulk Modulus (GPa) = 82.43554 96.41530 89.42542
# Shear Modulus (GPa) = 34.40596 39.03894 36.72245
#
# Velocity S-wave (km/s) = 3.94826 4.20569 4.07901
# Velocity P-wave (km/s) = 7.62464 8.20170 7.91843
#
# Compressibility (1/GPa) = 0.01213069
#
# Stress axis : x y z
#
# Youngs Moduli (GPa) = 109.48074 103.46611 59.26470
#
# Poissons Ratio (x) = 0.28429 0.31978
# Poissons Ratio (y) = 0.30082 0.21498
# Poissons Ratio (z) = 0.59073 0.37532
#
# Static dielectric constant tensor:
#      x y z
#    x 8.193150 0.000000 0.654020 
#    y 0.000000 4.288880 0.000000 
#    z 0.654020 0.000000 3.865360 
# 
# 
# High freq. dielectric constant tensor:
#      x y z
#    x 1.888920 0.000000 0.010290 
#    y 0.000000 1.891590 0.000000 
#    z 0.010290 0.000000 1.850260 
# 
# From -- ./inp_files/209421.got.cif
#   From: 2010.06.25/outbox.cif.g09.slc.cpg/sg15_105_cif.got.tgz:209421.got - 2010.06.28 07:06:18.
