data_PCOD8154421
_publ_section_title
;
Structure prediction by ZEFSAII (Michael W. Deem and Ramdas Pophale) SiO2 
 PCOD8154421
Probable space group: C 2/C
;
_chemical_formula_sum "Si O2"
_cell_formula_units_Z 52
_cell_length_a 5.168450
_cell_length_b 14.775359
_cell_length_c 27.431910
_cell_angle_alpha 90.000000
_cell_angle_beta 73.462695
_cell_angle_gamma 90.000000
_cell_volume 2008.202545
_symmetry_space_group_name_H-M "C 2/C"
_symmetry_group_IT_number 15
_symmetry_cell_setting 'monoclinic'
loop_
_space_group_symop_operation_xyz
x,y,z
-x,y,1/2-z
-x,-y,-z
x,-y,1/2+z
1/2+x,1/2+y,z
1/2-x,1/2+y,1/2-z
1/2-x,1/2-y,-z
1/2+x,1/2-y,1/2+z
loop_
_atom_site_type_symbol
_atom_site_label
_atom_site_fract_x
_atom_site_fract_y
_atom_site_fract_z
Si Si1 0.242491 0.454962 0.831265
Si Si2 0.500000 0.955068 0.250000
Si Si3 0.457408 0.900140 0.938530
Si Si4 0.500000 0.658636 0.250000
Si Si5 0.987006 0.871485 0.166431
Si Si6 0.208885 0.592636 0.521712
Si Si7 0.500000 0.736028 0.750000
Si Si8 0.356439 0.694273 0.940751
O O1 0.123169 0.480134 0.784707
O O2 0.502977 0.396256 0.801284
O O3 0.350462 0.538725 0.856855
O O4 0.041103 0.401277 0.877428
O O5 0.706075 0.890706 0.209500
O O6 0.316998 0.801374 0.956109
O O7 0.271089 0.988618 0.959406
O O8 0.712275 0.907977 0.962188
O O9 0.220891 0.710830 0.268576
O O10 0.963267 0.813641 0.118327
O O11 0.158887 0.821106 0.199624
O O12 0.930302 0.644328 0.551930
O O13 0.469957 0.645534 0.526406
#
# Coordination Sequence:
#
# PCOD8154421 Si02
#       8
#     8   4   8   4   8   8   4   8
#     4  12  24  47  68 108 141 199 244 308 367 447
#     4  12  22  46  76  96 158 194 246 306 378 426
#     4  11  26  49  79 110 153 198 253 309 380 446
#     4  12  26  44  67 103 144 186 246 300 366 446
#     4  12  25  44  73  99 149 195 245 305 373 437
#     4  11  27  52  77 112 154 195 249 316 379 443
#     4  12  26  44  67 105 144 190 244 302 370 442
#     4  12  27  50  78 112 150 197 253 310 377 449
#
# _framework density 25.893802999999998
#
# number of rings (size 3 to 8) (size 9 to 14) (size 15 to 20)
#    0.000    0.308    4.615    3.692    0.000    4.923 
#    8.308    0.000    0.000    0.000    0.000    0.000 
#    0.000    0.000    0.000    0.000    0.000    0.000 
#
# Total GULP energy -322173.374729 kJ/mol
# GULP energy per Si atom -12391.283643 kJ/mol
# Density = 2.583487 g / cm^3
# Si number density = 25.893803 Si / 1000 Ang^3
#
#
#
# Elastic Constant Matrix: (Units=GPa)
#
#
# Indices 1 2 3 4 5 6 
#
# 1 79.4136 41.5818 22.7978 0.0000 -3.4659 0.0000
# 2 41.5818 181.6588 44.2229 0.0000 -6.8092 0.0000
# 3 22.7978 44.2229 135.3817 0.0000 3.6566 0.0000
# 4 0.0000 0.0000 0.0000 46.3828 0.0000 -3.9219
# 5 -3.4659 -6.8092 3.6566 0.0000 26.8351 0.0000
# 6 0.0000 0.0000 0.0000 -3.9219 0.0000 23.9520
#
#
#
# Elastic Compliance Matrix: (Units=1/GPa)
#
#
# Indices 1 2 3 4 5 6 
#
# 1 0.014624 -0.002920 -0.001545 0.000000 0.001358 0.000000
# 2 -0.002920 0.006651 -0.001722 0.000000 0.001545 0.000000
# 3 -0.001545 -0.001722 0.008257 0.000000 -0.001762 0.000000
# 4 0.000000 0.000000 0.000000 0.021862 0.000000 0.003580
# 5 0.001358 0.001545 -0.001762 0.000000 0.038072 0.000000
# 6 0.000000 0.000000 0.000000 0.003580 0.000000 0.042336
#
#
# Mechanical properties :
#
#
# Convention : Reuss Voigt Hill
#
# Bulk Modulus (GPa) = 58.29037 68.18437 63.23737
# Shear Modulus (GPa) = 33.35611 38.62408 35.99009
#
# Velocity S-wave (km/s) = 3.59303 3.86636 3.73220
# Velocity P-wave (km/s) = 6.30661 6.80596 6.56104
#
# Compressibility (1/GPa) = 0.01715549
#
# Stress axis : x y z
#
# Youngs Moduli (GPa) = 68.37892 150.36446 121.10991
#
# Poissons Ratio (x) = 0.43912 0.18717
# Poissons Ratio (y) = 0.19969 0.20859
# Poissons Ratio (z) = 0.10567 0.25898
#
# Static dielectric constant tensor:
#      x y z
#    x 4.246700 0.000000 0.067740 
#    y 0.000000 5.414600 0.000000 
#    z 0.067740 0.000000 4.638540 
# 
# 
# High freq. dielectric constant tensor:
#      x y z
#    x 2.009020 0.000000 -0.000340 
#    y 0.000000 2.060830 0.000000 
#    z -0.000340 0.000000 2.057490 
# 
# From -- ./inp_files/305371.got.cif
#   From: 2010.06.25/outbox.cif.g09.slc.cpg/sg15_153_cif.got.tgz:305371.got - 2010.06.28 07:06:18.
