data_PCOD8154685
_publ_section_title
;
Structure prediction by ZEFSAII (Michael W. Deem and Ramdas Pophale) SiO2 
 PCOD8154685
Probable space group: C 2/C
;
_chemical_formula_sum "Si O2"
_cell_formula_units_Z 56
_cell_length_a 21.355344
_cell_length_b 21.470273
_cell_length_c 12.889768
_cell_angle_alpha 90.000000
_cell_angle_beta 25.248360
_cell_angle_gamma 90.000000
_cell_volume 2520.878455
_symmetry_space_group_name_H-M "C 2/C"
_symmetry_group_IT_number 15
_symmetry_cell_setting 'monoclinic'
loop_
_space_group_symop_operation_xyz
x,y,z
-x,y,1/2-z
-x,-y,-z
x,-y,1/2+z
1/2+x,1/2+y,z
1/2-x,1/2+y,1/2-z
1/2-x,1/2-y,-z
1/2+x,1/2-y,1/2+z
loop_
_atom_site_type_symbol
_atom_site_label
_atom_site_fract_x
_atom_site_fract_y
_atom_site_fract_z
Si Si1 0.176456 0.922909 0.789201
Si Si2 0.571388 0.753950 0.254521
Si Si3 0.090507 0.854972 0.394353
Si Si4 0.077091 0.623818 0.451542
Si Si5 0.858297 0.959012 0.028239
Si Si6 0.873591 0.387451 0.859157
Si Si7 0.150824 0.530086 0.653873
O O1 0.259750 0.876977 0.744944
O O2 0.258920 0.923626 0.555498
O O3 0.015894 0.896268 0.015725
O O4 0.157049 0.993148 0.855511
O O5 0.500000 0.736161 0.250000
O O6 0.490148 0.709789 0.459544
O O7 0.527847 0.824285 0.343805
O O8 0.750000 0.750000 0.000000
O O9 0.132807 0.889695 0.438372
O O10 0.234020 0.847710 0.107721
O O11 0.083303 0.634866 0.319699
O O12 0.013172 0.556576 0.584134
O O13 0.000000 0.976326 0.750000
O O14 0.716624 0.966407 0.169755
O O15 0.847765 0.461544 0.896496
O O16 0.000000 0.370678 0.750000
#
# Coordination Sequence:
#
# PCOD8154685 Si02
#       7
#     8   8   8   8   8   8   8
#     4  12  24  43  68 108 145 183 240 294 366 432
#     4  12  29  52  79 106 141 193 255 308 362 439
#     4  12  26  45  73 106 143 188 244 300 361 435
#     4  12  27  45  72 102 146 194 239 297 366 434
#     4  12  23  39  68 106 142 186 234 294 364 429
#     4  12  26  44  71 108 147 186 236 296 370 439
#     4  12  23  43  68 105 150 188 235 297 360 438
#
# _framework density 22.214479000000001
#
# number of rings (size 3 to 8) (size 9 to 14) (size 15 to 20)
#    0.000    0.000    4.286    6.857    4.000    0.571 
#    0.000    0.000    0.000    0.000    0.000    0.000 
#    0.000    0.000    0.000    0.000    0.000    0.000 
#
# Total GULP energy -347277.441847 kJ/mol
# GULP energy per Si atom -12402.765780 kJ/mol
# Density = 2.216392 g / cm^3
# Si number density = 22.214479 Si / 1000 Ang^3
#
#
#
# Elastic Constant Matrix: (Units=GPa)
#
#
# Indices 1 2 3 4 5 6 
#
# 1 74.5312 -2.1702 16.7739 0.0157 -2.0446 -0.0095
# 2 -2.1702 74.4504 25.2147 -0.0119 0.9528 0.0017
# 3 16.7739 25.2147 122.6090 -0.0325 -2.0381 -0.0024
# 4 0.0157 -0.0119 -0.0325 43.4088 0.0046 -3.4297
# 5 -2.0446 0.9528 -2.0381 0.0046 37.0678 0.0021
# 6 -0.0095 0.0017 -0.0024 -3.4297 0.0021 -4.6618
#
#
#
# Elastic Compliance Matrix: (Units=1/GPa)
#
#
# Indices 1 2 3 4 5 6 
#
# 1 0.013946 0.001119 -0.002128 -0.000008 0.000623 -0.000021
# 2 0.001119 0.014538 -0.003151 0.000002 -0.000485 0.000003
# 3 -0.002128 -0.003151 0.009103 0.000006 0.000464 -0.000006
# 4 -0.000008 0.000002 0.000006 0.021771 -0.000002 -0.016017
# 5 0.000623 -0.000485 0.000464 -0.000002 0.027050 0.000012
# 6 -0.000021 0.000003 -0.000006 -0.016017 0.000012 -0.202724
#
#
# Mechanical properties :
#
#
# Convention : Reuss Voigt Hill
#
# Bulk Modulus (GPa) = 34.16769 39.02528 36.59648
# Shear Modulus (GPa) = -50.89485 30.61442 -10.14021
#
# Velocity S-wave (km/s) = -4.79170 3.71634 -2.13883
# Velocity P-wave (km/s) = 3.89867 6.00171 3.22652
#
# Compressibility (1/GPa) = 0.02926741
#
# Stress axis : x y z
#
# Youngs Moduli (GPa) = 71.70642 68.78652 109.85639
#
# Poissons Ratio (x) = -0.07698 0.23374
# Poissons Ratio (y) = -0.08025 0.34614
# Poissons Ratio (z) = 0.15257 0.21674
#
# Static dielectric constant tensor:
#      x y z
#    x 4.286260 -0.000020 -0.041380 
#    y -0.000020 3.848020 0.000060 
#    z -0.041380 0.000060 4.117100 
# 
# 
# High freq. dielectric constant tensor:
#      x y z
#    x 1.893460 0.000000 -0.003290 
#    y 0.000000 1.852310 0.000000 
#    z -0.003290 0.000000 1.887690 
# 
# From -- ./inp_files/114698.got.cif
#   From: 2010.06.25/outbox.cif.g09.slc.cpg/sg15_58_cif.got.tgz:114698.got - 2010.06.28 07:06:18.
