data_PCOD8154774
_publ_section_title
;
Structure prediction by ZEFSAII (Michael W. Deem and Ramdas Pophale) SiO2 
 PCOD8154774
Probable space group: C 2/C
;
_chemical_formula_sum "Si O2"
_cell_formula_units_Z 40
_cell_length_a 15.882927
_cell_length_b 8.872379
_cell_length_c 12.433611
_cell_angle_alpha 90.000000
_cell_angle_beta 84.544222
_cell_angle_gamma 90.000000
_cell_volume 1744.198963
_symmetry_space_group_name_H-M "C 2/C"
_symmetry_group_IT_number 15
_symmetry_cell_setting 'monoclinic'
loop_
_space_group_symop_operation_xyz
x,y,z
-x,y,1/2-z
-x,-y,-z
x,-y,1/2+z
1/2+x,1/2+y,z
1/2-x,1/2+y,1/2-z
1/2-x,1/2-y,-z
1/2+x,1/2-y,1/2+z
loop_
_atom_site_type_symbol
_atom_site_label
_atom_site_fract_x
_atom_site_fract_y
_atom_site_fract_z
Si Si1 0.918266 0.315426 0.823490
Si Si2 0.832715 0.184766 0.435340
Si Si3 0.876930 0.632122 0.731358
Si Si4 0.505202 0.826482 0.469368
Si Si5 0.725472 0.362750 0.098433
O O1 0.903772 0.493034 0.804515
O O2 0.833372 0.223282 0.805898
O O3 0.000000 0.257290 0.750000
O O4 0.932077 0.266405 0.946285
O O5 0.750000 0.250000 0.500000
O O6 0.839712 0.236656 0.310335
O O7 0.915514 0.241601 0.489527
O O8 0.825320 0.004975 0.442449
O O9 0.957991 0.694426 0.655325
O O10 0.808167 0.579477 0.651707
O O11 0.500000 0.000000 0.500000
O O12 0.750000 0.250000 0.000000
#
# Coordination Sequence:
#
# PCOD8154774 Si02
#       5
#     8   8   8   8   8
#     4  12  25  44  73 105 144 189 241 309 367 436
#     4  12  27  45  75 106 142 198 249 306 378 443
#     4  12  24  48  76 103 149 198 247 305 375 451
#     4  12  23  46  75 106 143 194 251 301 372 452
#     4  12  27  48  69 108 150 189 247 309 368 446
#
# _framework density 22.933164999999999
#
# number of rings (size 3 to 8) (size 9 to 14) (size 15 to 20)
#    0.000    0.000    6.000    4.200    2.800    2.400 
#    0.000    0.000    0.000    0.000    0.000    0.000 
#    0.000    0.000    0.000    0.000    0.000    0.000 
#
# Total GULP energy -248001.778981 kJ/mol
# GULP energy per Si atom -12400.088949 kJ/mol
# Density = 2.288097 g / cm^3
# Si number density = 22.933165 Si / 1000 Ang^3
#
#
#
# Elastic Constant Matrix: (Units=GPa)
#
#
# Indices 1 2 3 4 5 6 
#
# 1 142.9064 56.1957 49.6728 0.0000 -16.2399 0.0000
# 2 56.1957 132.8432 46.1798 0.0000 -18.7821 0.0000
# 3 49.6728 46.1798 138.5353 0.0000 -16.8102 0.0000
# 4 0.0000 0.0000 0.0000 33.5924 0.0000 -2.9010
# 5 -16.2399 -18.7821 -16.8102 0.0000 60.5160 0.0000
# 6 0.0000 0.0000 0.0000 -2.9010 0.0000 44.5339
#
#
#
# Elastic Compliance Matrix: (Units=1/GPa)
#
#
# Indices 1 2 3 4 5 6 
#
# 1 0.008998 -0.002935 -0.002138 0.000000 0.000910 0.000000
# 2 -0.002935 0.009692 -0.001976 0.000000 0.001672 0.000000
# 3 -0.002138 -0.001976 0.008796 0.000000 0.001256 0.000000
# 4 0.000000 0.000000 0.000000 0.029937 0.000000 0.001950
# 5 0.000910 0.001672 0.001256 0.000000 0.017637 0.000000
# 6 0.000000 0.000000 0.000000 0.001950 0.000000 0.022582
#
#
# Mechanical properties :
#
#
# Convention : Reuss Voigt Hill
#
# Bulk Modulus (GPa) = 74.68158 79.82020 77.25089
# Shear Modulus (GPa) = 43.02881 45.21088 44.11985
#
# Velocity S-wave (km/s) = 4.33629 4.44488 4.39092
# Velocity P-wave (km/s) = 7.59650 7.82456 7.71138
#
# Compressibility (1/GPa) = 0.01339018
#
# Stress axis : x y z
#
# Youngs Moduli (GPa) = 111.13563 103.17499 113.68908
#
# Poissons Ratio (x) = 0.30278 0.24303
# Poissons Ratio (y) = 0.32614 0.22462
# Poissons Ratio (z) = 0.23757 0.20385
#
# Static dielectric constant tensor:
#      x y z
#    x 4.478740 0.000000 -0.295930 
#    y 0.000000 4.078170 0.000000 
#    z -0.295930 0.000000 2.324120 
# 
# 
# High freq. dielectric constant tensor:
#      x y z
#    x 1.936240 0.000000 -0.003990 
#    y 0.000000 1.883210 0.000000 
#    z -0.003990 0.000000 1.911590 
# 
# From -- ./inp_files/102676.got.cif
#   From: 2010.06.25/outbox.cif.g09.slc.cpg/sg15_52_cif.got.tgz:102676.got - 2010.06.28 07:06:18.
