data_PCOD8154463
_publ_section_title
;
Structure prediction by ZEFSAII (Michael W. Deem and Ramdas Pophale) SiO2 
 PCOD8154463
Probable space group: C 2/C
;
_chemical_formula_sum "Si O2"
_cell_formula_units_Z 28
_cell_length_a 19.034114
_cell_length_b 8.596385
_cell_length_c 7.547913
_cell_angle_alpha 90.000000
_cell_angle_beta 127.972132
_cell_angle_gamma 90.000000
_cell_volume 973.581934
_symmetry_space_group_name_H-M "C 2/C"
_symmetry_group_IT_number 15
_symmetry_cell_setting 'monoclinic'
loop_
_space_group_symop_operation_xyz
x,y,z
-x,y,1/2-z
-x,-y,-z
x,-y,1/2+z
1/2+x,1/2+y,z
1/2-x,1/2+y,1/2-z
1/2-x,1/2-y,-z
1/2+x,1/2-y,1/2+z
loop_
_atom_site_type_symbol
_atom_site_label
_atom_site_fract_x
_atom_site_fract_y
_atom_site_fract_z
Si Si1 0.150346 0.149738 0.153123
Si Si2 0.000000 0.616663 0.250000
Si Si3 0.584892 0.340163 0.162944
Si Si4 0.656146 0.125454 0.972680
O O1 0.245799 0.062145 0.325527
O O2 0.155049 0.308550 0.272565
O O3 0.075155 0.024513 0.107255
O O4 0.139423 0.189746 0.929180
O O5 0.994175 0.736272 0.067116
O O6 0.088164 0.516620 0.377620
O O7 0.631078 0.264555 0.066083
#
# Coordination Sequence:
#
# PCOD8154463 Si02
#       4
#     8   4   8   8
#     4  11  27  49  82 109 151 207 262 307 382 458
#     4  12  32  46  80 114 162 198 252 320 394 438
#     4  12  27  50  76 113 154 203 252 319 377 460
#     4  11  28  50  76 118 152 203 257 319 378 456
#
# _framework density 28.759777
#
# number of rings (size 3 to 8) (size 9 to 14) (size 15 to 20)
#    0.000    0.571    2.857    1.714   16.000    2.286 
#    0.000    0.000    0.000    0.000    0.000    0.000 
#    0.000    0.000    0.000    0.000    0.000    0.000 
#
# Total GULP energy -173589.123199 kJ/mol
# GULP energy per Si atom -12399.223086 kJ/mol
# Density = 2.869432 g / cm^3
# Si number density = 28.759777 Si / 1000 Ang^3
#
#
#
# Elastic Constant Matrix: (Units=GPa)
#
#
# Indices 1 2 3 4 5 6 
#
# 1 74.1757 25.9042 -12.5912 0.0000 -4.7862 0.0000
# 2 25.9042 167.5473 24.3601 0.0000 -1.3992 0.0000
# 3 -12.5912 24.3601 73.0113 0.0000 -26.6448 0.0000
# 4 0.0000 0.0000 0.0000 117.7630 0.0000 2.1390
# 5 -4.7862 -1.3992 -26.6448 0.0000 61.9475 0.0000
# 6 0.0000 0.0000 0.0000 2.1390 0.0000 55.1713
#
#
#
# Elastic Compliance Matrix: (Units=1/GPa)
#
#
# Indices 1 2 3 4 5 6 
#
# 1 0.015607 -0.003100 0.004911 0.000000 0.003248 0.000000
# 2 -0.003100 0.006931 -0.003413 0.000000 -0.001551 0.000000
# 3 0.004911 -0.003413 0.018733 0.000000 0.008360 0.000000
# 4 0.000000 0.000000 0.000000 0.008498 0.000000 -0.000329
# 5 0.003248 -0.001551 0.008360 0.000000 0.019954 0.000000
# 6 0.000000 0.000000 0.000000 -0.000329 0.000000 0.018138
#
#
# Mechanical properties :
#
#
# Convention : Reuss Voigt Hill
#
# Bulk Modulus (GPa) = 26.26884 43.34227 34.80556
# Shear Modulus (GPa) = 48.19063 65.44711 56.81887
#
# Velocity S-wave (km/s) = 4.09788 4.77555 4.44964
# Velocity P-wave (km/s) = 5.61640 6.74618 6.20705
#
# Compressibility (1/GPa) = 0.03806791
#
# Stress axis : x y z
#
# Youngs Moduli (GPa) = 64.07222 144.27855 53.38135
#
# Poissons Ratio (x) = 0.44726 -0.26217
# Poissons Ratio (y) = 0.19862 0.18220
# Poissons Ratio (z) = -0.31468 0.49245
#
# Static dielectric constant tensor:
#      x y z
#    x 5.805070 0.000000 0.348100 
#    y 0.000000 5.498950 0.000000 
#    z 0.348100 0.000000 5.717840 
# 
# 
# High freq. dielectric constant tensor:
#      x y z
#    x 2.184090 0.000000 0.013630 
#    y 0.000000 2.191760 0.000000 
#    z 0.013630 0.000000 2.189390 
# 
# From -- ./inp_files/53659.got.cif
#   From: 2010.06.25/outbox.cif.g09.slc.cpg/sg15_27_cif.got.tgz:53659.got - 2010.06.28 07:06:18.
