data_PCOD8154703
_publ_section_title
;
Structure prediction by ZEFSAII (Michael W. Deem and Ramdas Pophale) SiO2 
 PCOD8154703
Probable space group: C 2/C
;
_chemical_formula_sum "Si O2"
_cell_formula_units_Z 40
_cell_length_a 25.285678
_cell_length_b 5.005058
_cell_length_c 15.321932
_cell_angle_alpha 90.000000
_cell_angle_beta 72.168453
_cell_angle_gamma 90.000000
_cell_volume 1845.934872
_symmetry_space_group_name_H-M "C 2/C"
_symmetry_group_IT_number 15
_symmetry_cell_setting 'monoclinic'
loop_
_space_group_symop_operation_xyz
x,y,z
-x,y,1/2-z
-x,-y,-z
x,-y,1/2+z
1/2+x,1/2+y,z
1/2-x,1/2+y,1/2-z
1/2-x,1/2-y,-z
1/2+x,1/2-y,1/2+z
loop_
_atom_site_type_symbol
_atom_site_label
_atom_site_fract_x
_atom_site_fract_y
_atom_site_fract_z
Si Si1 0.063220 0.440334 0.241809
Si Si2 0.063125 0.447264 0.444889
Si Si3 0.371819 0.561118 0.843024
Si Si4 0.786643 0.077671 0.732201
Si Si5 0.128016 0.946990 0.464080
O O1 0.073778 0.491225 0.337824
O O2 0.102799 0.642912 0.169969
O O3 0.000000 0.496661 0.250000
O O4 0.078586 0.140506 0.206943
O O5 0.103021 0.650401 0.475657
O O6 0.000000 0.500000 0.500000
O O7 0.078030 0.148000 0.465798
O O8 0.321465 0.527066 0.801792
O O9 0.348410 0.502680 0.951315
O O10 0.766179 0.382292 0.740137
O O11 0.822074 0.015108 0.628473
#
# Coordination Sequence:
#
# PCOD8154703 Si02
#       5
#     8   8   8   8   8
#     4  12  23  42  67 101 140 181 219 271 336 408
#     4  12  23  42  67 101 140 181 219 271 336 408
#     4  12  25  45  68 100 137 174 227 282 332 405
#     4  12  26  46  72  96 134 180 230 288 342 382
#     4  12  25  45  68 100 137 174 227 282 332 405
#
# _framework density 21.669238
#
# number of rings (size 3 to 8) (size 9 to 14) (size 15 to 20)
#    0.000    0.000    4.000    7.200    0.000    1.600 
#    0.000    0.000    0.000    0.000    0.000    0.000 
#    0.000    0.000    0.000    0.000    0.000    0.000 
#
# Total GULP energy -248212.432077 kJ/mol
# GULP energy per Si atom -12410.621604 kJ/mol
# Density = 2.161992 g / cm^3
# Si number density = 21.669238 Si / 1000 Ang^3
#
#
#
# Elastic Constant Matrix: (Units=GPa)
#
#
# Indices 1 2 3 4 5 6 
#
# 1 89.7853 13.7052 61.8383 0.0000 7.2439 0.0000
# 2 13.7052 87.2912 10.9079 0.0000 -0.7752 0.0000
# 3 61.8383 10.9079 120.6434 0.0000 20.8774 0.0000
# 4 0.0000 0.0000 0.0000 34.6693 0.0000 -5.6684
# 5 7.2439 -0.7752 20.8774 0.0000 39.8281 0.0000
# 6 0.0000 0.0000 0.0000 -5.6684 0.0000 45.7991
#
#
#
# Elastic Compliance Matrix: (Units=1/GPa)
#
#
# Indices 1 2 3 4 5 6 
#
# 1 0.017531 -0.001600 -0.009111 0.000000 0.001556 0.000000
# 2 -0.001600 0.011759 -0.000366 0.000000 0.000712 0.000000
# 3 -0.009111 -0.000366 0.013974 0.000000 -0.005675 0.000000
# 4 0.000000 0.000000 0.000000 0.029440 0.000000 0.003644
# 5 0.001556 0.000712 -0.005675 0.000000 0.027814 0.000000
# 6 0.000000 0.000000 0.000000 0.003644 0.000000 0.022285
#
#
# Mechanical properties :
#
#
# Convention : Reuss Voigt Hill
#
# Bulk Modulus (GPa) = 47.37000 52.29142 49.83071
# Shear Modulus (GPa) = 32.89613 38.14387 35.52000
#
# Velocity S-wave (km/s) = 3.90051 4.20012 4.05308
# Velocity P-wave (km/s) = 6.49563 6.90691 6.70442
#
# Compressibility (1/GPa) = 0.02111041
#
# Stress axis : x y z
#
# Youngs Moduli (GPa) = 57.04128 85.03963 71.56223
#
# Poissons Ratio (x) = 0.13608 0.65197
# Poissons Ratio (y) = 0.09128 0.02620
# Poissons Ratio (z) = 0.51968 0.03114
#
# Static dielectric constant tensor:
#      x y z
#    x 3.756000 0.000000 0.145260 
#    y 0.000000 4.177250 0.000000 
#    z 0.145260 0.000000 4.107930 
# 
# 
# High freq. dielectric constant tensor:
#      x y z
#    x 1.845650 0.000000 0.009010 
#    y 0.000000 1.868980 0.000000 
#    z 0.009010 0.000000 1.866950 
# 
# From -- ./inp_files/59894.got.cif
#   From: 2010.06.25/outbox.cif.g09.slc.cpg/sg15_30_cif.got.tgz:59894.got - 2010.06.28 07:06:18.
