data_PCOD8154395
_publ_section_title
;
Structure prediction by ZEFSAII (Michael W. Deem and Ramdas Pophale) SiO2 
 PCOD8154395
Probable space group: C 2/C
;
_chemical_formula_sum "Si O2"
_cell_formula_units_Z 40
_cell_length_a 11.870812
_cell_length_b 18.401908
_cell_length_c 11.263514
_cell_angle_alpha 90.000000
_cell_angle_beta 134.418019
_cell_angle_gamma 90.000000
_cell_volume 1757.393514
_symmetry_space_group_name_H-M "C 2/C"
_symmetry_group_IT_number 15
_symmetry_cell_setting 'monoclinic'
loop_
_space_group_symop_operation_xyz
x,y,z
-x,y,1/2-z
-x,-y,-z
x,-y,1/2+z
1/2+x,1/2+y,z
1/2-x,1/2+y,1/2-z
1/2-x,1/2-y,-z
1/2+x,1/2-y,1/2+z
loop_
_atom_site_type_symbol
_atom_site_label
_atom_site_fract_x
_atom_site_fract_y
_atom_site_fract_z
Si Si1 0.663038 0.589135 0.048805
Si Si2 0.333093 0.419122 0.409853
Si Si3 0.765568 0.839488 0.133467
Si Si4 0.846709 0.678753 0.558423
Si Si5 0.084797 0.690961 0.161233
O O1 0.682570 0.503591 0.075975
O O2 0.822769 0.626427 0.207811
O O3 0.511349 0.609891 0.017122
O O4 0.633674 0.616778 0.891828
O O5 0.232963 0.394620 0.219530
O O6 0.266362 0.385873 0.481778
O O7 0.855823 0.769498 0.252574
O O8 0.602407 0.812968 0.950796
O O9 0.750000 0.750000 0.500000
O O10 0.895019 0.671781 0.459873
O O11 0.000000 0.682504 0.750000
#
# Coordination Sequence:
#
# PCOD8154395 Si02
#       5
#     8   8   8   8   8
#     4  11  28  46  72 105 144 192 230 296 354 426
#     4  11  26  48  70 104 145 187 239 287 358 423
#     4  12  25  49  74 106 144 186 240 294 351 425
#     4  12  25  46  70 103 140 184 237 297 348 422
#     4  12  25  46  76 105 142 187 239 293 357 416
#
# _framework density 22.760981999999998
#
# number of rings (size 3 to 8) (size 9 to 14) (size 15 to 20)
#    0.000    0.400    4.000    3.000    5.600    4.000 
#    0.000    0.000    0.000    0.000    0.000    0.000 
#    0.000    0.000    0.000    0.000    0.000    0.000 
#
# Total GULP energy -247945.551763 kJ/mol
# GULP energy per Si atom -12397.277588 kJ/mol
# Density = 2.270918 g / cm^3
# Si number density = 22.760982 Si / 1000 Ang^3
#
#
#
# Elastic Constant Matrix: (Units=GPa)
#
#
# Indices 1 2 3 4 5 6 
#
# 1 149.0741 74.6675 53.7603 0.0000 -11.0502 0.0000
# 2 74.6675 139.1311 70.1249 0.0000 1.9961 0.0000
# 3 53.7603 70.1249 123.1542 0.0000 6.7518 0.0000
# 4 0.0000 0.0000 0.0000 19.6510 0.0000 -11.0802
# 5 -11.0502 1.9961 6.7518 0.0000 39.8333 0.0000
# 6 0.0000 0.0000 0.0000 -11.0802 0.0000 103.6026
#
#
#
# Elastic Compliance Matrix: (Units=1/GPa)
#
#
# Indices 1 2 3 4 5 6 
#
# 1 0.009839 -0.004308 -0.002022 0.000000 0.003288 0.000000
# 2 -0.004308 0.011976 -0.004885 0.000000 -0.000967 0.000000
# 3 -0.002022 -0.004885 0.011912 0.000000 -0.002335 0.000000
# 4 0.000000 0.000000 0.000000 0.054154 0.000000 0.005792
# 5 0.003288 -0.000967 -0.002335 0.000000 0.026461 0.000000
# 6 0.000000 0.000000 0.000000 0.005792 0.000000 0.010272
#
#
# Mechanical properties :
#
#
# Convention : Reuss Voigt Hill
#
# Bulk Modulus (GPa) = 88.52968 89.82943 89.17955
# Shear Modulus (GPa) = 33.15428 46.80451 39.97939
#
# Velocity S-wave (km/s) = 3.82072 4.53962 4.19559
# Velocity P-wave (km/s) = 7.64485 8.18716 7.92065
#
# Compressibility (1/GPa) = 0.01129565
#
# Stress axis : x y z
#
# Youngs Moduli (GPa) = 101.63722 83.50172 83.94598
#
# Poissons Ratio (x) = 0.35975 0.16975
# Poissons Ratio (y) = 0.43788 0.41011
# Poissons Ratio (z) = 0.20552 0.40794
#
# Static dielectric constant tensor:
#      x y z
#    x 4.265990 0.000000 0.062700 
#    y 0.000000 4.089220 0.000000 
#    z 0.062700 0.000000 4.395830 
# 
# 
# High freq. dielectric constant tensor:
#      x y z
#    x 1.923130 0.000000 -0.002490 
#    y 0.000000 1.899740 0.000000 
#    z -0.002490 0.000000 1.910500 
# 
# From -- ./inp_files/30201.got.cif
#   From: 2010.06.25/outbox.cif.g09.slc.cpg/sg15_16_cif.got.tgz:30201.got - 2010.06.28 07:06:18.
