data_PCOD8154408
_publ_section_title
;
Structure prediction by ZEFSAII (Michael W. Deem and Ramdas Pophale) SiO2 
 PCOD8154408
Probable space group: C 2/C
;
_chemical_formula_sum "Si O2"
_cell_formula_units_Z 36
_cell_length_a 9.465794
_cell_length_b 22.245414
_cell_length_c 8.064119
_cell_angle_alpha 90.000000
_cell_angle_beta 67.823893
_cell_angle_gamma 90.000000
_cell_volume 1572.456427
_symmetry_space_group_name_H-M "C 2/C"
_symmetry_group_IT_number 15
_symmetry_cell_setting 'monoclinic'
loop_
_space_group_symop_operation_xyz
x,y,z
-x,y,1/2-z
-x,-y,-z
x,-y,1/2+z
1/2+x,1/2+y,z
1/2-x,1/2+y,1/2-z
1/2-x,1/2-y,-z
1/2+x,1/2-y,1/2+z
loop_
_atom_site_type_symbol
_atom_site_label
_atom_site_fract_x
_atom_site_fract_y
_atom_site_fract_z
Si Si1 0.460086 0.387342 0.951696
Si Si2 0.267763 0.074961 0.428974
Si Si3 0.666512 0.053520 0.726493
Si Si4 0.000000 0.325926 0.750000
Si Si5 0.928316 0.749162 0.952464
O O1 0.500000 0.409049 0.750000
O O2 0.584837 0.418288 0.015122
O O3 0.481978 0.316649 0.962144
O O4 0.290583 0.409300 0.067738
O O5 0.324717 0.067715 0.586973
O O6 0.347531 0.133763 0.316719
O O7 0.315868 0.017667 0.300385
O O8 0.500000 0.076348 0.750000
O O9 0.985745 0.287012 0.588324
O O10 0.000000 0.722998 0.750000
O O11 0.750000 0.750000 0.000000
#
# Coordination Sequence:
#
# PCOD8154408 Si02
#       5
#     8   8   8   4   8
#     4  11  26  48  76 108 152 194 248 312 377 446
#     4  12  27  47  74 112 150 197 251 311 374 450
#     4  12  27  47  77 108 149 197 249 310 381 443
#     4  12  28  46  80 112 154 200 260 306 374 456
#     4  11  28  49  76 111 152 200 252 313 377 444
#
# _framework density 22.894116
#
# number of rings (size 3 to 8) (size 9 to 14) (size 15 to 20)
#    0.000    0.444    1.111    6.000   12.444    1.778 
#    0.000    0.000    0.000    0.000    0.000    0.000 
#    0.000    0.000    0.000    0.000    0.000    0.000 
#
# Total GULP energy -223289.718721 kJ/mol
# GULP energy per Si atom -12404.984373 kJ/mol
# Density = 2.284201 g / cm^3
# Si number density = 22.894116 Si / 1000 Ang^3
#
#
#
# Elastic Constant Matrix: (Units=GPa)
#
#
# Indices 1 2 3 4 5 6 
#
# 1 166.3432 39.8610 78.3880 0.0000 -7.4744 0.0000
# 2 39.8610 97.9668 68.8043 0.0000 11.1792 0.0000
# 3 78.3880 68.8043 146.2069 0.0000 1.3359 0.0000
# 4 0.0000 0.0000 0.0000 40.1810 0.0000 -5.0204
# 5 -7.4744 11.1792 1.3359 0.0000 49.4029 0.0000
# 6 0.0000 0.0000 0.0000 -5.0204 0.0000 40.5450
#
#
#
# Elastic Compliance Matrix: (Units=1/GPa)
#
#
# Indices 1 2 3 4 5 6 
#
# 1 0.008156 -0.000608 -0.004100 0.000000 0.001482 0.000000
# 2 -0.000608 0.015835 -0.007094 0.000000 -0.003483 0.000000
# 3 -0.004100 -0.007094 0.012370 0.000000 0.000650 0.000000
# 4 0.000000 0.000000 0.000000 0.025278 0.000000 0.003130
# 5 0.001482 -0.003483 0.000650 0.000000 0.021237 0.000000
# 6 0.000000 0.000000 0.000000 0.003130 0.000000 0.025052
#
#
# Mechanical properties :
#
#
# Convention : Reuss Voigt Hill
#
# Bulk Modulus (GPa) = 78.38980 87.18039 82.78510
# Shear Modulus (GPa) = 36.82302 40.92336 38.87319
#
# Velocity S-wave (km/s) = 4.01484 4.23248 4.12510
# Velocity P-wave (km/s) = 7.47037 7.87703 7.67640
#
# Compressibility (1/GPa) = 0.01275676
#
# Stress axis : x y z
#
# Youngs Moduli (GPa) = 122.60571 63.15271 80.83828
#
# Poissons Ratio (x) = 0.03840 0.33146
# Poissons Ratio (y) = 0.07455 0.57346
# Poissons Ratio (z) = 0.50272 0.44800
#
# Static dielectric constant tensor:
#      x y z
#    x 4.393860 0.000000 -0.211660 
#    y 0.000000 1.514940 0.000000 
#    z -0.211660 0.000000 4.524640 
# 
# 
# High freq. dielectric constant tensor:
#      x y z
#    x 1.924510 0.000000 -0.000040 
#    y 0.000000 1.913650 0.000000 
#    z -0.000040 0.000000 1.917300 
# 
# From -- ./inp_files/23318.got.cif
#   From: 2010.06.25/outbox.cif.g09.slc.cpg/sg15_12_cif.got.tgz:23318.got - 2010.06.28 07:06:18.
