data_PCOD8154580
_publ_section_title
;
Structure prediction by ZEFSAII (Michael W. Deem and Ramdas Pophale) SiO2 
 PCOD8154580
Probable space group: C 2/C
;
_chemical_formula_sum "Si O2"
_cell_formula_units_Z 48
_cell_length_a 13.656445
_cell_length_b 34.818855
_cell_length_c 13.198542
_cell_angle_alpha 90.000000
_cell_angle_beta 21.184540
_cell_angle_gamma 90.000000
_cell_volume 2267.951658
_symmetry_space_group_name_H-M "C 2/C"
_symmetry_group_IT_number 15
_symmetry_cell_setting 'monoclinic'
loop_
_space_group_symop_operation_xyz
x,y,z
-x,y,1/2-z
-x,-y,-z
x,-y,1/2+z
1/2+x,1/2+y,z
1/2-x,1/2+y,1/2-z
1/2-x,1/2-y,-z
1/2+x,1/2-y,1/2+z
loop_
_atom_site_type_symbol
_atom_site_label
_atom_site_fract_x
_atom_site_fract_y
_atom_site_fract_z
Si Si1 0.934487 0.776372 0.523926
Si Si2 0.269137 0.977018 0.272470
Si Si3 0.000000 0.181587 0.750000
Si Si4 0.000000 0.897240 0.750000
Si Si5 0.000000 0.551248 0.750000
Si Si6 0.000000 0.373294 0.750000
Si Si7 0.593716 0.104856 0.946188
Si Si8 0.948009 0.856603 0.598696
O O1 0.663166 0.754922 0.815778
O O2 0.950513 0.791523 0.394048
O O3 0.936193 0.810677 0.604618
O O4 0.337348 0.975310 0.326340
O O5 0.281733 0.934053 0.218714
O O6 0.000000 0.000000 0.500000
O O7 0.500000 0.000000 0.000000
O O8 0.254771 0.154251 0.511567
O O9 0.262062 0.922758 0.528719
O O10 0.921338 0.870550 0.921357
O O11 0.983942 0.400661 0.666985
O O12 0.853575 0.132669 0.686310
O O13 0.345376 0.123461 0.124962
#
# Coordination Sequence:
#
# PCOD8154580 Si02
#       8
#     8   8   4   4   4   4   8   8
#     4  12  24  40  61  98 142 178 224 288 352 414
#     4  12  26  45  70 106 145 179 224 292 357 420
#     4  12  22  39  64  95 131 188 236 272 335 421
#     4  12  22  44  76 104 120 180 252 292 330 400
#     4  12  24  45  76 103 135 184 240 282 339 425
#     4  12  22  40  68 100 136 176 234 284 336 418
#     4  12  23  44  69  99 138 180 230 284 343 411
#     4  12  23  43  70 100 130 178 240 290 339 403
#
# _framework density 21.164473000000001
#
# number of rings (size 3 to 8) (size 9 to 14) (size 15 to 20)
#    0.000    0.000    6.667    4.500    0.000    0.667 
#    0.000    2.500    0.000    0.000    0.000    0.000 
#    0.000    0.000    0.000    0.000    0.000    0.000 
#
# Total GULP energy -297428.580239 kJ/mol
# GULP energy per Si atom -12392.857510 kJ/mol
# Density = 2.111630 g / cm^3
# Si number density = 21.164473 Si / 1000 Ang^3
#
#
#
# Elastic Constant Matrix: (Units=GPa)
#
#
# Indices 1 2 3 4 5 6 
#
# 1 121.7964 69.5544 51.9284 0.0000 2.4357 0.0001
# 2 69.5544 146.5648 94.1007 0.0000 -12.5810 0.0000
# 3 51.9284 94.1007 201.5449 0.0007 -24.9889 0.0005
# 4 0.0000 0.0000 0.0007 47.5941 -0.0001 6.9579
# 5 2.4357 -12.5810 -24.9889 -0.0001 36.4091 -0.0001
# 6 0.0001 0.0000 0.0005 6.9579 -0.0001 36.0774
#
#
#
# Elastic Compliance Matrix: (Units=1/GPa)
#
#
# Indices 1 2 3 4 5 6 
#
# 1 0.011651 -0.005173 -0.000989 0.000000 -0.003246 0.000000
# 2 -0.005173 0.012043 -0.004078 0.000000 0.001708 0.000000
# 3 -0.000989 -0.004078 0.007601 0.000000 0.003874 0.000000
# 4 0.000000 0.000000 0.000000 0.021621 0.000000 -0.004170
# 5 -0.003246 0.001708 0.003874 0.000000 0.030932 0.000000
# 6 0.000000 0.000000 0.000000 -0.004170 0.000000 0.028522
#
#
# Mechanical properties :
#
#
# Convention : Reuss Voigt Hill
#
# Bulk Modulus (GPa) = 92.46781 100.11922 96.29352
# Shear Modulus (GPa) = 36.64233 40.97097 38.80665
#
# Velocity S-wave (km/s) = 4.16542 4.40459 4.28667
# Velocity P-wave (km/s) = 8.18042 8.56009 8.37241
#
# Compressibility (1/GPa) = 0.01081457
#
# Stress axis : x y z
#
# Youngs Moduli (GPa) = 85.82913 83.03830 131.56310
#
# Poissons Ratio (x) = 0.42953 0.13015
# Poissons Ratio (y) = 0.44396 0.53653
# Poissons Ratio (z) = 0.08491 0.33864
#
# Static dielectric constant tensor:
#      x y z
#    x 3.822250 0.000000 0.012350 
#    y 0.000000 3.988610 0.000000 
#    z 0.012350 0.000000 3.998790 
# 
# 
# High freq. dielectric constant tensor:
#      x y z
#    x 1.823820 0.000000 0.000610 
#    y 0.000000 1.829470 0.000000 
#    z 0.000610 0.000000 1.855270 
# 
# From -- ./inp_files/157687.got.cif
#   From: 2010.06.25/outbox.cif.g09.slc.cpg/sg15_79_cif.got.tgz:157687.got - 2010.06.28 07:06:18.
