data_PCOD8154055
_publ_section_title
;
Structure prediction by ZEFSAII (Michael W. Deem and Ramdas Pophale) SiO2 
 PCOD8154055
Probable space group: C 2/C
;
_chemical_formula_sum "Si O2"
_cell_formula_units_Z 40
_cell_length_a 8.967483
_cell_length_b 10.359373
_cell_length_c 20.874832
_cell_angle_alpha 90.000000
_cell_angle_beta 105.867077
_cell_angle_gamma 90.000000
_cell_volume 1865.332691
_symmetry_space_group_name_H-M "C 2/C"
_symmetry_group_IT_number 15
_symmetry_cell_setting 'monoclinic'
loop_
_space_group_symop_operation_xyz
x,y,z
-x,y,1/2-z
-x,-y,-z
x,-y,1/2+z
1/2+x,1/2+y,z
1/2-x,1/2+y,1/2-z
1/2-x,1/2-y,-z
1/2+x,1/2-y,1/2+z
loop_
_atom_site_type_symbol
_atom_site_label
_atom_site_fract_x
_atom_site_fract_y
_atom_site_fract_z
Si Si1 0.862131 0.339415 0.280831
Si Si2 0.872539 0.054119 0.290305
Si Si3 0.924419 0.300393 0.524625
Si Si4 0.585508 0.439367 0.072323
Si Si5 0.562860 0.916372 0.420310
O O1 0.789629 0.195400 0.283368
O O2 0.745508 0.438498 0.235204
O O3 0.000000 0.309679 0.250000
O O4 0.930324 0.403544 0.352006
O O5 0.000000 0.044773 0.250000
O O6 0.942143 0.032465 0.369973
O O7 0.750000 0.250000 0.500000
O O8 0.941082 0.437851 0.557702
O O9 0.007230 0.196776 0.579597
O O10 0.014231 0.309981 0.467339
O O11 0.763149 0.397254 0.083149
O O12 0.500000 0.500000 0.000000
#
# Coordination Sequence:
#
# PCOD8154055 Si02
#       5
#     8   8   8   8   8
#     4  11  25  47  68  99 137 182 235 277 355 415
#     4  11  28  44  70 104 139 182 231 292 343 422
#     4  11  25  42  67 107 136 177 233 285 351 417
#     4  12  24  45  72  99 140 185 233 285 354 413
#     4  11  25  43  69  99 139 182 227 292 345 421
#
# _framework density 21.443897
#
# number of rings (size 3 to 8) (size 9 to 14) (size 15 to 20)
#    0.000    0.800    4.000    1.800    5.600    0.800 
#    0.000    0.000    0.000    0.000    0.000    0.000 
#    0.000    0.000    0.000    0.000    0.000    0.000 
#
# Total GULP energy -247851.829931 kJ/mol
# GULP energy per Si atom -12392.591497 kJ/mol
# Density = 2.139509 g / cm^3
# Si number density = 21.443897 Si / 1000 Ang^3
#
#
#
# Elastic Constant Matrix: (Units=GPa)
#
#
# Indices 1 2 3 4 5 6 
#
# 1 95.4094 32.3661 30.3940 0.0000 -6.8013 0.0000
# 2 32.3661 146.5649 60.3953 0.0000 11.1642 0.0000
# 3 30.3940 60.3953 126.6537 0.0000 3.3113 0.0000
# 4 0.0000 0.0000 0.0000 42.6980 0.0000 17.1885
# 5 -6.8013 11.1642 3.3113 0.0000 29.0699 0.0000
# 6 0.0000 0.0000 0.0000 17.1885 0.0000 42.2495
#
#
#
# Elastic Compliance Matrix: (Units=1/GPa)
#
#
# Indices 1 2 3 4 5 6 
#
# 1 0.012121 -0.002156 -0.001982 0.000000 0.003890 0.000000
# 2 -0.002156 0.009110 -0.003733 0.000000 -0.003578 0.000000
# 3 -0.001982 -0.003733 0.010156 0.000000 -0.000187 0.000000
# 4 0.000000 0.000000 0.000000 0.028007 0.000000 -0.011394
# 5 0.003890 -0.003578 -0.000187 0.000000 0.036705 0.000000
# 6 0.000000 0.000000 0.000000 -0.011394 0.000000 0.028304
#
#
# Mechanical properties :
#
#
# Convention : Reuss Voigt Hill
#
# Bulk Modulus (GPa) = 63.92123 68.32654 66.12389
# Shear Modulus (GPa) = 34.39670 39.16830 36.78250
#
# Velocity S-wave (km/s) = 4.00938 4.27845 4.14610
# Velocity P-wave (km/s) = 7.16288 7.50593 7.33641
#
# Compressibility (1/GPa) = 0.01564425
#
# Stress axis : x y z
#
# Youngs Moduli (GPa) = 82.49869 109.77041 98.46102
#
# Poissons Ratio (x) = 0.23669 0.19519
# Poissons Ratio (y) = 0.17788 0.36757
# Poissons Ratio (z) = 0.16354 0.40979
#
# Static dielectric constant tensor:
#      x y z
#    x 4.038430 0.000000 -0.220260 
#    y 0.000000 4.217350 0.000000 
#    z -0.220260 0.000000 4.073400 
# 
# 
# High freq. dielectric constant tensor:
#      x y z
#    x 1.838300 0.000000 -0.005600 
#    y 0.000000 1.868660 0.000000 
#    z -0.005600 0.000000 1.847480 
# 
# From -- ./inp_files/229950.got.cif
#   From: 2010.06.25/outbox.cif.g09.slc.cpg/sg15_115_cif.got.tgz:229950.got - 2010.06.28 07:06:18.
