data_PCOD8154473
_publ_section_title
;
Structure prediction by ZEFSAII (Michael W. Deem and Ramdas Pophale) SiO2 
 PCOD8154473
Probable space group: C 2/C
;
_chemical_formula_sum "Si O2"
_cell_formula_units_Z 32
_cell_length_a 27.249778
_cell_length_b 4.863840
_cell_length_c 9.989988
_cell_angle_alpha 90.000000
_cell_angle_beta 56.872868
_cell_angle_gamma 90.000000
_cell_volume 1108.846164
_symmetry_space_group_name_H-M "C 2/C"
_symmetry_group_IT_number 15
_symmetry_cell_setting 'monoclinic'
loop_
_space_group_symop_operation_xyz
x,y,z
-x,y,1/2-z
-x,-y,-z
x,-y,1/2+z
1/2+x,1/2+y,z
1/2-x,1/2+y,1/2-z
1/2-x,1/2-y,-z
1/2+x,1/2-y,1/2+z
loop_
_atom_site_type_symbol
_atom_site_label
_atom_site_fract_x
_atom_site_fract_y
_atom_site_fract_z
Si Si1 0.756550 0.531646 0.829951
Si Si2 0.945435 0.815117 0.622445
Si Si3 0.439343 0.931931 0.869263
Si Si4 0.656470 0.662515 0.656838
O O1 0.764503 0.841254 0.764086
O O2 0.817591 0.414315 0.795448
O O3 0.707919 0.530529 0.019849
O O4 0.946841 0.717385 0.775445
O O5 0.939595 0.545500 0.531996
O O6 0.886151 0.987733 0.685300
O O7 0.000000 0.000000 0.500000
O O8 0.500000 0.761210 0.750000
O O9 0.380827 0.779963 0.911510
#
# Coordination Sequence:
#
# PCOD8154473 Si02
#       4
#     8   8   8   8
#     4  11  28  51  80 119 162 217 288 351 425 497
#     4  12  29  52  78 120 166 217 275 341 419 507
#     4  12  28  49  80 116 166 215 272 335 419 509
#     4  11  28  48  83 112 163 219 272 349 421 505
#
# _framework density 28.858827000000002
#
# number of rings (size 3 to 8) (size 9 to 14) (size 15 to 20)
#    0.000    0.500    2.500    2.250   14.000    2.000 
#    0.000    0.000    0.000    0.000    0.000    0.000 
#    0.000    0.000    0.000    0.000    0.000    0.000 
#
# Total GULP energy -198325.090464 kJ/mol
# GULP energy per Si atom -12395.318154 kJ/mol
# Density = 2.879314 g / cm^3
# Si number density = 28.858827 Si / 1000 Ang^3
#
#
#
# Elastic Constant Matrix: (Units=GPa)
#
#
# Indices 1 2 3 4 5 6 
#
# 1 147.1136 0.3770 49.3256 0.0000 -5.4019 0.0000
# 2 0.3770 79.0077 41.7208 0.0000 2.7956 0.0000
# 3 49.3256 41.7208 122.7624 0.0000 -12.4204 0.0000
# 4 0.0000 0.0000 0.0000 47.2327 0.0000 5.6980
# 5 -5.4019 2.7956 -12.4204 0.0000 58.5905 0.0000
# 6 0.0000 0.0000 0.0000 5.6980 0.0000 19.3790
#
#
#
# Elastic Compliance Matrix: (Units=1/GPa)
#
#
# Indices 1 2 3 4 5 6 
#
# 1 0.008122 0.002074 -0.003988 0.000000 -0.000196 0.000000
# 2 0.002074 0.016162 -0.006525 0.000000 -0.001963 0.000000
# 3 -0.003988 -0.006525 0.012222 0.000000 0.002535 0.000000
# 4 0.000000 0.000000 0.000000 0.021950 0.000000 -0.006454
# 5 -0.000196 -0.001963 0.002535 0.000000 0.017681 0.000000
# 6 0.000000 0.000000 0.000000 -0.006454 0.000000 0.053500
#
#
# Mechanical properties :
#
#
# Convention : Reuss Voigt Hill
#
# Bulk Modulus (GPa) = 50.94526 59.08116 55.01321
# Shear Modulus (GPa) = 32.66751 42.20446 37.43599
#
# Velocity S-wave (km/s) = 3.36814 3.82834 3.60559
# Velocity P-wave (km/s) = 5.72865 6.32918 6.03639
#
# Compressibility (1/GPa) = 0.01962891
#
# Stress axis : x y z
#
# Youngs Moduli (GPa) = 123.12007 61.87366 81.81918
#
# Poissons Ratio (x) = -0.12833 0.32631
# Poissons Ratio (y) = -0.25537 0.53384
# Poissons Ratio (z) = 0.49102 0.40370
#
# Static dielectric constant tensor:
#      x y z
#    x 5.089170 0.000000 -0.402680 
#    y 0.000000 4.869320 0.000000 
#    z -0.402680 0.000000 5.196550 
# 
# 
# High freq. dielectric constant tensor:
#      x y z
#    x 2.203460 0.000000 -0.005690 
#    y 0.000000 2.148510 0.000000 
#    z -0.005690 0.000000 2.180430 
# 
# From -- ./inp_files/120542.got.cif
#   From: 2010.06.25/outbox.cif.g09.slc.cpg/sg15_61_cif.got.tgz:120542.got - 2010.06.28 07:06:18.
