data_PCOD8154450
_publ_section_title
;
Structure prediction by ZEFSAII (Michael W. Deem and Ramdas Pophale) SiO2 
 PCOD8154450
Probable space group: C 2/C
;
_chemical_formula_sum "Si O2"
_cell_formula_units_Z 32
_cell_length_a 14.649161
_cell_length_b 7.899351
_cell_length_c 27.127218
_cell_angle_alpha 90.000000
_cell_angle_beta 157.667892
_cell_angle_gamma 90.000000
_cell_volume 1192.789928
_symmetry_space_group_name_H-M "C 2/C"
_symmetry_group_IT_number 15
_symmetry_cell_setting 'monoclinic'
loop_
_space_group_symop_operation_xyz
x,y,z
-x,y,1/2-z
-x,-y,-z
x,-y,1/2+z
1/2+x,1/2+y,z
1/2-x,1/2+y,1/2-z
1/2-x,1/2-y,-z
1/2+x,1/2-y,1/2+z
loop_
_atom_site_type_symbol
_atom_site_label
_atom_site_fract_x
_atom_site_fract_y
_atom_site_fract_z
Si Si1 0.055936 0.659845 0.699981
Si Si2 0.572211 0.242766 0.457066
Si Si3 0.877372 0.378536 0.005771
Si Si4 0.758795 0.348134 0.644653
O O1 0.299265 0.748805 0.801494
O O2 0.903272 0.588656 0.577739
O O3 0.136839 0.517263 0.778370
O O4 0.120409 0.797877 0.862428
O O5 0.750000 0.250000 0.500000
O O6 0.621760 0.389077 0.523613
O O7 0.604969 0.069851 0.506036
O O8 0.093683 0.257880 0.098350
O O9 0.000000 0.242915 0.750000
#
# Coordination Sequence:
#
# PCOD8154450 Si02
#       4
#     8   8   8   8
#     4  11  27  47  81 114 162 203 263 329 395 471
#     4  12  28  50  80 115 161 208 264 328 395 470
#     4  11  27  50  77 121 154 208 264 325 397 469
#     4  12  28  49  78 114 158 208 263 320 399 467
#
# _framework density 26.827857999999999
#
# number of rings (size 3 to 8) (size 9 to 14) (size 15 to 20)
#    0.000    0.500    0.000    6.000   21.000    0.000 
#    0.000    0.000    0.000    0.000    0.000    0.000 
#    0.000    0.000    0.000    0.000    0.000    0.000 
#
# Total GULP energy -198330.898762 kJ/mol
# GULP energy per Si atom -12395.681173 kJ/mol
# Density = 2.676680 g / cm^3
# Si number density = 26.827858 Si / 1000 Ang^3
#
#
#
# Elastic Constant Matrix: (Units=GPa)
#
#
# Indices 1 2 3 4 5 6 
#
# 1 128.4024 41.9455 57.3259 -0.0011 25.6541 -0.0004
# 2 41.9455 129.4661 60.1634 0.0004 8.8100 -0.0007
# 3 57.3259 60.1634 162.9216 -0.0039 19.4409 -0.0033
# 4 -0.0011 0.0004 -0.0039 43.9187 0.0000 -1.5622
# 5 25.6541 8.8100 19.4409 0.0000 73.8855 0.0001
# 6 -0.0004 -0.0007 -0.0033 -1.5622 0.0001 20.2720
#
#
#
# Elastic Compliance Matrix: (Units=1/GPa)
#
#
# Indices 1 2 3 4 5 6 
#
# 1 0.010058 -0.001909 -0.002524 0.000000 -0.002601 0.000000
# 2 -0.001909 0.009690 -0.002940 0.000000 0.000281 0.000000
# 3 -0.002524 -0.002940 0.008223 0.000001 -0.000937 0.000001
# 4 0.000000 0.000000 0.000001 0.022832 0.000000 0.001759
# 5 -0.002601 0.000281 -0.000937 0.000000 0.014650 0.000000
# 6 0.000000 0.000000 0.000001 0.001759 0.000000 0.049465
#
#
# Mechanical properties :
#
#
# Convention : Reuss Voigt Hill
#
# Bulk Modulus (GPa) = 75.61094 82.18441 78.89768
# Shear Modulus (GPa) = 37.29339 45.03892 41.16615
#
# Velocity S-wave (km/s) = 3.73245 4.10178 3.92146
# Velocity P-wave (km/s) = 6.84250 7.28925 7.06941
#
# Compressibility (1/GPa) = 0.01322560
#
# Stress axis : x y z
#
# Youngs Moduli (GPa) = 99.42407 103.20337 121.60368
#
# Poissons Ratio (x) = 0.19700 0.30690
# Poissons Ratio (y) = 0.18979 0.35752
# Poissons Ratio (z) = 0.25092 0.30342
#
# Static dielectric constant tensor:
#      x y z
#    x 5.026740 0.000000 0.332950 
#    y 0.000000 4.886820 -0.000010 
#    z 0.332950 -0.000010 5.235590 
# 
# 
# High freq. dielectric constant tensor:
#      x y z
#    x 2.095130 0.000000 0.011710 
#    y 0.000000 2.068680 0.000000 
#    z 0.011710 0.000000 2.094520 
# 
# From -- ./inp_files/272986.got.cif
#   From: 2010.06.25/outbox.cif.g09.slc.cpg/sg15_137_cif.got.tgz:272986.got - 2010.06.28 07:06:18.
