data_PCOD8154371
_publ_section_title
;
Structure prediction by ZEFSAII (Michael W. Deem and Ramdas Pophale) SiO2 
 PCOD8154371
Probable space group: C 2/C
;
_chemical_formula_sum "Si O2"
_cell_formula_units_Z 52
_cell_length_a 25.359974
_cell_length_b 6.594944
_cell_length_c 15.393702
_cell_angle_alpha 90.000000
_cell_angle_beta 113.707053
_cell_angle_gamma 90.000000
_cell_volume 2357.300738
_symmetry_space_group_name_H-M "C 2/C"
_symmetry_group_IT_number 15
_symmetry_cell_setting 'monoclinic'
loop_
_space_group_symop_operation_xyz
x,y,z
-x,y,1/2-z
-x,-y,-z
x,-y,1/2+z
1/2+x,1/2+y,z
1/2-x,1/2+y,1/2-z
1/2-x,1/2-y,-z
1/2+x,1/2-y,1/2+z
loop_
_atom_site_type_symbol
_atom_site_label
_atom_site_fract_x
_atom_site_fract_y
_atom_site_fract_z
Si Si1 0.292327 0.416801 0.844082
Si Si2 0.504772 0.198260 0.442014
Si Si3 0.087972 0.949091 0.027224
Si Si4 0.706885 0.097669 0.519168
Si Si5 0.500000 0.980265 0.750000
Si Si6 0.113495 0.330793 0.380458
Si Si7 0.779131 0.228242 0.146516
O O1 0.305690 0.201141 0.896792
O O2 0.240995 0.537726 0.859409
O O3 0.273244 0.387446 0.733174
O O4 0.349858 0.549494 0.886850
O O5 0.452267 0.343841 0.429181
O O6 0.564380 0.322936 0.494202
O O7 0.499745 0.150694 0.337198
O O8 0.500000 0.000000 0.500000
O O9 0.092669 0.816045 0.943349
O O10 0.750000 0.250000 0.500000
O O11 0.645914 0.038570 0.433887
O O12 0.737994 0.882277 0.550423
O O13 0.442761 0.116411 0.712337
O O14 0.155495 0.212258 0.342861
#
# Coordination Sequence:
#
# PCOD8154371 Si02
#       7
#     8   8   8   8   4   8   8
#     4  12  25  43  71 107 142 190 235 304 368 445
#     4  11  26  51  72 108 144 198 248 310 373 443
#     4  11  26  46  78 102 149 194 244 309 379 440
#     4  12  24  44  72 100 148 190 234 299 373 437
#     4  12  28  46  80 106 148 192 258 308 366 446
#     4  12  26  46  73 110 144 195 250 307 365 448
#     4  12  26  44  69 108 145 186 250 294 374 444
#
# _framework density 22.059128000000001
#
# number of rings (size 3 to 8) (size 9 to 14) (size 15 to 20)
#    0.000    0.308    6.154    2.308    2.154    4.308 
#    0.000    0.000    0.000    0.000    0.000    0.000 
#    0.000    0.000    0.000    0.000    0.000    0.000 
#
# Total GULP energy -322398.498933 kJ/mol
# GULP energy per Si atom -12399.942267 kJ/mol
# Density = 2.200892 g / cm^3
# Si number density = 22.059128 Si / 1000 Ang^3
#
#
#
# Elastic Constant Matrix: (Units=GPa)
#
#
# Indices 1 2 3 4 5 6 
#
# 1 112.6039 28.5535 27.4703 0.0000 7.9942 0.0000
# 2 28.5535 97.8975 38.4442 0.0000 -3.0882 0.0000
# 3 27.4703 38.4442 87.4449 0.0000 4.4416 0.0000
# 4 0.0000 0.0000 0.0000 45.1181 0.0000 -7.6809
# 5 7.9942 -3.0882 4.4416 0.0000 45.3400 0.0000
# 6 0.0000 0.0000 0.0000 -7.6809 0.0000 51.0661
#
#
#
# Elastic Compliance Matrix: (Units=1/GPa)
#
#
# Indices 1 2 3 4 5 6 
#
# 1 0.010068 -0.002155 -0.002128 0.000000 -0.001713 0.000000
# 2 -0.002155 0.012894 -0.005081 0.000000 0.001756 0.000000
# 3 -0.002128 -0.005081 0.014408 0.000000 -0.001382 0.000000
# 4 0.000000 0.000000 0.000000 0.022746 0.000000 0.003421
# 5 -0.001713 0.001756 -0.001382 0.000000 0.022613 0.000000
# 6 0.000000 0.000000 0.000000 0.003421 0.000000 0.020097
#
#
# Mechanical properties :
#
#
# Convention : Reuss Voigt Hill
#
# Bulk Modulus (GPa) = 53.64229 54.09804 53.87016
# Shear Modulus (GPa) = 39.13318 41.87006 40.50162
#
# Velocity S-wave (km/s) = 4.21647 4.36143 4.28956
# Velocity P-wave (km/s) = 6.93362 7.06683 7.00054
#
# Compressibility (1/GPa) = 0.01864201
#
# Stress axis : x y z
#
# Youngs Moduli (GPa) = 99.32498 77.55606 69.40387
#
# Poissons Ratio (x) = 0.16711 0.14772
# Poissons Ratio (y) = 0.21402 0.35264
# Poissons Ratio (z) = 0.21141 0.39406
#
# Static dielectric constant tensor:
#      x y z
#    x 4.189490 0.000000 -0.011120 
#    y 0.000000 4.268590 0.000000 
#    z -0.011120 0.000000 3.917150 
# 
# 
# High freq. dielectric constant tensor:
#      x y z
#    x 1.886680 0.000000 -0.006740 
#    y 0.000000 1.873720 0.000000 
#    z -0.006740 0.000000 1.869380 
# 
# From -- ./inp_files/220976.got.cif
#   From: 2010.06.25/outbox.cif.g09.slc.cpg/sg15_111_cif.got.tgz:220976.got - 2010.06.28 07:06:18.
