data_PCOD8154045
_publ_section_title
;
Structure prediction by ZEFSAII (Michael W. Deem and Ramdas Pophale) SiO2 
 PCOD8154045
Probable space group: C 2/C
;
_chemical_formula_sum "Si O2"
_cell_formula_units_Z 48
_cell_length_a 18.893175
_cell_length_b 12.197093
_cell_length_c 11.496475
_cell_angle_alpha 90.000000
_cell_angle_beta 52.518958
_cell_angle_gamma 90.000000
_cell_volume 2102.339561
_symmetry_space_group_name_H-M "C 2/C"
_symmetry_group_IT_number 15
_symmetry_cell_setting 'monoclinic'
loop_
_space_group_symop_operation_xyz
x,y,z
-x,y,1/2-z
-x,-y,-z
x,-y,1/2+z
1/2+x,1/2+y,z
1/2-x,1/2+y,1/2-z
1/2-x,1/2-y,-z
1/2+x,1/2-y,1/2+z
loop_
_atom_site_type_symbol
_atom_site_label
_atom_site_fract_x
_atom_site_fract_y
_atom_site_fract_z
Si Si1 0.093957 0.649988 0.721166
Si Si2 0.850769 0.907146 0.435248
Si Si3 0.143730 0.287752 0.418736
Si Si4 0.406043 0.350012 0.909079
Si Si5 0.149230 0.592854 0.136789
Si Si6 0.143731 0.212248 0.793804
O O1 0.085712 0.683097 0.863855
O O2 0.146096 0.750000 0.603905
O O3 0.144855 0.535782 0.662725
O O4 0.000000 0.635929 0.750000
O O5 0.885712 0.834781 0.509486
O O6 0.749999 0.868663 0.523232
O O7 0.892305 0.872329 0.269523
O O8 0.855145 0.035782 0.452434
O O9 0.107694 0.372329 0.554135
O O10 0.249999 0.298371 0.284423
O O11 0.500000 0.364069 0.750000
O O12 0.414287 0.316903 0.035279
O O13 0.114288 0.665219 0.280911
#
# Coordination Sequence:
#
# PCOD8154045 Si02
#       6
#     8   8   8   8   8   8
#     4  11  25  41  57  94 133 170 209 256 314 383
#     4   9  20  41  68  96 122 163 216 267 320 373
#     4   9  20  41  67  93 124 163 214 267 318 374
#     4  11  25  41  57  94 133 170 209 256 314 383
#     4   9  20  41  68  96 122 163 216 267 320 373
#     4   9  20  41  67  93 124 163 214 267 318 374
#
# _framework density 22.831707000000002
#
# number of rings (size 3 to 8) (size 9 to 14) (size 15 to 20)
#    0.000    2.333    0.000    3.000    4.667    4.000 
#    6.000    1.667    0.000    0.000    0.000    0.000 
#    0.000    0.000    0.000    0.000    0.000    0.000 
#
# Total GULP energy -297317.025626 kJ/mol
# GULP energy per Si atom -12388.209401 kJ/mol
# Density = 2.277974 g / cm^3
# Si number density = 22.831707 Si / 1000 Ang^3
#
#
#
# Elastic Constant Matrix: (Units=GPa)
#
#
# Indices 1 2 3 4 5 6 
#
# 1 74.8975 23.3262 46.6016 0.0000 31.1611 0.0000
# 2 23.3262 208.9732 57.3467 0.0000 36.6069 0.0000
# 3 46.6016 57.3467 144.5176 0.0000 43.7510 0.0000
# 4 0.0000 0.0000 0.0000 19.8729 0.0000 19.7399
# 5 31.1611 36.6069 43.7510 0.0000 42.1749 0.0000
# 6 0.0000 0.0000 0.0000 19.7399 0.0000 1.5283
#
#
#
# Elastic Compliance Matrix: (Units=1/GPa)
#
#
# Indices 1 2 3 4 5 6 
#
# 1 0.020172 0.000757 -0.003053 0.000000 -0.012394 0.000000
# 2 0.000757 0.005795 -0.001241 0.000000 -0.004302 0.000000
# 3 -0.003053 -0.001241 0.010770 0.000000 -0.007839 0.000000
# 4 0.000000 0.000000 0.000000 -0.004254 0.000000 0.054941
# 5 -0.012394 -0.004302 -0.007839 0.000000 0.044734 0.000000
# 6 0.000000 0.000000 0.000000 0.054941 0.000000 -0.055311
#
#
# Mechanical properties :
#
#
# Convention : Reuss Voigt Hill
#
# Bulk Modulus (GPa) = 33.71245 75.88193 54.79719
# Shear Modulus (GPa) = 128.64162 32.78949 80.71555
#
# Velocity S-wave (km/s) = 7.51437 3.79375 5.95224
# Velocity P-wave (km/s) = 9.49133 7.24552 8.44343
#
# Compressibility (1/GPa) = 0.02966263
#
# Stress axis : x y z
#
# Youngs Moduli (GPa) = 49.57368 172.56278 92.85171
#
# Poissons Ratio (x) = -0.13069 0.28347
# Poissons Ratio (y) = -0.03754 0.11527
# Poissons Ratio (z) = 0.15135 0.21423
#
# Static dielectric constant tensor:
#      x y z
#    x 3.781050 0.000000 0.254360 
#    y 0.000000 4.449260 0.000000 
#    z 0.254360 0.000000 4.017440 
# 
# 
# High freq. dielectric constant tensor:
#      x y z
#    x 1.882210 0.000000 0.018750 
#    y 0.000000 1.913330 0.000000 
#    z 0.018750 0.000000 1.899630 
# 
# From -- ./inp_files/110883.got.cif
#   From: 2010.06.25/outbox.cif.g09.slc.cpg/sg15_56_cif.got.tgz:110883.got - 2010.06.28 07:06:18.
