data_PCOD8154229
_publ_section_title
;
Structure prediction by ZEFSAII (Michael W. Deem and Ramdas Pophale) SiO2 
 PCOD8154229
Probable space group: C 2/C
;
_chemical_formula_sum "Si O2"
_cell_formula_units_Z 56
_cell_length_a 26.316203
_cell_length_b 7.644270
_cell_length_c 13.172741
_cell_angle_alpha 90.000000
_cell_angle_beta 65.935437
_cell_angle_gamma 90.000000
_cell_volume 2419.621001
_symmetry_space_group_name_H-M "C 2/C"
_symmetry_group_IT_number 15
_symmetry_cell_setting 'monoclinic'
loop_
_space_group_symop_operation_xyz
x,y,z
-x,y,1/2-z
-x,-y,-z
x,-y,1/2+z
1/2+x,1/2+y,z
1/2-x,1/2+y,1/2-z
1/2-x,1/2-y,-z
1/2+x,1/2-y,1/2+z
loop_
_atom_site_type_symbol
_atom_site_label
_atom_site_fract_x
_atom_site_fract_y
_atom_site_fract_z
Si Si1 0.548576 0.385733 0.409575
Si Si2 0.741175 0.000794 0.138985
Si Si3 0.183197 0.251421 0.329144
Si Si4 0.357365 0.309754 0.007708
Si Si5 0.847007 0.570902 0.451369
Si Si6 0.403460 0.336436 0.749293
Si Si7 0.946743 0.450510 0.723954
O O1 0.500000 0.500000 0.500000
O O2 0.600745 0.383569 0.443098
O O3 0.556913 0.497765 0.299864
O O4 0.538529 0.183448 0.380961
O O5 0.693893 0.914248 0.246842
O O6 0.795170 0.882377 0.073248
O O7 0.712440 0.054722 0.056813
O O8 0.757473 0.166550 0.193618
O O9 0.154702 0.280653 0.461967
O O10 0.143774 0.126598 0.296575
O O11 0.357915 0.100934 0.009279
O O12 0.378609 0.360507 0.879592
O O13 0.894741 0.619985 0.332040
O O14 0.432671 0.149128 0.699578
O O15 0.000000 0.467664 0.750000
#
# Coordination Sequence:
#
# PCOD8154229 Si02
#       7
#     8   8   8   8   8   8   8
#     4  12  30  47  78 109 144 190 248 309 366 439
#     4  12  25  42  71 105 142 192 236 303 353 444
#     4  12  25  44  69 103 146 190 241 294 370 427
#     4  11  25  47  71 104 143 189 240 304 362 434
#     4  11  26  45  71 103 147 189 243 299 367 436
#     4  11  27  50  73 105 149 193 245 300 370 435
#     4  11  28  49  76 106 145 191 245 305 365 441
#
# _framework density 23.144119
#
# number of rings (size 3 to 8) (size 9 to 14) (size 15 to 20)
#    0.000    0.571    4.286    2.571   14.000    0.571 
#    0.000    0.000    0.000    0.000    0.000    0.000 
#    0.000    0.000    0.000    0.000    0.000    0.000 
#
# Total GULP energy -346969.012347 kJ/mol
# GULP energy per Si atom -12391.750441 kJ/mol
# Density = 2.309144 g / cm^3
# Si number density = 23.144119 Si / 1000 Ang^3
#
#
#
# Elastic Constant Matrix: (Units=GPa)
#
#
# Indices 1 2 3 4 5 6 
#
# 1 114.5981 11.3780 30.0641 0.0000 5.9549 0.0000
# 2 11.3780 54.9768 34.7395 0.0000 11.0805 0.0000
# 3 30.0641 34.7395 87.2902 0.0000 14.3923 0.0000
# 4 0.0000 0.0000 0.0000 32.5110 0.0000 -3.3668
# 5 5.9549 11.0805 14.3923 0.0000 30.2327 0.0000
# 6 0.0000 0.0000 0.0000 -3.3668 0.0000 31.9701
#
#
#
# Elastic Compliance Matrix: (Units=1/GPa)
#
#
# Indices 1 2 3 4 5 6 
#
# 1 0.009598 0.000186 -0.003317 0.000000 -0.000380 0.000000
# 2 0.000186 0.024927 -0.009194 0.000000 -0.004796 0.000000
# 3 -0.003317 -0.009194 0.016922 0.000000 -0.004033 0.000000
# 4 0.000000 0.000000 0.000000 0.031098 0.000000 0.003275
# 5 -0.000380 -0.004796 -0.004033 0.000000 0.036829 0.000000
# 6 0.000000 0.000000 0.000000 0.003275 0.000000 0.031624
#
#
# Mechanical properties :
#
#
# Convention : Reuss Voigt Hill
#
# Bulk Modulus (GPa) = 37.31663 45.46980 41.39321
# Shear Modulus (GPa) = 27.08853 30.98835 29.03844
#
# Velocity S-wave (km/s) = 3.42486 3.66311 3.54599
# Velocity P-wave (km/s) = 5.63899 6.13027 5.88975
#
# Compressibility (1/GPa) = 0.02679771
#
# Stress axis : x y z
#
# Youngs Moduli (GPa) = 104.19264 40.11712 59.09336
#
# Poissons Ratio (x) = -0.00747 0.19602
# Poissons Ratio (y) = -0.01941 0.54329
# Poissons Ratio (z) = 0.34562 0.36883
#
# Static dielectric constant tensor:
#      x y z
#    x 4.470790 0.000000 0.077150 
#    y 0.000000 4.373280 0.000000 
#    z 0.077150 0.000000 4.152030 
# 
# 
# High freq. dielectric constant tensor:
#      x y z
#    x 1.922640 0.000000 0.007360 
#    y 0.000000 1.918830 0.000000 
#    z 0.007360 0.000000 1.922470 
# 
# From -- ./inp_files/121891.got.cif
#   From: 2010.06.25/outbox.cif.g09.slc.cpg/sg15_61_cif.got.tgz:121891.got - 2010.06.28 07:06:18.
