data_PCOD8154552
_publ_section_title
;
Structure prediction by ZEFSAII (Michael W. Deem and Ramdas Pophale) SiO2 
 PCOD8154552
Probable space group: C 2/C
;
_chemical_formula_sum "Si O2"
_cell_formula_units_Z 48
_cell_length_a 8.978772
_cell_length_b 11.560354
_cell_length_c 23.609105
_cell_angle_alpha 90.000000
_cell_angle_beta 80.937356
_cell_angle_gamma 90.000000
_cell_volume 2419.981551
_symmetry_space_group_name_H-M "C 2/C"
_symmetry_group_IT_number 15
_symmetry_cell_setting 'monoclinic'
loop_
_space_group_symop_operation_xyz
x,y,z
-x,y,1/2-z
-x,-y,-z
x,-y,1/2+z
1/2+x,1/2+y,z
1/2-x,1/2+y,1/2-z
1/2-x,1/2-y,-z
1/2+x,1/2-y,1/2+z
loop_
_atom_site_type_symbol
_atom_site_label
_atom_site_fract_x
_atom_site_fract_y
_atom_site_fract_z
Si Si1 0.094276 0.067784 0.948244
Si Si2 0.422494 0.987036 0.444214
Si Si3 0.861569 0.254563 0.940279
Si Si4 0.439732 0.422874 0.662394
Si Si5 0.856061 0.330901 0.139471
Si Si6 0.345006 0.533019 0.773258
O O1 0.265128 0.082086 0.960182
O O2 0.020500 0.193976 0.945020
O O3 0.096324 0.996661 0.890437
O O4 0.000000 0.000000 0.000000
O O5 0.526445 0.917942 0.395069
O O6 0.500000 0.000000 0.500000
O O7 0.392374 0.113969 0.420376
O O8 0.786462 0.187278 0.892806
O O9 0.750000 0.250000 0.000000
O O10 0.438177 0.288005 0.648254
O O11 0.313749 0.455797 0.718439
O O12 0.608401 0.449230 0.676443
O O13 0.795284 0.386934 0.201755
O O14 0.500000 0.606974 0.750000
#
# Coordination Sequence:
#
# PCOD8154552 Si02
#       6
#     8   8   8   8   8   8
#     4  12  22  42  69  93 133 176 213 271 338 387
#     4  12  27  39  63 106 130 174 222 263 337 396
#     4  12  22  43  66  92 138 175 214 270 324 397
#     4   9  21  43  66  94 127 170 216 264 334 372
#     4  12  21  45  68  92 136 166 222 275 313 403
#     4   8  21  44  65  93 126 172 216 266 326 383
#
# _framework density 19.834861
#
# number of rings (size 3 to 8) (size 9 to 14) (size 15 to 20)
#    1.000    0.000    6.667    0.000    0.000    2.000 
#   12.000    0.000    0.000    0.000    0.000    0.000 
#    0.000    0.000    0.000    0.000    0.000    0.000 
#
# Total GULP energy -297454.270142 kJ/mol
# GULP energy per Si atom -12393.927923 kJ/mol
# Density = 1.978972 g / cm^3
# Si number density = 19.834861 Si / 1000 Ang^3
#
#
#
# Elastic Constant Matrix: (Units=GPa)
#
#
# Indices 1 2 3 4 5 6 
#
# 1 112.1949 47.5092 36.2704 0.0000 -10.2179 0.0000
# 2 47.5092 115.8558 35.9393 0.0000 -16.5994 0.0000
# 3 36.2704 35.9393 115.2563 0.0000 -5.3663 0.0000
# 4 0.0000 0.0000 0.0000 33.8853 0.0000 -7.6629
# 5 -10.2179 -16.5994 -5.3663 0.0000 33.1567 0.0000
# 6 0.0000 0.0000 0.0000 -7.6629 0.0000 35.4045
#
#
#
# Elastic Compliance Matrix: (Units=1/GPa)
#
#
# Indices 1 2 3 4 5 6 
#
# 1 0.011378 -0.003758 -0.002351 0.000000 0.001244 0.000000
# 2 -0.003758 0.011458 -0.002194 0.000000 0.004223 0.000000
# 3 -0.002351 -0.002194 0.010091 0.000000 -0.000189 0.000000
# 4 0.000000 0.000000 0.000000 0.031030 0.000000 0.006716
# 5 0.001244 0.004223 -0.000189 0.000000 0.032627 0.000000
# 6 0.000000 0.000000 0.000000 0.006716 0.000000 0.029699
#
#
# Mechanical properties :
#
#
# Convention : Reuss Voigt Hill
#
# Bulk Modulus (GPa) = 61.26630 64.74940 63.00785
# Shear Modulus (GPa) = 33.70901 35.39518 34.55209
#
# Velocity S-wave (km/s) = 4.12695 4.22891 4.17824
# Velocity P-wave (km/s) = 7.32559 7.52064 7.42375
#
# Compressibility (1/GPa) = 0.01632219
#
# Stress axis : x y z
#
# Youngs Moduli (GPa) = 87.89094 87.27466 99.09586
#
# Poissons Ratio (x) = 0.32800 0.23294
# Poissons Ratio (y) = 0.33031 0.21737
# Poissons Ratio (z) = 0.20660 0.19144
#
# Static dielectric constant tensor:
#      x y z
#    x 3.767310 0.000000 0.061430 
#    y 0.000000 3.686040 0.000000 
#    z 0.061430 0.000000 3.688610 
# 
# 
# High freq. dielectric constant tensor:
#      x y z
#    x 1.761340 0.000000 0.004560 
#    y 0.000000 1.767020 0.000000 
#    z 0.004560 0.000000 1.780980 
# 
# From -- ./inp_files/287343.got.cif
#   From: 2010.06.25/outbox.cif.g09.slc.cpg/sg15_144_cif.got.tgz:287343.got - 2010.06.28 07:06:18.
