data_PCOD8154062
_publ_section_title
;
Structure prediction by ZEFSAII (Michael W. Deem and Ramdas Pophale) SiO2 
 PCOD8154062
Probable space group: C 2/C
;
_chemical_formula_sum "Si O2"
_cell_formula_units_Z 44
_cell_length_a 6.362109
_cell_length_b 21.497541
_cell_length_c 14.399359
_cell_angle_alpha 90.000000
_cell_angle_beta 81.115562
_cell_angle_gamma 90.000000
_cell_volume 1945.766889
_symmetry_space_group_name_H-M "C 2/C"
_symmetry_group_IT_number 15
_symmetry_cell_setting 'monoclinic'
loop_
_space_group_symop_operation_xyz
x,y,z
-x,y,1/2-z
-x,-y,-z
x,-y,1/2+z
1/2+x,1/2+y,z
1/2-x,1/2+y,1/2-z
1/2-x,1/2-y,-z
1/2+x,1/2-y,1/2+z
loop_
_atom_site_type_symbol
_atom_site_label
_atom_site_fract_x
_atom_site_fract_y
_atom_site_fract_z
Si Si1 0.962874 0.884766 0.033499
Si Si2 0.983263 0.379253 0.355349
Si Si3 0.789368 0.517373 0.570281
Si Si4 0.000000 0.690229 0.250000
Si Si5 0.667397 0.385575 0.657113
Si Si6 0.774744 0.218750 0.901429
O O1 0.113839 0.946291 0.018357
O O2 0.040209 0.832537 0.100017
O O3 0.736747 0.905978 0.089844
O O4 0.928800 0.855878 0.931536
O O5 0.000000 0.357958 0.250000
O O6 0.153365 0.434279 0.353231
O O7 0.050436 0.316139 0.403083
O O8 0.702561 0.457119 0.627875
O O9 0.000000 0.500000 0.500000
O O10 0.882019 0.648083 0.179706
O O11 0.830525 0.733564 0.315104
O O12 0.500000 0.380182 0.750000
O O13 0.750000 0.250000 0.000000
#
# Coordination Sequence:
#
# PCOD8154062 Si02
#       6
#     8   8   8   4   8   8
#     4  11  25  46  70 102 137 191 236 294 357 429
#     4  11  25  42  71 101 137 185 235 294 358 417
#     4  11  26  44  72 101 144 183 234 295 358 438
#     4  12  28  46  70 108 148 188 240 306 356 430
#     4  12  28  43  72 105 144 184 238 292 370 428
#     4  11  25  45  69  97 141 182 244 289 353 426
#
# _framework density 22.613192000000002
#
# number of rings (size 3 to 8) (size 9 to 14) (size 15 to 20)
#    0.000    0.727    1.818    3.818    8.909    8.000 
#    0.000    0.000    0.000    0.000    0.000    0.000 
#    0.000    0.000    0.000    0.000    0.000    0.000 
#
# Total GULP energy -272669.226864 kJ/mol
# GULP energy per Si atom -12394.055767 kJ/mol
# Density = 2.256172 g / cm^3
# Si number density = 22.613192 Si / 1000 Ang^3
#
#
#
# Elastic Constant Matrix: (Units=GPa)
#
#
# Indices 1 2 3 4 5 6 
#
# 1 123.4762 43.1122 44.9191 0.0000 7.0727 0.0000
# 2 43.1122 106.8269 27.4184 0.0000 16.7005 0.0000
# 3 44.9191 27.4184 121.5405 0.0000 4.1775 0.0000
# 4 0.0000 0.0000 0.0000 43.9761 0.0000 -0.1580
# 5 7.0727 16.7005 4.1775 0.0000 43.4227 0.0000
# 6 0.0000 0.0000 0.0000 -0.1580 0.0000 23.6543
#
#
#
# Elastic Compliance Matrix: (Units=1/GPa)
#
#
# Indices 1 2 3 4 5 6 
#
# 1 0.010410 -0.003397 -0.003078 0.000000 -0.000093 0.000000
# 2 -0.003397 0.011645 -0.001241 0.000000 -0.003806 0.000000
# 3 -0.003078 -0.001241 0.009643 0.000000 0.000051 0.000000
# 4 0.000000 0.000000 0.000000 0.022740 0.000000 0.000152
# 5 -0.000093 -0.003806 0.000051 0.000000 0.024504 0.000000
# 6 0.000000 0.000000 0.000000 0.000152 0.000000 0.042277
#
#
# Mechanical properties :
#
#
# Convention : Reuss Voigt Hill
#
# Bulk Modulus (GPa) = 61.47128 64.74922 63.11025
# Shear Modulus (GPa) = 35.19352 37.97023 36.58187
#
# Velocity S-wave (km/s) = 3.94931 4.10215 4.02646
# Velocity P-wave (km/s) = 6.93101 7.15069 7.04171
#
# Compressibility (1/GPa) = 0.01626776
#
# Stress axis : x y z
#
# Youngs Moduli (GPa) = 96.06495 85.87226 103.69790
#
# Poissons Ratio (x) = 0.29167 0.31916
# Poissons Ratio (y) = 0.32629 0.12868
# Poissons Ratio (z) = 0.29567 0.10656
#
# Static dielectric constant tensor:
#      x y z
#    x 4.814690 0.000000 0.366670 
#    y 0.000000 5.333050 0.000000 
#    z 0.366670 0.000000 3.979990 
# 
# 
# High freq. dielectric constant tensor:
#      x y z
#    x 1.902930 0.000000 0.011330 
#    y 0.000000 1.905520 0.000000 
#    z 0.011330 0.000000 1.893090 
# 
# From -- ./inp_files/129381.got.cif
#   From: 2010.06.25/outbox.cif.g09.slc.cpg/sg15_65_cif.got.tgz:129381.got - 2010.06.28 07:06:18.
