data_PCOD8154828
_publ_section_title
;
Structure prediction by ZEFSAII (Michael W. Deem and Ramdas Pophale) SiO2 
 PCOD8154828
Probable space group: C 2/C
;
_chemical_formula_sum "Si O2"
_cell_formula_units_Z 40
_cell_length_a 8.331403
_cell_length_b 27.940485
_cell_length_c 14.959236
_cell_angle_alpha 90.000000
_cell_angle_beta 30.885231
_cell_angle_gamma 90.000000
_cell_volume 1787.515134
_symmetry_space_group_name_H-M "C 2/C"
_symmetry_group_IT_number 15
_symmetry_cell_setting 'monoclinic'
loop_
_space_group_symop_operation_xyz
x,y,z
-x,y,1/2-z
-x,-y,-z
x,-y,1/2+z
1/2+x,1/2+y,z
1/2-x,1/2+y,1/2-z
1/2-x,1/2-y,-z
1/2+x,1/2-y,1/2+z
loop_
_atom_site_type_symbol
_atom_site_label
_atom_site_fract_x
_atom_site_fract_y
_atom_site_fract_z
Si Si1 0.161798 0.775440 0.869751
Si Si2 0.724369 0.193297 0.717355
Si Si3 0.118946 0.108985 0.599760
Si Si4 0.871257 0.946939 0.055821
Si Si5 0.849944 0.876011 0.724704
O O1 0.500000 0.769859 0.750000
O O2 0.045387 0.730011 0.867495
O O3 0.103871 0.826327 0.849428
O O4 0.950550 0.771283 0.057340
O O5 0.500000 0.167552 0.750000
O O6 0.916742 0.156836 0.685164
O O7 0.486573 0.116686 0.417864
O O8 0.000000 0.086273 0.750000
O O9 0.045910 0.074190 0.555816
O O10 0.500000 0.944816 0.250000
O O11 0.984301 0.918617 0.912097
O O12 0.000000 0.000000 0.000000
O O13 0.000000 0.873881 0.750000
#
# Coordination Sequence:
#
# PCOD8154828 Si02
#       5
#     8   8   8   8   8
#     4  12  24  44  66  99 146 193 243 301 353 422
#     4  12  26  42  68 100 146 191 246 298 359 420
#     4  12  26  45  72 106 149 190 242 297 357 426
#     4  12  26  51  81 109 145 184 234 297 365 431
#     4  12  26  46  72 107 146 191 243 298 358 426
#
# _framework density 22.377433
#
# number of rings (size 3 to 8) (size 9 to 14) (size 15 to 20)
#    0.000    0.000    4.000    6.000    5.600    0.800 
#    0.000    4.000    0.000    0.000    0.000    0.000 
#    0.000    0.000    0.000    0.000    0.000    0.000 
#
# Total GULP energy -247854.218171 kJ/mol
# GULP energy per Si atom -12392.710909 kJ/mol
# Density = 2.232650 g / cm^3
# Si number density = 22.377433 Si / 1000 Ang^3
#
#
#
# Elastic Constant Matrix: (Units=GPa)
#
#
# Indices 1 2 3 4 5 6 
#
# 1 119.8842 10.9810 5.6304 0.0000 -4.0768 0.0000
# 2 10.9810 94.2336 1.4394 0.0000 0.4824 0.0000
# 3 5.6304 1.4394 86.1923 0.0000 -9.8523 0.0000
# 4 0.0000 0.0000 0.0000 37.1980 0.0000 -5.0912
# 5 -4.0768 0.4824 -9.8523 0.0000 50.2017 0.0000
# 6 0.0000 0.0000 0.0000 -5.0912 0.0000 77.9495
#
#
#
# Elastic Compliance Matrix: (Units=1/GPa)
#
#
# Indices 1 2 3 4 5 6 
#
# 1 0.008474 -0.000983 -0.000468 0.000000 0.000606 0.000000
# 2 -0.000983 0.010730 -0.000139 0.000000 -0.000210 0.000000
# 3 -0.000468 -0.000139 0.011898 0.000000 0.002298 0.000000
# 4 0.000000 0.000000 0.000000 0.027126 0.000000 0.001772
# 5 0.000606 -0.000210 0.002298 0.000000 0.020422 0.000000
# 6 0.000000 0.000000 0.000000 0.001772 0.000000 0.012945
#
#
# Mechanical properties :
#
#
# Convention : Reuss Voigt Hill
#
# Bulk Modulus (GPa) = 35.81568 37.37908 36.59738
# Shear Modulus (GPa) = 48.03953 51.88712 49.96332
#
# Velocity S-wave (km/s) = 4.63837 4.82054 4.73033
# Velocity P-wave (km/s) = 6.68775 6.90823 6.79888
#
# Compressibility (1/GPa) = 0.02792073
#
# Stress axis : x y z
#
# Youngs Moduli (GPa) = 118.00755 93.19900 84.05084
#
# Poissons Ratio (x) = 0.09165 0.03933
# Poissons Ratio (y) = 0.11605 0.01168
# Poissons Ratio (z) = 0.05521 0.01295
#
# Static dielectric constant tensor:
#      x y z
#    x 4.278560 0.000000 0.062640 
#    y 0.000000 3.203180 0.000000 
#    z 0.062640 0.000000 4.404960 
# 
# 
# High freq. dielectric constant tensor:
#      x y z
#    x 1.906940 0.000000 -0.002230 
#    y 0.000000 1.872120 0.000000 
#    z -0.002230 0.000000 1.911940 
# 
# From -- ./inp_files/25812.got.cif
#   From: 2010.06.25/outbox.cif.g09.slc.cpg/sg15_13_cif.got.tgz:25812.got - 2010.06.28 07:06:18.
