data_PCOD8154567
_publ_section_title
;
Structure prediction by ZEFSAII (Michael W. Deem and Ramdas Pophale) SiO2 
 PCOD8154567
Probable space group: C 2/C
;
_chemical_formula_sum "Si O2"
_cell_formula_units_Z 56
_cell_length_a 26.319804
_cell_length_b 13.787544
_cell_length_c 8.369522
_cell_angle_alpha 90.000000
_cell_angle_beta 62.174388
_cell_angle_gamma 90.000000
_cell_volume 2685.996242
_symmetry_space_group_name_H-M "C 2/C"
_symmetry_group_IT_number 15
_symmetry_cell_setting 'monoclinic'
loop_
_space_group_symop_operation_xyz
x,y,z
-x,y,1/2-z
-x,-y,-z
x,-y,1/2+z
1/2+x,1/2+y,z
1/2-x,1/2+y,1/2-z
1/2-x,1/2-y,-z
1/2+x,1/2-y,1/2+z
loop_
_atom_site_type_symbol
_atom_site_label
_atom_site_fract_x
_atom_site_fract_y
_atom_site_fract_z
Si Si1 0.840778 0.961419 0.064072
Si Si2 0.692958 0.248049 0.862610
Si Si3 0.785360 0.442116 0.338192
Si Si4 0.994038 0.109194 0.573241
Si Si5 0.628826 0.704091 0.778583
Si Si6 0.886815 0.866909 0.698440
Si Si7 0.808440 0.634880 0.155822
O O1 0.885552 0.916196 0.872774
O O2 0.780961 0.975384 0.060082
O O3 0.833338 0.888874 0.225014
O O4 0.867391 0.061930 0.082105
O O5 0.707114 0.135307 0.815710
O O6 0.658511 0.279259 0.751702
O O7 0.750896 0.309858 0.798697
O O8 0.650333 0.259991 0.075144
O O9 0.820583 0.539174 0.244419
O O10 0.803723 0.396584 0.479083
O O11 0.937001 0.168969 0.613972
O O12 0.000000 0.102043 0.750000
O O13 0.048168 0.169127 0.423712
O O14 0.000000 0.000000 0.500000
O O15 0.638419 0.791824 0.891988
#
# Coordination Sequence:
#
# PCOD8154567 Si02
#       7
#     8   8   8   8   8   8   8
#     4  12  22  37  63  97 135 175 215 266 323 403
#     4  12  23  40  64  93 133 173 216 271 331 395
#     4  12  24  41  65  98 138 176 217 271 331 403
#     4  12  25  43  64  96 132 177 218 273 331 389
#     4  12  26  40  63  94 132 177 225 269 329 398
#     4  12  23  38  62  93 134 172 216 266 330 388
#     4  12  25  41  64  96 133 176 221 272 338 397
#
# _framework density 20.848875
#
# number of rings (size 3 to 8) (size 9 to 14) (size 15 to 20)
#    0.000    0.000    7.143    4.286    2.000    0.000 
#    0.000    0.000    0.000    0.857    0.000    0.000 
#    0.000    0.000    0.000    0.000    0.000    0.000 
#
# Total GULP energy -347155.975762 kJ/mol
# GULP energy per Si atom -12398.427706 kJ/mol
# Density = 2.080142 g / cm^3
# Si number density = 20.848875 Si / 1000 Ang^3
#
#
#
# Elastic Constant Matrix: (Units=GPa)
#
#
# Indices 1 2 3 4 5 6 
#
# 1 115.5528 57.2281 38.0320 0.0000 -6.7847 0.0000
# 2 57.2281 111.7403 19.4979 0.0000 -12.2086 0.0000
# 3 38.0320 19.4979 79.6621 0.0000 -6.8951 0.0000
# 4 0.0000 0.0000 0.0000 29.8333 0.0000 -0.0173
# 5 -6.7847 -12.2086 -6.8951 0.0000 29.5547 0.0000
# 6 0.0000 0.0000 0.0000 -0.0173 0.0000 32.5168
#
#
#
# Elastic Compliance Matrix: (Units=1/GPa)
#
#
# Indices 1 2 3 4 5 6 
#
# 1 0.013180 -0.005961 -0.004883 0.000000 -0.000576 0.000000
# 2 -0.005961 0.012391 0.000140 0.000000 0.003783 0.000000
# 3 -0.004883 0.000140 0.015062 0.000000 0.002451 0.000000
# 4 0.000000 0.000000 0.000000 0.033520 0.000000 0.000018
# 5 -0.000576 0.003783 0.002451 0.000000 0.035838 0.000000
# 6 0.000000 0.000000 0.000000 0.000018 0.000000 0.030753
#
#
# Mechanical properties :
#
#
# Convention : Reuss Voigt Hill
#
# Bulk Modulus (GPa) = 52.01365 59.60792 55.81078
# Shear Modulus (GPa) = 29.66325 31.19408 30.42867
#
# Velocity S-wave (km/s) = 3.77606 3.87227 3.82447
# Velocity P-wave (km/s) = 6.63428 6.97461 6.80657
#
# Compressibility (1/GPa) = 0.01922572
#
# Stress axis : x y z
#
# Youngs Moduli (GPa) = 75.87540 80.70391 66.39206
#
# Poissons Ratio (x) = 0.48106 0.32419
# Poissons Ratio (y) = 0.45228 -0.00932
# Poissons Ratio (z) = 0.37050 -0.01133
#
# Static dielectric constant tensor:
#      x y z
#    x 3.990580 0.000000 0.064050 
#    y 0.000000 3.980600 0.000000 
#    z 0.064050 0.000000 3.863440 
# 
# 
# High freq. dielectric constant tensor:
#      x y z
#    x 1.805360 0.000000 0.020240 
#    y 0.000000 1.808790 0.000000 
#    z 0.020240 0.000000 1.823800 
# 
# From -- ./inp_files/69286.got.cif
#   From: 2010.06.25/outbox.cif.g09.slc.cpg/sg15_35_cif.got.tgz:69286.got - 2010.06.28 07:06:18.
