data_PCOD8154981
_publ_section_title
;
Structure prediction by ZEFSAII (Michael W. Deem and Ramdas Pophale) SiO2 
 PCOD8154981
Probable space group: C 2/C
;
_chemical_formula_sum "Si O2"
_cell_formula_units_Z 40
_cell_length_a 8.164263
_cell_length_b 17.021429
_cell_length_c 12.475064
_cell_angle_alpha 90.000000
_cell_angle_beta 91.906678
_cell_angle_gamma 90.000000
_cell_volume 1732.667664
_symmetry_space_group_name_H-M "C 2/C"
_symmetry_group_IT_number 15
_symmetry_cell_setting 'monoclinic'
loop_
_space_group_symop_operation_xyz
x,y,z
-x,y,1/2-z
-x,-y,-z
x,-y,1/2+z
1/2+x,1/2+y,z
1/2-x,1/2+y,1/2-z
1/2-x,1/2-y,-z
1/2+x,1/2-y,1/2+z
loop_
_atom_site_type_symbol
_atom_site_label
_atom_site_fract_x
_atom_site_fract_y
_atom_site_fract_z
Si Si1 0.125698 0.108873 0.446154
Si Si2 0.000000 0.968414 0.750000
Si Si3 0.473101 0.111563 0.365360
Si Si4 0.930384 0.737276 0.963842
Si Si5 0.500000 0.832530 0.250000
Si Si6 0.784609 0.464002 0.149659
O O1 0.278667 0.105278 0.368896
O O2 0.167116 0.050564 0.544721
O O3 0.984014 0.079005 0.362220
O O4 0.061010 0.192680 0.489544
O O5 0.168433 0.018210 0.749281
O O6 0.500000 0.152846 0.250000
O O7 0.514989 0.160852 0.470781
O O8 0.574942 0.029480 0.369544
O O9 0.916102 0.722961 0.836380
O O10 0.750000 0.750000 0.000000
O O11 0.369906 0.882899 0.181294
#
# Coordination Sequence:
#
# PCOD8154981 Si02
#       6
#     8   4   8   8   4   8
#     4  12  26  49  72 107 147 194 249 300 385 443
#     4  12  25  44  76 105 146 186 250 310 372 449
#     4  12  25  48  76 106 148 195 246 310 376 444
#     4  12  30  47  75 108 153 199 246 315 375 461
#     4  12  27  48  74 107 152 190 256 302 380 449
#     4  12  26  45  77 110 145 193 250 316 372 452
#
# _framework density 23.085789999999999
#
# number of rings (size 3 to 8) (size 9 to 14) (size 15 to 20)
#    0.000    0.000    5.000    3.600    8.400    0.000 
#    0.000    0.000    0.000    0.000    0.000    0.000 
#    0.000    0.000    0.000    0.000    0.000    0.000 
#
# Total GULP energy -247845.448587 kJ/mol
# GULP energy per Si atom -12392.272429 kJ/mol
# Density = 2.303325 g / cm^3
# Si number density = 23.085790 Si / 1000 Ang^3
#
#
#
# Elastic Constant Matrix: (Units=GPa)
#
#
# Indices 1 2 3 4 5 6 
#
# 1 117.6546 49.1280 33.7388 0.0000 -25.8497 0.0000
# 2 49.1280 90.4601 41.1163 0.0000 -12.2007 0.0000
# 3 33.7388 41.1163 158.6067 0.0000 -6.1643 0.0000
# 4 0.0000 0.0000 0.0000 43.0262 0.0000 -1.1856
# 5 -25.8497 -12.2007 -6.1643 0.0000 52.6639 0.0000
# 6 0.0000 0.0000 0.0000 -1.1856 0.0000 3.2586
#
#
#
# Elastic Compliance Matrix: (Units=1/GPa)
#
#
# Indices 1 2 3 4 5 6 
#
# 1 0.012072 -0.005506 -0.000964 0.000000 0.004537 0.000000
# 2 -0.005506 0.015388 -0.002797 0.000000 0.000535 0.000000
# 3 -0.000964 -0.002797 0.007224 0.000000 -0.000276 0.000000
# 4 0.000000 0.000000 0.000000 0.023477 0.000000 0.008542
# 5 0.004537 0.000535 -0.000276 0.000000 0.021307 0.000000
# 6 0.000000 0.000000 0.000000 0.008542 0.000000 0.309989
#
#
# Mechanical properties :
#
#
# Convention : Reuss Voigt Hill
#
# Bulk Modulus (GPa) = 61.91980 68.29861 65.10920
# Shear Modulus (GPa) = 12.09555 35.97229 24.03392
#
# Velocity S-wave (km/s) = 2.29145 3.95169 3.23006
# Velocity P-wave (km/s) = 5.82073 7.10423 6.49426
#
# Compressibility (1/GPa) = 0.01614992
#
# Stress axis : x y z
#
# Youngs Moduli (GPa) = 82.83753 64.98421 138.41921
#
# Poissons Ratio (x) = 0.35780 0.13347
# Poissons Ratio (y) = 0.45609 0.38718
# Poissons Ratio (z) = 0.07988 0.18177
#
# Static dielectric constant tensor:
#      x y z
#    x 4.062350 0.000000 -0.095890 
#    y 0.000000 3.772740 0.000000 
#    z -0.095890 0.000000 4.314640 
# 
# 
# High freq. dielectric constant tensor:
#      x y z
#    x 1.929400 0.000000 -0.002740 
#    y 0.000000 1.898550 0.000000 
#    z -0.002740 0.000000 1.934750 
# 
# From -- ./inp_files/76849.got.cif
#   From: 2010.06.25/outbox.cif.g09.slc.cpg/sg15_39_cif.got.tgz:76849.got - 2010.06.28 07:06:18.
