data_PCOD8154489
_publ_section_title
;
Structure prediction by ZEFSAII (Michael W. Deem and Ramdas Pophale) SiO2 
 PCOD8154489
Probable space group: C 2/C
;
_chemical_formula_sum "Si O2"
_cell_formula_units_Z 44
_cell_length_a 19.972092
_cell_length_b 6.612153
_cell_length_c 15.830222
_cell_angle_alpha 90.000000
_cell_angle_beta 98.392574
_cell_angle_gamma 90.000000
_cell_volume 2068.129022
_symmetry_space_group_name_H-M "C 2/C"
_symmetry_group_IT_number 15
_symmetry_cell_setting 'monoclinic'
loop_
_space_group_symop_operation_xyz
x,y,z
-x,y,1/2-z
-x,-y,-z
x,-y,1/2+z
1/2+x,1/2+y,z
1/2-x,1/2+y,1/2-z
1/2-x,1/2-y,-z
1/2+x,1/2-y,1/2+z
loop_
_atom_site_type_symbol
_atom_site_label
_atom_site_fract_x
_atom_site_fract_y
_atom_site_fract_z
Si Si1 0.423647 0.077595 0.489917
Si Si2 0.828053 0.201738 0.512930
Si Si3 0.500000 0.044711 0.250000
Si Si4 0.986526 0.188625 0.135848
Si Si5 0.105184 0.115469 0.800731
Si Si6 0.386479 0.435264 0.382128
O O1 0.425195 0.253669 0.561195
O O2 0.399987 0.197437 0.402059
O O3 0.500000 0.000000 0.500000
O O4 0.372004 0.898877 0.500361
O O5 0.750000 0.250000 0.500000
O O6 0.846191 0.118001 0.609402
O O7 0.836215 0.034863 0.440600
O O8 0.434549 0.172873 0.212484
O O9 0.519649 0.897405 0.175669
O O10 0.042608 0.055502 0.098762
O O11 0.950512 0.061526 0.203053
O O12 0.143759 0.064677 0.719450
#
# Coordination Sequence:
#
# PCOD8154489 Si02
#       6
#     8   8   4   8   8   8
#     4  12  23  41  75 101 133 183 232 292 363 417
#     4  12  29  50  66  99 148 194 242 289 358 433
#     4  12  20  36  70 108 140 176 226 298 370 410
#     4  12  21  38  69 109 144 174 227 306 361 408
#     4  12  24  43  67 104 146 176 235 301 350 422
#     4  12  24  42  70 103 140 179 236 292 356 423
#
# _framework density 21.275269000000002
#
# number of rings (size 3 to 8) (size 9 to 14) (size 15 to 20)
#    0.000    0.000    9.091    2.727    0.000    0.727 
#    3.273    0.000    0.000    0.000    0.000    0.000 
#    0.000    0.000    0.000    0.000    0.000    0.000 
#
# Total GULP energy -272709.901446 kJ/mol
# GULP energy per Si atom -12395.904611 kJ/mol
# Density = 2.122685 g / cm^3
# Si number density = 21.275269 Si / 1000 Ang^3
#
#
#
# Elastic Constant Matrix: (Units=GPa)
#
#
# Indices 1 2 3 4 5 6 
#
# 1 121.5483 45.9643 57.6580 0.0000 -1.7667 0.0000
# 2 45.9643 113.6655 53.4417 0.0000 -6.9607 0.0000
# 3 57.6580 53.4417 163.1257 0.0000 -7.8618 0.0000
# 4 0.0000 0.0000 0.0000 48.2743 0.0000 -7.4478
# 5 -1.7667 -6.9607 -7.8618 0.0000 22.7447 0.0000
# 6 0.0000 0.0000 0.0000 -7.4478 0.0000 23.1760
#
#
#
# Elastic Compliance Matrix: (Units=1/GPa)
#
#
# Indices 1 2 3 4 5 6 
#
# 1 0.010716 -0.003067 -0.002835 0.000000 -0.001086 0.000000
# 2 -0.003067 0.011371 -0.002527 0.000000 0.002368 0.000000
# 3 -0.002835 -0.002527 0.008046 0.000000 0.001788 0.000000
# 4 0.000000 0.000000 0.000000 0.021796 0.000000 0.007004
# 5 -0.001086 0.002368 0.001788 0.000000 0.045225 0.000000
# 6 0.000000 0.000000 0.000000 0.007004 0.000000 0.045399
#
#
# Mechanical properties :
#
#
# Convention : Reuss Voigt Hill
#
# Bulk Modulus (GPa) = 75.32910 79.16305 77.24608
# Shear Modulus (GPa) = 30.51822 34.92404 32.72113
#
# Velocity S-wave (km/s) = 3.79152 4.05598 3.92597
# Velocity P-wave (km/s) = 7.39265 7.69574 7.54571
#
# Compressibility (1/GPa) = 0.01327508
#
# Stress axis : x y z
#
# Youngs Moduli (GPa) = 93.31743 87.94189 124.27784
#
# Poissons Ratio (x) = 0.26971 0.35237
# Poissons Ratio (y) = 0.28619 0.31407
# Poissons Ratio (z) = 0.26458 0.22224
#
# Static dielectric constant tensor:
#      x y z
#    x 3.101300 0.000000 -0.284600 
#    y 0.000000 3.949040 0.000000 
#    z -0.284600 0.000000 4.322090 
# 
# 
# High freq. dielectric constant tensor:
#      x y z
#    x 1.772600 0.000000 -0.010210 
#    y 0.000000 1.857820 0.000000 
#    z -0.010210 0.000000 1.867390 
# 
# From -- ./inp_files/212930.got.cif
#   From: 2010.06.25/outbox.cif.g09.slc.cpg/sg15_107_cif.got.tgz:212930.got - 2010.06.28 07:06:18.
