data_PCOD8154623
_publ_section_title
;
Structure prediction by ZEFSAII (Michael W. Deem and Ramdas Pophale) SiO2 
 PCOD8154623
Probable space group: C 2/C
;
_chemical_formula_sum "Si O2"
_cell_formula_units_Z 36
_cell_length_a 7.637100
_cell_length_b 20.144045
_cell_length_c 11.717976
_cell_angle_alpha 90.000000
_cell_angle_beta 68.299860
_cell_angle_gamma 90.000000
_cell_volume 1674.962264
_symmetry_space_group_name_H-M "C 2/C"
_symmetry_group_IT_number 15
_symmetry_cell_setting 'monoclinic'
loop_
_space_group_symop_operation_xyz
x,y,z
-x,y,1/2-z
-x,-y,-z
x,-y,1/2+z
1/2+x,1/2+y,z
1/2-x,1/2+y,1/2-z
1/2-x,1/2-y,-z
1/2+x,1/2-y,1/2+z
loop_
_atom_site_type_symbol
_atom_site_label
_atom_site_fract_x
_atom_site_fract_y
_atom_site_fract_z
Si Si1 0.221241 0.672701 0.971866
Si Si2 0.375038 0.204816 0.168113
Si Si3 0.278221 0.840971 0.291174
Si Si4 0.000000 0.869443 0.750000
Si Si5 0.476085 0.422418 0.995911
O O1 0.274955 0.657162 0.829226
O O2 0.338608 0.620121 0.017715
O O3 0.250000 0.750000 0.000000
O O4 0.995861 0.661816 0.047240
O O5 0.500000 0.211015 0.250000
O O6 0.330491 0.277877 0.127705
O O7 0.175578 0.174057 0.249398
O O8 0.500000 0.835686 0.250000
O O9 0.198808 0.903836 0.379324
O O10 0.071937 0.911835 0.625532
O O11 0.500000 0.500000 0.000000
#
# Coordination Sequence:
#
# PCOD8154623 Si02
#       5
#     8   8   8   4   8
#     4  12  23  44  75 108 144 191 249 310 370 439
#     4  12  22  42  73 112 143 182 241 309 376 429
#     4  12  25  44  74 110 149 190 245 312 381 447
#     4  12  26  46  74 106 146 186 250 308 364 452
#     4  12  28  48  72 105 151 204 247 307 379 457
#
# _framework density 21.493022
#
# number of rings (size 3 to 8) (size 9 to 14) (size 15 to 20)
#    0.000    0.000    7.778    2.000    3.111    1.778 
#    4.000    2.222    0.000    0.000    0.000    0.000 
#    0.000    0.000    0.000    0.000    0.000    0.000 
#
# Total GULP energy -223144.709333 kJ/mol
# GULP energy per Si atom -12396.928296 kJ/mol
# Density = 2.144410 g / cm^3
# Si number density = 21.493022 Si / 1000 Ang^3
#
#
#
# Elastic Constant Matrix: (Units=GPa)
#
#
# Indices 1 2 3 4 5 6 
#
# 1 137.1203 59.2656 43.0965 0.0000 -19.0792 0.0000
# 2 59.2656 146.3546 54.2256 0.0000 2.2344 0.0000
# 3 43.0965 54.2256 158.6151 0.0000 -5.2758 0.0000
# 4 0.0000 0.0000 0.0000 23.1892 0.0000 -2.8252
# 5 -19.0792 2.2344 -5.2758 0.0000 40.1673 0.0000
# 6 0.0000 0.0000 0.0000 -2.8252 0.0000 23.2981
#
#
#
# Elastic Compliance Matrix: (Units=1/GPa)
#
#
# Indices 1 2 3 4 5 6 
#
# 1 0.009922 -0.003607 -0.001305 0.000000 0.004742 0.000000
# 2 -0.003607 0.009160 -0.002235 0.000000 -0.002516 0.000000
# 3 -0.001305 -0.002235 0.007439 0.000000 0.000482 0.000000
# 4 0.000000 0.000000 0.000000 0.043770 0.000000 0.005308
# 5 0.004742 -0.002516 0.000482 0.000000 0.027351 0.000000
# 6 0.000000 0.000000 0.000000 0.005308 0.000000 0.043566
#
#
# Mechanical properties :
#
#
# Convention : Reuss Voigt Hill
#
# Bulk Modulus (GPa) = 81.78587 83.91837 82.85212
# Shear Modulus (GPa) = 31.33277 36.36442 33.84859
#
# Velocity S-wave (km/s) = 3.82227 4.11775 3.97276
# Velocity P-wave (km/s) = 7.59043 7.85730 7.72501
#
# Compressibility (1/GPa) = 0.01222705
#
# Stress axis : x y z
#
# Youngs Moduli (GPa) = 100.78949 109.17309 134.42078
#
# Poissons Ratio (x) = 0.39374 0.17543
# Poissons Ratio (y) = 0.36351 0.30046
# Poissons Ratio (z) = 0.13154 0.24402
#
# Static dielectric constant tensor:
#      x y z
#    x 4.342300 0.000000 -0.541070 
#    y 0.000000 3.570160 0.000000 
#    z -0.541070 0.000000 4.716440 
# 
# 
# High freq. dielectric constant tensor:
#      x y z
#    x 1.859130 0.000000 -0.010640 
#    y 0.000000 1.806920 0.000000 
#    z -0.010640 0.000000 1.868520 
# 
# From -- ./inp_files/76579.got.cif
#   From: 2010.06.25/outbox.cif.g09.slc.cpg/sg15_39_cif.got.tgz:76579.got - 2010.06.28 07:06:18.
