data_PCOD8154998
_publ_section_title
;
Structure prediction by ZEFSAII (Michael W. Deem and Ramdas Pophale) SiO2 
 PCOD8154998
Probable space group: C 2/C
;
_chemical_formula_sum "Si O2"
_cell_formula_units_Z 28
_cell_length_a 4.934422
_cell_length_b 24.225448
_cell_length_c 9.514506
_cell_angle_alpha 90.000000
_cell_angle_beta 104.858645
_cell_angle_gamma 90.000000
_cell_volume 1099.319184
_symmetry_space_group_name_H-M "C 2/C"
_symmetry_group_IT_number 15
_symmetry_cell_setting 'monoclinic'
loop_
_space_group_symop_operation_xyz
x,y,z
-x,y,1/2-z
-x,-y,-z
x,-y,1/2+z
1/2+x,1/2+y,z
1/2-x,1/2+y,1/2-z
1/2-x,1/2-y,-z
1/2+x,1/2-y,1/2+z
loop_
_atom_site_type_symbol
_atom_site_label
_atom_site_fract_x
_atom_site_fract_y
_atom_site_fract_z
Si Si1 0.410793 0.878651 0.493267
Si Si2 0.044013 0.266428 0.600634
Si Si3 0.000000 0.688545 0.750000
Si Si4 0.442933 0.444951 0.577749
O O1 0.587632 0.832437 0.603359
O O2 0.325871 0.852522 0.329322
O O3 0.617665 0.930678 0.507927
O O4 0.132078 0.895727 0.539326
O O5 0.750000 0.250000 0.500000
O O6 0.172174 0.272390 0.390214
O O7 0.000000 0.244659 0.750000
O O8 0.500000 0.454397 0.750000
O O9 0.500000 0.500000 0.500000
#
# Coordination Sequence:
#
# PCOD8154998 Si02
#       4
#     8   8   4   8
#     4  12  28  47  81 114 163 206 266 330 407 476
#     4  12  25  46  73 116 165 211 268 318 396 486
#     4  12  28  44  80 122 164 222 258 324 400 500
#     4  12  29  53  82 113 152 207 273 344 406 472
#
# _framework density 25.470313000000001
#
# number of rings (size 3 to 8) (size 9 to 14) (size 15 to 20)
#    0.000    0.000    2.857    6.000   10.000    0.000 
#    0.000    0.000    0.000    0.000    0.000    0.000 
#    0.000    0.000    0.000    0.000    0.000    0.000 
#
# Total GULP energy -173526.507699 kJ/mol
# GULP energy per Si atom -12394.750550 kJ/mol
# Density = 2.541234 g / cm^3
# Si number density = 25.470313 Si / 1000 Ang^3
#
#
#
# Elastic Constant Matrix: (Units=GPa)
#
#
# Indices 1 2 3 4 5 6 
#
# 1 119.2155 24.8002 35.2822 0.0000 -3.4501 0.0000
# 2 24.8002 117.4634 54.2887 0.0000 -5.5592 0.0000
# 3 35.2822 54.2887 164.5513 0.0000 5.8365 0.0000
# 4 0.0000 0.0000 0.0000 52.0359 0.0000 -7.7121
# 5 -3.4501 -5.5592 5.8365 0.0000 47.6495 0.0000
# 6 0.0000 0.0000 0.0000 -7.7121 0.0000 53.7169
#
#
#
# Elastic Compliance Matrix: (Units=1/GPa)
#
#
# Indices 1 2 3 4 5 6 
#
# 1 0.009123 -0.001152 -0.001602 0.000000 0.000722 0.000000
# 2 -0.001152 0.010311 -0.003208 0.000000 0.001513 0.000000
# 3 -0.001602 -0.003208 0.007529 0.000000 -0.001413 0.000000
# 4 0.000000 0.000000 0.000000 0.019635 0.000000 0.002819
# 5 0.000722 0.001513 -0.001413 0.000000 0.021388 0.000000
# 6 0.000000 0.000000 0.000000 0.002819 0.000000 0.019021
#
#
# Mechanical properties :
#
#
# Convention : Reuss Voigt Hill
#
# Bulk Modulus (GPa) = 66.49320 69.99693 68.24507
# Shear Modulus (GPa) = 48.10279 49.80438 48.95359
#
# Velocity S-wave (km/s) = 4.35050 4.42678 4.38880
# Velocity P-wave (km/s) = 7.16928 7.32597 7.24805
#
# Compressibility (1/GPa) = 0.01503913
#
# Stress axis : x y z
#
# Youngs Moduli (GPa) = 109.61695 96.98462 132.81599
#
# Poissons Ratio (x) = 0.11169 0.21273
# Poissons Ratio (y) = 0.12624 0.42614
# Poissons Ratio (z) = 0.17558 0.31117
#
# Static dielectric constant tensor:
#      x y z
#    x 4.912250 0.000000 -0.912790 
#    y 0.000000 4.871810 0.000000 
#    z -0.912790 0.000000 5.712140 
# 
# 
# High freq. dielectric constant tensor:
#      x y z
#    x 2.026910 0.000000 -0.031060 
#    y 0.000000 2.020390 0.000000 
#    z -0.031060 0.000000 2.057010 
# 
# From -- ./inp_files/19775.got.cif
#   From: 2010.06.25/outbox.cif.g09.slc.cpg/sg15_10_cif.got.tgz:19775.got - 2010.06.28 07:06:18.
