data_PCOD8154822
_publ_section_title
;
Structure prediction by ZEFSAII (Michael W. Deem and Ramdas Pophale) SiO2 
 PCOD8154822
Probable space group: C 2/C
;
_chemical_formula_sum "Si O2"
_cell_formula_units_Z 60
_cell_length_a 12.112708
_cell_length_b 26.128040
_cell_length_c 17.438285
_cell_angle_alpha 90.000000
_cell_angle_beta 151.660271
_cell_angle_gamma 90.000000
_cell_volume 2619.810149
_symmetry_space_group_name_H-M "C 2/C"
_symmetry_group_IT_number 15
_symmetry_cell_setting 'monoclinic'
loop_
_space_group_symop_operation_xyz
x,y,z
-x,y,1/2-z
-x,-y,-z
x,-y,1/2+z
1/2+x,1/2+y,z
1/2-x,1/2+y,1/2-z
1/2-x,1/2-y,-z
1/2+x,1/2-y,1/2+z
loop_
_atom_site_type_symbol
_atom_site_label
_atom_site_fract_x
_atom_site_fract_y
_atom_site_fract_z
Si Si1 0.019965 0.587898 0.880409
Si Si2 0.691576 0.492588 0.422214
Si Si3 0.504784 0.448628 0.049612
Si Si4 0.000000 0.673518 0.750000
Si Si5 0.577887 0.897445 0.011628
Si Si6 0.186073 0.799989 0.304456
Si Si7 0.319491 0.862984 0.705727
Si Si8 0.946099 0.218720 0.949830
O O1 0.097869 0.637001 0.878245
O O2 0.749480 0.580248 0.694932
O O3 0.162386 0.536681 0.944920
O O4 0.071764 0.596869 0.001894
O O5 0.500000 0.518621 0.250000
O O6 0.552655 0.458210 0.397358
O O7 0.852927 0.454366 0.472079
O O8 0.500000 0.500000 0.000000
O O9 0.301147 0.415656 0.889154
O O10 0.203464 0.711440 0.846120
O O11 0.436306 0.868958 0.859325
O O12 0.793939 0.860549 0.165352
O O13 0.086261 0.793526 0.158870
O O14 0.443372 0.775011 0.470876
O O15 0.000000 0.775441 0.250000
O O16 0.500000 0.847400 0.750000
O O17 0.134067 0.818494 0.602301
#
# Coordination Sequence:
#
# PCOD8154822 Si02
#       8
#     8   8   8   4   8   8   8   8
#     4  12  26  47  69 103 148 200 247 305 371 448
#     4  12  26  42  71 105 144 195 250 310 365 437
#     4  12  25  42  67  99 144 192 244 305 373 439
#     4  12  26  52  76 102 160 200 248 302 376 462
#     4  12  24  44  71 108 144 192 243 311 377 444
#     4  12  25  48  79 112 149 184 250 321 386 442
#     4  12  24  43  72 104 142 182 247 308 370 435
#     4  12  27  49  76 112 143 200 241 310 384 454
#
# _framework density 22.902424
#
# number of rings (size 3 to 8) (size 9 to 14) (size 15 to 20)
#    0.000    0.000    5.333    4.800    1.867    0.533 
#    0.000    0.000    0.000    0.000    0.000    0.000 
#    0.000    0.000    0.000    0.000    0.000    0.000 
#
# Total GULP energy -372119.921808 kJ/mol
# GULP energy per Si atom -12403.997394 kJ/mol
# Density = 2.285030 g / cm^3
# Si number density = 22.902424 Si / 1000 Ang^3
#
#
#
# Elastic Constant Matrix: (Units=GPa)
#
#
# Indices 1 2 3 4 5 6 
#
# 1 112.3773 12.9585 25.9997 0.0037 2.4712 0.0020
# 2 12.9585 77.0715 12.0574 0.0012 15.8790 0.0002
# 3 25.9997 12.0574 84.2553 0.0013 -3.5578 0.0021
# 4 0.0037 0.0012 0.0013 44.6420 0.0016 0.8721
# 5 2.4712 15.8790 -3.5578 0.0016 45.1193 0.0010
# 6 0.0020 0.0002 0.0021 0.8721 0.0010 25.1533
#
#
#
# Elastic Compliance Matrix: (Units=1/GPa)
#
#
# Indices 1 2 3 4 5 6 
#
# 1 0.009693 -0.001109 -0.002848 -0.000001 -0.000365 0.000000
# 2 -0.001109 0.014542 -0.001959 0.000000 -0.005211 0.000000
# 3 -0.002848 -0.001959 0.013107 0.000000 0.001879 -0.000001
# 4 -0.000001 0.000000 0.000000 0.022416 -0.000001 -0.000777
# 5 -0.000365 -0.005211 0.001879 -0.000001 0.024166 -0.000001
# 6 0.000000 0.000000 -0.000001 -0.000777 -0.000001 0.039783
#
#
# Mechanical properties :
#
#
# Convention : Reuss Voigt Hill
#
# Bulk Modulus (GPa) = 39.19940 41.74839 40.47389
# Shear Modulus (GPa) = 34.71217 37.82881 36.27049
#
# Velocity S-wave (km/s) = 3.89736 4.06857 3.98389
# Velocity P-wave (km/s) = 6.11601 6.35133 6.23478
#
# Compressibility (1/GPa) = 0.02551059
#
# Stress axis : x y z
#
# Youngs Moduli (GPa) = 103.16288 68.76836 76.29416
#
# Poissons Ratio (x) = 0.07627 0.21728
# Poissons Ratio (y) = 0.11441 0.14945
# Poissons Ratio (z) = 0.29380 0.13470
#
# Static dielectric constant tensor:
#      x y z
#    x 4.318220 0.000000 -0.035360 
#    y 0.000000 4.180380 0.000000 
#    z -0.035360 0.000000 4.264470 
# 
# 
# High freq. dielectric constant tensor:
#      x y z
#    x 1.912100 0.000000 -0.010830 
#    y 0.000000 1.908480 0.000000 
#    z -0.010830 0.000000 1.906820 
# 
# From -- ./inp_files/201276.got.cif
#   From: 2010.06.25/outbox.cif.g09.slc.cpg/sg15_101_cif.got.tgz:201276.got - 2010.06.28 07:06:18.
