data_PCOD8154478
_publ_section_title
;
Structure prediction by ZEFSAII (Michael W. Deem and Ramdas Pophale) SiO2 
 PCOD8154478
Probable space group: C 2/C
;
_chemical_formula_sum "Si O2"
_cell_formula_units_Z 52
_cell_length_a 14.657179
_cell_length_b 17.696257
_cell_length_c 11.093996
_cell_angle_alpha 90.000000
_cell_angle_beta 129.548835
_cell_angle_gamma 90.000000
_cell_volume 2218.811791
_symmetry_space_group_name_H-M "C 2/C"
_symmetry_group_IT_number 15
_symmetry_cell_setting 'monoclinic'
loop_
_space_group_symop_operation_xyz
x,y,z
-x,y,1/2-z
-x,-y,-z
x,-y,1/2+z
1/2+x,1/2+y,z
1/2-x,1/2+y,1/2-z
1/2-x,1/2-y,-z
1/2+x,1/2-y,1/2+z
loop_
_atom_site_type_symbol
_atom_site_label
_atom_site_fract_x
_atom_site_fract_y
_atom_site_fract_z
Si Si1 0.000000 0.387268 0.250000
Si Si2 0.867709 0.932054 0.594043
Si Si3 0.298306 0.812343 0.949648
Si Si4 0.285886 0.587562 0.601436
Si Si5 0.124475 0.480189 0.160543
Si Si6 0.234458 0.132279 0.163859
Si Si7 0.472774 0.587422 0.950014
O O1 0.899952 0.437282 0.233141
O O2 0.068077 0.333757 0.402194
O O3 0.789558 0.883638 0.618464
O O4 0.874504 0.890665 0.469189
O O5 0.000000 0.941018 0.750000
O O6 0.808620 0.014278 0.535865
O O7 0.289691 0.799689 0.795826
O O8 0.250000 0.750000 0.000000
O O9 0.186077 0.576544 0.617841
O O10 0.244699 0.647764 0.463018
O O11 0.411189 0.605736 0.770688
O O12 0.203510 0.553778 0.244876
O O13 0.000000 0.500000 0.000000
O O14 0.092829 0.133821 0.063400
O O15 0.500000 0.500000 0.000000
#
# Coordination Sequence:
#
# PCOD8154478 Si02
#       7
#     4   8   8   8   8   8   8
#     4  12  26  44  66  96 134 172 232 276 346 404
#     4  12  19  36  60  92 132 171 214 268 331 391
#     4  12  27  44  63  88 126 179 232 277 317 399
#     4  12  21  33  61 100 138 167 206 273 349 415
#     4  12  21  38  61  93 134 174 211 277 347 409
#     4  12  22  37  58  94 135 177 222 271 344 396
#     4  12  19  31  59  94 136 169 203 263 340 403
#
# _framework density 23.435966000000001
#
# number of rings (size 3 to 8) (size 9 to 14) (size 15 to 20)
#    0.000    0.000    9.231    3.231    1.077    0.000 
#    0.000    0.000    0.000    3.692    0.000    0.000 
#    0.000    0.000    0.000    0.000    0.000    0.000 
#
# Total GULP energy -322138.119068 kJ/mol
# GULP energy per Si atom -12389.927656 kJ/mol
# Density = 2.338262 g / cm^3
# Si number density = 23.435966 Si / 1000 Ang^3
#
#
#
# Elastic Constant Matrix: (Units=GPa)
#
#
# Indices 1 2 3 4 5 6 
#
# 1 124.9422 4.9533 51.0535 0.0000 -11.0255 0.0000
# 2 4.9533 27.7696 32.4357 0.0000 -3.0963 0.0000
# 3 51.0535 32.4357 191.9832 0.0000 -19.7058 0.0000
# 4 0.0000 0.0000 0.0000 14.7433 0.0000 -9.0486
# 5 -11.0255 -3.0963 -19.7058 0.0000 50.6440 0.0000
# 6 0.0000 0.0000 0.0000 -9.0486 0.0000 27.2129
#
#
#
# Elastic Compliance Matrix: (Units=1/GPa)
#
#
# Indices 1 2 3 4 5 6 
#
# 1 0.009084 0.001485 -0.002556 0.000000 0.001074 0.000000
# 2 0.001485 0.045109 -0.008020 0.000000 -0.000039 0.000000
# 3 -0.002556 -0.008020 0.007433 0.000000 0.001845 0.000000
# 4 0.000000 0.000000 0.000000 0.085218 0.000000 0.028336
# 5 0.001074 -0.000039 0.001845 0.000000 0.020695 0.000000
# 6 0.000000 0.000000 0.000000 0.028336 0.000000 0.046169
#
#
# Mechanical properties :
#
#
# Convention : Reuss Voigt Hill
#
# Bulk Modulus (GPa) = 23.01829 57.95331 40.48580
# Shear Modulus (GPa) = 20.29444 35.60356 27.94900
#
# Velocity S-wave (km/s) = 2.94590 3.90190 3.45711
# Velocity P-wave (km/s) = 4.62755 6.71430 5.76611
#
# Compressibility (1/GPa) = 0.04344371
#
# Stress axis : x y z
#
# Youngs Moduli (GPa) = 110.08146 22.16846 134.53395
#
# Poissons Ratio (x) = -0.03293 0.34393
# Poissons Ratio (y) = -0.16352 1.07900
# Poissons Ratio (z) = 0.28142 0.17780
#
# Static dielectric constant tensor:
#      x y z
#    x 5.393160 0.000000 -0.894110 
#    y 0.000000 3.663290 0.000000 
#    z -0.894110 0.000000 5.538840 
# 
# 
# High freq. dielectric constant tensor:
#      x y z
#    x 1.943340 0.000000 -0.009460 
#    y 0.000000 1.840980 0.000000 
#    z -0.009460 0.000000 1.968010 
# 
# From -- ./inp_files/99858.got.cif
#   From: 2010.06.25/outbox.cif.g09.slc.cpg/sg15_50_cif.got.tgz:99858.got - 2010.06.28 07:06:18.
