data_PCOD8154156
_publ_section_title
;
Structure prediction by ZEFSAII (Michael W. Deem and Ramdas Pophale) SiO2 
 PCOD8154156
Probable space group: C 2/C
;
_chemical_formula_sum "Si O2"
_cell_formula_units_Z 36
_cell_length_a 15.775324
_cell_length_b 9.792353
_cell_length_c 12.995863
_cell_angle_alpha 90.000000
_cell_angle_beta 56.797091
_cell_angle_gamma 90.000000
_cell_volume 1679.806251
_symmetry_space_group_name_H-M "C 2/C"
_symmetry_group_IT_number 15
_symmetry_cell_setting 'monoclinic'
loop_
_space_group_symop_operation_xyz
x,y,z
-x,y,1/2-z
-x,-y,-z
x,-y,1/2+z
1/2+x,1/2+y,z
1/2-x,1/2+y,1/2-z
1/2-x,1/2-y,-z
1/2+x,1/2-y,1/2+z
loop_
_atom_site_type_symbol
_atom_site_label
_atom_site_fract_x
_atom_site_fract_y
_atom_site_fract_z
Si Si1 0.000000 0.840033 0.750000
Si Si2 0.144291 0.597966 0.361438
Si Si3 0.729138 0.338720 0.913217
Si Si4 0.287719 0.401861 0.950294
Si Si5 0.552723 0.804434 0.414633
O O1 0.091584 0.926250 0.641031
O O2 0.054912 0.749431 0.798284
O O3 0.187461 0.676434 0.232478
O O4 0.233453 0.556474 0.380575
O O5 0.090169 0.457154 0.372251
O O6 0.061735 0.700364 0.465299
O O7 0.620635 0.291095 0.942488
O O8 0.750000 0.250000 0.000000
O O9 0.737730 0.497634 0.938785
O O10 0.250000 0.250000 0.000000
#
# Coordination Sequence:
#
# PCOD8154156 Si02
#       5
#     4   8   8   8   8
#     4  12  24  44  72 102 142 182 234 284 362 416
#     4  11  25  45  73 102 145 180 240 290 353 419
#     4  12  27  46  73 105 143 185 237 292 351 420
#     4  12  25  46  71 104 141 188 229 294 356 419
#     4  11  25  45  73 106 135 193 235 290 349 424
#
# _framework density 21.431042000000001
#
# number of rings (size 3 to 8) (size 9 to 14) (size 15 to 20)
#    0.000    0.444    6.667    1.333    0.000    3.556 
#    0.000    0.000    0.000    0.000    0.000    0.000 
#    0.000    0.000    0.000    0.000    0.000    0.000 
#
# Total GULP energy -223179.559170 kJ/mol
# GULP energy per Si atom -12398.864398 kJ/mol
# Density = 2.138226 g / cm^3
# Si number density = 21.431042 Si / 1000 Ang^3
#
#
#
# Elastic Constant Matrix: (Units=GPa)
#
#
# Indices 1 2 3 4 5 6 
#
# 1 124.0069 13.1234 32.0013 0.0000 6.6769 0.0000
# 2 13.1234 62.7564 11.5131 0.0000 3.1343 0.0000
# 3 32.0013 11.5131 107.7594 0.0000 -3.8827 0.0000
# 4 0.0000 0.0000 0.0000 35.2761 0.0000 4.4178
# 5 6.6769 3.1343 -3.8827 0.0000 51.4248 0.0000
# 6 0.0000 0.0000 0.0000 4.4178 0.0000 36.7599
#
#
#
# Elastic Compliance Matrix: (Units=1/GPa)
#
#
# Indices 1 2 3 4 5 6 
#
# 1 0.008934 -0.001336 -0.002556 0.000000 -0.001271 0.000000
# 2 -0.001336 0.016518 -0.001402 0.000000 -0.000939 0.000000
# 3 -0.002556 -0.001402 0.010232 0.000000 0.001190 0.000000
# 4 0.000000 0.000000 0.000000 0.028781 0.000000 -0.003459
# 5 -0.001271 -0.000939 0.001190 0.000000 0.019758 0.000000
# 6 0.000000 0.000000 0.000000 -0.003459 0.000000 0.027619
#
#
# Mechanical properties :
#
#
# Convention : Reuss Voigt Hill
#
# Bulk Modulus (GPa) = 39.84749 45.31092 42.57921
# Shear Modulus (GPa) = 38.22798 40.55115 39.38956
#
# Velocity S-wave (km/s) = 4.22805 4.35463 4.29180
# Velocity P-wave (km/s) = 6.51682 6.81706 6.66863
#
# Compressibility (1/GPa) = 0.02509568
#
# Stress axis : x y z
#
# Youngs Moduli (GPa) = 111.93805 60.53984 97.73567
#
# Poissons Ratio (x) = 0.08086 0.24982
# Poissons Ratio (y) = 0.14952 0.13702
# Poissons Ratio (z) = 0.28612 0.08488
#
# Static dielectric constant tensor:
#      x y z
#    x 4.251710 0.000000 0.019600 
#    y 0.000000 3.808270 0.000000 
#    z 0.019600 0.000000 4.030730 
# 
# 
# High freq. dielectric constant tensor:
#      x y z
#    x 1.857200 0.000000 0.001570 
#    y 0.000000 1.830880 0.000000 
#    z 0.001570 0.000000 1.854900 
# 
# From -- ./inp_files/94375.got.cif
#   From: 2010.06.25/outbox.cif.g09.slc.cpg/sg15_48_cif.got.tgz:94375.got - 2010.06.28 07:06:18.
