data_PCOD8154819
_publ_section_title
;
Structure prediction by ZEFSAII (Michael W. Deem and Ramdas Pophale) SiO2 
 PCOD8154819
Probable space group: C 2/C
;
_chemical_formula_sum "Si O2"
_cell_formula_units_Z 32
_cell_length_a 34.030826
_cell_length_b 4.889380
_cell_length_c 8.752621
_cell_angle_alpha 90.000000
_cell_angle_beta 68.131506
_cell_angle_gamma 90.000000
_cell_volume 1351.548606
_symmetry_space_group_name_H-M "C 2/C"
_symmetry_group_IT_number 15
_symmetry_cell_setting 'monoclinic'
loop_
_space_group_symop_operation_xyz
x,y,z
-x,y,1/2-z
-x,-y,-z
x,-y,1/2+z
1/2+x,1/2+y,z
1/2-x,1/2+y,1/2-z
1/2-x,1/2-y,-z
1/2+x,1/2-y,1/2+z
loop_
_atom_site_type_symbol
_atom_site_label
_atom_site_fract_x
_atom_site_fract_y
_atom_site_fract_z
Si Si1 0.147150 0.163290 0.966339
Si Si2 0.763798 0.127175 0.142033
Si Si3 0.018662 0.253880 0.887410
Si Si4 0.384243 0.806039 0.811008
O O1 0.134584 0.418191 0.090591
O O2 0.114814 0.922645 0.057999
O O3 0.145586 0.229690 0.789328
O O4 0.192985 0.040278 0.938694
O O5 0.768825 0.394184 0.246223
O O6 0.750000 0.250000 0.000000
O O7 0.068531 0.312472 0.820650
O O8 0.000000 0.238018 0.750000
O O9 0.000000 0.500000 0.000000
O O10 0.000000 0.000000 0.000000
#
# Coordination Sequence:
#
# PCOD8154819 Si02
#       4
#     8   8   8   8
#     4  12  26  46  71 101 140 185 233 292 353 421
#     4  12  27  49  74 105 140 184 235 296 362 430
#     4  12  24  43  70 104 142 187 234 288 346 414
#     4  12  25  46  70 104 142 186 235 288 350 421
#
# _framework density 23.676546999999999
#
# number of rings (size 3 to 8) (size 9 to 14) (size 15 to 20)
#    0.000    0.000    0.000   10.500    0.000    4.000 
#    0.000    0.000    0.000    0.000    0.000    0.000 
#    0.000    0.000    0.000    0.000    0.000    0.000 
#
# Total GULP energy -198320.468865 kJ/mol
# GULP energy per Si atom -12395.029304 kJ/mol
# Density = 2.362266 g / cm^3
# Si number density = 23.676547 Si / 1000 Ang^3
#
#
#
# Elastic Constant Matrix: (Units=GPa)
#
#
# Indices 1 2 3 4 5 6 
#
# 1 111.9804 54.3825 62.6479 0.0000 9.3233 0.0000
# 2 54.3825 225.4231 92.8236 0.0000 -5.6074 0.0000
# 3 62.6479 92.8236 137.1654 0.0000 -10.2957 0.0000
# 4 0.0000 0.0000 0.0000 79.1685 0.0000 -16.3379
# 5 9.3233 -5.6074 -10.2957 0.0000 25.9258 0.0000
# 6 0.0000 0.0000 0.0000 -16.3379 0.0000 33.2008
#
#
#
# Elastic Compliance Matrix: (Units=1/GPa)
#
#
# Indices 1 2 3 4 5 6 
#
# 1 0.013374 -0.000924 -0.006039 0.000000 -0.007408 0.000000
# 2 -0.000924 0.006216 -0.003771 0.000000 0.000179 0.000000
# 3 -0.006039 -0.003771 0.013093 0.000000 0.006556 0.000000
# 4 0.000000 0.000000 0.000000 0.014059 0.000000 0.006918
# 5 -0.007408 0.000179 0.006556 0.000000 0.043878 0.000000
# 6 0.000000 0.000000 0.000000 0.006918 0.000000 0.033524
#
#
# Mechanical properties :
#
#
# Convention : Reuss Voigt Hill
#
# Bulk Modulus (GPa) = 89.16938 99.36410 94.26674
# Shear Modulus (GPa) = 33.47800 45.30669 39.39235
#
# Velocity S-wave (km/s) = 3.76436 4.37918 4.08336
# Velocity P-wave (km/s) = 7.52577 8.22363 7.88242
#
# Compressibility (1/GPa) = 0.01121461
#
# Stress axis : x y z
#
# Youngs Moduli (GPa) = 74.77053 160.86435 76.37660
#
# Poissons Ratio (x) = 0.14863 0.46125
# Poissons Ratio (y) = 0.06909 0.28804
# Poissons Ratio (z) = 0.45155 0.60668
#
# Static dielectric constant tensor:
#      x y z
#    x 4.299260 0.000000 -0.089990 
#    y 0.000000 2.435070 0.000000 
#    z -0.089990 0.000000 4.925510 
# 
# 
# High freq. dielectric constant tensor:
#      x y z
#    x 1.935070 0.000000 -0.009030 
#    y 0.000000 1.970650 0.000000 
#    z -0.009030 0.000000 1.970680 
# 
# From -- ./inp_files/67988.got.cif
#   From: 2010.06.25/outbox.cif.g09.slc.cpg/sg15_34_cif.got.tgz:67988.got - 2010.06.28 07:06:18.
