data_PCOD8154075
_publ_section_title
;
Structure prediction by ZEFSAII (Michael W. Deem and Ramdas Pophale) SiO2 
 PCOD8154075
Probable space group: C 2/C
;
_chemical_formula_sum "Si O2"
_cell_formula_units_Z 40
_cell_length_a 15.202019
_cell_length_b 13.723861
_cell_length_c 16.507108
_cell_angle_alpha 90.000000
_cell_angle_beta 150.057614
_cell_angle_gamma 90.000000
_cell_volume 1718.942311
_symmetry_space_group_name_H-M "C 2/C"
_symmetry_group_IT_number 15
_symmetry_cell_setting 'monoclinic'
loop_
_space_group_symop_operation_xyz
x,y,z
-x,y,1/2-z
-x,-y,-z
x,-y,1/2+z
1/2+x,1/2+y,z
1/2-x,1/2+y,1/2-z
1/2-x,1/2-y,-z
1/2+x,1/2-y,1/2+z
loop_
_atom_site_type_symbol
_atom_site_label
_atom_site_fract_x
_atom_site_fract_y
_atom_site_fract_z
Si Si1 0.176793 0.642986 0.442104
Si Si2 0.129032 0.853712 0.066362
Si Si3 0.013191 0.314639 0.358413
Si Si4 0.527233 0.449504 0.419549
Si Si5 0.348287 0.999675 0.944916
O O1 0.250000 0.750000 0.500000
O O2 0.345202 0.579533 0.550820
O O3 0.125929 0.602515 0.489167
O O4 0.000000 0.632383 0.250000
O O5 0.324584 0.826757 0.249596
O O6 0.004916 0.853387 0.048111
O O7 0.080422 0.786096 0.951177
O O8 0.137735 0.967628 0.052705
O O9 0.000000 0.307032 0.250000
O O10 0.135868 0.405696 0.482640
O O11 0.346234 0.501156 0.247832
O O12 0.500000 0.000000 0.000000
#
# Coordination Sequence:
#
# PCOD8154075 Si02
#       5
#     8   8   8   8   8
#     4  12  28  48  77 108 149 199 253 314 376 452
#     4  11  25  43  70 105 142 197 240 310 367 460
#     4  12  25  45  73 108 149 192 250 310 391 448
#     4  11  25  47  72 105 151 192 252 305 380 449
#     4  12  25  46  75 110 147 195 252 312 379 451
#
# _framework density 23.270123999999999
#
# number of rings (size 3 to 8) (size 9 to 14) (size 15 to 20)
#    0.000    0.400    2.000    6.600    5.600    3.200 
#    0.000    0.000    0.000    0.000    0.000    0.000 
#    0.000    0.000    0.000    0.000    0.000    0.000 
#
# Total GULP energy -247867.062475 kJ/mol
# GULP energy per Si atom -12393.353124 kJ/mol
# Density = 2.321716 g / cm^3
# Si number density = 23.270124 Si / 1000 Ang^3
#
#
#
# Elastic Constant Matrix: (Units=GPa)
#
#
# Indices 1 2 3 4 5 6 
#
# 1 132.8187 53.1297 45.6144 -0.0015 4.6764 0.0001
# 2 53.1297 120.0185 34.1382 -0.0029 -1.5563 -0.0006
# 3 45.6144 34.1382 121.9182 -0.0041 12.8588 -0.0012
# 4 -0.0015 -0.0029 -0.0041 41.3625 -0.0028 -1.8029
# 5 4.6764 -1.5563 12.8588 -0.0028 45.6220 -0.0006
# 6 0.0001 -0.0006 -0.0012 -1.8029 -0.0006 44.7892
#
#
#
# Elastic Compliance Matrix: (Units=1/GPa)
#
#
# Indices 1 2 3 4 5 6 
#
# 1 0.009907 -0.003638 -0.002646 0.000000 -0.000394 0.000000
# 2 -0.003638 0.010439 -0.001689 0.000001 0.001205 0.000000
# 3 -0.002646 -0.001689 0.009938 0.000001 -0.002587 0.000000
# 4 0.000000 0.000001 0.000001 0.024219 0.000001 0.000975
# 5 -0.000394 0.001205 -0.002587 0.000001 0.022730 0.000000
# 6 0.000000 0.000000 0.000000 0.000975 0.000000 0.022366
#
#
# Mechanical properties :
#
#
# Convention : Reuss Voigt Hill
#
# Bulk Modulus (GPa) = 69.74878 71.16889 70.45884
# Shear Modulus (GPa) = 41.55433 42.47960 42.01697
#
# Velocity S-wave (km/s) = 4.23038 4.27722 4.25387
# Velocity P-wave (km/s) = 7.34167 7.41910 7.38049
#
# Compressibility (1/GPa) = 0.01433717
#
# Stress axis : x y z
#
# Youngs Moduli (GPa) = 100.93815 95.79896 100.62236
#
# Poissons Ratio (x) = 0.34852 0.26629
# Poissons Ratio (y) = 0.36721 0.16994
# Poissons Ratio (z) = 0.26713 0.16179
#
# Static dielectric constant tensor:
#      x y z
#    x 5.550080 -0.000010 0.151830 
#    y -0.000010 4.279850 0.000000 
#    z 0.151830 0.000000 4.413310 
# 
# 
# High freq. dielectric constant tensor:
#      x y z
#    x 1.931800 0.000000 0.005740 
#    y 0.000000 1.921270 0.000000 
#    z 0.005740 0.000000 1.936410 
# 
# From -- ./inp_files/205834.got.cif
#   From: 2010.06.25/outbox.cif.g09.slc.cpg/sg15_103_cif.got.tgz:205834.got - 2010.06.28 07:06:18.
