data_PCOD8154804
_publ_section_title
;
Structure prediction by ZEFSAII (Michael W. Deem and Ramdas Pophale) SiO2 
 PCOD8154804
Probable space group: C 2/C
;
_chemical_formula_sum "Si O2"
_cell_formula_units_Z 40
_cell_length_a 11.056625
_cell_length_b 26.668286
_cell_length_c 5.685329
_cell_angle_alpha 90.000000
_cell_angle_beta 82.162850
_cell_angle_gamma 90.000000
_cell_volume 1660.725116
_symmetry_space_group_name_H-M "C 2/C"
_symmetry_group_IT_number 15
_symmetry_cell_setting 'monoclinic'
loop_
_space_group_symop_operation_xyz
x,y,z
-x,y,1/2-z
-x,-y,-z
x,-y,1/2+z
1/2+x,1/2+y,z
1/2-x,1/2+y,1/2-z
1/2-x,1/2-y,-z
1/2+x,1/2-y,1/2+z
loop_
_atom_site_type_symbol
_atom_site_label
_atom_site_fract_x
_atom_site_fract_y
_atom_site_fract_z
Si Si1 0.500000 0.593748 0.250000
Si Si2 0.814951 0.971066 0.003907
Si Si3 0.361873 0.892254 0.299733
Si Si4 0.202592 0.847175 0.971432
Si Si5 0.000000 0.217942 0.750000
Si Si6 0.345079 0.210567 0.060106
O O1 0.554958 0.558254 0.029252
O O2 0.389496 0.627401 0.187761
O O3 0.804699 0.000645 0.756732
O O4 0.705272 0.930877 0.009866
O O5 0.500000 0.912455 0.250000
O O6 0.366508 0.835232 0.382512
O O7 0.283089 0.890259 0.078872
O O8 0.298131 0.810517 0.822263
O O9 0.118852 0.815944 0.174382
O O10 0.030613 0.256798 0.952684
O O11 0.250000 0.250000 0.000000
#
# Coordination Sequence:
#
# PCOD8154804 Si02
#       6
#     4   8   8   8   4   8
#     4  12  24  50  83 114 152 194 251 330 400 458
#     4  12  28  53  82 118 153 200 263 331 405 473
#     4  12  28  50  76 107 155 206 256 314 384 467
#     4  12  25  48  70 114 158 194 256 318 382 452
#     4  12  24  40  75 102 154 206 249 316 368 450
#     4  12  25  44  67 110 150 199 254 300 378 456
#
# _framework density 24.085865999999999
#
# number of rings (size 3 to 8) (size 9 to 14) (size 15 to 20)
#    0.000    0.000    4.000    6.000    2.800    2.400 
#    0.000    0.000    0.000    0.000    0.000    0.000 
#    0.000    0.000    0.000    0.000    0.000    0.000 
#
# Total GULP energy -247845.980840 kJ/mol
# GULP energy per Si atom -12392.299042 kJ/mol
# Density = 2.403105 g / cm^3
# Si number density = 24.085866 Si / 1000 Ang^3
#
#
#
# Elastic Constant Matrix: (Units=GPa)
#
#
# Indices 1 2 3 4 5 6 
#
# 1 134.1115 32.4061 29.1174 0.0000 2.9391 0.0000
# 2 32.4061 105.0390 38.3848 0.0000 1.8054 0.0000
# 3 29.1174 38.3848 104.3838 0.0000 3.7881 0.0000
# 4 0.0000 0.0000 0.0000 45.5342 0.0000 -7.8901
# 5 2.9391 1.8054 3.7881 0.0000 46.5442 0.0000
# 6 0.0000 0.0000 0.0000 -7.8901 0.0000 9.6176
#
#
#
# Elastic Compliance Matrix: (Units=1/GPa)
#
#
# Indices 1 2 3 4 5 6 
#
# 1 0.008282 -0.001975 -0.001572 0.000000 -0.000318 0.000000
# 2 -0.001975 0.011470 -0.003666 0.000000 -0.000022 0.000000
# 3 -0.001572 -0.003666 0.011392 0.000000 -0.000686 0.000000
# 4 0.000000 0.000000 0.000000 0.025601 0.000000 0.021002
# 5 -0.000318 -0.000022 -0.000686 0.000000 0.021562 0.000000
# 6 0.000000 0.000000 0.000000 0.021002 0.000000 0.121206
#
#
# Mechanical properties :
#
#
# Convention : Reuss Voigt Hill
#
# Bulk Modulus (GPa) = 59.82131 60.37232 60.09681
# Shear Modulus (GPa) = 22.77791 36.58093 29.67942
#
# Velocity S-wave (km/s) = 3.07855 3.90137 3.51413
# Velocity P-wave (km/s) = 6.12595 6.73900 6.43977
#
# Compressibility (1/GPa) = 0.01671645
#
# Stress axis : x y z
#
# Youngs Moduli (GPa) = 120.74240 87.18657 87.78395
#
# Poissons Ratio (x) = 0.17220 0.13803
# Poissons Ratio (y) = 0.23847 0.32181
# Poissons Ratio (z) = 0.18986 0.31962
#
# Static dielectric constant tensor:
#      x y z
#    x 4.356580 0.000000 -0.248840 
#    y 0.000000 5.225560 0.000000 
#    z -0.248840 0.000000 4.083530 
# 
# 
# High freq. dielectric constant tensor:
#      x y z
#    x 1.966810 0.000000 -0.002000 
#    y 0.000000 1.971560 0.000000 
#    z -0.002000 0.000000 1.948880 
# 
# From -- ./inp_files/4956.got.cif
#   From: 2010.06.25/outbox.cif.g09.slc.cpg/sg15_3_cif.got.tgz:4956.got - 2010.06.28 07:06:18.
