data_PCOD8154123
_publ_section_title
;
Structure prediction by ZEFSAII (Michael W. Deem and Ramdas Pophale) SiO2 
 PCOD8154123
Probable space group: C 2/C
;
_chemical_formula_sum "Si O2"
_cell_formula_units_Z 52
_cell_length_a 18.151536
_cell_length_b 6.578996
_cell_length_c 22.595568
_cell_angle_alpha 90.000000
_cell_angle_beta 118.441907
_cell_angle_gamma 90.000000
_cell_volume 2372.649389
_symmetry_space_group_name_H-M "C 2/C"
_symmetry_group_IT_number 15
_symmetry_cell_setting 'monoclinic'
loop_
_space_group_symop_operation_xyz
x,y,z
-x,y,1/2-z
-x,-y,-z
x,-y,1/2+z
1/2+x,1/2+y,z
1/2-x,1/2+y,1/2-z
1/2-x,1/2-y,-z
1/2+x,1/2-y,1/2+z
loop_
_atom_site_type_symbol
_atom_site_label
_atom_site_fract_x
_atom_site_fract_y
_atom_site_fract_z
Si Si1 0.449996 0.741245 0.843718
Si Si2 0.141428 0.228196 0.354699
Si Si3 0.838388 0.422330 0.254641
Si Si4 0.237755 0.360378 0.087081
Si Si5 0.335661 0.580586 0.336110
Si Si6 0.000000 0.028960 0.750000
Si Si7 0.132853 0.412531 0.933838
O O1 0.383466 0.919984 0.814535
O O2 0.413681 0.574839 0.877527
O O3 0.447255 0.665926 0.774707
O O4 0.539237 0.824264 0.898785
O O5 0.137369 0.410349 0.305070
O O6 0.057401 0.100060 0.316411
O O7 0.139231 0.351178 0.415815
O O8 0.222305 0.078527 0.378343
O O9 0.739189 0.447760 0.219099
O O10 0.866813 0.208815 0.292390
O O11 0.194272 0.228424 0.122344
O O12 0.311434 0.229789 0.086471
O O13 0.164399 0.407373 0.012923
#
# Coordination Sequence:
#
# PCOD8154123 Si02
#       7
#     8   8   8   8   8   4   8
#     4  12  25  41  66 102 138 174 228 285 349 416
#     4  12  22  42  68 100 131 176 225 283 344 406
#     4  12  23  40  67  99 131 171 216 276 356 404
#     4  11  25  45  69  94 134 185 235 276 341 412
#     4  12  24  42  64 101 137 175 221 282 351 420
#     4  12  22  40  64 104 132 160 224 286 344 396
#     4  11  25  45  68  96 132 186 234 282 330 412
#
# _framework density 21.916426999999999
#
# number of rings (size 3 to 8) (size 9 to 14) (size 15 to 20)
#    0.000    0.308    6.154    4.154    0.000    0.615 
#    0.000    0.769    0.000    0.000    0.000    0.000 
#    0.000    0.000    0.000    0.000    0.000    0.000 
#
# Total GULP energy -322216.215271 kJ/mol
# GULP energy per Si atom -12392.931357 kJ/mol
# Density = 2.186654 g / cm^3
# Si number density = 21.916427 Si / 1000 Ang^3
#
#
#
# Elastic Constant Matrix: (Units=GPa)
#
#
# Indices 1 2 3 4 5 6 
#
# 1 100.3038 43.6664 40.6639 0.0000 18.8721 0.0000
# 2 43.6664 109.1188 44.9238 0.0000 14.1983 0.0000
# 3 40.6639 44.9238 107.1443 0.0000 17.5646 0.0000
# 4 0.0000 0.0000 0.0000 33.4974 0.0000 -2.5769
# 5 18.8721 14.1983 17.5646 0.0000 25.9057 0.0000
# 6 0.0000 0.0000 0.0000 -2.5769 0.0000 44.0296
#
#
#
# Elastic Compliance Matrix: (Units=1/GPa)
#
#
# Indices 1 2 3 4 5 6 
#
# 1 0.013810 -0.003598 -0.002708 0.000000 -0.006253 0.000000
# 2 -0.003598 0.012268 -0.003494 0.000000 -0.001734 0.000000
# 3 -0.002708 -0.003494 0.012588 0.000000 -0.004647 0.000000
# 4 0.000000 0.000000 0.000000 0.029988 0.000000 0.001755
# 5 -0.006253 -0.001734 -0.004647 0.000000 0.047258 0.000000
# 6 0.000000 0.000000 0.000000 0.001755 0.000000 0.022815
#
#
# Mechanical properties :
#
#
# Convention : Reuss Voigt Hill
#
# Bulk Modulus (GPa) = 52.44821 63.89721 58.17271
# Shear Modulus (GPa) = 30.36155 33.17407 31.76781
#
# Velocity S-wave (km/s) = 3.72604 3.89480 3.81136
# Velocity P-wave (km/s) = 6.51875 7.03166 6.78006
#
# Compressibility (1/GPa) = 0.01906643
#
# Stress axis : x y z
#
# Youngs Moduli (GPa) = 72.40975 81.51092 79.44285
#
# Poissons Ratio (x) = 0.29329 0.21510
# Poissons Ratio (y) = 0.26054 0.27758
# Poissons Ratio (z) = 0.19606 0.28481
#
# Static dielectric constant tensor:
#      x y z
#    x 3.891820 0.000000 0.190650 
#    y 0.000000 4.294750 0.000000 
#    z 0.190650 0.000000 3.996840 
# 
# 
# High freq. dielectric constant tensor:
#      x y z
#    x 1.862540 0.000000 0.007660 
#    y 0.000000 1.882230 0.000000 
#    z 0.007660 0.000000 1.844590 
# 
# From -- ./inp_files/279012.got.cif
#   From: 2010.06.25/outbox.cif.g09.slc.cpg/sg15_140_cif.got.tgz:279012.got - 2010.06.28 07:06:18.
