data_PCOD8154531
_publ_section_title
;
Structure prediction by ZEFSAII (Michael W. Deem and Ramdas Pophale) SiO2 
 PCOD8154531
Probable space group: C 2/C
;
_chemical_formula_sum "Si O2"
_cell_formula_units_Z 40
_cell_length_a 14.151910
_cell_length_b 4.944653
_cell_length_c 25.459209
_cell_angle_alpha 90.000000
_cell_angle_beta 106.231933
_cell_angle_gamma 90.000000
_cell_volume 1710.525144
_symmetry_space_group_name_H-M "C 2/C"
_symmetry_group_IT_number 15
_symmetry_cell_setting 'monoclinic'
loop_
_space_group_symop_operation_xyz
x,y,z
-x,y,1/2-z
-x,-y,-z
x,-y,1/2+z
1/2+x,1/2+y,z
1/2-x,1/2+y,1/2-z
1/2-x,1/2-y,-z
1/2+x,1/2-y,1/2+z
loop_
_atom_site_type_symbol
_atom_site_label
_atom_site_fract_x
_atom_site_fract_y
_atom_site_fract_z
Si Si1 0.000021 0.584308 0.627064
Si Si2 0.273513 0.779784 0.731632
Si Si3 0.783313 0.343034 0.061820
Si Si4 0.290031 0.164873 0.890057
Si Si5 0.465540 0.575038 0.801328
O O1 0.094219 0.655669 0.605551
O O2 0.003006 0.278869 0.647852
O O3 0.900930 0.618794 0.577894
O O4 0.994100 0.784139 0.676022
O O5 0.187633 0.568635 0.738382
O O6 0.277052 0.770527 0.669273
O O7 0.347984 0.564594 0.774997
O O8 0.728194 0.624429 0.065907
O O9 0.749511 0.128464 0.100449
O O10 0.750000 0.250000 0.000000
O O11 0.500000 0.677814 0.750000
#
# Coordination Sequence:
#
# PCOD8154531 Si02
#       5
#     8   8   8   8   8
#     4  12  25  45  68 100 137 180 231 277 341 410
#     4  12  21  39  64  99 136 171 216 260 327 412
#     4  12  28  48  71 100 133 179 239 297 344 392
#     4  12  25  46  72 100 140 180 228 284 341 410
#     4  12  23  40  65  99 141 180 219 273 331 410
#
# _framework density 23.384633000000001
#
# number of rings (size 3 to 8) (size 9 to 14) (size 15 to 20)
#    0.000    0.000    4.000    7.200    0.000    1.600 
#    0.000    0.000    0.000    0.000    0.000    0.000 
#    0.000    0.000    0.000    0.000    0.000    0.000 
#
# Total GULP energy -247888.821469 kJ/mol
# GULP energy per Si atom -12394.441073 kJ/mol
# Density = 2.333141 g / cm^3
# Si number density = 23.384633 Si / 1000 Ang^3
#
#
#
# Elastic Constant Matrix: (Units=GPa)
#
#
# Indices 1 2 3 4 5 6 
#
# 1 106.4469 17.8525 29.4534 0.0000 11.2130 0.0000
# 2 17.8525 113.1691 -0.3936 0.0001 -3.9942 0.0001
# 3 29.4534 -0.3936 87.6026 0.0000 8.2268 0.0000
# 4 0.0000 0.0001 0.0000 35.0295 0.0000 -9.0575
# 5 11.2130 -3.9942 8.2268 0.0000 32.6380 0.0000
# 6 0.0000 0.0001 0.0000 -9.0575 0.0000 31.1294
#
#
#
# Elastic Compliance Matrix: (Units=1/GPa)
#
#
# Indices 1 2 3 4 5 6 
#
# 1 0.010978 -0.001854 -0.003404 0.000000 -0.003140 0.000000
# 2 -0.001854 0.009188 0.000511 0.000000 0.001633 0.000000
# 3 -0.003404 0.000511 0.012748 0.000000 -0.001981 0.000000
# 4 0.000000 0.000000 0.000000 0.030870 0.000000 0.008982
# 5 -0.003140 0.001633 -0.001981 0.000000 0.032417 0.000000
# 6 0.000000 0.000000 0.000000 0.008982 0.000000 0.034737
#
#
# Mechanical properties :
#
#
# Convention : Reuss Voigt Hill
#
# Bulk Modulus (GPa) = 42.69912 44.56034 43.62973
# Shear Modulus (GPa) = 33.72896 37.11313 35.42105
#
# Velocity S-wave (km/s) = 3.80196 3.98813 3.89616
# Velocity P-wave (km/s) = 6.12962 6.34852 6.24003
#
# Compressibility (1/GPa) = 0.02341968
#
# Stress axis : x y z
#
# Youngs Moduli (GPa) = 91.08978 108.83423 78.44269
#
# Poissons Ratio (x) = 0.20183 0.26705
# Poissons Ratio (y) = 0.16893 -0.04012
# Poissons Ratio (z) = 0.31011 -0.05567
#
# Static dielectric constant tensor:
#      x y z
#    x 4.885270 0.000000 0.316520 
#    y 0.000000 4.635270 0.000000 
#    z 0.316520 0.000000 3.940800 
# 
# 
# High freq. dielectric constant tensor:
#      x y z
#    x 1.934290 0.000000 0.014300 
#    y 0.000000 1.955380 0.000000 
#    z 0.014300 0.000000 1.908140 
# 
# From -- ./inp_files/271644.got.cif
#   From: 2010.06.25/outbox.cif.g09.slc.cpg/sg15_136_cif.got.tgz:271644.got - 2010.06.28 07:06:18.
