data_PCOD8154900
_publ_section_title
;
Structure prediction by ZEFSAII (Michael W. Deem and Ramdas Pophale) SiO2 
 PCOD8154900
Probable space group: C 2/C
;
_chemical_formula_sum "Si O2"
_cell_formula_units_Z 40
_cell_length_a 22.499833
_cell_length_b 6.274290
_cell_length_c 18.814701
_cell_angle_alpha 90.000000
_cell_angle_beta 140.838003
_cell_angle_gamma 90.000000
_cell_volume 1677.354988
_symmetry_space_group_name_H-M "C 2/C"
_symmetry_group_IT_number 15
_symmetry_cell_setting 'monoclinic'
loop_
_space_group_symop_operation_xyz
x,y,z
-x,y,1/2-z
-x,-y,-z
x,-y,1/2+z
1/2+x,1/2+y,z
1/2-x,1/2+y,1/2-z
1/2-x,1/2-y,-z
1/2+x,1/2-y,1/2+z
loop_
_atom_site_type_symbol
_atom_site_label
_atom_site_fract_x
_atom_site_fract_y
_atom_site_fract_z
Si Si1 0.072642 0.884784 0.618359
Si Si2 0.656768 0.702056 0.056877
Si Si3 0.910434 0.936968 0.626819
Si Si4 0.018702 0.534250 0.868098
Si Si5 0.859106 0.200558 0.698641
O O1 0.155852 0.814683 0.641456
O O2 0.033238 0.678823 0.621773
O O3 0.112125 0.050513 0.710510
O O4 0.000000 0.000000 0.500000
O O5 0.763317 0.681659 0.129793
O O6 0.599845 0.509857 0.964516
O O7 0.604688 0.917383 0.986026
O O8 0.927776 0.681920 0.641948
O O9 0.000000 0.043563 0.750000
O O10 0.832193 0.045778 0.605523
O O11 0.940657 0.377964 0.760805
#
# Coordination Sequence:
#
# PCOD8154900 Si02
#       5
#     8   8   8   8   8
#     4  12  24  47  70 110 146 194 253 296 366 448
#     4  12  28  46  75 109 151 191 250 307 367 442
#     4  12  24  50  71 106 145 193 250 300 365 451
#     4  12  25  46  78  96 152 196 243 304 381 421
#     4  12  29  46  75 113 145 196 249 307 370 440
#
# _framework density 23.847066999999999
#
# number of rings (size 3 to 8) (size 9 to 14) (size 15 to 20)
#    0.000    0.000    8.000    1.200    5.600    2.400 
#    0.000    0.000    0.000    0.000    0.000    0.000 
#    0.000    0.000    0.000    0.000    0.000    0.000 
#
# Total GULP energy -247792.401750 kJ/mol
# GULP energy per Si atom -12389.620088 kJ/mol
# Density = 2.379279 g / cm^3
# Si number density = 23.847067 Si / 1000 Ang^3
#
#
#
# Elastic Constant Matrix: (Units=GPa)
#
#
# Indices 1 2 3 4 5 6 
#
# 1 107.7069 60.1999 15.8752 0.0001 -9.4538 0.0002
# 2 60.1999 155.7280 44.1482 -0.0010 -5.5093 0.0006
# 3 15.8752 44.1482 59.5556 -0.0003 -8.3760 0.0000
# 4 0.0001 -0.0010 -0.0003 20.8823 -0.0002 -13.0616
# 5 -9.4538 -5.5093 -8.3760 -0.0002 42.7163 0.0001
# 6 0.0002 0.0006 0.0000 -13.0616 0.0001 39.5328
#
#
#
# Elastic Compliance Matrix: (Units=1/GPa)
#
#
# Indices 1 2 3 4 5 6 
#
# 1 0.012041 -0.004753 0.000620 0.000000 0.002173 0.000000
# 2 -0.004753 0.010007 -0.006291 0.000000 -0.000995 0.000000
# 3 0.000620 -0.006291 0.021796 0.000000 0.003600 0.000000
# 4 0.000000 0.000000 0.000000 0.060362 0.000000 0.019943
# 5 0.002173 -0.000995 0.003600 0.000000 0.024469 0.000000
# 6 0.000000 0.000000 0.000000 0.019943 0.000000 0.031885
#
#
# Mechanical properties :
#
#
# Convention : Reuss Voigt Hill
#
# Bulk Modulus (GPa) = 43.48970 62.60411 53.04691
# Shear Modulus (GPa) = 26.44481 34.14411 30.29446
#
# Velocity S-wave (km/s) = 3.33368 3.78801 3.56808
# Velocity P-wave (km/s) = 5.75277 6.74102 6.26641
#
# Compressibility (1/GPa) = 0.02299395
#
# Stress axis : x y z
#
# Youngs Moduli (GPa) = 83.05211 99.92712 45.88056
#
# Poissons Ratio (x) = 0.47499 -0.02843
# Poissons Ratio (y) = 0.39478 0.28864
# Poissons Ratio (z) = -0.05147 0.62866
#
# Static dielectric constant tensor:
#      x y z
#    x 4.717200 0.000000 0.087640 
#    y 0.000000 4.367570 0.000000 
#    z 0.087640 0.000000 4.180470 
# 
# 
# High freq. dielectric constant tensor:
#      x y z
#    x 1.961410 0.000000 -0.017070 
#    y 0.000000 1.954630 0.000000 
#    z -0.017070 0.000000 1.936470 
# 
# From -- ./inp_files/254522.got.cif
#   From: 2010.06.25/outbox.cif.g09.slc.cpg/sg15_128_cif.got.tgz:254522.got - 2010.06.28 07:06:18.
