data_PCOD8154957
_publ_section_title
;
Structure prediction by ZEFSAII (Michael W. Deem and Ramdas Pophale) SiO2 
 PCOD8154957
Probable space group: C 2/C
;
_chemical_formula_sum "Si O2"
_cell_formula_units_Z 60
_cell_length_a 19.042415
_cell_length_b 6.618747
_cell_length_c 24.828173
_cell_angle_alpha 90.000000
_cell_angle_beta 121.494944
_cell_angle_gamma 90.000000
_cell_volume 2668.282687
_symmetry_space_group_name_H-M "C 2/C"
_symmetry_group_IT_number 15
_symmetry_cell_setting 'monoclinic'
loop_
_space_group_symop_operation_xyz
x,y,z
-x,y,1/2-z
-x,-y,-z
x,-y,1/2+z
1/2+x,1/2+y,z
1/2-x,1/2+y,1/2-z
1/2-x,1/2-y,-z
1/2+x,1/2-y,1/2+z
loop_
_atom_site_type_symbol
_atom_site_label
_atom_site_fract_x
_atom_site_fract_y
_atom_site_fract_z
Si Si1 0.238668 0.823195 0.556117
Si Si2 0.579811 0.586868 0.699572
Si Si3 0.000000 0.665720 0.250000
Si Si4 0.081068 0.089409 0.507416
Si Si5 0.880721 0.366583 0.881859
Si Si6 0.622640 0.100862 0.847443
Si Si7 0.293226 0.506440 0.163417
Si Si8 0.507271 0.207459 0.621213
O O1 0.250000 0.750000 0.500000
O O2 0.258457 0.637642 0.603010
O O3 0.147301 0.908866 0.529916
O O4 0.298297 0.008392 0.592383
O O5 0.501401 0.690468 0.697509
O O6 0.596360 0.692268 0.649945
O O7 0.655112 0.613486 0.771319
O O8 0.565242 0.353628 0.679558
O O9 0.915268 0.532721 0.216565
O O10 0.109195 0.282310 0.553628
O O11 0.059405 0.166588 0.439461
O O12 0.000000 0.000000 0.500000
O O13 0.784412 0.407744 0.835343
O O14 0.936693 0.564314 0.894011
O O15 0.647061 0.323307 0.837816
O O16 0.546608 0.083955 0.858295
#
# Coordination Sequence:
#
# PCOD8154957 Si02
#       8
#     8   8   4   8   8   8   8   8
#     4  12  29  48  74 109 149 195 249 311 368 444
#     4  12  27  47  75 109 145 194 250 305 375 446
#     4  12  24  50  76 106 148 192 248 312 368 454
#     4  12  26  50  76 104 153 193 251 307 375 443
#     4  12  28  47  73 111 148 197 245 310 383 447
#     4  12  26  48  73 107 145 192 247 303 372 443
#     4  12  28  47  74 106 152 192 248 313 377 445
#     4  12  27  46  77 107 144 197 249 304 373 451
#
# _framework density 22.486371999999999
#
# number of rings (size 3 to 8) (size 9 to 14) (size 15 to 20)
#    0.000    0.000    5.333    3.600    7.467    1.067 
#    0.000    0.000    0.000    0.000    0.000    0.000 
#    0.000    0.000    0.000    0.000    0.000    0.000 
#
# Total GULP energy -372089.057352 kJ/mol
# GULP energy per Si atom -12402.968578 kJ/mol
# Density = 2.243519 g / cm^3
# Si number density = 22.486372 Si / 1000 Ang^3
#
#
#
# Elastic Constant Matrix: (Units=GPa)
#
#
# Indices 1 2 3 4 5 6 
#
# 1 116.7209 42.5473 25.0226 0.0000 7.9458 0.0000
# 2 42.5473 110.6546 36.0435 0.0001 5.7911 0.0002
# 3 25.0226 36.0435 105.2922 0.0000 7.3700 0.0001
# 4 0.0000 0.0001 0.0000 39.7425 0.0000 4.7945
# 5 7.9458 5.7911 7.3700 0.0000 36.9274 0.0000
# 6 0.0000 0.0002 0.0001 4.7945 0.0000 50.7914
#
#
#
# Elastic Compliance Matrix: (Units=1/GPa)
#
#
# Indices 1 2 3 4 5 6 
#
# 1 0.010171 -0.003468 -0.001131 0.000000 -0.001419 0.000000
# 2 -0.003468 0.011384 -0.003043 0.000000 -0.000432 0.000000
# 3 -0.001131 -0.003043 0.010910 0.000000 -0.001457 0.000000
# 4 0.000000 0.000000 0.000000 0.025452 0.000000 -0.002403
# 5 -0.001419 -0.000432 -0.001457 0.000000 0.027744 0.000000
# 6 0.000000 0.000000 0.000000 -0.002403 0.000000 0.019915
#
#
# Mechanical properties :
#
#
# Convention : Reuss Voigt Hill
#
# Bulk Modulus (GPa) = 58.20071 59.98827 59.09449
# Shear Modulus (GPa) = 39.49902 40.76254 40.13078
#
# Velocity S-wave (km/s) = 4.19570 4.26228 4.22912
# Velocity P-wave (km/s) = 7.02927 7.13850 7.08410
#
# Compressibility (1/GPa) = 0.01718192
#
# Stress axis : x y z
#
# Youngs Moduli (GPa) = 98.32241 87.84000 91.66262
#
# Poissons Ratio (x) = 0.30464 0.10362
# Poissons Ratio (y) = 0.34100 0.27890
# Poissons Ratio (z) = 0.11115 0.26727
#
# Static dielectric constant tensor:
#      x y z
#    x 4.135590 0.000000 -0.177220 
#    y 0.000000 3.581040 0.000020 
#    z -0.177220 0.000020 2.770090 
# 
# 
# High freq. dielectric constant tensor:
#      x y z
#    x 1.893040 0.000000 0.002040 
#    y 0.000000 1.899520 0.000000 
#    z 0.002040 0.000000 1.898370 
# 
# From -- ./inp_files/300128.got.cif
#   From: 2010.06.25/outbox.cif.g09.slc.cpg/sg15_151_cif.got.tgz:300128.got - 2010.06.28 07:06:18.
