data_PCOD8154248
_publ_section_title
;
Structure prediction by ZEFSAII (Michael W. Deem and Ramdas Pophale) SiO2 
 PCOD8154248
Probable space group: C 2/C
;
_chemical_formula_sum "Si O2"
_cell_formula_units_Z 36
_cell_length_a 7.977282
_cell_length_b 9.269629
_cell_length_c 19.751866
_cell_angle_alpha 90.000000
_cell_angle_beta 81.793061
_cell_angle_gamma 90.000000
_cell_volume 1445.622389
_symmetry_space_group_name_H-M "C 2/C"
_symmetry_group_IT_number 15
_symmetry_cell_setting 'monoclinic'
loop_
_space_group_symop_operation_xyz
x,y,z
-x,y,1/2-z
-x,-y,-z
x,-y,1/2+z
1/2+x,1/2+y,z
1/2-x,1/2+y,1/2-z
1/2-x,1/2-y,-z
1/2+x,1/2-y,1/2+z
loop_
_atom_site_type_symbol
_atom_site_label
_atom_site_fract_x
_atom_site_fract_y
_atom_site_fract_z
Si Si1 0.966773 0.068406 0.396873
Si Si2 0.000000 0.271905 0.750000
Si Si3 0.103873 0.565532 0.373642
Si Si4 0.556525 0.718722 0.526467
Si Si5 0.632106 0.783734 0.302987
O O1 0.799811 0.110417 0.364690
O O2 0.960575 0.154183 0.467806
O O3 0.118606 0.124518 0.339054
O O4 0.972505 0.896276 0.410112
O O5 0.987315 0.371321 0.685927
O O6 0.824714 0.181147 0.767219
O O7 0.085396 0.392860 0.367473
O O8 0.017773 0.626605 0.446811
O O9 0.750000 0.750000 0.500000
O O10 0.500000 0.802938 0.250000
#
# Coordination Sequence:
#
# PCOD8154248 Si02
#       5
#     8   4   8   8   8
#     4  11  25  47  77 107 149 199 247 310 374 444
#     4  12  26  46  74 110 154 198 246 306 366 450
#     4  12  25  46  75 110 148 198 248 305 376 443
#     4  11  26  49  75 110 149 198 250 312 376 443
#     4  12  27  50  75 111 153 199 248 307 372 444
#
# _framework density 24.902767999999998
#
# number of rings (size 3 to 8) (size 9 to 14) (size 15 to 20)
#    0.000    0.444    3.333    4.667    0.000   12.444 
#    6.000    0.000    0.000    1.333    0.000    0.000 
#    0.000    0.000    0.000    0.000    0.000    0.000 
#
# Total GULP energy -223130.374899 kJ/mol
# GULP energy per Si atom -12396.131939 kJ/mol
# Density = 2.484609 g / cm^3
# Si number density = 24.902768 Si / 1000 Ang^3
#
#
#
# Elastic Constant Matrix: (Units=GPa)
#
#
# Indices 1 2 3 4 5 6 
#
# 1 152.6249 50.0228 42.1947 0.0000 -0.3984 0.0000
# 2 50.0228 126.9249 36.7968 0.0000 -19.5591 0.0000
# 3 42.1947 36.7968 57.3621 0.0000 6.0146 0.0000
# 4 0.0000 0.0000 0.0000 53.8541 0.0000 -10.3061
# 5 -0.3984 -19.5591 6.0146 0.0000 52.7730 0.0000
# 6 0.0000 0.0000 0.0000 -10.3061 0.0000 25.5623
#
#
#
# Elastic Compliance Matrix: (Units=1/GPa)
#
#
# Indices 1 2 3 4 5 6 
#
# 1 0.008585 -0.001923 -0.005074 0.000000 -0.000070 0.000000
# 2 -0.001923 0.011206 -0.006283 0.000000 0.004855 0.000000
# 3 -0.005074 -0.006283 0.025752 0.000000 -0.005302 0.000000
# 4 0.000000 0.000000 0.000000 0.020121 0.000000 0.008112
# 5 -0.000070 0.004855 -0.005302 0.000000 0.021352 0.000000
# 6 0.000000 0.000000 0.000000 0.008112 0.000000 0.042391
#
#
# Mechanical properties :
#
#
# Convention : Reuss Voigt Hill
#
# Bulk Modulus (GPa) = 52.67953 66.10449 59.39201
# Shear Modulus (GPa) = 30.80812 40.29773 35.55293
#
# Velocity S-wave (km/s) = 3.52111 4.02705 3.78255
# Velocity P-wave (km/s) = 6.14255 6.94446 6.55578
#
# Compressibility (1/GPa) = 0.01898271
#
# Stress axis : x y z
#
# Youngs Moduli (GPa) = 116.48384 89.23575 38.83226
#
# Poissons Ratio (x) = 0.17162 0.19703
# Poissons Ratio (y) = 0.22402 0.24398
# Poissons Ratio (z) = 0.59103 0.56067
#
# Static dielectric constant tensor:
#      x y z
#    x 4.486120 0.000000 0.185910 
#    y 0.000000 4.591240 0.000000 
#    z 0.185910 0.000000 4.605340 
# 
# 
# High freq. dielectric constant tensor:
#      x y z
#    x 1.995160 0.000000 0.019630 
#    y 0.000000 1.985290 0.000000 
#    z 0.019630 0.000000 2.004240 
# 
# From -- ./inp_files/229343.got.cif
#   From: 2010.06.25/outbox.cif.g09.slc.cpg/sg15_115_cif.got.tgz:229343.got - 2010.06.28 07:06:18.
