data_PCOD8154811
_publ_section_title
;
Structure prediction by ZEFSAII (Michael W. Deem and Ramdas Pophale) SiO2 
 PCOD8154811
Probable space group: C 2/C
;
_chemical_formula_sum "Si O2"
_cell_formula_units_Z 44
_cell_length_a 16.413764
_cell_length_b 15.525456
_cell_length_c 20.828677
_cell_angle_alpha 90.000000
_cell_angle_beta 21.509108
_cell_angle_gamma 90.000000
_cell_volume 1946.098815
_symmetry_space_group_name_H-M "C 2/C"
_symmetry_group_IT_number 15
_symmetry_cell_setting 'monoclinic'
loop_
_space_group_symop_operation_xyz
x,y,z
-x,y,1/2-z
-x,-y,-z
x,-y,1/2+z
1/2+x,1/2+y,z
1/2-x,1/2+y,1/2-z
1/2-x,1/2-y,-z
1/2+x,1/2-y,1/2+z
loop_
_atom_site_type_symbol
_atom_site_label
_atom_site_fract_x
_atom_site_fract_y
_atom_site_fract_z
Si Si1 0.402883 0.668708 0.890295
Si Si2 0.275266 0.657607 0.290302
Si Si3 0.500000 0.604409 0.250000
Si Si4 0.270111 0.501545 0.204408
Si Si5 0.686171 0.181769 0.821990
Si Si6 0.624667 0.992588 0.596201
O O1 0.500000 0.642653 0.750000
O O2 0.591990 0.694443 0.801092
O O3 0.250000 0.750000 0.000000
O O4 0.260516 0.589610 0.022422
O O5 0.384577 0.663312 0.280619
O O6 0.313345 0.561537 0.234578
O O7 0.376381 0.734262 0.173887
O O8 0.012980 0.672400 0.482357
O O9 0.301877 0.552447 0.429940
O O10 0.201215 0.404028 0.269106
O O11 0.067099 0.539789 0.311819
O O12 0.500000 0.500000 0.000000
O O13 0.500000 0.035468 0.750000
#
# Coordination Sequence:
#
# PCOD8154811 Si02
#       6
#     8   8   4   8   8   8
#     4  12  24  41  69 106 149 189 239 305 372 440
#     4  12  27  47  74 106 147 193 251 302 371 442
#     4  12  26  50  74 106 144 198 250 306 366 434
#     4  12  25  47  74 108 147 196 242 302 374 439
#     4  12  25  46  70 106 146 193 240 304 369 438
#     4  12  25  45  74 110 146 191 247 302 370 444
#
# _framework density 22.609335999999999
#
# number of rings (size 3 to 8) (size 9 to 14) (size 15 to 20)
#    0.000    0.000    2.727    8.727    0.000    0.727 
#    1.636    0.000    0.000    0.000    0.000    0.000 
#    0.000    0.000    0.000    0.000    0.000    0.000 
#
# Total GULP energy -272846.040870 kJ/mol
# GULP energy per Si atom -12402.092767 kJ/mol
# Density = 2.255788 g / cm^3
# Si number density = 22.609336 Si / 1000 Ang^3
#
#
#
# Elastic Constant Matrix: (Units=GPa)
#
#
# Indices 1 2 3 4 5 6 
#
# 1 137.9189 34.5303 40.2262 0.0184 -13.8812 -0.0281
# 2 34.5303 103.5256 33.5367 -0.0274 -0.0625 -0.0408
# 3 40.2262 33.5367 151.3640 0.0094 7.5479 -0.0794
# 4 0.0184 -0.0274 0.0094 32.0810 0.0236 7.7951
# 5 -13.8812 -0.0625 7.5479 0.0236 48.7151 0.0267
# 6 -0.0281 -0.0408 -0.0794 7.7951 0.0267 27.3887
#
#
#
# Elastic Compliance Matrix: (Units=1/GPa)
#
#
# Indices 1 2 3 4 5 6 
#
# 1 0.008660 -0.002259 -0.001939 -0.000008 0.002765 0.000000
# 2 -0.002259 0.011002 -0.001820 0.000010 -0.000348 0.000006
# 3 -0.001939 -0.001820 0.007612 -0.000006 -0.001734 0.000021
# 4 -0.000008 0.000010 -0.000006 0.033487 -0.000012 -0.009531
# 5 0.002765 -0.000348 -0.001734 -0.000012 0.021584 -0.000020
# 6 0.000000 0.000006 0.000021 -0.009531 -0.000020 0.039224
#
#
# Mechanical properties :
#
#
# Convention : Reuss Voigt Hill
#
# Bulk Modulus (GPa) = 65.62357 67.71053 66.66705
# Shear Modulus (GPa) = 36.05336 40.60465 38.32900
#
# Velocity S-wave (km/s) = 3.99760 4.24243 4.12184
# Velocity P-wave (km/s) = 7.09900 7.34920 7.22518
#
# Compressibility (1/GPa) = 0.01523843
#
# Stress axis : x y z
#
# Youngs Moduli (GPa) = 115.47400 90.89067 131.37809
#
# Poissons Ratio (x) = 0.20530 0.25473
# Poissons Ratio (y) = 0.26082 0.23912
# Poissons Ratio (z) = 0.22389 0.16543
#
# Static dielectric constant tensor:
#      x y z
#    x 4.217300 0.001060 -0.030210 
#    y 0.001060 3.554260 0.001180 
#    z -0.030210 0.001180 4.284990 
# 
# 
# High freq. dielectric constant tensor:
#      x y z
#    x 1.899690 0.000000 -0.004620 
#    y 0.000000 1.883930 0.000050 
#    z -0.004620 0.000050 1.919770 
# 
# From -- ./inp_files/277613.got.cif
#   From: 2010.06.25/outbox.cif.g09.slc.cpg/sg15_139_cif.got.tgz:277613.got - 2010.06.28 07:06:18.
