data_PCOD8154614
_publ_section_title
;
Structure prediction by ZEFSAII (Michael W. Deem and Ramdas Pophale) SiO2 
 PCOD8154614
Probable space group: C 2/C
;
_chemical_formula_sum "Si O2"
_cell_formula_units_Z 40
_cell_length_a 10.438981
_cell_length_b 20.484116
_cell_length_c 16.545803
_cell_angle_alpha 90.000000
_cell_angle_beta 32.534354
_cell_angle_gamma 90.000000
_cell_volume 1902.778260
_symmetry_space_group_name_H-M "C 2/C"
_symmetry_group_IT_number 15
_symmetry_cell_setting 'monoclinic'
loop_
_space_group_symop_operation_xyz
x,y,z
-x,y,1/2-z
-x,-y,-z
x,-y,1/2+z
1/2+x,1/2+y,z
1/2-x,1/2+y,1/2-z
1/2-x,1/2-y,-z
1/2+x,1/2-y,1/2+z
loop_
_atom_site_type_symbol
_atom_site_label
_atom_site_fract_x
_atom_site_fract_y
_atom_site_fract_z
Si Si1 0.014244 0.374923 0.009131
Si Si2 0.500000 0.006562 0.750000
Si Si3 0.500000 0.453465 0.750000
Si Si4 0.718158 0.615038 0.824975
Si Si5 0.208646 0.939280 0.035326
Si Si6 0.246670 0.248241 0.906265
O O1 0.928532 0.381676 0.147080
O O2 0.811362 0.403094 0.059250
O O3 0.263134 0.411532 0.861172
O O4 0.048754 0.297518 0.974920
O O5 0.271670 0.051078 0.849797
O O6 0.571235 0.960819 0.637258
O O7 0.452732 0.499127 0.852902
O O8 0.457913 0.611145 0.924082
O O9 0.714132 0.676726 0.886545
O O10 0.500000 0.278516 0.750000
O O11 0.250000 0.250000 0.000000
#
# Coordination Sequence:
#
# PCOD8154614 Si02
#       6
#     8   4   4   8   8   8
#     4  12  24  44  71 101 133 180 228 278 331 403
#     4  12  24  43  68 105 140 176 222 272 336 412
#     4  12  22  41  74  97 138 180 222 266 330 416
#     4  12  24  46  70  98 140 177 224 283 333 396
#     4  12  26  43  69 105 140 174 220 278 349 398
#     4  12  25  44  70  97 128 180 233 276 328 397
#
# _framework density 21.021892999999999
#
# number of rings (size 3 to 8) (size 9 to 14) (size 15 to 20)
#    0.000    0.000    8.000    2.400    0.000    2.400 
#    0.000    0.000    0.000    0.000    0.000    0.000 
#    0.000    0.000    0.000    0.000    0.000    0.000 
#
# Total GULP energy -248023.682971 kJ/mol
# GULP energy per Si atom -12401.184149 kJ/mol
# Density = 2.097405 g / cm^3
# Si number density = 21.021893 Si / 1000 Ang^3
#
#
#
# Elastic Constant Matrix: (Units=GPa)
#
#
# Indices 1 2 3 4 5 6 
#
# 1 126.8317 53.6521 42.8995 -0.0064 -2.7607 0.0146
# 2 53.6521 107.4213 51.0142 -0.0226 4.3698 0.0166
# 3 42.8995 51.0142 105.8696 0.1001 14.7479 -0.0392
# 4 -0.0064 -0.0226 0.1001 33.6289 -0.0361 9.3749
# 5 -2.7607 4.3698 14.7479 -0.0361 43.3819 0.0063
# 6 0.0146 0.0166 -0.0392 9.3749 0.0063 29.0175
#
#
#
# Elastic Compliance Matrix: (Units=1/GPa)
#
#
# Indices 1 2 3 4 5 6 
#
# 1 0.010537 -0.004131 -0.002552 0.000012 0.001954 -0.000011
# 2 -0.004131 0.013717 -0.004941 0.000029 0.000035 -0.000022
# 3 -0.002552 -0.004941 0.013451 -0.000060 -0.004237 0.000043
# 4 0.000012 0.000029 -0.000060 0.032680 0.000047 -0.010558
# 5 0.001954 0.000035 -0.004237 0.000047 0.024612 -0.000027
# 6 -0.000011 -0.000022 0.000043 -0.010558 -0.000027 0.037873
#
#
# Mechanical properties :
#
#
# Convention : Reuss Voigt Hill
#
# Bulk Modulus (GPa) = 69.16189 70.58381 69.87285
# Shear Modulus (GPa) = 31.06800 34.04277 32.55539
#
# Velocity S-wave (km/s) = 3.84850 4.02854 3.93955
# Velocity P-wave (km/s) = 7.26081 7.43559 7.34872
#
# Compressibility (1/GPa) = 0.01445883
#
# Stress axis : x y z
#
# Youngs Moduli (GPa) = 94.89970 72.90100 74.34529
#
# Poissons Ratio (x) = 0.30113 0.18971
# Poissons Ratio (y) = 0.39200 0.36733
# Poissons Ratio (z) = 0.24216 0.36020
#
# Static dielectric constant tensor:
#      x y z
#    x 3.715370 -0.000020 0.055070 
#    y -0.000020 3.932630 -0.000010 
#    z 0.055070 -0.000010 3.950540 
# 
# 
# High freq. dielectric constant tensor:
#      x y z
#    x 1.821340 0.000000 0.007680 
#    y 0.000000 1.823590 0.000000 
#    z 0.007680 0.000000 1.837400 
# 
# From -- ./inp_files/29377.got.cif
#   From: 2010.06.25/outbox.cif.g09.slc.cpg/sg15_15_cif.got.tgz:29377.got - 2010.06.28 07:06:18.
