data_PCOD8154779
_publ_section_title
;
Structure prediction by ZEFSAII (Michael W. Deem and Ramdas Pophale) SiO2 
 PCOD8154779
Probable space group: C 2/C
;
_chemical_formula_sum "Si O2"
_cell_formula_units_Z 44
_cell_length_a 8.513420
_cell_length_b 29.957480
_cell_length_c 9.289787
_cell_angle_alpha 90.000000
_cell_angle_beta 52.573544
_cell_angle_gamma 90.000000
_cell_volume 1881.520393
_symmetry_space_group_name_H-M "C 2/C"
_symmetry_group_IT_number 15
_symmetry_cell_setting 'monoclinic'
loop_
_space_group_symop_operation_xyz
x,y,z
-x,y,1/2-z
-x,-y,-z
x,-y,1/2+z
1/2+x,1/2+y,z
1/2-x,1/2+y,1/2-z
1/2-x,1/2-y,-z
1/2+x,1/2-y,1/2+z
loop_
_atom_site_type_symbol
_atom_site_label
_atom_site_fract_x
_atom_site_fract_y
_atom_site_fract_z
Si Si1 0.454514 0.360404 0.019110
Si Si2 0.429323 0.042937 0.454158
Si Si3 0.103596 0.623365 0.538237
Si Si4 0.790569 0.275012 0.332312
Si Si5 0.168220 0.311822 0.770835
Si Si6 0.500000 0.426144 0.250000
O O1 0.339548 0.378663 0.941651
O O2 0.360098 0.313837 0.126251
O O3 0.427752 0.395940 0.159249
O O4 0.683952 0.351655 0.858105
O O5 0.500000 0.040211 0.250000
O O6 0.532510 0.085053 0.470997
O O7 0.189324 0.044518 0.596061
O O8 0.500000 0.000000 0.500000
O O9 0.067080 0.670897 0.476113
O O10 0.000000 0.620003 0.750000
O O11 0.750000 0.250000 0.500000
O O12 0.784894 0.235358 0.216566
O O13 0.000000 0.298085 0.250000
O O14 0.000000 0.304592 0.750000
#
# Coordination Sequence:
#
# PCOD8154779 Si02
#       6
#     8   8   8   8   8   4
#     4  12  26  45  75 105 153 200 259 314 378 446
#     4  12  29  55  83 118 158 193 248 316 385 470
#     4  12  23  46  77 107 145 200 249 311 384 452
#     4  12  24  43  65 102 143 199 259 311 366 436
#     4  12  27  44  69 106 153 203 262 321 378 440
#     4  12  28  50  80 122 150 202 256 312 386 466
#
# _framework density 23.385342000000001
#
# number of rings (size 3 to 8) (size 9 to 14) (size 15 to 20)
#    0.000    0.000    5.455    4.364    1.273    1.455 
#    3.273    0.000    0.000    0.000    0.000    0.000 
#    0.000    0.000    0.000    0.000    0.000    0.000 
#
# Total GULP energy -272696.532699 kJ/mol
# GULP energy per Si atom -12395.296941 kJ/mol
# Density = 2.333212 g / cm^3
# Si number density = 23.385342 Si / 1000 Ang^3
#
#
#
# Elastic Constant Matrix: (Units=GPa)
#
#
# Indices 1 2 3 4 5 6 
#
# 1 167.7470 55.3597 55.1044 0.0000 4.6813 0.0000
# 2 55.3597 123.6723 41.7059 0.0000 4.9126 0.0000
# 3 55.1044 41.7059 129.7205 0.0000 3.2270 0.0000
# 4 0.0000 0.0000 0.0000 27.8992 0.0000 2.0277
# 5 4.6813 4.9126 3.2270 0.0000 46.6830 0.0000
# 6 0.0000 0.0000 0.0000 2.0277 0.0000 50.4136
#
#
#
# Elastic Compliance Matrix: (Units=1/GPa)
#
#
# Indices 1 2 3 4 5 6 
#
# 1 0.007610 -0.002587 -0.002393 0.000000 -0.000326 0.000000
# 2 -0.002587 0.009975 -0.002092 0.000000 -0.000646 0.000000
# 3 -0.002393 -0.002092 0.009403 0.000000 -0.000190 0.000000
# 4 0.000000 0.000000 0.000000 0.035948 0.000000 -0.001446
# 5 -0.000326 -0.000646 -0.000190 0.000000 0.021535 0.000000
# 6 0.000000 0.000000 0.000000 -0.001446 0.000000 0.019894
#
#
# Mechanical properties :
#
#
# Convention : Reuss Voigt Hill
#
# Bulk Modulus (GPa) = 77.85583 80.60887 79.23235
# Shear Modulus (GPa) = 40.71984 42.93048 41.82516
#
# Velocity S-wave (km/s) = 4.17736 4.28926 4.23368
# Velocity P-wave (km/s) = 7.52542 7.68602 7.60615
#
# Compressibility (1/GPa) = 0.01284425
#
# Stress axis : x y z
#
# Youngs Moduli (GPa) = 131.40277 100.25140 106.35141
#
# Poissons Ratio (x) = 0.25931 0.25450
# Poissons Ratio (y) = 0.33989 0.22250
# Poissons Ratio (z) = 0.31445 0.20974
#
# Static dielectric constant tensor:
#      x y z
#    x 5.236990 0.000000 -0.198510 
#    y 0.000000 4.187040 0.000000 
#    z -0.198510 0.000000 4.275900 
# 
# 
# High freq. dielectric constant tensor:
#      x y z
#    x 1.941740 0.000000 0.000410 
#    y 0.000000 1.918190 0.000000 
#    z 0.000410 0.000000 1.937740 
# 
# From -- ./inp_files/26012.got.cif
#   From: 2010.06.25/outbox.cif.g09.slc.cpg/sg15_14_cif.got.tgz:26012.got - 2010.06.28 07:06:18.
