data_PCOD8154044
_publ_section_title
;
Structure prediction by ZEFSAII (Michael W. Deem and Ramdas Pophale) SiO2 
 PCOD8154044
Probable space group: C 2/C
;
_chemical_formula_sum "Si O2"
_cell_formula_units_Z 44
_cell_length_a 13.221891
_cell_length_b 19.230047
_cell_length_c 8.732416
_cell_angle_alpha 90.000000
_cell_angle_beta 66.556860
_cell_angle_gamma 90.000000
_cell_volume 2037.010498
_symmetry_space_group_name_H-M "C 2/C"
_symmetry_group_IT_number 15
_symmetry_cell_setting 'monoclinic'
loop_
_space_group_symop_operation_xyz
x,y,z
-x,y,1/2-z
-x,-y,-z
x,-y,1/2+z
1/2+x,1/2+y,z
1/2-x,1/2+y,1/2-z
1/2-x,1/2-y,-z
1/2+x,1/2-y,1/2+z
loop_
_atom_site_type_symbol
_atom_site_label
_atom_site_fract_x
_atom_site_fract_y
_atom_site_fract_z
Si Si1 0.500000 0.202209 0.750000
Si Si2 0.565425 0.699089 0.483542
Si Si3 0.246468 0.858369 0.694515
Si Si4 0.701556 0.884958 0.154679
Si Si5 0.335957 0.286990 0.258566
Si Si6 0.584497 0.976288 0.821222
O O1 0.452272 0.244091 0.636291
O O2 0.402279 0.152641 0.863150
O O3 0.633643 0.635656 0.363183
O O4 0.645036 0.728413 0.572207
O O5 0.447854 0.678888 0.622532
O O6 0.211436 0.874996 0.538638
O O7 0.297832 0.781550 0.691266
O O8 0.336584 0.914249 0.683974
O O9 0.746061 0.847734 0.282003
O O10 0.665992 0.962876 0.214660
O O11 0.500000 0.946056 0.750000
O O12 0.500000 0.000000 0.000000
#
# Coordination Sequence:
#
# PCOD8154044 Si02
#       6
#     4   8   8   8   8   8
#     4  12  20  40  68  98 138 172 226 276 340 400
#     4  11  25  40  66 104 135 178 228 288 339 402
#     4  12  24  42  67 100 136 181 226 283 341 409
#     4  12  24  44  68 101 140 184 224 281 345 412
#     4  11  25  43  68 104 137 179 233 287 343 406
#     4  12  27  44  68 103 140 181 226 283 348 409
#
# _framework density 21.600282
#
# number of rings (size 3 to 8) (size 9 to 14) (size 15 to 20)
#    0.000    0.364    6.364    2.182    5.091    0.000 
#    0.000    0.909    0.000    2.182    0.000    0.000 
#    0.000    0.000    0.000    0.000    0.000    0.000 
#
# Total GULP energy -272561.789329 kJ/mol
# GULP energy per Si atom -12389.172242 kJ/mol
# Density = 2.155112 g / cm^3
# Si number density = 21.600282 Si / 1000 Ang^3
#
#
#
# Elastic Constant Matrix: (Units=GPa)
#
#
# Indices 1 2 3 4 5 6 
#
# 1 96.5647 35.5279 19.3617 0.0000 10.9212 0.0000
# 2 35.5279 91.3174 17.8797 0.0000 -0.4688 0.0000
# 3 19.3617 17.8797 99.8793 0.0000 6.6838 0.0000
# 4 0.0000 0.0000 0.0000 27.5050 0.0000 -5.5945
# 5 10.9212 -0.4688 6.6838 0.0000 44.2588 0.0000
# 6 0.0000 0.0000 0.0000 -5.5945 0.0000 45.4117
#
#
#
# Elastic Compliance Matrix: (Units=1/GPa)
#
#
# Indices 1 2 3 4 5 6 
#
# 1 0.012698 -0.004676 -0.001426 0.000000 -0.002967 0.000000
# 2 -0.004676 0.013079 -0.001537 0.000000 0.001525 0.000000
# 3 -0.001426 -0.001537 0.010649 0.000000 -0.001273 0.000000
# 4 0.000000 0.000000 0.000000 0.037291 0.000000 0.004594
# 5 -0.002967 0.001525 -0.001273 0.000000 0.023535 0.000000
# 6 0.000000 0.000000 0.000000 0.004594 0.000000 0.022587
#
#
# Mechanical properties :
#
#
# Convention : Reuss Voigt Hill
#
# Bulk Modulus (GPa) = 47.28652 48.14444 47.71548
# Shear Modulus (GPa) = 35.17032 37.76792 36.46912
#
# Velocity S-wave (km/s) = 4.03952 4.18603 4.11343
# Velocity P-wave (km/s) = 6.61030 6.76025 6.68570
#
# Compressibility (1/GPa) = 0.02114768
#
# Stress axis : x y z
#
# Youngs Moduli (GPa) = 78.75436 76.45915 93.90772
#
# Poissons Ratio (x) = 0.35754 0.13389
# Poissons Ratio (y) = 0.36827 0.14432
# Poissons Ratio (z) = 0.11229 0.11750
#
# Static dielectric constant tensor:
#      x y z
#    x 4.256850 0.000000 -0.080360 
#    y 0.000000 3.787330 0.000000 
#    z -0.080360 0.000000 4.788070 
# 
# 
# High freq. dielectric constant tensor:
#      x y z
#    x 1.864310 0.000000 0.002950 
#    y 0.000000 1.811480 0.000000 
#    z 0.002950 0.000000 1.872270 
# 
# From -- ./inp_files/39051.got.cif
#   From: 2010.06.25/outbox.cif.g09.slc.cpg/sg15_20_cif.got.tgz:39051.got - 2010.06.28 07:06:18.
