data_PCOD8154146
_publ_section_title
;
Structure prediction by ZEFSAII (Michael W. Deem and Ramdas Pophale) SiO2 
 PCOD8154146
Probable space group: C 2/C
;
_chemical_formula_sum "Si O2"
_cell_formula_units_Z 44
_cell_length_a 14.471473
_cell_length_b 6.768054
_cell_length_c 23.082384
_cell_angle_alpha 90.000000
_cell_angle_beta 57.920090
_cell_angle_gamma 90.000000
_cell_volume 1915.572631
_symmetry_space_group_name_H-M "C 2/C"
_symmetry_group_IT_number 15
_symmetry_cell_setting 'monoclinic'
loop_
_space_group_symop_operation_xyz
x,y,z
-x,y,1/2-z
-x,-y,-z
x,-y,1/2+z
1/2+x,1/2+y,z
1/2-x,1/2+y,1/2-z
1/2-x,1/2-y,-z
1/2+x,1/2-y,1/2+z
loop_
_atom_site_type_symbol
_atom_site_label
_atom_site_fract_x
_atom_site_fract_y
_atom_site_fract_z
Si Si1 0.500000 0.016080 0.750000
Si Si2 0.834372 0.076142 0.077766
Si Si3 0.549702 0.536067 0.574307
Si Si4 0.395021 0.785999 0.693105
Si Si5 0.345625 0.259594 0.871742
Si Si6 0.252167 0.566428 0.820920
O O1 0.406624 0.885153 0.752166
O O2 0.451987 0.137945 0.819306
O O3 0.770038 0.256594 0.127049
O O4 0.935056 0.036961 0.086687
O O5 0.761388 0.879693 0.091783
O O6 0.878988 0.139742 0.999599
O O7 0.511878 0.695493 0.634961
O O8 0.624109 0.361450 0.576905
O O9 0.301884 0.624768 0.740991
O O10 0.356447 0.940023 0.656987
O O11 0.335554 0.425146 0.826029
#
# Coordination Sequence:
#
# PCOD8154146 Si02
#       6
#     4   8   8   8   8   8
#     4  12  24  42  70 100 138 174 240 282 352 418
#     4  11  25  49  67 104 139 186 232 291 356 428
#     4  11  25  45  72 100 144 181 235 288 358 426
#     4  12  23  43  69 105 133 189 231 294 354 422
#     4  12  24  47  69 104 137 187 233 297 350 429
#     4  12  24  44  73  97 143 179 236 288 356 415
#
# _framework density 22.969633000000002
#
# number of rings (size 3 to 8) (size 9 to 14) (size 15 to 20)
#    0.000    0.364    3.636    6.000    0.000    1.455 
#    3.273    0.000    0.000    0.000    0.000    0.000 
#    0.000    0.000    0.000    0.000    0.000    0.000 
#
# Total GULP energy -272741.856948 kJ/mol
# GULP energy per Si atom -12397.357134 kJ/mol
# Density = 2.291735 g / cm^3
# Si number density = 22.969633 Si / 1000 Ang^3
#
#
#
# Elastic Constant Matrix: (Units=GPa)
#
#
# Indices 1 2 3 4 5 6 
#
# 1 115.3916 46.1107 22.9116 -0.0001 15.2471 0.0001
# 2 46.1107 109.3917 52.6894 -0.0004 -0.0289 0.0003
# 3 22.9116 52.6894 138.1095 0.0001 -6.8708 0.0002
# 4 -0.0001 -0.0004 0.0001 25.6640 -0.0004 2.2536
# 5 15.2471 -0.0289 -6.8708 -0.0004 19.4532 -0.0006
# 6 0.0001 0.0003 0.0002 2.2536 -0.0006 38.0506
#
#
#
# Elastic Compliance Matrix: (Units=1/GPa)
#
#
# Indices 1 2 3 4 5 6 
#
# 1 0.011955 -0.004724 -0.000659 0.000000 -0.009610 0.000000
# 2 -0.004724 0.013111 -0.004105 0.000000 0.002272 0.000000
# 3 -0.000659 -0.004105 0.009101 0.000000 0.003725 0.000000
# 4 0.000000 0.000000 0.000000 0.039169 0.000001 -0.002320
# 5 -0.009610 0.002272 0.003725 0.000001 0.060256 0.000001
# 6 0.000000 0.000000 0.000000 -0.002320 0.000001 0.026418
#
#
# Mechanical properties :
#
#
# Convention : Reuss Voigt Hill
#
# Bulk Modulus (GPa) = 65.83204 67.36847 66.60026
# Shear Modulus (GPa) = 27.16661 32.71230 29.93946
#
# Velocity S-wave (km/s) = 3.44280 3.77789 3.61423
# Velocity P-wave (km/s) = 6.67282 6.95866 6.81724
#
# Compressibility (1/GPa) = 0.01519017
#
# Stress axis : x y z
#
# Youngs Moduli (GPa) = 83.65028 76.27416 109.87405
#
# Poissons Ratio (x) = 0.36033 0.07240
# Poissons Ratio (y) = 0.39518 0.45103
# Poissons Ratio (z) = 0.05512 0.31310
#
# Static dielectric constant tensor:
#      x y z
#    x 4.068260 0.000000 0.059050 
#    y 0.000000 4.274150 0.000000 
#    z 0.059050 0.000000 4.095580 
# 
# 
# High freq. dielectric constant tensor:
#      x y z
#    x 1.917410 0.000000 0.004590 
#    y 0.000000 1.906940 0.000000 
#    z 0.004590 0.000000 1.910040 
# 
# From -- ./inp_files/275807.got.cif
#   From: 2010.06.25/outbox.cif.g09.slc.cpg/sg15_138_cif.got.tgz:275807.got - 2010.06.28 07:06:18.
