data_PCOD8154695
_publ_section_title
;
Structure prediction by ZEFSAII (Michael W. Deem and Ramdas Pophale) SiO2 
 PCOD8154695
Probable space group: C 2/C
;
_chemical_formula_sum "Si O2"
_cell_formula_units_Z 48
_cell_length_a 14.430680
_cell_length_b 12.638942
_cell_length_c 14.616971
_cell_angle_alpha 90.000000
_cell_angle_beta 123.929242
_cell_angle_gamma 90.000000
_cell_volume 2212.026869
_symmetry_space_group_name_H-M "C 2/C"
_symmetry_group_IT_number 15
_symmetry_cell_setting 'monoclinic'
loop_
_space_group_symop_operation_xyz
x,y,z
-x,y,1/2-z
-x,-y,-z
x,-y,1/2+z
1/2+x,1/2+y,z
1/2-x,1/2+y,1/2-z
1/2-x,1/2-y,-z
1/2+x,1/2-y,1/2+z
loop_
_atom_site_type_symbol
_atom_site_label
_atom_site_fract_x
_atom_site_fract_y
_atom_site_fract_z
Si Si1 0.170373 0.251000 0.041428
Si Si2 0.657887 0.252034 0.214499
Si Si3 0.403532 0.477974 0.020033
Si Si4 0.492684 0.930195 0.906673
Si Si5 0.741750 0.831530 0.411264
Si Si6 0.500000 0.912146 0.250000
Si Si7 0.000000 0.103707 0.750000
O O1 0.229171 0.276566 0.169076
O O2 0.250000 0.250000 0.000000
O O3 0.126545 0.135604 0.033234
O O4 0.075648 0.333665 0.966085
O O5 0.623794 0.127178 0.186689
O O6 0.677203 0.288622 0.122463
O O7 0.566537 0.319949 0.218198
O O8 0.434521 0.474063 0.145290
O O9 0.500000 0.500000 0.000000
O O10 0.296112 0.554804 0.962933
O O11 0.526094 0.012749 0.848768
O O12 0.500000 0.000000 0.000000
O O13 0.750000 0.750000 0.500000
O O14 0.612653 0.841002 0.305378
#
# Coordination Sequence:
#
# PCOD8154695 Si02
#       7
#     8   8   8   8   8   4   4
#     4  12  23  40  71 102 143 186 243 302 367 449
#     4  12  24  45  74 106 141 195 250 304 376 458
#     4  12  25  46  75 111 147 194 253 320 381 458
#     4  12  24  44  70 105 141 187 239 308 372 440
#     4  12  28  50  72 108 155 199 248 317 390 460
#     4  12  27  47  70 104 150 192 245 303 384 460
#     4  12  23  45  78 104 144 188 259 311 374 456
#
# _framework density 21.699555
#
# number of rings (size 3 to 8) (size 9 to 14) (size 15 to 20)
#    0.000    0.000    5.000    5.500    0.000    3.333 
#    3.000    0.000    0.000    0.000    0.000    0.000 
#    0.000    0.000    0.000    0.000    0.000    0.000 
#
# Total GULP energy -297349.545818 kJ/mol
# GULP energy per Si atom -12389.564409 kJ/mol
# Density = 2.165017 g / cm^3
# Si number density = 21.699555 Si / 1000 Ang^3
#
#
#
# Elastic Constant Matrix: (Units=GPa)
#
#
# Indices 1 2 3 4 5 6 
#
# 1 124.8578 55.1927 37.1632 0.0000 -14.9452 0.0000
# 2 55.1927 109.8811 28.5984 0.0000 -2.6306 0.0000
# 3 37.1632 28.5984 113.3758 0.0000 -13.8950 0.0000
# 4 0.0000 0.0000 0.0000 46.7596 0.0000 -0.1391
# 5 -14.9452 -2.6306 -13.8950 0.0000 50.5955 0.0000
# 6 0.0000 0.0000 0.0000 -0.1391 0.0000 40.0327
#
#
#
# Elastic Compliance Matrix: (Units=1/GPa)
#
#
# Indices 1 2 3 4 5 6 
#
# 1 0.011130 -0.004988 -0.002089 0.000000 0.002454 0.000000
# 2 -0.004988 0.011977 -0.001542 0.000000 -0.001274 0.000000
# 3 -0.002089 -0.001542 0.010150 0.000000 0.002090 0.000000
# 4 0.000000 0.000000 0.000000 0.021386 0.000000 0.000074
# 5 0.002454 -0.001274 0.002090 0.000000 0.020997 0.000000
# 6 0.000000 0.000000 0.000000 0.000074 0.000000 0.024980
#
#
# Mechanical properties :
#
#
# Convention : Reuss Voigt Hill
#
# Bulk Modulus (GPa) = 62.42918 65.55815 63.99366
# Shear Modulus (GPa) = 40.58494 42.62157 41.60325
#
# Velocity S-wave (km/s) = 4.32940 4.43670 4.38338
# Velocity P-wave (km/s) = 7.33648 7.51818 7.42789
#
# Compressibility (1/GPa) = 0.01601815
#
# Stress axis : x y z
#
# Youngs Moduli (GPa) = 89.85070 83.49317 98.51968
#
# Poissons Ratio (x) = 0.41645 0.20582
# Poissons Ratio (y) = 0.44816 0.15195
# Poissons Ratio (z) = 0.18771 0.12878
#
# Static dielectric constant tensor:
#      x y z
#    x 4.070200 0.000000 0.049370 
#    y 0.000000 4.090690 0.000000 
#    z 0.049370 0.000000 4.418540 
# 
# 
# High freq. dielectric constant tensor:
#      x y z
#    x 1.857970 0.000000 -0.004280 
#    y 0.000000 1.861510 0.000000 
#    z -0.004280 0.000000 1.876100 
# 
# From -- ./inp_files/152494.got.cif
#   From: 2010.06.25/outbox.cif.g09.slc.cpg/sg15_77_cif.got.tgz:152494.got - 2010.06.28 07:06:18.
