data_PCOD8154571
_publ_section_title
;
Structure prediction by ZEFSAII (Michael W. Deem and Ramdas Pophale) SiO2 
 PCOD8154571
Probable space group: C 2/C
;
_chemical_formula_sum "Si O2"
_cell_formula_units_Z 60
_cell_length_a 16.898230
_cell_length_b 23.912001
_cell_length_c 16.646001
_cell_angle_alpha 90.000000
_cell_angle_beta 27.139084
_cell_angle_gamma 90.000000
_cell_volume 3068.150714
_symmetry_space_group_name_H-M "C 2/C"
_symmetry_group_IT_number 15
_symmetry_cell_setting 'monoclinic'
loop_
_space_group_symop_operation_xyz
x,y,z
-x,y,1/2-z
-x,-y,-z
x,-y,1/2+z
1/2+x,1/2+y,z
1/2-x,1/2+y,1/2-z
1/2-x,1/2-y,-z
1/2+x,1/2-y,1/2+z
loop_
_atom_site_type_symbol
_atom_site_label
_atom_site_fract_x
_atom_site_fract_y
_atom_site_fract_z
Si Si1 0.125101 0.401275 0.354863
Si Si2 0.032364 0.484007 0.313871
Si Si3 0.256420 0.196527 0.667095
Si Si4 0.000000 0.056093 0.750000
Si Si5 0.722580 0.925345 0.737793
Si Si6 0.180969 0.359977 0.551633
Si Si7 0.814815 0.991299 0.278799
Si Si8 0.142835 0.814902 0.963112
O O1 0.116852 0.426408 0.272437
O O2 0.182095 0.336098 0.307602
O O3 0.271205 0.433589 0.273846
O O4 0.939417 0.406798 0.563657
O O5 0.156910 0.536346 0.222885
O O6 0.000000 0.477038 0.250000
O O7 0.847985 0.491459 0.521105
O O8 0.356537 0.169672 0.499779
O O9 0.303689 0.261247 0.637911
O O10 0.055062 0.188865 0.832517
O O11 0.981410 0.017936 0.686463
O O12 0.176418 0.091401 0.583974
O O13 0.826397 0.871990 0.612812
O O14 0.852572 0.960854 0.678018
O O15 0.246944 0.313246 0.554433
O O16 0.000000 0.385445 0.750000
#
# Coordination Sequence:
#
# PCOD8154571 Si02
#       8
#     8   8   8   4   8   8   8   8
#     4   9  17  38  55  78 117 151 191 242 288 352
#     4   9  19  32  58  86 112 151 196 239 296 349
#     4  12  23  40  56  86 117 151 201 241 291 347
#     4  12  22  38  60  86 122 158 198 234 292 342
#     4   9  20  36  57  83 115 156 195 233 295 343
#     4  12  24  38  57  85 126 158 197 240 284 346
#     4   9  19  36  55  81 120 155 192 243 282 353
#     4  12  24  37  58  84 115 158 197 243 286 354
#
# _framework density 19.555754
#
# number of rings (size 3 to 8) (size 9 to 14) (size 15 to 20)
#    0.000    1.600    2.667    4.400    3.733    0.000 
#    2.400    2.000    0.000    0.000    1.733    2.800 
#    0.000    0.000    0.000    0.000    0.000    0.000 
#
# Total GULP energy -371914.114001 kJ/mol
# GULP energy per Si atom -12397.137133 kJ/mol
# Density = 1.951124 g / cm^3
# Si number density = 19.555754 Si / 1000 Ang^3
#
#
#
# Elastic Constant Matrix: (Units=GPa)
#
#
# Indices 1 2 3 4 5 6 
#
# 1 123.1799 58.2681 22.7350 0.0933 5.9864 0.0061
# 2 58.2681 128.8437 31.4364 0.1348 7.0293 -0.0456
# 3 22.7350 31.4364 71.3439 0.1071 -3.6041 -0.0203
# 4 0.0933 0.1348 0.1071 15.4937 -0.0187 -5.1705
# 5 5.9864 7.0293 -3.6041 -0.0187 24.5736 -0.0308
# 6 0.0061 -0.0456 -0.0203 -5.1705 -0.0308 27.9807
#
#
#
# Elastic Compliance Matrix: (Units=1/GPa)
#
#
# Indices 1 2 3 4 5 6 
#
# 1 0.010508 -0.004292 -0.001536 -0.000023 -0.001557 -0.000016
# 2 -0.004292 0.010686 -0.003468 -0.000045 -0.002520 0.000005
# 3 -0.001536 -0.003468 0.016223 -0.000069 0.003746 -0.000002
# 4 -0.000023 -0.000045 -0.000069 0.068785 0.000076 0.012711
# 5 -0.001557 -0.002520 0.003746 0.000076 0.042344 0.000060
# 6 -0.000016 0.000005 -0.000002 0.012711 0.000060 0.038088
#
#
# Mechanical properties :
#
#
# Convention : Reuss Voigt Hill
#
# Bulk Modulus (GPa) = 53.12069 60.91627 57.01848
# Shear Modulus (GPa) = 23.64052 27.67149 25.65600
#
# Velocity S-wave (km/s) = 3.48066 3.76574 3.62600
# Velocity P-wave (km/s) = 6.58605 7.07993 6.83745
#
# Compressibility (1/GPa) = 0.01882506
#
# Stress axis : x y z
#
# Youngs Moduli (GPa) = 95.16766 93.57874 61.63906
#
# Poissons Ratio (x) = 0.40167 0.09467
# Poissons Ratio (y) = 0.40849 0.21377
# Poissons Ratio (z) = 0.14616 0.32454
#
# Static dielectric constant tensor:
#      x y z
#    x 3.245080 -0.000590 -0.257490 
#    y -0.000590 3.859820 0.000370 
#    z -0.257490 0.000370 3.425770 
# 
# 
# High freq. dielectric constant tensor:
#      x y z
#    x 1.741760 -0.000020 -0.012090 
#    y -0.000020 1.747400 0.000040 
#    z -0.012090 0.000040 1.765530 
# 
# From -- ./inp_files/157318.got.cif
#   From: 2010.06.25/outbox.cif.g09.slc.cpg/sg15_79_cif.got.tgz:157318.got - 2010.06.28 07:06:18.
