data_PCOD8154040
_publ_section_title
;
Structure prediction by ZEFSAII (Michael W. Deem and Ramdas Pophale) SiO2 
 PCOD8154040
Probable space group: C 2/C
;
_chemical_formula_sum "Si O2"
_cell_formula_units_Z 36
_cell_length_a 4.645072
_cell_length_b 13.495122
_cell_length_c 19.217064
_cell_angle_alpha 90.000000
_cell_angle_beta 91.810700
_cell_angle_gamma 90.000000
_cell_volume 1204.035784
_symmetry_space_group_name_H-M "C 2/C"
_symmetry_group_IT_number 15
_symmetry_cell_setting 'monoclinic'
loop_
_space_group_symop_operation_xyz
x,y,z
-x,y,1/2-z
-x,-y,-z
x,-y,1/2+z
1/2+x,1/2+y,z
1/2-x,1/2+y,1/2-z
1/2-x,1/2-y,-z
1/2+x,1/2-y,1/2+z
loop_
_atom_site_type_symbol
_atom_site_label
_atom_site_fract_x
_atom_site_fract_y
_atom_site_fract_z
Si Si1 0.000000 0.022859 0.250000
Si Si2 0.349525 0.447305 0.065236
Si Si3 0.373276 0.100858 0.657400
Si Si4 0.599464 0.153861 0.030012
Si Si5 0.687958 0.187804 0.181771
O O1 0.900272 0.094040 0.186248
O O2 0.736935 0.957595 0.276205
O O3 0.678132 0.416305 0.086093
O O4 0.324740 0.557997 0.031084
O O5 0.189777 0.439497 0.139669
O O6 0.193438 0.367488 0.013970
O O7 0.387913 0.215467 0.677845
O O8 0.503737 0.175042 0.109337
O O9 0.750000 0.250000 0.000000
O O10 0.500000 0.192509 0.250000
#
# Coordination Sequence:
#
# PCOD8154040 Si02
#       5
#     4   8   8   8   8
#     4  12  28  50  80 110 168 206 268 326 406 470
#     4  11  27  51  79 116 162 202 265 334 398 463
#     4  12  27  52  82 115 158 212 264 329 398 477
#     4  11  24  50  79 119 156 212 265 329 396 477
#     4  12  27  49  78 115 154 216 261 327 399 479
#
# _framework density 29.899445
#
# number of rings (size 3 to 8) (size 9 to 14) (size 15 to 20)
#    0.000    0.444    5.556    1.333    3.111    4.444 
#    8.000    0.000    0.000    0.000    0.000    0.000 
#    0.000    0.000    0.000    0.000    0.000    0.000 
#
# Total GULP energy -223360.899559 kJ/mol
# GULP energy per Si atom -12408.938864 kJ/mol
# Density = 2.983139 g / cm^3
# Si number density = 29.899445 Si / 1000 Ang^3
#
#
#
# Elastic Constant Matrix: (Units=GPa)
#
#
# Indices 1 2 3 4 5 6 
#
# 1 68.4269 13.3839 -17.3865 0.0000 -1.4658 0.0000
# 2 13.3839 204.3384 18.7989 0.0000 -10.0886 0.0000
# 3 -17.3865 18.7989 164.0793 0.0000 -8.5822 0.0000
# 4 0.0000 0.0000 0.0000 40.0531 0.0000 -1.3709
# 5 -1.4658 -10.0886 -8.5822 0.0000 33.3685 0.0000
# 6 0.0000 0.0000 0.0000 -1.3709 0.0000 32.9400
#
#
#
# Elastic Compliance Matrix: (Units=1/GPa)
#
#
# Indices 1 2 3 4 5 6 
#
# 1 0.015307 -0.001128 0.001793 0.000000 0.000792 0.000000
# 2 -0.001128 0.005092 -0.000634 0.000000 0.001327 0.000000
# 3 0.001793 -0.000634 0.006438 0.000000 0.001543 0.000000
# 4 0.000000 0.000000 0.000000 0.025002 0.000000 0.001041
# 5 0.000792 0.001327 0.001543 0.000000 0.030801 0.000000
# 6 0.000000 0.000000 0.000000 0.001041 0.000000 0.030402
#
#
# Mechanical properties :
#
#
# Convention : Reuss Voigt Hill
#
# Bulk Modulus (GPa) = 37.17694 51.82635 44.50165
# Shear Modulus (GPa) = 41.00157 49.40886 45.20521
#
# Velocity S-wave (km/s) = 3.70715 4.06951 3.89254
# Velocity P-wave (km/s) = 5.54841 6.28111 5.92610
#
# Compressibility (1/GPa) = 0.02689839
#
# Stress axis : x y z
#
# Youngs Moduli (GPa) = 65.32811 196.40403 155.33083
#
# Poissons Ratio (x) = 0.22163 -0.27847
# Poissons Ratio (y) = 0.07372 0.09840
# Poissons Ratio (z) = -0.11712 0.12443
#
# Static dielectric constant tensor:
#      x y z
#    x 5.166060 0.000000 -0.055090 
#    y 0.000000 5.875820 0.000000 
#    z -0.055090 0.000000 6.137570 
# 
# 
# High freq. dielectric constant tensor:
#      x y z
#    x 2.202950 0.000000 -0.006170 
#    y 0.000000 2.238270 0.000000 
#    z -0.006170 0.000000 2.281910 
# 
# From -- ./inp_files/226551.got.cif
#   From: 2010.06.25/outbox.cif.g09.slc.cpg/sg15_114_cif.got.tgz:226551.got - 2010.06.28 07:06:18.
