data_PCOD8154410
_publ_section_title
;
Structure prediction by ZEFSAII (Michael W. Deem and Ramdas Pophale) SiO2 
 PCOD8154410
Probable space group: C 2/C
;
_chemical_formula_sum "Si O2"
_cell_formula_units_Z 44
_cell_length_a 5.337283
_cell_length_b 13.898572
_cell_length_c 26.788560
_cell_angle_alpha 90.000000
_cell_angle_beta 61.291194
_cell_angle_gamma 90.000000
_cell_volume 1742.910954
_symmetry_space_group_name_H-M "C 2/C"
_symmetry_group_IT_number 15
_symmetry_cell_setting 'monoclinic'
loop_
_space_group_symop_operation_xyz
x,y,z
-x,y,1/2-z
-x,-y,-z
x,-y,1/2+z
1/2+x,1/2+y,z
1/2-x,1/2+y,1/2-z
1/2-x,1/2-y,-z
1/2+x,1/2-y,1/2+z
loop_
_atom_site_type_symbol
_atom_site_label
_atom_site_fract_x
_atom_site_fract_y
_atom_site_fract_z
Si Si1 0.834094 0.903336 0.474621
Si Si2 0.949142 0.900210 0.571255
Si Si3 0.498329 0.050473 0.193465
Si Si4 0.955861 0.311512 0.427280
Si Si5 0.500000 0.322697 0.750000
Si Si6 0.198674 0.343993 0.300810
O O1 0.742793 0.900277 0.541771
O O2 0.614111 0.843581 0.462769
O O3 0.165820 0.867080 0.441057
O O4 0.823073 0.013233 0.455743
O O5 0.770493 0.910855 0.638484
O O6 0.123536 0.800432 0.557058
O O7 0.500000 0.086058 0.250000
O O8 0.221579 0.107395 0.199536
O O9 0.504752 0.935022 0.189996
O O10 0.191417 0.325232 0.360870
O O11 0.386802 0.254014 0.717469
O O12 0.500000 0.377603 0.250000
#
# Coordination Sequence:
#
# PCOD8154410 Si02
#       6
#     8   8   8   8   4   8
#     4  11  28  50  75 116 147 204 248 316 366 450
#     4  11  26  48  77 108 154 193 259 305 381 444
#     4  12  26  48  74 110 142 198 244 315 372 450
#     4  12  27  49  78 108 154 199 253 308 380 441
#     4  12  26  48  76 100 150 192 252 302 396 428
#     4  12  27  46  74 108 149 194 250 315 369 456
#
# _framework density 25.245123
#
# number of rings (size 3 to 8) (size 9 to 14) (size 15 to 20)
#    0.000    0.364    3.636    3.818    7.636    5.818 
#    3.273    0.000    0.000    0.000    0.000    0.000 
#    0.000    0.000    0.000    0.000    0.000    0.000 
#
# Total GULP energy -272763.476587 kJ/mol
# GULP energy per Si atom -12398.339845 kJ/mol
# Density = 2.518766 g / cm^3
# Si number density = 25.245123 Si / 1000 Ang^3
#
#
#
# Elastic Constant Matrix: (Units=GPa)
#
#
# Indices 1 2 3 4 5 6 
#
# 1 67.4108 21.7526 21.2770 -0.0006 4.6431 -0.0006
# 2 21.7526 168.9574 27.5663 -0.0003 -1.4055 -0.0002
# 3 21.2770 27.5663 146.4469 -0.0009 17.7432 -0.0002
# 4 -0.0006 -0.0003 -0.0009 30.4777 0.0004 -2.5294
# 5 4.6431 -1.4055 17.7432 0.0004 27.5638 0.0004
# 6 -0.0006 -0.0002 -0.0002 -2.5294 0.0004 27.3283
#
#
#
# Elastic Compliance Matrix: (Units=1/GPa)
#
#
# Indices 1 2 3 4 5 6 
#
# 1 0.016094 -0.001792 -0.001802 0.000000 -0.001642 0.000000
# 2 -0.001792 0.006339 -0.001094 0.000000 0.001329 0.000000
# 3 -0.001802 -0.001094 0.007881 0.000000 -0.004825 0.000000
# 4 0.000000 0.000000 0.000000 0.033065 -0.000001 0.003060
# 5 -0.001642 0.001329 -0.004825 -0.000001 0.039730 -0.000001
# 6 0.000000 0.000000 0.000000 0.003060 -0.000001 0.036875
#
#
# Mechanical properties :
#
#
# Convention : Reuss Voigt Hill
#
# Bulk Modulus (GPa) = 47.75858 58.22299 52.99078
# Shear Modulus (GPa) = 31.98170 37.88856 34.93513
#
# Velocity S-wave (km/s) = 3.56314 3.87825 3.72403
# Velocity P-wave (km/s) = 5.99057 6.57021 6.28707
#
# Compressibility (1/GPa) = 0.02093864
#
# Stress axis : x y z
#
# Youngs Moduli (GPa) = 62.13304 157.75694 126.89142
#
# Poissons Ratio (x) = 0.28266 0.22867
# Poissons Ratio (y) = 0.11133 0.13881
# Poissons Ratio (z) = 0.11197 0.17257
#
# Static dielectric constant tensor:
#      x y z
#    x 4.221520 0.000000 0.068570 
#    y 0.000000 4.833630 0.000000 
#    z 0.068570 0.000000 4.927530 
# 
# 
# High freq. dielectric constant tensor:
#      x y z
#    x 1.978700 0.000000 0.002720 
#    y 0.000000 2.039040 0.000000 
#    z 0.002720 0.000000 2.026800 
# 
# From -- ./inp_files/285440.got.cif
#   From: 2010.06.25/outbox.cif.g09.slc.cpg/sg15_143_cif.got.tgz:285440.got - 2010.06.28 07:06:18.
