data_PCOD8154239
_publ_section_title
;
Structure prediction by ZEFSAII (Michael W. Deem and Ramdas Pophale) SiO2 
 PCOD8154239
Probable space group: C 2/C
;
_chemical_formula_sum "Si O2"
_cell_formula_units_Z 56
_cell_length_a 29.236567
_cell_length_b 11.696426
_cell_length_c 14.345429
_cell_angle_alpha 90.000000
_cell_angle_beta 30.774956
_cell_angle_gamma 90.000000
_cell_volume 2510.040974
_symmetry_space_group_name_H-M "C 2/C"
_symmetry_group_IT_number 15
_symmetry_cell_setting 'monoclinic'
loop_
_space_group_symop_operation_xyz
x,y,z
-x,y,1/2-z
-x,-y,-z
x,-y,1/2+z
1/2+x,1/2+y,z
1/2-x,1/2+y,1/2-z
1/2-x,1/2-y,-z
1/2+x,1/2-y,1/2+z
loop_
_atom_site_type_symbol
_atom_site_label
_atom_site_fract_x
_atom_site_fract_y
_atom_site_fract_z
Si Si1 0.329518 0.476936 0.912540
Si Si2 0.730267 0.103651 0.408297
Si Si3 0.414092 0.286294 0.278122
Si Si4 0.116316 0.236654 0.460479
Si Si5 0.315236 0.021356 0.684715
Si Si6 0.050950 0.614811 0.438135
Si Si7 0.936067 0.764700 0.772676
O O1 0.255698 0.439373 0.966201
O O2 0.368376 0.600357 0.815856
O O3 0.412775 0.390443 0.775294
O O4 0.281141 0.475456 0.097409
O O5 0.816446 0.151445 0.205875
O O6 0.655782 0.201150 0.542907
O O7 0.695595 0.997619 0.407156
O O8 0.366320 0.258125 0.459412
O O9 0.402148 0.177269 0.231542
O O10 0.518571 0.310311 0.109635
O O11 0.128882 0.363141 0.396338
O O12 0.370172 0.914744 0.628929
O O13 0.000000 0.500000 0.500000
O O14 0.982946 0.701150 0.605498
O O15 0.000000 0.771964 0.750000
#
# Coordination Sequence:
#
# PCOD8154239 Si02
#       7
#     8   8   8   8   8   8   8
#     4  12  28  47  78 109 152 200 250 309 379 450
#     4  12  26  48  75 107 154 199 253 308 385 440
#     4  11  27  47  75 111 150 194 250 310 376 444
#     4  11  25  47  73 108 153 192 244 313 380 440
#     4  12  26  46  74 109 149 198 247 311 373 447
#     4  12  26  46  73 108 147 193 251 307 376 451
#     4  12  27  47  76 111 146 195 255 312 374 451
#
# _framework density 22.310393000000001
#
# number of rings (size 3 to 8) (size 9 to 14) (size 15 to 20)
#    0.000    0.286    5.714    2.143    6.000    5.143 
#    0.000    0.000    0.000    0.000    0.000    0.000 
#    0.000    0.000    0.000    0.000    0.000    0.000 
#
# Total GULP energy -347375.843158 kJ/mol
# GULP energy per Si atom -12406.280113 kJ/mol
# Density = 2.225961 g / cm^3
# Si number density = 22.310393 Si / 1000 Ang^3
#
#
#
# Elastic Constant Matrix: (Units=GPa)
#
#
# Indices 1 2 3 4 5 6 
#
# 1 121.8334 38.9633 4.5077 0.0000 -1.0586 0.0000
# 2 38.9633 125.5192 27.8934 0.0000 -5.5087 0.0000
# 3 4.5077 27.8934 70.6402 0.0000 1.7260 0.0000
# 4 0.0000 0.0000 0.0000 40.8803 0.0000 3.6821
# 5 -1.0586 -5.5087 1.7260 0.0000 35.4540 0.0000
# 6 0.0000 0.0000 0.0000 3.6821 0.0000 36.0416
#
#
#
# Elastic Compliance Matrix: (Units=1/GPa)
#
#
# Indices 1 2 3 4 5 6 
#
# 1 0.009137 -0.002979 0.000599 0.000000 -0.000219 0.000000
# 2 -0.002979 0.009788 -0.003714 0.000000 0.001613 0.000000
# 3 0.000599 -0.003714 0.015617 0.000000 -0.001320 0.000000
# 4 0.000000 0.000000 0.000000 0.024689 0.000000 -0.002522
# 5 -0.000219 0.001613 -0.001320 0.000000 0.028514 0.000000
# 6 0.000000 0.000000 0.000000 -0.002522 0.000000 0.028003
#
#
# Mechanical properties :
#
#
# Convention : Reuss Voigt Hill
#
# Bulk Modulus (GPa) = 44.73800 51.19132 47.96466
# Shear Modulus (GPa) = 36.93125 38.91708 37.92417
#
# Velocity S-wave (km/s) = 4.07300 4.18107 4.12739
# Velocity P-wave (km/s) = 6.49732 6.80465 6.65276
#
# Compressibility (1/GPa) = 0.02235236
#
# Stress axis : x y z
#
# Youngs Moduli (GPa) = 109.45093 102.16885 64.03322
#
# Poissons Ratio (x) = 0.30434 -0.03833
# Poissons Ratio (y) = 0.32603 0.23783
# Poissons Ratio (z) = -0.06551 0.37947
#
# Static dielectric constant tensor:
#      x y z
#    x 4.171480 0.000000 0.107430 
#    y 0.000000 4.058900 0.000000 
#    z 0.107430 0.000000 4.061300 
# 
# 
# High freq. dielectric constant tensor:
#      x y z
#    x 1.887400 0.000000 0.003350 
#    y 0.000000 1.882500 0.000000 
#    z 0.003350 0.000000 1.887880 
# 
# From -- ./inp_files/181925.got.cif
#   From: 2010.06.25/outbox.cif.g09.slc.cpg/sg15_91_cif.got.tgz:181925.got - 2010.06.28 07:06:18.
