data_PCOD8154153
_publ_section_title
;
Structure prediction by ZEFSAII (Michael W. Deem and Ramdas Pophale) SiO2 
 PCOD8154153
Probable space group: C 2/C
;
_chemical_formula_sum "Si O2"
_cell_formula_units_Z 44
_cell_length_a 14.685630
_cell_length_b 17.185179
_cell_length_c 8.991689
_cell_angle_alpha 90.000000
_cell_angle_beta 62.222446
_cell_angle_gamma 90.000000
_cell_volume 2007.775614
_symmetry_space_group_name_H-M "C 2/C"
_symmetry_group_IT_number 15
_symmetry_cell_setting 'monoclinic'
loop_
_space_group_symop_operation_xyz
x,y,z
-x,y,1/2-z
-x,-y,-z
x,-y,1/2+z
1/2+x,1/2+y,z
1/2-x,1/2+y,1/2-z
1/2-x,1/2-y,-z
1/2+x,1/2-y,1/2+z
loop_
_atom_site_type_symbol
_atom_site_label
_atom_site_fract_x
_atom_site_fract_y
_atom_site_fract_z
Si Si1 0.065362 0.056121 0.055735
Si Si2 0.747081 0.043690 0.009486
Si Si3 0.852384 0.204970 0.918706
Si Si4 0.393899 0.974665 0.159123
Si Si5 0.000000 0.658153 0.750000
Si Si6 0.537322 0.275968 0.465999
O O1 0.000000 0.067156 0.250000
O O2 0.081128 0.140737 0.976415
O O3 0.180669 0.029248 0.007245
O O4 0.000000 0.000000 0.000000
O O5 0.651713 0.043470 0.200152
O O6 0.827558 0.114011 0.945172
O O7 0.696395 0.041430 0.887238
O O8 0.906983 0.240230 0.731930
O O9 0.916128 0.222579 0.020162
O O10 0.750000 0.250000 0.000000
O O11 0.413416 0.897023 0.241833
O O12 0.500000 0.000000 0.000000
O O13 0.054920 0.711541 0.581602
#
# Coordination Sequence:
#
# PCOD8154153 Si02
#       6
#     8   8   8   8   4   8
#     4  12  23  44  73 106 146 186 239 303 366 439
#     4  12  25  44  75 107 143 194 250 301 374 444
#     4  11  25  45  72 106 147 193 244 295 373 450
#     4  12  26  48  72 106 141 196 250 310 363 440
#     4  12  26  50  72 100 156 188 244 304 372 428
#     4  11  25  47  71 110 148 191 234 310 373 433
#
# _framework density 21.9148
#
# number of rings (size 3 to 8) (size 9 to 14) (size 15 to 20)
#    0.000    0.364    4.545    4.364    2.545    0.000 
#    0.000    2.727    0.000    0.000    0.000    0.000 
#    0.000    0.000    0.000    0.000    0.000    0.000 
#
# Total GULP energy -272677.684772 kJ/mol
# GULP energy per Si atom -12394.440217 kJ/mol
# Density = 2.186492 g / cm^3
# Si number density = 21.914800 Si / 1000 Ang^3
#
#
#
# Elastic Constant Matrix: (Units=GPa)
#
#
# Indices 1 2 3 4 5 6 
#
# 1 168.3794 55.5796 33.1647 0.0000 13.4398 0.0000
# 2 55.5796 95.4239 30.4486 0.0000 9.2389 0.0000
# 3 33.1647 30.4486 105.2538 0.0000 4.8350 0.0000
# 4 0.0000 0.0000 0.0000 39.8934 0.0000 5.2636
# 5 13.4398 9.2389 4.8350 0.0000 40.2786 0.0000
# 6 0.0000 0.0000 0.0000 5.2636 0.0000 46.0587
#
#
#
# Elastic Compliance Matrix: (Units=1/GPa)
#
#
# Indices 1 2 3 4 5 6 
#
# 1 0.007576 -0.003887 -0.001194 0.000000 -0.001493 0.000000
# 2 -0.003887 0.013748 -0.002682 0.000000 -0.001534 0.000000
# 3 -0.001194 -0.002682 0.010665 0.000000 -0.000267 0.000000
# 4 0.000000 0.000000 0.000000 0.025451 0.000000 -0.002908
# 5 -0.001493 -0.001534 -0.000267 0.000000 0.025709 0.000000
# 6 0.000000 0.000000 0.000000 -0.002908 0.000000 0.022044
#
#
# Mechanical properties :
#
#
# Convention : Reuss Voigt Hill
#
# Bulk Modulus (GPa) = 60.74167 67.49365 64.11766
# Shear Modulus (GPa) = 39.61729 41.90376 40.76052
#
# Velocity S-wave (km/s) = 4.25642 4.37752 4.31740
# Velocity P-wave (km/s) = 7.20649 7.51102 7.36033
#
# Compressibility (1/GPa) = 0.01646316
#
# Stress axis : x y z
#
# Youngs Moduli (GPa) = 131.98709 72.73774 93.76314
#
# Poissons Ratio (x) = 0.28276 0.11197
# Poissons Ratio (y) = 0.51308 0.25145
# Poissons Ratio (z) = 0.15761 0.19507
#
# Static dielectric constant tensor:
#      x y z
#    x 4.335470 0.000000 0.027650 
#    y 0.000000 3.647830 0.000000 
#    z 0.027650 0.000000 4.296850 
# 
# 
# High freq. dielectric constant tensor:
#      x y z
#    x 1.880030 0.000000 0.007690 
#    y 0.000000 1.855890 0.000000 
#    z 0.007690 0.000000 1.876180 
# 
# From -- ./inp_files/39040.got.cif
#   From: 2010.06.25/outbox.cif.g09.slc.cpg/sg15_20_cif.got.tgz:39040.got - 2010.06.28 07:06:18.
