data_PCOD8154665
_publ_section_title
;
Structure prediction by ZEFSAII (Michael W. Deem and Ramdas Pophale) SiO2 
 PCOD8154665
Probable space group: C 2/C
;
_chemical_formula_sum "Si O2"
_cell_formula_units_Z 32
_cell_length_a 11.510647
_cell_length_b 12.787365
_cell_length_c 9.670885
_cell_angle_alpha 90.000000
_cell_angle_beta 70.625200
_cell_angle_gamma 90.000000
_cell_volume 1342.852957
_symmetry_space_group_name_H-M "C 2/C"
_symmetry_group_IT_number 15
_symmetry_cell_setting 'monoclinic'
loop_
_space_group_symop_operation_xyz
x,y,z
-x,y,1/2-z
-x,-y,-z
x,-y,1/2+z
1/2+x,1/2+y,z
1/2-x,1/2+y,1/2-z
1/2-x,1/2-y,-z
1/2+x,1/2-y,1/2+z
loop_
_atom_site_type_symbol
_atom_site_label
_atom_site_fract_x
_atom_site_fract_y
_atom_site_fract_z
Si Si1 0.383634 0.448181 0.624530
Si Si2 0.500000 0.734718 0.250000
Si Si3 0.713683 0.608606 0.612940
Si Si4 0.500000 0.236035 0.250000
Si Si5 0.509235 0.123309 0.980972
O O1 0.500000 0.500000 0.500000
O O2 0.412840 0.339492 0.691760
O O3 0.330472 0.522601 0.761898
O O4 0.280259 0.434266 0.547086
O O5 0.563426 0.817104 0.115487
O O6 0.614687 0.699873 0.648804
O O7 0.847145 0.651881 0.599116
O O8 0.549474 0.166382 0.355616
O O9 0.500000 0.000000 0.000000
#
# Coordination Sequence:
#
# PCOD8154665 Si02
#       5
#     8   4   8   4   8
#     4  12  22  46  75 113 138 184 248 306 357 437
#     4  12  24  46  72 102 144 188 248 288 362 436
#     4  12  26  46  78 105 148 186 243 308 364 431
#     4  12  24  50  72 100 142 194 244 294 362 434
#     4  12  30  48  67 106 152 196 239 301 365 432
#
# _framework density 23.829861999999999
#
# number of rings (size 3 to 8) (size 9 to 14) (size 15 to 20)
#    0.000    0.000    7.500    1.500    7.000    0.000 
#    0.000    3.750    0.000    0.000    0.000    0.000 
#    0.000    0.000    0.000    0.000    0.000    0.000 
#
# Total GULP energy -198276.975462 kJ/mol
# GULP energy per Si atom -12392.310966 kJ/mol
# Density = 2.377562 g / cm^3
# Si number density = 23.829862 Si / 1000 Ang^3
#
#
#
# Elastic Constant Matrix: (Units=GPa)
#
#
# Indices 1 2 3 4 5 6 
#
# 1 59.8072 8.1840 20.2839 0.0000 3.4342 0.0000
# 2 8.1840 142.3791 71.7745 0.0000 21.7969 0.0000
# 3 20.2839 71.7745 180.3474 0.0000 47.0264 0.0000
# 4 0.0000 0.0000 0.0000 43.3711 0.0000 19.4830
# 5 3.4342 21.7969 47.0264 0.0000 38.9183 0.0000
# 6 0.0000 0.0000 0.0000 19.4830 0.0000 15.2972
#
#
#
# Elastic Compliance Matrix: (Units=1/GPa)
#
#
# Indices 1 2 3 4 5 6 
#
# 1 0.017423 -0.000050 -0.002257 0.000000 0.001218 0.000000
# 2 -0.000050 0.008814 -0.003236 0.000000 -0.001022 0.000000
# 3 -0.002257 -0.003236 0.009581 0.000000 -0.009565 0.000000
# 4 0.000000 0.000000 0.000000 0.053888 0.000000 -0.068634
# 5 0.001218 -0.001022 -0.009565 0.000000 0.037718 0.000000
# 6 0.000000 0.000000 0.000000 -0.068634 0.000000 0.152786
#
#
# Mechanical properties :
#
#
# Convention : Reuss Voigt Hill
#
# Bulk Modulus (GPa) = 40.43404 64.77985 52.60695
# Shear Modulus (GPa) = 16.69229 38.33675 27.51452
#
# Velocity S-wave (km/s) = 2.64953 4.01530 3.40166
# Velocity P-wave (km/s) = 5.13465 6.98141 6.12800
#
# Compressibility (1/GPa) = 0.02473163
#
# Stress axis : x y z
#
# Youngs Moduli (GPa) = 57.39579 113.45629 104.37740
#
# Poissons Ratio (x) = 0.00568 0.23561
# Poissons Ratio (y) = 0.00287 0.33772
# Poissons Ratio (z) = 0.12956 0.36710
#
# Static dielectric constant tensor:
#      x y z
#    x 0.984560 0.000000 -1.855670 
#    y 0.000000 4.636330 0.000000 
#    z -1.855670 0.000000 3.276300 
# 
# 
# High freq. dielectric constant tensor:
#      x y z
#    x 1.913700 0.000000 0.024600 
#    y 0.000000 1.970850 0.000000 
#    z 0.024600 0.000000 1.972000 
# 
# From -- ./inp_files/27944.got.cif
#   From: 2010.06.25/outbox.cif.g09.slc.cpg/sg15_14_cif.got.tgz:27944.got - 2010.06.28 07:06:18.
