data_PCOD8154971
_publ_section_title
;
Structure prediction by ZEFSAII (Michael W. Deem and Ramdas Pophale) SiO2 
 PCOD8154971
Probable space group: C 2/C
;
_chemical_formula_sum "Si O2"
_cell_formula_units_Z 48
_cell_length_a 14.363434
_cell_length_b 12.745587
_cell_length_c 26.324067
_cell_angle_alpha 90.000000
_cell_angle_beta 25.692470
_cell_angle_gamma 90.000000
_cell_volume 2089.300678
_symmetry_space_group_name_H-M "C 2/C"
_symmetry_group_IT_number 15
_symmetry_cell_setting 'monoclinic'
loop_
_space_group_symop_operation_xyz
x,y,z
-x,y,1/2-z
-x,-y,-z
x,-y,1/2+z
1/2+x,1/2+y,z
1/2-x,1/2+y,1/2-z
1/2-x,1/2-y,-z
1/2+x,1/2-y,1/2+z
loop_
_atom_site_type_symbol
_atom_site_label
_atom_site_fract_x
_atom_site_fract_y
_atom_site_fract_z
Si Si1 0.287094 0.242740 0.321624
Si Si2 0.752521 0.974018 0.976921
Si Si3 0.031052 0.606686 0.016084
Si Si4 0.932249 0.975944 0.590216
Si Si5 0.830641 0.364687 0.212479
Si Si6 0.928603 0.820817 0.731159
O O1 0.500000 0.224505 0.250000
O O2 0.103632 0.295198 0.446358
O O3 0.330629 0.318258 0.251421
O O4 0.198689 0.132271 0.343668
O O5 0.513595 0.927772 0.093575
O O6 0.713594 0.087758 0.969913
O O7 0.912333 0.914435 0.860825
O O8 0.845471 0.973611 0.987888
O O9 0.812220 0.637006 0.151540
O O10 0.000000 0.500000 0.000000
O O11 0.792133 0.067168 0.685035
O O12 0.000000 0.000000 0.500000
O O13 0.957159 0.271090 0.177110
O O14 0.000000 0.775216 0.750000
#
# Coordination Sequence:
#
# PCOD8154971 Si02
#       6
#     8   8   8   8   8   8
#     4  12  28  48  77 113 151 198 255 309 377 456
#     4  12  26  46  77 105 149 193 256 307 369 450
#     4  12  25  44  75 111 147 195 246 308 375 435
#     4  12  30  49  73 111 155 204 251 312 383 446
#     4  12  27  48  76 109 152 201 247 311 378 447
#     4  12  25  43  75 111 149 192 254 308 372 445
#
# _framework density 22.974194000000001
#
# number of rings (size 3 to 8) (size 9 to 14) (size 15 to 20)
#    0.000    0.000    5.000    3.500    9.333    0.000 
#    0.000    3.333    0.000    0.000    0.000    0.000 
#    0.000    0.000    0.000    0.000    0.000    0.000 
#
# Total GULP energy -297613.945428 kJ/mol
# GULP energy per Si atom -12400.581059 kJ/mol
# Density = 2.292190 g / cm^3
# Si number density = 22.974194 Si / 1000 Ang^3
#
#
#
# Elastic Constant Matrix: (Units=GPa)
#
#
# Indices 1 2 3 4 5 6 
#
# 1 177.3426 40.6395 29.7033 -0.0024 -1.6711 0.0000
# 2 40.6395 89.6430 35.1994 -0.0084 -1.2351 -0.0023
# 3 29.7033 35.1994 114.4023 -0.0028 7.3081 0.0187
# 4 -0.0024 -0.0084 -0.0028 24.2394 -0.0016 6.8946
# 5 -1.6711 -1.2351 7.3081 -0.0016 40.9163 -0.0047
# 6 0.0000 -0.0023 0.0187 6.8946 -0.0047 46.4115
#
#
#
# Elastic Compliance Matrix: (Units=1/GPa)
#
#
# Indices 1 2 3 4 5 6 
#
# 1 0.006373 -0.002532 -0.000898 0.000000 0.000344 0.000000
# 2 -0.002532 0.013743 -0.003632 0.000004 0.000960 0.000002
# 3 -0.000898 -0.003632 0.010218 0.000001 -0.001971 -0.000005
# 4 0.000000 0.000004 0.000001 0.043075 0.000001 -0.006399
# 5 0.000344 0.000960 -0.001971 0.000001 0.024835 0.000003
# 6 0.000000 0.000002 -0.000005 -0.006399 0.000003 0.022497
#
#
# Mechanical properties :
#
#
# Convention : Reuss Voigt Hill
#
# Bulk Modulus (GPa) = 61.69236 65.83027 63.76132
# Shear Modulus (GPa) = 35.64629 40.70314 38.17472
#
# Velocity S-wave (km/s) = 3.94328 4.21371 4.08074
# Velocity P-wave (km/s) = 6.90245 7.23810 7.07226
#
# Compressibility (1/GPa) = 0.01620946
#
# Stress axis : x y z
#
# Youngs Moduli (GPa) = 156.92268 72.76605 97.86985
#
# Poissons Ratio (x) = 0.18423 0.08784
# Poissons Ratio (y) = 0.39730 0.35550
# Poissons Ratio (z) = 0.14085 0.26431
#
# Static dielectric constant tensor:
#      x y z
#    x 4.739700 -0.000010 -0.057280 
#    y -0.000010 4.513920 0.000360 
#    z -0.057280 0.000360 4.008490 
# 
# 
# High freq. dielectric constant tensor:
#      x y z
#    x 1.932280 0.000000 0.005330 
#    y 0.000000 1.908150 0.000010 
#    z 0.005330 0.000010 1.909590 
# 
# From -- ./inp_files/296025.got.cif
#   From: 2010.06.25/outbox.cif.g09.slc.cpg/sg15_149_cif.got.tgz:296025.got - 2010.06.28 07:06:18.
