data_PCOD8154080
_publ_section_title
;
Structure prediction by ZEFSAII (Michael W. Deem and Ramdas Pophale) SiO2 
 PCOD8154080
Probable space group: C 2/C
;
_chemical_formula_sum "Si O2"
_cell_formula_units_Z 48
_cell_length_a 12.696730
_cell_length_b 22.284344
_cell_length_c 8.907882
_cell_angle_alpha 90.000000
_cell_angle_beta 123.027136
_cell_angle_gamma 90.000000
_cell_volume 2113.118985
_symmetry_space_group_name_H-M "C 2/C"
_symmetry_group_IT_number 15
_symmetry_cell_setting 'monoclinic'
loop_
_space_group_symop_operation_xyz
x,y,z
-x,y,1/2-z
-x,-y,-z
x,-y,1/2+z
1/2+x,1/2+y,z
1/2-x,1/2+y,1/2-z
1/2-x,1/2-y,-z
1/2+x,1/2-y,1/2+z
loop_
_atom_site_type_symbol
_atom_site_label
_atom_site_fract_x
_atom_site_fract_y
_atom_site_fract_z
Si Si1 0.740411 0.034151 0.280294
Si Si2 0.958112 0.391135 0.048854
Si Si3 0.111802 0.818957 0.229775
Si Si4 0.559802 0.375503 0.641015
Si Si5 0.220152 0.715752 0.127885
Si Si6 0.295412 0.078632 0.925778
O O1 0.876255 0.065496 0.378829
O O2 0.686415 0.041534 0.406117
O O3 0.755824 0.964426 0.247538
O O4 0.645633 0.061289 0.083695
O O5 0.000000 0.407199 0.250000
O O6 0.073332 0.393319 0.023528
O O7 0.902100 0.324472 0.997947
O O8 0.191791 0.761568 0.240839
O O9 0.201027 0.866271 0.384843
O O10 0.000000 0.797113 0.250000
O O11 0.057347 0.853207 0.044900
O O12 0.500000 0.395374 0.750000
O O13 0.660336 0.322308 0.730251
O O14 0.250000 0.750000 0.000000
#
# Coordination Sequence:
#
# PCOD8154080 Si02
#       6
#     8   8   8   8   8   8
#     4  11  26  47  70 104 139 184 232 293 343 415
#     4  11  25  45  72 105 138 184 232 285 345 410
#     4  12  27  45  68 105 140 184 231 288 348 413
#     4  11  25  45  70 101 141 180 234 280 351 416
#     4  11  25  43  72 100 141 184 232 283 341 414
#     4  12  26  45  73 100 141 183 235 285 354 406
#
# _framework density 22.715236999999998
#
# number of rings (size 3 to 8) (size 9 to 14) (size 15 to 20)
#    0.000    0.667    3.333    3.000    9.333    4.667 
#    0.000    0.000    0.000    0.000    0.000    0.000 
#    0.000    0.000    0.000    0.000    0.000    0.000 
#
# Total GULP energy -297755.161510 kJ/mol
# GULP energy per Si atom -12406.465063 kJ/mol
# Density = 2.266354 g / cm^3
# Si number density = 22.715237 Si / 1000 Ang^3
#
#
#
# Elastic Constant Matrix: (Units=GPa)
#
#
# Indices 1 2 3 4 5 6 
#
# 1 121.7871 48.1020 12.0689 0.0000 -21.9061 0.0000
# 2 48.1020 101.9988 3.6564 0.0000 -8.3343 0.0000
# 3 12.0689 3.6564 76.9335 0.0000 -19.5658 0.0000
# 4 0.0000 0.0000 0.0000 31.2019 0.0000 -5.8958
# 5 -21.9061 -8.3343 -19.5658 0.0000 44.6045 0.0000
# 6 0.0000 0.0000 0.0000 -5.8958 0.0000 35.6731
#
#
#
# Elastic Compliance Matrix: (Units=1/GPa)
#
#
# Indices 1 2 3 4 5 6 
#
# 1 0.010910 -0.004780 -0.000393 0.000000 0.004293 0.000000
# 2 -0.004780 0.012051 0.000172 0.000000 -0.000021 0.000000
# 3 -0.000393 0.000172 0.014644 0.000000 0.006263 0.000000
# 4 0.000000 0.000000 0.000000 0.033082 0.000000 0.005468
# 5 0.004293 -0.000021 0.006263 0.000000 0.027271 0.000000
# 6 0.000000 0.000000 0.000000 0.005468 0.000000 0.028936
#
#
# Mechanical properties :
#
#
# Convention : Reuss Voigt Hill
#
# Bulk Modulus (GPa) = 36.22761 47.59711 41.91236
# Shear Modulus (GPa) = 34.22366 38.08871 36.15619
#
# Velocity S-wave (km/s) = 3.88576 4.09931 3.99396
# Velocity P-wave (km/s) = 6.00960 6.58825 6.30557
#
# Compressibility (1/GPa) = 0.02760325
#
# Stress axis : x y z
#
# Youngs Moduli (GPa) = 91.65744 82.98371 68.28505
#
# Poissons Ratio (x) = 0.39669 0.02681
# Poissons Ratio (y) = 0.43815 -0.01174
# Poissons Ratio (z) = 0.03598 -0.01427
#
# Static dielectric constant tensor:
#      x y z
#    x 4.175150 0.000000 0.012340 
#    y 0.000000 4.282210 0.000000 
#    z 0.012340 0.000000 4.105930 
# 
# 
# High freq. dielectric constant tensor:
#      x y z
#    x 1.912090 0.000000 -0.006560 
#    y 0.000000 1.898620 0.000000 
#    z -0.006560 0.000000 1.897950 
# 
# From -- ./inp_files/32629.got.cif
#   From: 2010.06.25/outbox.cif.g09.slc.cpg/sg15_17_cif.got.tgz:32629.got - 2010.06.28 07:06:18.
