data_PCOD8154117
_publ_section_title
;
Structure prediction by ZEFSAII (Michael W. Deem and Ramdas Pophale) SiO2 
 PCOD8154117
Probable space group: C 2/C
;
_chemical_formula_sum "Si O2"
_cell_formula_units_Z 48
_cell_length_a 19.677777
_cell_length_b 12.074576
_cell_length_c 25.246594
_cell_angle_alpha 90.000000
_cell_angle_beta 158.546710
_cell_angle_gamma 90.000000
_cell_volume 2193.947617
_symmetry_space_group_name_H-M "C 2/C"
_symmetry_group_IT_number 15
_symmetry_cell_setting 'monoclinic'
loop_
_space_group_symop_operation_xyz
x,y,z
-x,y,1/2-z
-x,-y,-z
x,-y,1/2+z
1/2+x,1/2+y,z
1/2-x,1/2+y,1/2-z
1/2-x,1/2-y,-z
1/2+x,1/2-y,1/2+z
loop_
_atom_site_type_symbol
_atom_site_label
_atom_site_fract_x
_atom_site_fract_y
_atom_site_fract_z
Si Si1 0.749555 0.171287 0.333401
Si Si2 0.864072 0.987227 0.007291
Si Si3 0.464807 0.829425 0.008138
Si Si4 0.722672 0.970619 0.716946
Si Si5 0.066372 0.821352 0.357944
Si Si6 0.790143 0.277448 0.089115
O O1 0.769294 0.108475 0.403412
O O2 0.662195 0.087248 0.227488
O O3 0.602705 0.269218 0.232375
O O4 0.944655 0.223562 0.455383
O O5 0.896436 0.942009 0.090206
O O6 0.056961 0.019756 0.120407
O O7 0.730426 0.092522 0.913476
O O8 0.627766 0.909838 0.146386
O O9 0.330212 0.893826 0.870788
O O10 0.346321 0.792173 0.972463
O O11 0.250000 0.750000 0.500000
O O12 0.000000 0.837093 0.250000
O O13 0.000000 0.240125 0.250000
O O14 0.750000 0.250000 0.000000
#
# Coordination Sequence:
#
# PCOD8154117 Si02
#       6
#     8   8   8   8   8   8
#     4  12  25  45  76 105 143 184 245 300 358 424
#     4  12  26  45  74 110 138 192 243 295 364 431
#     4  11  26  47  74 105 142 189 244 297 363 426
#     4  11  25  44  77 106 137 187 245 303 352 425
#     4  12  27  47  74 107 148 187 234 305 366 426
#     4  12  30  49  73 106 153 196 239 297 367 445
#
# _framework density 21.87837
#
# number of rings (size 3 to 8) (size 9 to 14) (size 15 to 20)
#    0.000    0.333    5.000    2.500    4.667    2.000 
#    0.000    0.000    0.000    0.000    0.000    0.000 
#    0.000    0.000    0.000    0.000    0.000    0.000 
#
# Total GULP energy -297753.598105 kJ/mol
# GULP energy per Si atom -12406.399921 kJ/mol
# Density = 2.182857 g / cm^3
# Si number density = 21.878370 Si / 1000 Ang^3
#
#
#
# Elastic Constant Matrix: (Units=GPa)
#
#
# Indices 1 2 3 4 5 6 
#
# 1 140.6224 44.4846 41.6559 -0.0014 -9.2014 -0.0099
# 2 44.4846 98.6516 17.8514 0.0001 -6.4582 0.0120
# 3 41.6559 17.8514 88.9569 -0.0870 -0.2713 0.0113
# 4 -0.0014 0.0001 -0.0870 26.3361 0.0142 -6.3672
# 5 -9.2014 -6.4582 -0.2713 0.0142 42.9357 0.0046
# 6 -0.0099 0.0120 0.0113 -6.3672 0.0046 37.8401
#
#
#
# Elastic Compliance Matrix: (Units=1/GPa)
#
#
# Indices 1 2 3 4 5 6 
#
# 1 0.009403 -0.003474 -0.003701 -0.000012 0.001469 0.000002
# 2 -0.003474 0.011909 -0.000760 -0.000005 0.001042 -0.000005
# 3 -0.003701 -0.000760 0.013125 0.000044 -0.000825 0.000003
# 4 -0.000012 -0.000005 0.000044 0.039581 -0.000017 0.006660
# 5 0.001469 0.001042 -0.000825 -0.000017 0.023757 -0.000005
# 6 0.000002 -0.000005 0.000003 0.006660 -0.000005 0.027548
#
#
# Mechanical properties :
#
#
# Convention : Reuss Voigt Hill
#
# Bulk Modulus (GPa) = 53.86255 59.57942 56.72099
# Shear Modulus (GPa) = 33.92560 36.37165 35.14862
#
# Velocity S-wave (km/s) = 3.94210 4.08174 4.01252
# Velocity P-wave (km/s) = 6.73741 7.03600 6.88832
#
# Compressibility (1/GPa) = 0.01856577
#
# Stress axis : x y z
#
# Youngs Moduli (GPa) = 106.35123 83.97064 76.19229
#
# Poissons Ratio (x) = 0.29171 0.28202
# Poissons Ratio (y) = 0.36947 0.05790
# Poissons Ratio (z) = 0.39365 0.06381
#
# Static dielectric constant tensor:
#      x y z
#    x 3.991790 -0.000050 -0.103770 
#    y -0.000050 4.100930 -0.000680 
#    z -0.103770 -0.000680 3.943870 
# 
# 
# High freq. dielectric constant tensor:
#      x y z
#    x 1.870500 0.000000 -0.002790 
#    y 0.000000 1.870570 -0.000020 
#    z -0.002790 -0.000020 1.870050 
# 
# From -- ./inp_files/300916.got.cif
#   From: 2010.06.25/outbox.cif.g09.slc.cpg/sg15_151_cif.got.tgz:300916.got - 2010.06.28 07:06:18.
