data_PCOD8154518
_publ_section_title
;
Structure prediction by ZEFSAII (Michael W. Deem and Ramdas Pophale) SiO2 
 PCOD8154518
Probable space group: C 2/C
;
_chemical_formula_sum "Si O2"
_cell_formula_units_Z 24
_cell_length_a 19.107385
_cell_length_b 10.517507
_cell_length_c 11.344604
_cell_angle_alpha 90.000000
_cell_angle_beta 26.460216
_cell_angle_gamma 90.000000
_cell_volume 1015.840411
_symmetry_space_group_name_H-M "C 2/C"
_symmetry_group_IT_number 15
_symmetry_cell_setting 'monoclinic'
loop_
_space_group_symop_operation_xyz
x,y,z
-x,y,1/2-z
-x,-y,-z
x,-y,1/2+z
1/2+x,1/2+y,z
1/2-x,1/2+y,1/2-z
1/2-x,1/2-y,-z
1/2+x,1/2-y,1/2+z
loop_
_atom_site_type_symbol
_atom_site_label
_atom_site_fract_x
_atom_site_fract_y
_atom_site_fract_z
Si Si1 0.000000 0.579278 0.750000
Si Si2 0.221835 0.235819 0.222605
Si Si3 0.500000 0.350207 0.250000
Si Si4 0.279010 0.451391 0.973414
O O1 0.109266 0.671268 0.503083
O O2 0.114063 0.497198 0.664331
O O3 0.243730 0.382859 0.151837
O O4 0.113513 0.237353 0.501288
O O5 0.145274 0.154457 0.229200
O O6 0.398247 0.434551 0.313283
#
# Coordination Sequence:
#
# PCOD8154518 Si02
#       4
#     4   8   4   8
#     4   8  17  38  57  80 124 164 181 242 315 334
#     4   9  20  37  62  89 120 160 195 242 304 346
#     4  12  21  36  69  94 108 158 213 236 291 362
#     4   9  20  38  62  82 129 156 190 249 300 349
#
# _framework density 23.625758999999999
#
# number of rings (size 3 to 8) (size 9 to 14) (size 15 to 20)
#    2.000    0.667    0.000    2.000    0.000    1.333 
#    0.000    3.333    0.000    0.000    0.000    0.000 
#    0.000    0.000    0.000    0.000    0.000    0.000 
#
# Total GULP energy -148658.250244 kJ/mol
# GULP energy per Si atom -12388.187520 kJ/mol
# Density = 2.357199 g / cm^3
# Si number density = 23.625759 Si / 1000 Ang^3
#
#
#
# Elastic Constant Matrix: (Units=GPa)
#
#
# Indices 1 2 3 4 5 6 
#
# 1 60.6372 -0.2061 45.4114 0.0000 -1.8031 0.0000
# 2 -0.2061 16.0777 4.2545 0.0000 4.5190 0.0000
# 3 45.4114 4.2545 135.9949 0.0000 12.4763 0.0000
# 4 0.0000 0.0000 0.0000 16.1130 0.0000 7.2379
# 5 -1.8031 4.5190 12.4763 0.0000 71.3320 0.0000
# 6 0.0000 0.0000 0.0000 7.2379 0.0000 14.0992
#
#
#
# Elastic Compliance Matrix: (Units=1/GPa)
#
#
# Indices 1 2 3 4 5 6 
#
# 1 0.022291 0.001811 -0.007664 0.000000 0.001789 0.000000
# 2 0.001811 0.063834 -0.002271 0.000000 -0.003601 0.000000
# 3 -0.007664 -0.002271 0.010151 0.000000 -0.001825 0.000000
# 4 0.000000 0.000000 0.000000 0.080662 0.000000 -0.041408
# 5 0.001789 -0.003601 -0.001825 0.000000 0.014612 0.000000
# 6 0.000000 0.000000 0.000000 -0.041408 0.000000 0.092183
#
#
# Mechanical properties :
#
#
# Convention : Reuss Voigt Hill
#
# Bulk Modulus (GPa) = 12.49582 34.62549 23.56066
# Shear Modulus (GPa) = 15.30657 31.19216 23.24936
#
# Velocity S-wave (km/s) = 2.54810 3.63748 3.14039
# Velocity P-wave (km/s) = 3.73599 5.68589 4.81077
#
# Compressibility (1/GPa) = 0.08002676
#
# Stress axis : x y z
#
# Youngs Moduli (GPa) = 44.86206 15.66557 98.51333
#
# Poissons Ratio (x) = -0.02837 0.75501
# Poissons Ratio (y) = -0.08124 0.22376
# Poissons Ratio (z) = 0.34383 0.03558
#
# Static dielectric constant tensor:
#      x y z
#    x 3.948540 0.000000 -0.101720 
#    y 0.000000 3.517700 0.000000 
#    z -0.101720 0.000000 4.062600 
# 
# 
# High freq. dielectric constant tensor:
#      x y z
#    x 1.919120 0.000000 -0.006850 
#    y 0.000000 1.891580 0.000000 
#    z -0.006850 0.000000 1.930870 
# 
# From -- ./inp_files/46567.got.cif
#   From: 2010.06.25/outbox.cif.g09.slc.cpg/sg15_24_cif.got.tgz:46567.got - 2010.06.28 07:06:18.
