data_PCOD8154522
_publ_section_title
;
Structure prediction by ZEFSAII (Michael W. Deem and Ramdas Pophale) SiO2 
 PCOD8154522
Probable space group: C 2/C
;
_chemical_formula_sum "Si O2"
_cell_formula_units_Z 64
_cell_length_a 9.951570
_cell_length_b 16.965727
_cell_length_c 28.008631
_cell_angle_alpha 90.000000
_cell_angle_beta 137.576202
_cell_angle_gamma 90.000000
_cell_volume 3190.128090
_symmetry_space_group_name_H-M "C 2/C"
_symmetry_group_IT_number 15
_symmetry_cell_setting 'monoclinic'
loop_
_space_group_symop_operation_xyz
x,y,z
-x,y,1/2-z
-x,-y,-z
x,-y,1/2+z
1/2+x,1/2+y,z
1/2-x,1/2+y,1/2-z
1/2-x,1/2-y,-z
1/2+x,1/2-y,1/2+z
loop_
_atom_site_type_symbol
_atom_site_label
_atom_site_fract_x
_atom_site_fract_y
_atom_site_fract_z
Si Si1 0.262564 0.923954 0.985451
Si Si2 0.348525 0.905991 0.533061
Si Si3 0.578711 0.083195 0.181425
Si Si4 0.386240 0.410002 0.834983
Si Si5 0.564392 0.200858 0.530453
Si Si6 0.066217 0.131364 0.529379
Si Si7 0.849600 0.544629 0.671518
Si Si8 0.656593 0.217033 0.325615
O O1 0.432293 0.858268 0.027044
O O2 0.124356 0.918078 0.901776
O O3 0.360181 0.009889 0.010478
O O4 0.129298 0.913845 0.997920
O O5 0.548433 0.896719 0.617795
O O6 0.345853 0.838093 0.493236
O O7 0.155912 0.897696 0.516451
O O8 0.809832 0.083369 0.259796
O O9 0.470571 0.147273 0.185235
O O10 0.479146 0.997742 0.164363
O O11 0.289256 0.480991 0.839333
O O12 0.335513 0.323995 0.843443
O O13 0.432216 0.275539 0.480303
O O14 0.754639 0.223972 0.612197
O O15 0.216780 0.112714 0.612298
O O16 0.000000 0.583132 0.750000
O O17 0.500000 0.263527 0.250000
#
# Coordination Sequence:
#
# PCOD8154522 Si02
#       8
#     8   8   8   8   8   8   8   8
#     4  12  23  40  63  89 121 161 206 246 297 358
#     4  12  23  40  63  89 121 161 206 246 297 358
#     4   9  17  33  60  90 116 154 207 250 291 356
#     4   9  17  33  60  90 116 154 207 250 291 356
#     4  12  26  39  57  93 134 156 192 250 313 358
#     4  12  21  38  65  90 115 153 207 257 289 344
#     4   9  17  33  59  94 118 148 205 264 293 332
#     4   9  18  35  59  86 120 160 200 240 303 369
#
# _framework density 20.061890999999999
#
# number of rings (size 3 to 8) (size 9 to 14) (size 15 to 20)
#    0.000    1.500    5.000    3.750    0.000    0.000 
#    0.000    4.375    0.000    0.000    0.000    0.000 
#    0.000    0.000    0.000    0.000    0.000    0.000 
#
# Total GULP energy -396714.884550 kJ/mol
# GULP energy per Si atom -12397.340142 kJ/mol
# Density = 2.001623 g / cm^3
# Si number density = 20.061891 Si / 1000 Ang^3
#
#
#
# Elastic Constant Matrix: (Units=GPa)
#
#
# Indices 1 2 3 4 5 6 
#
# 1 33.6449 0.9653 17.1213 -0.0001 -8.0815 -0.0001
# 2 0.9653 76.3433 41.4758 0.0000 -6.1166 0.0000
# 3 17.1213 41.4758 189.4189 -0.0001 -7.4438 -0.0001
# 4 -0.0001 0.0000 -0.0001 30.2228 -0.0001 -3.5770
# 5 -8.0815 -6.1166 -7.4438 -0.0001 17.5017 -0.0001
# 6 -0.0001 0.0000 -0.0001 -3.5770 -0.0001 14.7144
#
#
#
# Elastic Compliance Matrix: (Units=1/GPa)
#
#
# Indices 1 2 3 4 5 6 
#
# 1 0.035000 0.002497 -0.003093 0.000000 0.015719 0.000000
# 2 0.002497 0.015309 -0.003379 0.000000 0.005066 0.000000
# 3 -0.003093 -0.003379 0.006301 0.000000 0.000071 0.000000
# 4 0.000000 0.000000 0.000000 0.034068 0.000000 0.008282
# 5 0.015719 0.005066 0.000071 0.000000 0.066196 0.000000
# 6 0.000000 0.000000 0.000000 0.008282 0.000000 0.069974
#
#
# Mechanical properties :
#
#
# Convention : Reuss Voigt Hill
#
# Bulk Modulus (GPa) = 20.55012 46.50357 33.52685
# Shear Modulus (GPa) = 19.91897 28.47743 24.19820
#
# Velocity S-wave (km/s) = 3.15441 3.77168 3.47677
# Velocity P-wave (km/s) = 4.85105 6.49599 5.73282
#
# Compressibility (1/GPa) = 0.04866151
#
# Stress axis : x y z
#
# Youngs Moduli (GPa) = 28.57140 65.32279 158.69387
#
# Poissons Ratio (x) = -0.16311 0.49078
# Poissons Ratio (y) = -0.07134 0.53617
# Poissons Ratio (z) = 0.08836 0.22070
#
# Static dielectric constant tensor:
#      x y z
#    x 3.203640 0.000000 0.038410 
#    y 0.000000 3.485940 0.000000 
#    z 0.038410 0.000000 4.131230 
# 
# 
# High freq. dielectric constant tensor:
#      x y z
#    x 1.739280 0.000000 0.000670 
#    y 0.000000 1.765810 0.000000 
#    z 0.000670 0.000000 1.808060 
# 
# From -- ./inp_files/293082.got.cif
#   From: 2010.06.25/outbox.cif.g09.slc.cpg/sg15_147_cif.got.tgz:293082.got - 2010.06.28 07:06:18.
