data_PCOD8154375
_publ_section_title
;
Structure prediction by ZEFSAII (Michael W. Deem and Ramdas Pophale) SiO2 
 PCOD8154375
Probable space group: C 2/C
;
_chemical_formula_sum "Si O2"
_cell_formula_units_Z 48
_cell_length_a 4.954605
_cell_length_b 13.960642
_cell_length_c 27.449045
_cell_angle_alpha 90.000000
_cell_angle_beta 103.433254
_cell_angle_gamma 90.000000
_cell_volume 1846.691424
_symmetry_space_group_name_H-M "C 2/C"
_symmetry_group_IT_number 15
_symmetry_cell_setting 'monoclinic'
loop_
_space_group_symop_operation_xyz
x,y,z
-x,y,1/2-z
-x,-y,-z
x,-y,1/2+z
1/2+x,1/2+y,z
1/2-x,1/2+y,1/2-z
1/2-x,1/2-y,-z
1/2+x,1/2-y,1/2+z
loop_
_atom_site_type_symbol
_atom_site_label
_atom_site_fract_x
_atom_site_fract_y
_atom_site_fract_z
Si Si1 0.442804 0.687246 0.591379
Si Si2 0.681899 0.954117 0.664702
Si Si3 0.167951 0.156766 0.806054
Si Si4 0.124049 0.595822 0.959032
Si Si5 0.739724 0.364716 0.703531
Si Si6 0.964572 0.391733 0.938872
O O1 0.510712 0.678179 0.652364
O O2 0.715642 0.655394 0.574498
O O3 0.376717 0.796591 0.572882
O O4 0.197744 0.618249 0.564560
O O5 0.380605 0.905101 0.660324
O O6 0.752853 0.928275 0.611599
O O7 0.951772 0.916604 0.706178
O O8 0.636112 0.066363 0.674184
O O9 0.343561 0.252931 0.802739
O O10 0.000000 0.132681 0.750000
O O11 0.177031 0.481025 0.956696
O O12 0.198084 0.628843 0.017268
O O13 0.000000 0.386537 0.750000
#
# Coordination Sequence:
#
# PCOD8154375 Si02
#       6
#     8   8   8   8   8   8
#     4  12  26  47  74 105 145 190 240 296 355 428
#     4  12  26  45  73 104 141 185 236 296 354 423
#     4  11  26  47  73 105 143 189 241 296 359 424
#     4  11  28  48  73 110 145 190 238 294 363 431
#     4  11  26  47  71 101 140 188 240 293 353 420
#     4  11  26  47  77 107 147 189 238 296 361 429
#
# _framework density 25.992431
#
# number of rings (size 3 to 8) (size 9 to 14) (size 15 to 20)
#    0.000    0.667    3.333    2.500    4.667    6.667 
#    0.000    2.500    0.000    0.000    0.000    0.000 
#    0.000    0.000    0.000    0.000    0.000    0.000 
#
# Total GULP energy -297387.489228 kJ/mol
# GULP energy per Si atom -12391.145385 kJ/mol
# Density = 2.593327 g / cm^3
# Si number density = 25.992431 Si / 1000 Ang^3
#
#
#
# Elastic Constant Matrix: (Units=GPa)
#
#
# Indices 1 2 3 4 5 6 
#
# 1 54.3072 14.2208 -23.4228 0.0000 9.9764 0.0000
# 2 14.2208 149.8824 13.0885 0.0000 1.5874 0.0000
# 3 -23.4228 13.0885 128.2207 0.0000 -16.7836 0.0000
# 4 0.0000 0.0000 0.0000 36.9898 0.0000 -2.4962
# 5 9.9764 1.5874 -16.7836 0.0000 24.0970 0.0000
# 6 0.0000 0.0000 0.0000 -2.4962 0.0000 13.7868
#
#
#
# Elastic Compliance Matrix: (Units=1/GPa)
#
#
# Indices 1 2 3 4 5 6 
#
# 1 0.021640 -0.002276 0.003337 0.000000 -0.006485 0.000000
# 2 -0.002276 0.006994 -0.001174 0.000000 -0.000336 0.000000
# 3 0.003337 -0.001174 0.009196 0.000000 0.005101 0.000000
# 4 0.000000 0.000000 0.000000 0.027369 0.000000 0.004955
# 5 -0.006485 -0.000336 0.005101 0.000000 0.047759 0.000000
# 6 0.000000 0.000000 0.000000 0.004955 0.000000 0.073430
#
#
# Mechanical properties :
#
#
# Convention : Reuss Voigt Hill
#
# Bulk Modulus (GPa) = 26.59284 37.79815 32.19549
# Shear Modulus (GPa) = 25.10680 36.87629 30.99155
#
# Velocity S-wave (km/s) = 3.11131 3.77069 3.45676
# Velocity P-wave (km/s) = 4.81250 5.79060 5.32406
#
# Compressibility (1/GPa) = 0.03760411
#
# Stress axis : x y z
#
# Youngs Moduli (GPa) = 46.21029 142.98211 108.74223
#
# Poissons Ratio (x) = 0.32541 -0.36282
# Poissons Ratio (y) = 0.10517 0.12762
# Poissons Ratio (z) = -0.15418 0.16781
#
# Static dielectric constant tensor:
#      x y z
#    x 4.114110 0.000000 -0.468350 
#    y 0.000000 4.833750 0.000000 
#    z -0.468350 0.000000 5.260510 
# 
# 
# High freq. dielectric constant tensor:
#      x y z
#    x 1.990860 0.000000 -0.021490 
#    y 0.000000 2.060050 0.000000 
#    z -0.021490 0.000000 2.070350 
# 
# From -- ./inp_files/305239.got.cif
#   From: 2010.06.25/outbox.cif.g09.slc.cpg/sg15_153_cif.got.tgz:305239.got - 2010.06.28 07:06:18.
