data_PCOD8154098
_publ_section_title
;
Structure prediction by ZEFSAII (Michael W. Deem and Ramdas Pophale) SiO2 
 PCOD8154098
Probable space group: C 2/C
;
_chemical_formula_sum "Si O2"
_cell_formula_units_Z 48
_cell_length_a 18.109717
_cell_length_b 13.953525
_cell_length_c 17.603933
_cell_angle_alpha 90.000000
_cell_angle_beta 151.569035
_cell_angle_gamma 90.000000
_cell_volume 2117.888370
_symmetry_space_group_name_H-M "C 2/C"
_symmetry_group_IT_number 15
_symmetry_cell_setting 'monoclinic'
loop_
_space_group_symop_operation_xyz
x,y,z
-x,y,1/2-z
-x,-y,-z
x,-y,1/2+z
1/2+x,1/2+y,z
1/2-x,1/2+y,1/2-z
1/2-x,1/2-y,-z
1/2+x,1/2-y,1/2+z
loop_
_atom_site_type_symbol
_atom_site_label
_atom_site_fract_x
_atom_site_fract_y
_atom_site_fract_z
Si Si1 0.126395 0.877229 0.682566
Si Si2 0.683479 0.128900 0.285069
Si Si3 0.162042 0.324636 0.067807
Si Si4 0.715184 0.685571 0.655670
Si Si5 0.642935 0.483010 0.332815
Si Si6 0.337642 0.946757 0.135653
O O1 0.215275 0.922563 0.689987
O O2 0.241046 0.796366 0.820242
O O3 0.087945 0.960489 0.707743
O O4 0.969861 0.826214 0.512458
O O5 0.782242 0.218726 0.405966
O O6 0.654682 0.055612 0.326805
O O7 0.523148 0.168565 0.105423
O O8 0.216566 0.348927 0.202204
O O9 0.236131 0.400537 0.077318
O O10 0.792965 0.624669 0.660811
O O11 0.500000 0.436752 0.250000
O O12 0.719032 0.560045 0.458426
O O13 0.500000 0.912772 0.250000
#
# Coordination Sequence:
#
# PCOD8154098 Si02
#       6
#     8   8   8   8   8   8
#     4  11  25  44  70  97 128 174 222 267 322 382
#     4  11  25  44  70  97 128 174 222 267 322 382
#     4  11  25  44  70  96 130 173 220 271 318 385
#     4  11  25  44  70  96 130 173 220 271 318 385
#     4  12  27  44  65  99 135 172 215 267 331 388
#     4  12  27  44  65  99 135 172 215 267 331 388
#
# _framework density 22.664083000000002
#
# number of rings (size 3 to 8) (size 9 to 14) (size 15 to 20)
#    0.000    0.667    3.333    5.000    9.333    5.333 
#    0.000    0.000    0.000    0.000    0.000    0.000 
#    0.000    0.000    0.000    0.000    0.000    0.000 
#
# Total GULP energy -297689.104774 kJ/mol
# GULP energy per Si atom -12403.712699 kJ/mol
# Density = 2.261250 g / cm^3
# Si number density = 22.664083 Si / 1000 Ang^3
#
#
#
# Elastic Constant Matrix: (Units=GPa)
#
#
# Indices 1 2 3 4 5 6 
#
# 1 105.9321 22.7931 16.6419 0.0001 19.5845 0.0011
# 2 22.7931 40.1157 -9.5129 0.0028 -1.7215 0.0033
# 3 16.6419 -9.5129 89.3949 0.0024 17.2569 0.0045
# 4 0.0001 0.0028 0.0024 15.4401 0.0017 10.7755
# 5 19.5845 -1.7215 17.2569 0.0017 43.6492 0.0019
# 6 0.0011 0.0033 0.0045 10.7755 0.0019 25.9034
#
#
#
# Elastic Compliance Matrix: (Units=1/GPa)
#
#
# Indices 1 2 3 4 5 6 
#
# 1 0.012374 -0.007759 -0.002163 0.000002 -0.005003 0.000000
# 2 -0.007759 0.030438 0.004092 -0.000005 0.003064 -0.000003
# 3 -0.002163 0.004092 0.012781 -0.000001 -0.003921 -0.000002
# 4 0.000002 -0.000005 -0.000001 0.091260 -0.000003 -0.037963
# 5 -0.005003 0.003064 -0.003921 -0.000003 0.026826 0.000000
# 6 0.000000 -0.000003 -0.000002 -0.037963 0.000000 0.054397
#
#
# Mechanical properties :
#
#
# Convention : Reuss Voigt Hill
#
# Bulk Modulus (GPa) = 22.76166 32.80965 27.78566
# Shear Modulus (GPa) = 19.65552 30.69993 25.17773
#
# Velocity S-wave (km/s) = 2.94811 3.68443 3.33665
# Velocity P-wave (km/s) = 4.65332 5.71034 5.20871
#
# Compressibility (1/GPa) = 0.04393352
#
# Stress axis : x y z
#
# Youngs Moduli (GPa) = 80.81364 32.85369 78.23832
#
# Poissons Ratio (x) = 0.25490 0.16927
# Poissons Ratio (y) = 0.62699 -0.32015
# Poissons Ratio (z) = 0.17484 -0.13444
#
# Static dielectric constant tensor:
#      x y z
#    x 4.313260 0.000000 0.187810 
#    y 0.000000 3.880990 0.000000 
#    z 0.187810 0.000000 4.221640 
# 
# 
# High freq. dielectric constant tensor:
#      x y z
#    x 1.913460 0.000000 0.010590 
#    y 0.000000 1.882950 0.000000 
#    z 0.010590 0.000000 1.903880 
# 
# From -- ./inp_files/211431.got.cif
#   From: 2010.06.25/outbox.cif.g09.slc.cpg/sg15_106_cif.got.tgz:211431.got - 2010.06.28 07:06:18.
