data_PCOD8154753
_publ_section_title
;
Structure prediction by ZEFSAII (Michael W. Deem and Ramdas Pophale) SiO2 
 PCOD8154753
Probable space group: C 2/C
;
_chemical_formula_sum "Si O2"
_cell_formula_units_Z 36
_cell_length_a 4.855417
_cell_length_b 19.513539
_cell_length_c 16.028402
_cell_angle_alpha 90.000000
_cell_angle_beta 103.205598
_cell_angle_gamma 90.000000
_cell_volume 1478.475054
_symmetry_space_group_name_H-M "C 2/C"
_symmetry_group_IT_number 15
_symmetry_cell_setting 'monoclinic'
loop_
_space_group_symop_operation_xyz
x,y,z
-x,y,1/2-z
-x,-y,-z
x,-y,1/2+z
1/2+x,1/2+y,z
1/2-x,1/2+y,1/2-z
1/2-x,1/2-y,-z
1/2+x,1/2-y,1/2+z
loop_
_atom_site_type_symbol
_atom_site_label
_atom_site_fract_x
_atom_site_fract_y
_atom_site_fract_z
Si Si1 0.000000 0.782693 0.250000
Si Si2 0.683926 0.670786 0.333726
Si Si3 0.728484 0.621211 0.070374
Si Si4 0.175027 0.484511 0.341826
Si Si5 0.196338 0.105390 0.876600
O O1 0.800099 0.739865 0.299072
O O2 0.781672 0.827362 0.179723
O O3 0.500000 0.630517 0.250000
O O4 0.462154 0.678987 0.395505
O O5 0.941231 0.626969 0.385699
O O6 0.659550 0.544560 0.097387
O O7 0.665153 0.630248 0.969388
O O8 0.415354 0.433331 0.326319
O O9 0.000000 0.512124 0.250000
O O10 0.970704 0.442471 0.389582
#
# Coordination Sequence:
#
# PCOD8154753 Si02
#       5
#     4   8   8   8   8
#     4  12  28  48  72  98 158 192 258 276 376 424
#     4  12  25  48  71 102 142 198 241 302 346 429
#     4  12  26  46  76 110 144 182 251 300 363 424
#     4  12  23  45  74 108 145 190 234 296 373 439
#     4  12  27  46  73 110 147 192 232 307 363 438
#
# _framework density 24.349412999999998
#
# number of rings (size 3 to 8) (size 9 to 14) (size 15 to 20)
#    0.000    0.000    4.444    5.333    3.111    1.778 
#    0.000    0.000    0.000    0.000    0.000    0.000 
#    0.000    0.000    0.000    0.000    0.000    0.000 
#
# Total GULP energy -223202.084360 kJ/mol
# GULP energy per Si atom -12400.115798 kJ/mol
# Density = 2.429399 g / cm^3
# Si number density = 24.349413 Si / 1000 Ang^3
#
#
#
# Elastic Constant Matrix: (Units=GPa)
#
#
# Indices 1 2 3 4 5 6 
#
# 1 125.5275 26.6634 21.1795 0.0000 -5.5394 0.0000
# 2 26.6634 87.4321 54.9580 0.0000 -4.7483 0.0000
# 3 21.1795 54.9580 146.4865 0.0000 -15.9080 0.0000
# 4 0.0000 0.0000 0.0000 16.9081 0.0000 -9.4920
# 5 -5.5394 -4.7483 -15.9080 0.0000 41.8271 0.0000
# 6 0.0000 0.0000 0.0000 -9.4920 0.0000 30.2428
#
#
#
# Elastic Compliance Matrix: (Units=1/GPa)
#
#
# Indices 1 2 3 4 5 6 
#
# 1 0.008554 -0.002410 -0.000249 0.000000 0.000764 0.000000
# 2 -0.002410 0.015655 -0.005598 0.000000 -0.000671 0.000000
# 3 -0.000249 -0.005598 0.009273 0.000000 0.002858 0.000000
# 4 0.000000 0.000000 0.000000 0.071793 0.000000 0.022533
# 5 0.000764 -0.000671 0.002858 0.000000 0.025020 0.000000
# 6 0.000000 0.000000 0.000000 0.022533 0.000000 0.040138
#
#
# Mechanical properties :
#
#
# Convention : Reuss Voigt Hill
#
# Bulk Modulus (GPa) = 58.93772 62.78309 60.86041
# Shear Modulus (GPa) = 25.96009 34.90528 30.43268
#
# Velocity S-wave (km/s) = 3.26874 3.79029 3.53913
# Velocity P-wave (km/s) = 6.20514 6.70785 6.46138
#
# Compressibility (1/GPa) = 0.01696706
#
# Stress axis : x y z
#
# Youngs Moduli (GPa) = 116.90164 63.87895 107.83860
#
# Poissons Ratio (x) = 0.15397 0.02690
# Poissons Ratio (y) = 0.28178 0.60364
# Poissons Ratio (z) = 0.02916 0.35757
#
# Static dielectric constant tensor:
#      x y z
#    x 4.594870 0.000000 -0.010380 
#    y 0.000000 4.112870 0.000000 
#    z -0.010380 0.000000 4.411790 
# 
# 
# High freq. dielectric constant tensor:
#      x y z
#    x 1.983170 0.000000 -0.001980 
#    y 0.000000 1.948480 0.000000 
#    z -0.001980 0.000000 1.978460 
# 
# From -- ./inp_files/128776.got.cif
#   From: 2010.06.25/outbox.cif.g09.slc.cpg/sg15_65_cif.got.tgz:128776.got - 2010.06.28 07:06:18.
