data_PCOD8154673
_publ_section_title
;
Structure prediction by ZEFSAII (Michael W. Deem and Ramdas Pophale) SiO2 
 PCOD8154673
Probable space group: C 2/C
;
_chemical_formula_sum "Si O2"
_cell_formula_units_Z 32
_cell_length_a 8.253660
_cell_length_b 32.670073
_cell_length_c 5.284840
_cell_angle_alpha 90.000000
_cell_angle_beta 64.704684
_cell_angle_gamma 90.000000
_cell_volume 1288.407934
_symmetry_space_group_name_H-M "C 2/C"
_symmetry_group_IT_number 15
_symmetry_cell_setting 'monoclinic'
loop_
_space_group_symop_operation_xyz
x,y,z
-x,y,1/2-z
-x,-y,-z
x,-y,1/2+z
1/2+x,1/2+y,z
1/2-x,1/2+y,1/2-z
1/2-x,1/2-y,-z
1/2+x,1/2-y,1/2+z
loop_
_atom_site_type_symbol
_atom_site_label
_atom_site_fract_x
_atom_site_fract_y
_atom_site_fract_z
Si Si1 0.000000 0.735826 0.750000
Si Si2 0.500000 0.885242 0.750000
Si Si3 0.288094 0.163021 0.774084
Si Si4 0.500000 0.288918 0.250000
Si Si5 0.000000 0.473162 0.250000
Si Si6 0.294863 0.415127 0.891857
O O1 0.833193 0.704531 0.901256
O O2 0.980315 0.761924 0.512017
O O3 0.537276 0.857822 0.474809
O O4 0.678401 0.912147 0.704171
O O5 0.165301 0.179786 0.631311
O O6 0.183022 0.130300 0.011619
O O7 0.821631 0.445049 0.351626
O O8 0.000000 0.500000 0.500000
O O9 0.500000 0.432515 0.750000
#
# Coordination Sequence:
#
# PCOD8154673 Si02
#       6
#     4   4   8   4   4   8
#     4  12  25  46  68 101 162 206 260 344 417 448
#     4  12  22  48  78 111 156 202 278 334 387 456
#     4  12  25  46  73 104 152 211 271 337 389 472
#     4  12  29  42  69 110 146 212 274 336 405 472
#     4  12  28  56  85 126 172 200 248 324 399 484
#     4  12  27  50  85 117 157 216 268 321 391 480
#
# _framework density 24.836853999999999
#
# number of rings (size 3 to 8) (size 9 to 14) (size 15 to 20)
#    0.000    0.000    5.000    4.500    5.250    1.000 
#    0.000    0.000    0.000    0.000    0.000    0.000 
#    0.000    0.000    0.000    0.000    0.000    0.000 
#
# Total GULP energy -198265.584097 kJ/mol
# GULP energy per Si atom -12391.599006 kJ/mol
# Density = 2.478032 g / cm^3
# Si number density = 24.836854 Si / 1000 Ang^3
#
#
#
# Elastic Constant Matrix: (Units=GPa)
#
#
# Indices 1 2 3 4 5 6 
#
# 1 192.7754 63.9212 45.4601 0.0000 -12.3368 0.0000
# 2 63.9212 127.9191 52.5975 0.0000 6.5181 0.0000
# 3 45.4601 52.5975 112.9537 0.0000 11.3551 0.0000
# 4 0.0000 0.0000 0.0000 115.9934 0.0000 -32.2555
# 5 -12.3368 6.5181 11.3551 0.0000 50.5049 0.0000
# 6 0.0000 0.0000 0.0000 -32.2555 0.0000 41.1470
#
#
#
# Elastic Compliance Matrix: (Units=1/GPa)
#
#
# Indices 1 2 3 4 5 6 
#
# 1 0.006637 -0.002772 -0.001616 0.000000 0.002342 0.000000
# 2 -0.002772 0.010829 -0.003804 0.000000 -0.001219 0.000000
# 3 -0.001616 -0.003804 0.011526 0.000000 -0.002495 0.000000
# 4 0.000000 0.000000 0.000000 0.011024 0.000000 0.008642
# 5 0.002342 -0.001219 -0.002495 0.000000 0.021091 0.000000
# 6 0.000000 0.000000 0.000000 0.008642 0.000000 0.031078
#
#
# Mechanical properties :
#
#
# Convention : Reuss Voigt Hill
#
# Bulk Modulus (GPa) = 79.31582 84.17843 81.74713
# Shear Modulus (GPa) = 44.33719 59.64035 51.98877
#
# Velocity S-wave (km/s) = 4.22967 4.90561 4.58013
# Velocity P-wave (km/s) = 7.47379 8.12728 7.80738
#
# Compressibility (1/GPa) = 0.01260782
#
# Stress axis : x y z
#
# Youngs Moduli (GPa) = 150.66104 92.34623 86.75968
#
# Poissons Ratio (x) = 0.25594 0.14023
# Poissons Ratio (y) = 0.41756 0.33008
# Poissons Ratio (z) = 0.24351 0.35133
#
# Static dielectric constant tensor:
#      x y z
#    x 5.131860 0.000000 0.084630 
#    y 0.000000 4.688800 0.000000 
#    z 0.084630 0.000000 0.788320 
# 
# 
# High freq. dielectric constant tensor:
#      x y z
#    x 2.012500 0.000000 0.011600 
#    y 0.000000 1.992650 0.000000 
#    z 0.011600 0.000000 1.970930 
# 
# From -- ./inp_files/2620.got.cif
#   From: 2010.06.25/outbox.cif.g09.slc.cpg/sg15_2_cif.got.tgz:2620.got - 2010.06.28 07:06:18.
