data_PCOD8154151
_publ_section_title
;
Structure prediction by ZEFSAII (Michael W. Deem and Ramdas Pophale) SiO2 
 PCOD8154151
Probable space group: C 2/C
;
_chemical_formula_sum "Si O2"
_cell_formula_units_Z 64
_cell_length_a 28.253263
_cell_length_b 9.054973
_cell_length_c 17.837850
_cell_angle_alpha 90.000000
_cell_angle_beta 39.422432
_cell_angle_gamma 90.000000
_cell_volume 2897.974591
_symmetry_space_group_name_H-M "C 2/C"
_symmetry_group_IT_number 15
_symmetry_cell_setting 'monoclinic'
loop_
_space_group_symop_operation_xyz
x,y,z
-x,y,1/2-z
-x,-y,-z
x,-y,1/2+z
1/2+x,1/2+y,z
1/2-x,1/2+y,1/2-z
1/2-x,1/2-y,-z
1/2+x,1/2-y,1/2+z
loop_
_atom_site_type_symbol
_atom_site_label
_atom_site_fract_x
_atom_site_fract_y
_atom_site_fract_z
Si Si1 0.344020 0.098117 0.757769
Si Si2 0.647651 0.168158 0.479072
Si Si3 0.566993 0.582000 0.876779
Si Si4 0.817398 0.996082 0.041644
Si Si5 0.576503 0.338603 0.198823
Si Si6 0.933124 0.603355 0.060699
Si Si7 0.308407 0.389007 0.716910
Si Si8 0.920863 0.508487 0.807289
O O1 0.350553 0.248818 0.701840
O O2 0.262452 0.063226 0.890698
O O3 0.356737 0.967830 0.683340
O O4 0.408180 0.093947 0.743751
O O5 0.637941 0.344668 0.498145
O O6 0.576247 0.121853 0.516661
O O7 0.723493 0.117224 0.346549
O O8 0.642790 0.078943 0.562212
O O9 0.566447 0.569943 0.787657
O O10 0.552490 0.749152 0.913048
O O11 0.648554 0.532487 0.805064
O O12 0.500000 0.500000 0.000000
O O13 0.813144 0.100678 0.120659
O O14 0.855246 0.091231 0.930429
O O15 0.500000 0.361858 0.250000
O O16 0.593268 0.164961 0.189419
O O17 0.000000 0.500000 0.000000
O O18 0.000000 0.540398 0.750000
#
# Coordination Sequence:
#
# PCOD8154151 Si02
#       8
#     8   8   8   8   8   8   8   8
#     4  11  25  45  72 106 142 189 242 287 358 424
#     4  11  26  43  72 102 142 186 238 288 361 416
#     4  12  26  47  72 103 137 185 238 287 353 419
#     4  11  25  46  71 105 144 184 237 297 357 424
#     4  11  27  45  69 101 144 184 232 293 359 425
#     4  12  24  44  72 102 138 184 239 289 342 423
#     4  11  25  46  72 102 143 185 238 298 348 423
#     4  11  26  47  68 101 146 189 236 298 357 424
#
# _framework density 22.084389999999999
#
# number of rings (size 3 to 8) (size 9 to 14) (size 15 to 20)
#    0.000    0.750    3.750    2.250    7.000    3.000 
#    0.000    0.000    0.000    0.000    0.000    0.000 
#    0.000    0.000    0.000    0.000    0.000    0.000 
#
# Total GULP energy -396693.971148 kJ/mol
# GULP energy per Si atom -12396.686598 kJ/mol
# Density = 2.203412 g / cm^3
# Si number density = 22.084390 Si / 1000 Ang^3
#
#
#
# Elastic Constant Matrix: (Units=GPa)
#
#
# Indices 1 2 3 4 5 6 
#
# 1 124.7644 46.0618 29.1207 -0.0036 14.6744 -0.0002
# 2 46.0618 118.1692 57.1977 -0.0192 -0.0959 0.0193
# 3 29.1207 57.1977 107.3838 -0.0186 25.4702 0.0129
# 4 -0.0036 -0.0192 -0.0186 36.9108 0.0068 3.4504
# 5 14.6744 -0.0959 25.4702 0.0068 37.4496 -0.0016
# 6 -0.0002 0.0193 0.0129 3.4504 -0.0016 38.9150
#
#
#
# Elastic Compliance Matrix: (Units=1/GPa)
#
#
# Indices 1 2 3 4 5 6 
#
# 1 0.009914 -0.004114 0.000509 0.000000 -0.004241 0.000002
# 2 -0.004114 0.013938 -0.007988 0.000002 0.007081 -0.000004
# 3 0.000509 -0.007988 0.016074 0.000006 -0.011152 -0.000002
# 4 0.000000 0.000002 0.000006 0.027319 -0.000009 -0.002422
# 5 -0.004241 0.007081 -0.011152 -0.000009 0.035968 0.000002
# 6 0.000002 -0.000004 -0.000002 -0.002422 0.000002 0.025912
#
#
# Mechanical properties :
#
#
# Convention : Reuss Voigt Hill
#
# Bulk Modulus (GPa) = 59.73616 68.34198 64.03907
# Shear Modulus (GPa) = 31.66729 37.18422 34.42575
#
# Velocity S-wave (km/s) = 3.79082 4.10778 3.95248
# Velocity P-wave (km/s) = 6.80208 7.31516 7.06328
#
# Compressibility (1/GPa) = 0.01674028
#
# Stress axis : x y z
#
# Youngs Moduli (GPa) = 100.86614 71.74467 62.21096
#
# Poissons Ratio (x) = 0.29518 -0.03166
# Poissons Ratio (y) = 0.41499 0.49694
# Poissons Ratio (z) = -0.05133 0.57309
#
# Static dielectric constant tensor:
#      x y z
#    x 4.020690 0.000010 0.117070 
#    y 0.000010 4.182710 -0.000020 
#    z 0.117070 -0.000020 4.195880 
# 
# 
# High freq. dielectric constant tensor:
#      x y z
#    x 1.881740 0.000000 0.002160 
#    y 0.000000 1.874170 0.000000 
#    z 0.002160 0.000000 1.875810 
# 
# From -- ./inp_files/224593.got.cif
#   From: 2010.06.25/outbox.cif.g09.slc.cpg/sg15_113_cif.got.tgz:224593.got - 2010.06.28 07:06:18.
