data_PCOD8154579
_publ_section_title
;
Structure prediction by ZEFSAII (Michael W. Deem and Ramdas Pophale) SiO2 
 PCOD8154579
Probable space group: C 2/C
;
_chemical_formula_sum "Si O2"
_cell_formula_units_Z 60
_cell_length_a 23.001111
_cell_length_b 14.170675
_cell_length_c 9.481185
_cell_angle_alpha 90.000000
_cell_angle_beta 112.276231
_cell_angle_gamma 90.000000
_cell_volume 2859.670571
_symmetry_space_group_name_H-M "C 2/C"
_symmetry_group_IT_number 15
_symmetry_cell_setting 'monoclinic'
loop_
_space_group_symop_operation_xyz
x,y,z
-x,y,1/2-z
-x,-y,-z
x,-y,1/2+z
1/2+x,1/2+y,z
1/2-x,1/2+y,1/2-z
1/2-x,1/2-y,-z
1/2+x,1/2-y,1/2+z
loop_
_atom_site_type_symbol
_atom_site_label
_atom_site_fract_x
_atom_site_fract_y
_atom_site_fract_z
Si Si1 0.261930 0.199956 0.864823
Si Si2 0.000000 0.793697 0.250000
Si Si3 0.934635 0.226543 0.187432
Si Si4 0.548185 0.584757 0.540753
Si Si5 0.196893 0.293124 0.549645
Si Si6 0.260253 0.480052 0.630933
Si Si7 0.893782 0.218809 0.462354
Si Si8 0.158676 0.974495 0.545916
O O1 0.209521 0.242543 0.711406
O O2 0.260157 0.087955 0.879835
O O3 0.333480 0.216583 0.882087
O O4 0.250000 0.250000 0.000000
O O5 0.962182 0.853422 0.330816
O O6 0.052423 0.733440 0.386918
O O7 0.956464 0.138597 0.112142
O O8 0.920455 0.192969 0.333412
O O9 0.000000 0.289677 0.250000
O O10 0.874694 0.277478 0.063764
O O11 0.500000 0.500000 0.500000
O O12 0.618846 0.544587 0.607589
O O13 0.250000 0.250000 0.500000
O O14 0.203675 0.407107 0.548867
O O15 0.283430 0.442206 0.803391
O O16 0.315548 0.469117 0.565823
O O17 0.878414 0.120580 0.529413
#
# Coordination Sequence:
#
# PCOD8154579 Si02
#       8
#     8   4   8   8   8   8   8   8
#     4  12  25  43  67 103 138 176 229 299 349 401
#     4  12  26  40  60  94 136 186 218 276 346 412
#     4  12  25  44  65  96 138 184 230 283 340 419
#     4  12  25  37  63  95 139 183 224 267 341 431
#     4  12  24  45  72 100 134 184 233 284 344 417
#     4  12  24  42  68  98 131 178 224 290 347 400
#     4  12  24  43  64  94 138 179 225 281 346 410
#     4  12  22  39  62  95 134 173 225 274 342 411
#
# _framework density 20.981438000000001
#
# number of rings (size 3 to 8) (size 9 to 14) (size 15 to 20)
#    0.000    0.000    6.667    4.000    4.667    0.000 
#    0.000    0.000    1.467    0.800    0.000    0.000 
#    0.000    0.000    0.000    0.000    0.000    0.000 
#
# Total GULP energy -371761.356144 kJ/mol
# GULP energy per Si atom -12392.045205 kJ/mol
# Density = 2.093368 g / cm^3
# Si number density = 20.981438 Si / 1000 Ang^3
#
#
#
# Elastic Constant Matrix: (Units=GPa)
#
#
# Indices 1 2 3 4 5 6 
#
# 1 132.8125 47.1481 51.9561 0.0000 16.2146 0.0000
# 2 47.1481 97.6727 29.5479 0.0000 4.5232 0.0000
# 3 51.9561 29.5479 142.9106 0.0000 10.4697 0.0000
# 4 0.0000 0.0000 0.0000 23.9518 0.0000 0.9921
# 5 16.2146 4.5232 10.4697 0.0000 48.9133 0.0000
# 6 0.0000 0.0000 0.0000 0.9921 0.0000 22.4203
#
#
#
# Elastic Compliance Matrix: (Units=1/GPa)
#
#
# Indices 1 2 3 4 5 6 
#
# 1 0.010340 -0.004048 -0.002742 0.000000 -0.002467 0.000000
# 2 -0.004048 0.012520 -0.001148 0.000000 0.000430 0.000000
# 3 -0.002742 -0.001148 0.008287 0.000000 -0.000759 0.000000
# 4 0.000000 0.000000 0.000000 0.041827 0.000000 -0.001851
# 5 -0.002467 0.000430 -0.000759 0.000000 0.021385 0.000000
# 6 0.000000 0.000000 0.000000 -0.001851 0.000000 0.044684
#
#
# Mechanical properties :
#
#
# Convention : Reuss Voigt Hill
#
# Bulk Modulus (GPa) = 65.48207 70.07777 67.77992
# Shear Modulus (GPa) = 31.24829 35.37333 33.31081
#
# Velocity S-wave (km/s) = 3.86337 4.11047 3.98883
# Velocity P-wave (km/s) = 7.15389 7.48334 7.32047
#
# Compressibility (1/GPa) = 0.01527136
#
# Stress axis : x y z
#
# Youngs Moduli (GPa) = 96.71229 79.87431 120.66879
#
# Poissons Ratio (x) = 0.32330 0.33082
# Poissons Ratio (y) = 0.39146 0.13859
# Poissons Ratio (z) = 0.26514 0.09173
#
# Static dielectric constant tensor:
#      x y z
#    x 4.333390 0.000000 0.139830 
#    y 0.000000 3.767760 0.000000 
#    z 0.139830 0.000000 4.459550 
# 
# 
# High freq. dielectric constant tensor:
#      x y z
#    x 1.835220 0.000000 -0.003270 
#    y 0.000000 1.775820 0.000000 
#    z -0.003270 0.000000 1.848890 
# 
# From -- ./inp_files/61957.got.cif
#   From: 2010.06.25/outbox.cif.g09.slc.cpg/sg15_31_cif.got.tgz:61957.got - 2010.06.28 07:06:18.
