data_PCOD8154857
_publ_section_title
;
Structure prediction by ZEFSAII (Michael W. Deem and Ramdas Pophale) SiO2 
 PCOD8154857
Probable space group: C 2/C
;
_chemical_formula_sum "Si O2"
_cell_formula_units_Z 32
_cell_length_a 4.828070
_cell_length_b 28.833002
_cell_length_c 9.875041
_cell_angle_alpha 90.000000
_cell_angle_beta 75.850200
_cell_angle_gamma 90.000000
_cell_volume 1332.974268
_symmetry_space_group_name_H-M "C 2/C"
_symmetry_group_IT_number 15
_symmetry_cell_setting 'monoclinic'
loop_
_space_group_symop_operation_xyz
x,y,z
-x,y,1/2-z
-x,-y,-z
x,-y,1/2+z
1/2+x,1/2+y,z
1/2-x,1/2+y,1/2-z
1/2-x,1/2-y,-z
1/2+x,1/2-y,1/2+z
loop_
_atom_site_type_symbol
_atom_site_label
_atom_site_fract_x
_atom_site_fract_y
_atom_site_fract_z
Si Si1 0.000000 0.276132 0.750000
Si Si2 0.385846 0.156173 0.493624
Si Si3 0.500000 0.787483 0.250000
Si Si4 0.000000 0.462517 0.250000
Si Si5 0.629470 0.406173 0.506376
Si Si6 0.500000 0.473868 0.750000
O O1 0.165079 0.307049 0.619799
O O2 0.223986 0.244706 0.805187
O O3 0.448514 0.180615 0.627442
O O4 0.662859 0.125000 0.424283
O O5 0.103705 0.125000 0.542589
O O6 0.825956 0.430615 0.372558
O O7 0.779173 0.494706 0.194813
O O8 0.465121 0.442951 0.619799
#
# Coordination Sequence:
#
# PCOD8154857 Si02
#       6
#     4   8   4   4   8   4
#     4  12  24  45  69 100 137 180 227 280 339 405
#     4  12  25  44  69 101 137 180 227 281 339 404
#     4  12  25  43  68 100 137 180 225 280 340 405
#     4  12  25  43  68 100 137 180 225 280 340 405
#     4  12  25  44  69 101 137 180 227 281 339 404
#     4  12  24  45  69 100 137 180 227 280 339 405
#
# _framework density 24.006466
#
# number of rings (size 3 to 8) (size 9 to 14) (size 15 to 20)
#    0.000    0.000    0.000   11.250    0.000    2.000 
#    0.000    0.000    0.000    0.000    0.000    0.000 
#    0.000    0.000    0.000    0.000    0.000    0.000 
#
# Total GULP energy -198551.677653 kJ/mol
# GULP energy per Si atom -12409.479853 kJ/mol
# Density = 2.395183 g / cm^3
# Si number density = 24.006466 Si / 1000 Ang^3
#
#
#
# Elastic Constant Matrix: (Units=GPa)
#
#
# Indices 1 2 3 4 5 6 
#
# 1 176.0373 87.2223 47.8011 0.0000 -2.6266 0.0000
# 2 87.2223 150.6313 73.3763 0.0000 -0.6612 0.0000
# 3 47.8011 73.3763 147.5802 0.0000 1.2676 0.0000
# 4 0.0000 0.0000 0.0000 19.4755 0.0000 -1.0846
# 5 -2.6266 -0.6612 1.2676 0.0000 36.8031 0.0000
# 6 0.0000 0.0000 0.0000 -1.0846 0.0000 42.1876
#
#
#
# Elastic Compliance Matrix: (Units=1/GPa)
#
#
# Indices 1 2 3 4 5 6 
#
# 1 0.007991 -0.004437 -0.000387 0.000000 0.000504 0.000000
# 2 -0.004437 0.011227 -0.004145 0.000000 0.000028 0.000000
# 3 -0.000387 -0.004145 0.008966 0.000000 -0.000411 0.000000
# 4 0.000000 0.000000 0.000000 0.051420 0.000000 0.001322
# 5 0.000504 0.000028 -0.000411 0.000000 0.027222 0.000000
# 6 0.000000 0.000000 0.000000 0.001322 0.000000 0.023738
#
#
# Mechanical properties :
#
#
# Convention : Reuss Voigt Hill
#
# Bulk Modulus (GPa) = 97.59206 99.00534 98.29870
# Shear Modulus (GPa) = 32.91250 37.41652 35.16451
#
# Velocity S-wave (km/s) = 3.70670 3.95220 3.83141
# Velocity P-wave (km/s) = 7.68506 7.88398 7.78515
#
# Compressibility (1/GPa) = 0.01024674
#
# Stress axis : x y z
#
# Youngs Moduli (GPa) = 125.13303 89.06910 111.53471
#
# Poissons Ratio (x) = 0.39518 0.04314
# Poissons Ratio (y) = 0.55519 0.46235
# Poissons Ratio (z) = 0.04840 0.36922
#
# Static dielectric constant tensor:
#      x y z
#    x 4.657340 0.000000 -0.027170 
#    y 0.000000 4.913310 0.000000 
#    z -0.027170 0.000000 4.088320 
# 
# 
# High freq. dielectric constant tensor:
#      x y z
#    x 1.969750 0.000000 -0.001160 
#    y 0.000000 1.979540 0.000000 
#    z -0.001160 0.000000 1.945410 
# 
# From -- ./inp_files/72412.got.cif
#   From: 2010.06.25/outbox.cif.g09.slc.cpg/sg15_37_cif.got.tgz:72412.got - 2010.06.28 07:06:18.
