data_PCOD8154316
_publ_section_title
;
Structure prediction by ZEFSAII (Michael W. Deem and Ramdas Pophale) SiO2 
 PCOD8154316
Probable space group: C 2/C
;
_chemical_formula_sum "Si O2"
_cell_formula_units_Z 28
_cell_length_a 13.573303
_cell_length_b 17.223668
_cell_length_c 4.971388
_cell_angle_alpha 90.000000
_cell_angle_beta 112.231067
_cell_angle_gamma 90.000000
_cell_volume 1075.828295
_symmetry_space_group_name_H-M "C 2/C"
_symmetry_group_IT_number 15
_symmetry_cell_setting 'monoclinic'
loop_
_space_group_symop_operation_xyz
x,y,z
-x,y,1/2-z
-x,-y,-z
x,-y,1/2+z
1/2+x,1/2+y,z
1/2-x,1/2+y,1/2-z
1/2-x,1/2-y,-z
1/2+x,1/2-y,1/2+z
loop_
_atom_site_type_symbol
_atom_site_label
_atom_site_fract_x
_atom_site_fract_y
_atom_site_fract_z
Si Si1 0.390988 0.185967 0.482203
Si Si2 0.830351 0.446656 0.584382
Si Si3 0.811077 0.850025 0.361492
Si Si4 0.500000 0.445097 0.750000
O O1 0.500000 0.197561 0.750000
O O2 0.408818 0.122432 0.262980
O O3 0.299245 0.158404 0.590766
O O4 0.356877 0.267442 0.309745
O O5 0.847330 0.482305 0.305618
O O6 0.714524 0.403566 0.430617
O O7 0.895456 0.891495 0.641905
O O8 0.500000 0.500000 0.500000
#
# Coordination Sequence:
#
# PCOD8154316 Si02
#       4
#     8   8   8   4
#     4  11  26  50  79 113 156 210 261 317 389 468
#     4  12  25  48  77 109 154 199 256 319 381 456
#     4  11  25  51  77 114 157 203 263 319 389 464
#     4  12  28  48  82 118 154 200 256 322 392 454
#
# _framework density 26.026458000000002
#
# number of rings (size 3 to 8) (size 9 to 14) (size 15 to 20)
#    0.000    0.571    4.286    2.571    4.000    2.286 
#    0.000    0.000    0.000    0.000    0.000    0.000 
#    0.000    0.000    0.000    0.000    0.000    0.000 
#
# Total GULP energy -173444.615126 kJ/mol
# GULP energy per Si atom -12388.901080 kJ/mol
# Density = 2.596722 g / cm^3
# Si number density = 26.026458 Si / 1000 Ang^3
#
#
#
# Elastic Constant Matrix: (Units=GPa)
#
#
# Indices 1 2 3 4 5 6 
#
# 1 110.2355 22.8686 33.6291 0.0000 27.0080 0.0000
# 2 22.8686 157.1465 40.3602 0.0000 3.7780 0.0000
# 3 33.6291 40.3602 120.7097 0.0000 8.2049 0.0000
# 4 0.0000 0.0000 0.0000 66.4629 0.0000 25.7293
# 5 27.0080 3.7780 8.2049 0.0000 35.7396 0.0000
# 6 0.0000 0.0000 0.0000 25.7293 0.0000 15.3328
#
#
#
# Elastic Compliance Matrix: (Units=1/GPa)
#
#
# Indices 1 2 3 4 5 6 
#
# 1 0.012097 -0.000918 -0.002487 0.000000 -0.008473 0.000000
# 2 -0.000918 0.007032 -0.002125 0.000000 0.000438 0.000000
# 3 -0.002487 -0.002125 0.009696 0.000000 -0.000122 0.000000
# 4 0.000000 0.000000 0.000000 0.042941 0.000000 -0.072058
# 5 -0.008473 0.000438 -0.000122 0.000000 0.034365 0.000000
# 6 0.000000 0.000000 0.000000 -0.072058 0.000000 0.186137
#
#
# Mechanical properties :
#
#
# Convention : Reuss Voigt Hill
#
# Bulk Modulus (GPa) = 56.29277 64.64525 60.46901
# Shear Modulus (GPa) = 16.16810 42.92264 29.54537
#
# Velocity S-wave (km/s) = 2.49513 4.06543 3.37294
# Velocity P-wave (km/s) = 5.47512 6.85049 6.20105
#
# Compressibility (1/GPa) = 0.01776427
#
# Stress axis : x y z
#
# Youngs Moduli (GPa) = 82.66753 142.19900 103.13327
#
# Poissons Ratio (x) = 0.13052 0.25652
# Poissons Ratio (y) = 0.07588 0.21920
# Poissons Ratio (z) = 0.20561 0.30223
#
# Static dielectric constant tensor:
#      x y z
#    x 4.314330 0.000000 0.471720 
#    y 0.000000 5.491060 0.000000 
#    z 0.471720 0.000000 4.900430 
# 
# 
# High freq. dielectric constant tensor:
#      x y z
#    x 2.003420 0.000000 0.030940 
#    y 0.000000 2.081530 0.000000 
#    z 0.030940 0.000000 2.060140 
# 
# From -- ./inp_files/6333.got.cif
#   From: 2010.06.25/outbox.cif.g09.slc.cpg/sg15_4_cif.got.tgz:6333.got - 2010.06.28 07:06:18.
