data_PCOD8154440
_publ_section_title
;
Structure prediction by ZEFSAII (Michael W. Deem and Ramdas Pophale) SiO2 
 PCOD8154440
Probable space group: C 2/C
;
_chemical_formula_sum "Si O2"
_cell_formula_units_Z 44
_cell_length_a 6.671828
_cell_length_b 30.781085
_cell_length_c 9.846500
_cell_angle_alpha 90.000000
_cell_angle_beta 94.742579
_cell_angle_gamma 90.000000
_cell_volume 2015.213996
_symmetry_space_group_name_H-M "C 2/C"
_symmetry_group_IT_number 15
_symmetry_cell_setting 'monoclinic'
loop_
_space_group_symop_operation_xyz
x,y,z
-x,y,1/2-z
-x,-y,-z
x,-y,1/2+z
1/2+x,1/2+y,z
1/2-x,1/2+y,1/2-z
1/2-x,1/2-y,-z
1/2+x,1/2-y,1/2+z
loop_
_atom_site_type_symbol
_atom_site_label
_atom_site_fract_x
_atom_site_fract_y
_atom_site_fract_z
Si Si1 0.262261 0.821423 0.515295
Si Si2 0.081781 0.908113 0.402504
Si Si3 0.634226 0.015716 0.628458
Si Si4 0.674182 0.573534 0.358696
Si Si5 0.000000 0.368947 0.750000
Si Si6 0.032458 0.747942 0.913795
O O1 0.172130 0.860498 0.423558
O O2 0.343379 0.838425 0.663508
O O3 0.444001 0.799324 0.443673
O O4 0.086716 0.786833 0.523318
O O5 0.000000 0.914060 0.250000
O O6 0.897109 0.918391 0.492279
O O7 0.256554 0.943063 0.430728
O O8 0.500000 0.029112 0.750000
O O9 0.788682 0.977057 0.673691
O O10 0.500000 0.000000 0.500000
O O11 0.500000 0.591066 0.250000
O O12 0.877643 0.600799 0.347496
O O13 0.000000 0.753961 0.750000
O O14 0.250000 0.750000 0.000000
#
# Coordination Sequence:
#
# PCOD8154440 Si02
#       6
#     8   8   8   8   4   8
#     4  11  27  45  72 111 140 184 246 298 370 446
#     4  12  27  44  69 107 152 190 241 307 371 435
#     4  12  24  45  69 103 145 194 249 299 364 428
#     4  12  24  45  72 103 142 195 248 300 357 431
#     4  12  24  46  76 110 140 190 256 304 354 444
#     4  11  27  48  77 104 146 190 235 307 377 451
#
# _framework density 21.833911000000001
#
# number of rings (size 3 to 8) (size 9 to 14) (size 15 to 20)
#    0.000    0.364    2.727    5.455    7.636    2.182 
#    0.000    0.000    0.000    0.000    0.000    0.000 
#    0.000    0.000    0.000    0.000    0.000    0.000 
#
# Total GULP energy -272847.652623 kJ/mol
# GULP energy per Si atom -12402.166028 kJ/mol
# Density = 2.178422 g / cm^3
# Si number density = 21.833911 Si / 1000 Ang^3
#
#
#
# Elastic Constant Matrix: (Units=GPa)
#
#
# Indices 1 2 3 4 5 6 
#
# 1 138.6788 52.9634 47.3179 0.0000 -16.7906 0.0000
# 2 52.9634 129.6140 6.3242 0.0000 -16.9855 0.0000
# 3 47.3179 6.3242 117.6772 0.0000 -9.3844 0.0000
# 4 0.0000 0.0000 0.0000 34.6193 0.0000 -0.7627
# 5 -16.7906 -16.9855 -9.3844 0.0000 45.4018 0.0000
# 6 0.0000 0.0000 0.0000 -0.7627 0.0000 21.7293
#
#
#
# Elastic Compliance Matrix: (Units=1/GPa)
#
#
# Indices 1 2 3 4 5 6 
#
# 1 0.010104 -0.003742 -0.003737 0.000000 0.001565 0.000000
# 2 -0.003742 0.009503 0.001186 0.000000 0.002417 0.000000
# 3 -0.003737 0.001186 0.010027 0.000000 0.001134 0.000000
# 4 0.000000 0.000000 0.000000 0.028908 0.000000 0.001015
# 5 0.001565 0.002417 0.001134 0.000000 0.023743 0.000000
# 6 0.000000 0.000000 0.000000 0.001015 0.000000 0.046057
#
#
# Mechanical properties :
#
#
# Convention : Reuss Voigt Hill
#
# Bulk Modulus (GPa) = 58.65029 66.57566 62.61298
# Shear Modulus (GPa) = 34.10418 38.97436 36.53927
#
# Velocity S-wave (km/s) = 3.95648 4.22955 4.09529
# Velocity P-wave (km/s) = 6.91317 7.37633 7.14850
#
# Compressibility (1/GPa) = 0.01705021
#
# Stress axis : x y z
#
# Youngs Moduli (GPa) = 98.96662 105.23096 99.72854
#
# Poissons Ratio (x) = 0.39372 0.37270
# Poissons Ratio (y) = 0.37029 -0.11833
# Poissons Ratio (z) = 0.36985 -0.12486
#
# Static dielectric constant tensor:
#      x y z
#    x 3.967100 0.000000 0.103490 
#    y 0.000000 4.430300 0.000000 
#    z 0.103490 0.000000 3.858360 
# 
# 
# High freq. dielectric constant tensor:
#      x y z
#    x 1.872580 0.000000 0.003470 
#    y 0.000000 1.873670 0.000000 
#    z 0.003470 0.000000 1.866240 
# 
# From -- ./inp_files/73967.got.cif
#   From: 2010.06.25/outbox.cif.g09.slc.cpg/sg15_37_cif.got.tgz:73967.got - 2010.06.28 07:06:18.
