data_PCOD8154485
_publ_section_title
;
Structure prediction by ZEFSAII (Michael W. Deem and Ramdas Pophale) SiO2 
 PCOD8154485
Probable space group: C 2/C
;
_chemical_formula_sum "Si O2"
_cell_formula_units_Z 44
_cell_length_a 15.915222
_cell_length_b 27.661319
_cell_length_c 9.164136
_cell_angle_alpha 90.000000
_cell_angle_beta 32.669382
_cell_angle_gamma 90.000000
_cell_volume 2177.721762
_symmetry_space_group_name_H-M "C 2/C"
_symmetry_group_IT_number 15
_symmetry_cell_setting 'monoclinic'
loop_
_space_group_symop_operation_xyz
x,y,z
-x,y,1/2-z
-x,-y,-z
x,-y,1/2+z
1/2+x,1/2+y,z
1/2-x,1/2+y,1/2-z
1/2-x,1/2-y,-z
1/2+x,1/2-y,1/2+z
loop_
_atom_site_type_symbol
_atom_site_label
_atom_site_fract_x
_atom_site_fract_y
_atom_site_fract_z
Si Si1 0.180395 0.218764 0.940140
Si Si2 0.253179 0.319651 0.853969
Si Si3 0.500000 0.107673 0.750000
Si Si4 0.945472 0.132675 0.496370
Si Si5 0.353341 0.977292 0.292251
Si Si6 0.345552 0.529857 0.690742
O O1 0.247228 0.268796 0.772199
O O2 0.281340 0.200082 0.930918
O O3 0.185251 0.175068 0.814948
O O4 0.000000 0.225697 0.250000
O O5 0.414773 0.347984 0.606781
O O6 0.122691 0.357300 0.989679
O O7 0.596638 0.075516 0.723906
O O8 0.877845 0.085964 0.676715
O O9 0.000000 0.120575 0.250000
O O10 0.203711 0.973999 0.406320
O O11 0.301146 0.011118 0.502220
O O12 0.500000 0.000000 0.000000
O O13 0.500000 0.500000 0.500000
#
# Coordination Sequence:
#
# PCOD8154485 Si02
#       6
#     8   8   4   8   8   8
#     4   8  14  28  45  76 121 148 197 248 307 350
#     4   9  16  26  49  80 114 155 192 255 299 359
#     4  12  20  34  56  82 126 156 206 252 322 354
#     4   9  18  31  51  81 119 155 204 245 302 366
#     4  12  25  42  60  89 127 159 207 262 308 365
#     4  12  23  42  63  87 123 166 206 255 308 372
#
# _framework density 20.204601
#
# number of rings (size 3 to 8) (size 9 to 14) (size 15 to 20)
#    0.000    2.182    2.727    4.909    0.000    0.000 
#    0.000    0.000    0.000    0.000    0.000    1.273 
#   10.909    0.000    0.000    0.000    0.000    0.000 
#
# Total GULP energy -272584.975717 kJ/mol
# GULP energy per Si atom -12390.226169 kJ/mol
# Density = 2.015861 g / cm^3
# Si number density = 20.204601 Si / 1000 Ang^3
#
#
#
# Elastic Constant Matrix: (Units=GPa)
#
#
# Indices 1 2 3 4 5 6 
#
# 1 99.5240 50.8150 13.9924 0.0000 -19.7649 0.0000
# 2 50.8150 202.3362 41.7818 0.0000 -13.7165 0.0000
# 3 13.9924 41.7818 46.4363 0.0000 -4.9197 0.0000
# 4 0.0000 0.0000 0.0000 24.3581 0.0000 -17.7563
# 5 -19.7649 -13.7165 -4.9197 0.0000 20.1740 0.0000
# 6 0.0000 0.0000 0.0000 -17.7563 0.0000 38.3488
#
#
#
# Elastic Compliance Matrix: (Units=1/GPa)
#
#
# Indices 1 2 3 4 5 6 
#
# 1 0.013728 -0.002533 -0.000632 0.000000 0.011574 0.000000
# 2 -0.002533 0.006704 -0.005182 0.000000 0.000813 0.000000
# 3 -0.000632 -0.005182 0.026637 0.000000 0.002354 0.000000
# 4 0.000000 0.000000 0.000000 0.061971 0.000000 0.028694
# 5 0.011574 0.000813 0.002354 0.000000 0.062034 0.000000
# 6 0.000000 0.000000 0.000000 0.028694 0.000000 0.039362
#
#
# Mechanical properties :
#
#
# Convention : Reuss Voigt Hill
#
# Bulk Modulus (GPa) = 32.92083 62.38612 47.65348
# Shear Modulus (GPa) = 21.07427 32.68999 26.88213
#
# Velocity S-wave (km/s) = 3.23312 4.02674 3.65155
# Velocity P-wave (km/s) = 5.50150 7.25008 6.43546
#
# Compressibility (1/GPa) = 0.03037590
#
# Stress axis : x y z
#
# Youngs Moduli (GPa) = 72.84230 149.17406 37.54108
#
# Poissons Ratio (x) = 0.37782 0.02371
# Poissons Ratio (y) = 0.18449 0.19455
# Poissons Ratio (z) = 0.04601 0.77308
#
# Static dielectric constant tensor:
#      x y z
#    x 3.853770 0.000000 -0.307310 
#    y 0.000000 4.286260 0.000000 
#    z -0.307310 0.000000 3.045720 
# 
# 
# High freq. dielectric constant tensor:
#      x y z
#    x 1.786730 0.000000 -0.048010 
#    y 0.000000 1.819890 0.000000 
#    z -0.048010 0.000000 1.718500 
# 
# From -- ./inp_files/43819.got.cif
#   From: 2010.06.25/outbox.cif.g09.slc.cpg/sg15_22_cif.got.tgz:43819.got - 2010.06.28 07:06:18.
