data_PCOD8154756
_publ_section_title
;
Structure prediction by ZEFSAII (Michael W. Deem and Ramdas Pophale) SiO2 
 PCOD8154756
Probable space group: C 2/C
;
_chemical_formula_sum "Si O2"
_cell_formula_units_Z 40
_cell_length_a 8.183944
_cell_length_b 12.053499
_cell_length_c 18.787661
_cell_angle_alpha 90.000000
_cell_angle_beta 72.413464
_cell_angle_gamma 90.000000
_cell_volume 1766.691188
_symmetry_space_group_name_H-M "C 2/C"
_symmetry_group_IT_number 15
_symmetry_cell_setting 'monoclinic'
loop_
_space_group_symop_operation_xyz
x,y,z
-x,y,1/2-z
-x,-y,-z
x,-y,1/2+z
1/2+x,1/2+y,z
1/2-x,1/2+y,1/2-z
1/2-x,1/2-y,-z
1/2+x,1/2-y,1/2+z
loop_
_atom_site_type_symbol
_atom_site_label
_atom_site_fract_x
_atom_site_fract_y
_atom_site_fract_z
Si Si1 0.089253 0.392832 0.583159
Si Si2 0.264249 0.301439 0.920709
Si Si3 0.371215 0.695573 0.831888
Si Si4 0.995578 0.617705 0.669334
Si Si5 0.381921 0.467929 0.449091
O O1 0.178007 0.318052 0.632323
O O2 0.208433 0.407549 0.498497
O O3 0.923605 0.320321 0.585736
O O4 0.058017 0.516319 0.613618
O O5 0.376525 0.221568 0.856228
O O6 0.352944 0.420341 0.909687
O O7 0.250000 0.250000 0.000000
O O8 0.500000 0.707378 0.750000
O O9 0.196270 0.642350 0.828667
O O10 0.460270 0.618932 0.881899
O O11 0.000000 0.580186 0.750000
O O12 0.500000 0.500000 0.500000
#
# Coordination Sequence:
#
# PCOD8154756 Si02
#       5
#     8   8   8   8   8
#     4  12  25  49  74 105 147 191 248 305 365 439
#     4  12  23  45  75 106 143 188 243 301 364 434
#     4  12  27  48  70 108 152 190 247 304 366 441
#     4  12  27  47  74 104 147 196 242 304 375 433
#     4  12  25  45  78 108 147 194 245 304 367 438
#
# _framework density 22.641196000000001
#
# number of rings (size 3 to 8) (size 9 to 14) (size 15 to 20)
#    0.000    0.000    4.000    6.600    2.800    0.800 
#    3.600    0.000    0.000    0.000    0.000    0.000 
#    0.000    0.000    0.000    0.000    0.000    0.000 
#
# Total GULP energy -248067.781174 kJ/mol
# GULP energy per Si atom -12403.389059 kJ/mol
# Density = 2.258966 g / cm^3
# Si number density = 22.641196 Si / 1000 Ang^3
#
#
#
# Elastic Constant Matrix: (Units=GPa)
#
#
# Indices 1 2 3 4 5 6 
#
# 1 65.0361 23.4999 5.7844 0.0000 14.2381 0.0000
# 2 23.4999 141.6666 37.5748 0.0000 -7.5018 0.0000
# 3 5.7844 37.5748 101.7783 0.0000 -4.4409 0.0000
# 4 0.0000 0.0000 0.0000 23.6870 0.0000 3.9913
# 5 14.2381 -7.5018 -4.4409 0.0000 34.7920 0.0000
# 6 0.0000 0.0000 0.0000 3.9913 0.0000 42.2327
#
#
#
# Elastic Compliance Matrix: (Units=1/GPa)
#
#
# Indices 1 2 3 4 5 6 
#
# 1 0.018462 -0.003468 -0.000132 0.000000 -0.008320 0.000000
# 2 -0.003468 0.008538 -0.002828 0.000000 0.002899 0.000000
# 3 -0.000132 -0.002828 0.010914 0.000000 0.000837 0.000000
# 4 0.000000 0.000000 0.000000 0.042900 0.000000 -0.004054
# 5 -0.008320 0.002899 0.000837 0.000000 0.032879 0.000000
# 6 0.000000 0.000000 0.000000 -0.004054 0.000000 0.024062
#
#
# Mechanical properties :
#
#
# Convention : Reuss Voigt Hill
#
# Bulk Modulus (GPa) = 39.90935 49.13325 44.52130
# Shear Modulus (GPa) = 31.45363 36.25046 33.85205
#
# Velocity S-wave (km/s) = 3.73127 4.00570 3.87092
# Velocity P-wave (km/s) = 6.01900 6.56826 6.29962
#
# Compressibility (1/GPa) = 0.02505679
#
# Stress axis : x y z
#
# Youngs Moduli (GPa) = 54.16388 117.12540 91.62957
#
# Poissons Ratio (x) = 0.40621 0.01209
# Poissons Ratio (y) = 0.18785 0.25917
# Poissons Ratio (z) = 0.00715 0.33128
#
# Static dielectric constant tensor:
#      x y z
#    x 4.341240 0.000000 0.081050 
#    y 0.000000 4.063840 0.000000 
#    z 0.081050 0.000000 4.318730 
# 
# 
# High freq. dielectric constant tensor:
#      x y z
#    x 1.897620 0.000000 0.005540 
#    y 0.000000 1.919270 0.000000 
#    z 0.005540 0.000000 1.896490 
# 
# From -- ./inp_files/187797.got.cif
#   From: 2010.06.25/outbox.cif.g09.slc.cpg/sg15_94_cif.got.tgz:187797.got - 2010.06.28 07:06:18.
