data_PCOD8154073
_publ_section_title
;
Structure prediction by ZEFSAII (Michael W. Deem and Ramdas Pophale) SiO2 
 PCOD8154073
Probable space group: C 2/C
;
_chemical_formula_sum "Si O2"
_cell_formula_units_Z 52
_cell_length_a 32.980181
_cell_length_b 14.097981
_cell_length_c 9.641917
_cell_angle_alpha 90.000000
_cell_angle_beta 34.030003
_cell_angle_gamma 90.000000
_cell_volume 2508.834236
_symmetry_space_group_name_H-M "C 2/C"
_symmetry_group_IT_number 15
_symmetry_cell_setting 'monoclinic'
loop_
_space_group_symop_operation_xyz
x,y,z
-x,y,1/2-z
-x,-y,-z
x,-y,1/2+z
1/2+x,1/2+y,z
1/2-x,1/2+y,1/2-z
1/2-x,1/2-y,-z
1/2+x,1/2-y,1/2+z
loop_
_atom_site_type_symbol
_atom_site_label
_atom_site_fract_x
_atom_site_fract_y
_atom_site_fract_z
Si Si1 0.000000 0.250179 0.250000
Si Si2 0.919485 0.573727 0.519821
Si Si3 0.395619 0.893692 0.403129
Si Si4 0.426365 0.413123 0.403033
Si Si5 0.180209 0.744206 0.789883
Si Si6 0.402631 0.407582 0.158780
Si Si7 0.259991 0.690037 0.107035
O O1 0.954632 0.313277 0.270144
O O2 0.942969 0.188359 0.498528
O O3 0.898863 0.473233 0.512027
O O4 0.913998 0.562777 0.701110
O O5 0.865536 0.652004 0.614235
O O6 0.000000 0.604238 0.250000
O O7 0.315123 0.851525 0.624636
O O8 0.500000 0.365501 0.250000
O O9 0.362986 0.340598 0.617667
O O10 0.433310 0.437722 0.221189
O O11 0.415531 0.512272 0.510092
O O12 0.250000 0.750000 0.500000
O O13 0.204498 0.739721 0.880671
O O14 0.316163 0.394096 0.414971
O O15 0.250000 0.750000 0.000000
#
# Coordination Sequence:
#
# PCOD8154073 Si02
#       7
#     4   8   8   8   8   8   8
#     4  12  26  46  70 106 140 180 242 280 358 414
#     4  12  28  47  75 104 142 188 239 302 351 422
#     4  12  28  46  74 104 143 187 241 291 357 422
#     4  11  25  43  69 102 136 179 229 280 352 405
#     4  11  26  46  67 104 139 187 237 282 353 416
#     4  11  26  42  72 100 138 178 229 288 342 426
#     4  11  25  45  68 101 142 189 224 292 350 415
#
# _framework density 20.726756999999999
#
# number of rings (size 3 to 8) (size 9 to 14) (size 15 to 20)
#    0.000    0.615    4.615    1.385   10.769    1.231 
#    0.000    0.000    0.000    0.000    0.000    0.000 
#    0.000    0.000    0.000    0.000    0.000    0.000 
#
# Total GULP energy -322530.328381 kJ/mol
# GULP energy per Si atom -12405.012630 kJ/mol
# Density = 2.067958 g / cm^3
# Si number density = 20.726757 Si / 1000 Ang^3
#
#
#
# Elastic Constant Matrix: (Units=GPa)
#
#
# Indices 1 2 3 4 5 6 
#
# 1 163.4735 63.4323 63.8287 0.0000 11.5853 0.0000
# 2 63.4323 119.1750 41.5944 0.0000 6.3470 0.0000
# 3 63.8287 41.5944 121.9119 0.0000 -1.7606 0.0000
# 4 0.0000 0.0000 0.0000 31.8479 0.0000 5.1984
# 5 11.5853 6.3470 -1.7606 0.0000 50.2012 0.0000
# 6 0.0000 0.0000 0.0000 5.1984 0.0000 42.8491
#
#
#
# Elastic Compliance Matrix: (Units=1/GPa)
#
#
# Indices 1 2 3 4 5 6 
#
# 1 0.008959 -0.003439 -0.003543 0.000000 -0.001757 0.000000
# 2 -0.003439 0.010933 -0.001939 0.000000 -0.000657 0.000000
# 3 -0.003543 -0.001939 0.010740 0.000000 0.001440 0.000000
# 4 0.000000 0.000000 0.000000 0.032034 0.000000 -0.003886
# 5 -0.001757 -0.000657 0.001440 0.000000 0.020459 0.000000
# 6 0.000000 0.000000 0.000000 -0.003886 0.000000 0.023809
#
#
# Mechanical properties :
#
#
# Convention : Reuss Voigt Hill
#
# Bulk Modulus (GPa) = 78.18187 82.47458 80.32823
# Shear Modulus (GPa) = 38.74778 40.69329 39.72053
#
# Velocity S-wave (km/s) = 4.32841 4.43575 4.38241
# Velocity P-wave (km/s) = 7.92353 8.13094 8.02791
#
# Compressibility (1/GPa) = 0.01279069
#
# Stress axis : x y z
#
# Youngs Moduli (GPa) = 111.61515 91.46538 93.10906
#
# Poissons Ratio (x) = 0.31451 0.32988
# Poissons Ratio (y) = 0.38380 0.18057
# Poissons Ratio (z) = 0.39545 0.17739
#
# Static dielectric constant tensor:
#      x y z
#    x 4.138070 0.000000 -0.329590 
#    y 0.000000 3.735700 0.000000 
#    z -0.329590 0.000000 4.656760 
# 
# 
# High freq. dielectric constant tensor:
#      x y z
#    x 1.834500 0.000000 -0.004110 
#    y 0.000000 1.808240 0.000000 
#    z -0.004110 0.000000 1.832450 
# 
# From -- ./inp_files/70092.got.cif
#   From: 2010.06.25/outbox.cif.g09.slc.cpg/sg15_36_cif.got.tgz:70092.got - 2010.06.28 07:06:18.
