data_PCOD8154232
_publ_section_title
;
Structure prediction by ZEFSAII (Michael W. Deem and Ramdas Pophale) SiO2 
 PCOD8154232
Probable space group: C 2/C
;
_chemical_formula_sum "Si O2"
_cell_formula_units_Z 44
_cell_length_a 6.856674
_cell_length_b 21.548421
_cell_length_c 14.169305
_cell_angle_alpha 90.000000
_cell_angle_beta 76.738654
_cell_angle_gamma 90.000000
_cell_volume 2037.695706
_symmetry_space_group_name_H-M "C 2/C"
_symmetry_group_IT_number 15
_symmetry_cell_setting 'monoclinic'
loop_
_space_group_symop_operation_xyz
x,y,z
-x,y,1/2-z
-x,-y,-z
x,-y,1/2+z
1/2+x,1/2+y,z
1/2-x,1/2+y,1/2-z
1/2-x,1/2-y,-z
1/2+x,1/2-y,1/2+z
loop_
_atom_site_type_symbol
_atom_site_label
_atom_site_fract_x
_atom_site_fract_y
_atom_site_fract_z
Si Si1 0.859026 0.077012 0.846285
Si Si2 0.697558 0.561849 0.173956
Si Si3 0.004991 0.662848 0.857537
Si Si4 0.500000 0.852789 0.750000
Si Si5 0.814570 0.782843 0.589132
Si Si6 0.892661 0.887090 0.010765
O O1 0.673299 0.121538 0.891079
O O2 0.000000 0.107579 0.750000
O O3 0.774171 0.011885 0.815562
O O4 0.994507 0.070109 0.925021
O O5 0.500000 0.585149 0.250000
O O6 0.688605 0.569252 0.062540
O O7 0.878094 0.601624 0.195316
O O8 0.000000 0.642677 0.750000
O O9 0.060715 0.734849 0.861010
O O10 0.788461 0.651589 0.925167
O O11 0.626242 0.807115 0.669570
O O12 0.750000 0.750000 0.500000
O O13 0.954228 0.840142 0.552651
#
# Coordination Sequence:
#
# PCOD8154232 Si02
#       6
#     8   8   8   4   8   8
#     4  11  25  47  72 105 142 182 241 297 352 426
#     4  11  26  47  73 103 145 186 238 294 355 424
#     4  12  27  43  72 104 140 186 230 292 360 416
#     4  12  28  48  74 104 148 190 238 294 358 420
#     4  12  27  46  72 102 143 185 238 291 348 427
#     4  12  25  48  71 108 139 186 239 289 360 423
#
# _framework density 21.593019000000002
#
# number of rings (size 3 to 8) (size 9 to 14) (size 15 to 20)
#    0.000    0.364    5.455    2.182    7.636    0.727 
#    0.000    0.000    0.000    0.000    0.000    0.000 
#    0.000    0.000    0.000    0.000    0.000    0.000 
#
# Total GULP energy -272913.631584 kJ/mol
# GULP energy per Si atom -12405.165072 kJ/mol
# Density = 2.154387 g / cm^3
# Si number density = 21.593019 Si / 1000 Ang^3
#
#
#
# Elastic Constant Matrix: (Units=GPa)
#
#
# Indices 1 2 3 4 5 6 
#
# 1 93.7125 28.6099 49.1884 0.0000 -6.1007 0.0000
# 2 28.6099 83.8483 27.4335 0.0000 -9.7767 0.0000
# 3 49.1884 27.4335 127.3407 0.0000 -4.9556 0.0000
# 4 0.0000 0.0000 0.0000 29.2841 0.0000 3.0171
# 5 -6.1007 -9.7767 -4.9556 0.0000 53.9928 0.0000
# 6 0.0000 0.0000 0.0000 3.0171 0.0000 30.7917
#
#
#
# Elastic Compliance Matrix: (Units=1/GPa)
#
#
# Indices 1 2 3 4 5 6 
#
# 1 0.014192 -0.003215 -0.004767 0.000000 0.000584 0.000000
# 2 -0.003215 0.013795 -0.001653 0.000000 0.001983 0.000000
# 3 -0.004767 -0.001653 0.010054 0.000000 0.000085 0.000000
# 4 0.000000 0.000000 0.000000 0.034496 0.000000 -0.003380
# 5 0.000584 0.001983 0.000085 0.000000 0.018954 0.000000
# 6 0.000000 0.000000 0.000000 -0.003380 0.000000 0.032808
#
#
# Mechanical properties :
#
#
# Convention : Reuss Voigt Hill
#
# Bulk Modulus (GPa) = 53.27088 57.26278 55.26683
# Shear Modulus (GPa) = 33.37203 36.12505 34.74854
#
# Velocity S-wave (km/s) = 3.93555 4.09467 4.01590
# Velocity P-wave (km/s) = 6.73613 6.99512 6.86685
#
# Compressibility (1/GPa) = 0.01877198
#
# Stress axis : x y z
#
# Youngs Moduli (GPa) = 70.45975 72.48851 99.46622
#
# Poissons Ratio (x) = 0.23304 0.47414
# Poissons Ratio (y) = 0.22652 0.16441
# Poissons Ratio (z) = 0.33587 0.11982
#
# Static dielectric constant tensor:
#      x y z
#    x 3.687380 0.000000 -0.444680 
#    y 0.000000 3.892490 0.000000 
#    z -0.444680 0.000000 3.447430 
# 
# 
# High freq. dielectric constant tensor:
#      x y z
#    x 1.854600 0.000000 -0.000100 
#    y 0.000000 1.850830 0.000000 
#    z -0.000100 0.000000 1.865660 
# 
# From -- ./inp_files/129330.got.cif
#   From: 2010.06.25/outbox.cif.g09.slc.cpg/sg15_65_cif.got.tgz:129330.got - 2010.06.28 07:06:18.
