data_PCOD8154065
_publ_section_title
;
Structure prediction by ZEFSAII (Michael W. Deem and Ramdas Pophale) SiO2 
 PCOD8154065
Probable space group: C 2/C
;
_chemical_formula_sum "Si O2"
_cell_formula_units_Z 56
_cell_length_a 27.011619
_cell_length_b 11.436495
_cell_length_c 9.145181
_cell_angle_alpha 90.000000
_cell_angle_beta 120.254091
_cell_angle_gamma 90.000000
_cell_volume 2440.331523
_symmetry_space_group_name_H-M "C 2/C"
_symmetry_group_IT_number 15
_symmetry_cell_setting 'monoclinic'
loop_
_space_group_symop_operation_xyz
x,y,z
-x,y,1/2-z
-x,-y,-z
x,-y,1/2+z
1/2+x,1/2+y,z
1/2-x,1/2+y,1/2-z
1/2-x,1/2-y,-z
1/2+x,1/2-y,1/2+z
loop_
_atom_site_type_symbol
_atom_site_label
_atom_site_fract_x
_atom_site_fract_y
_atom_site_fract_z
Si Si1 0.852139 0.768546 0.472971
Si Si2 0.901142 0.601946 0.993167
Si Si3 0.204393 0.555228 0.199125
Si Si4 0.221929 0.058319 0.462882
Si Si5 0.564220 0.350358 0.381736
Si Si6 0.108500 0.969366 0.163218
Si Si7 0.442163 0.894927 0.243292
O O1 0.828438 0.677118 0.314884
O O2 0.800244 0.826206 0.487623
O O3 0.891100 0.863392 0.449877
O O4 0.893373 0.701223 0.645298
O O5 0.837886 0.556896 0.852557
O O6 0.946384 0.595040 0.925420
O O7 0.896988 0.734164 0.046971
O O8 0.925044 0.521444 0.157400
O O9 0.224023 0.579576 0.061435
O O10 0.257662 0.536676 0.386414
O O11 0.173634 0.006429 0.286194
O O12 0.500000 0.310388 0.250000
O O13 0.583635 0.434362 0.281297
O O14 0.570516 0.424694 0.540849
O O15 0.500000 0.851751 0.250000
#
# Coordination Sequence:
#
# PCOD8154065 Si02
#       7
#     8   8   8   8   8   8   8
#     4  11  25  43  69 101 141 182 246 294 350 439
#     4  11  26  46  71 114 142 187 244 298 348 452
#     4  11  25  42  73 100 142 184 231 291 373 412
#     4  12  23  47  66 103 136 188 229 299 354 426
#     4  12  28  48  75 100 146 191 240 297 364 422
#     4  12  26  47  69 104 140 182 251 294 351 434
#     4  11  25  45  75 104 151 187 239 297 370 418
#
# _framework density 22.947700999999999
#
# number of rings (size 3 to 8) (size 9 to 14) (size 15 to 20)
#    0.000    0.571    2.857    4.286    8.000    3.429 
#    0.000    0.000    0.000    0.000    0.000    0.000 
#    0.000    0.000    0.000    0.000    0.000    0.000 
#
# Total GULP energy -347269.934760 kJ/mol
# GULP energy per Si atom -12402.497670 kJ/mol
# Density = 2.289547 g / cm^3
# Si number density = 22.947701 Si / 1000 Ang^3
#
#
#
# Elastic Constant Matrix: (Units=GPa)
#
#
# Indices 1 2 3 4 5 6 
#
# 1 81.7907 12.8281 14.6871 0.0000 -4.3988 0.0000
# 2 12.8281 133.8337 46.1728 0.0000 6.6637 0.0000
# 3 14.6871 46.1728 94.3471 0.0000 -2.9080 0.0000
# 4 0.0000 0.0000 0.0000 27.1393 0.0000 0.8376
# 5 -4.3988 6.6637 -2.9080 0.0000 38.6557 0.0000
# 6 0.0000 0.0000 0.0000 0.8376 0.0000 26.9599
#
#
#
# Elastic Compliance Matrix: (Units=1/GPa)
#
#
# Indices 1 2 3 4 5 6 
#
# 1 0.012703 -0.000750 -0.001566 0.000000 0.001457 0.000000
# 2 -0.000750 0.009173 -0.004434 0.000000 -0.002000 0.000000
# 3 -0.001566 -0.004434 0.013061 0.000000 0.001569 0.000000
# 4 0.000000 0.000000 0.000000 0.036882 0.000000 -0.001146
# 5 0.001457 -0.002000 0.001569 0.000000 0.026498 0.000000
# 6 0.000000 0.000000 0.000000 -0.001146 0.000000 0.037128
#
#
# Mechanical properties :
#
#
# Convention : Reuss Voigt Hill
#
# Bulk Modulus (GPa) = 46.64547 50.81640 48.73093
# Shear Modulus (GPa) = 32.03241 34.30321 33.16781
#
# Velocity S-wave (km/s) = 3.74021 3.87051 3.80592
# Velocity P-wave (km/s) = 6.24686 6.49361 6.37143
#
# Compressibility (1/GPa) = 0.02143831
#
# Stress axis : x y z
#
# Youngs Moduli (GPa) = 78.71867 109.01242 76.56197
#
# Poissons Ratio (x) = 0.08177 0.11986
# Poissons Ratio (y) = 0.05904 0.33949
# Poissons Ratio (z) = 0.12324 0.48339
#
# Static dielectric constant tensor:
#      x y z
#    x 4.273980 0.000000 0.137020 
#    y 0.000000 4.122920 0.000000 
#    z 0.137020 0.000000 4.172730 
# 
# 
# High freq. dielectric constant tensor:
#      x y z
#    x 1.905200 0.000000 -0.002720 
#    y 0.000000 1.912970 0.000000 
#    z -0.002720 0.000000 1.910910 
# 
# From -- ./inp_files/65524.got.cif
#   From: 2010.06.25/outbox.cif.g09.slc.cpg/sg15_33_cif.got.tgz:65524.got - 2010.06.28 07:06:18.
