data_PCOD8154572
_publ_section_title
;
Structure prediction by ZEFSAII (Michael W. Deem and Ramdas Pophale) SiO2 
 PCOD8154572
Probable space group: C 2/C
;
_chemical_formula_sum "Si O2"
_cell_formula_units_Z 60
_cell_length_a 16.602513
_cell_length_b 19.482473
_cell_length_c 17.011178
_cell_angle_alpha 90.000000
_cell_angle_beta 30.444721
_cell_angle_gamma 90.000000
_cell_volume 2788.104557
_symmetry_space_group_name_H-M "C 2/C"
_symmetry_group_IT_number 15
_symmetry_cell_setting 'monoclinic'
loop_
_space_group_symop_operation_xyz
x,y,z
-x,y,1/2-z
-x,-y,-z
x,-y,1/2+z
1/2+x,1/2+y,z
1/2-x,1/2+y,1/2-z
1/2-x,1/2-y,-z
1/2+x,1/2-y,1/2+z
loop_
_atom_site_type_symbol
_atom_site_label
_atom_site_fract_x
_atom_site_fract_y
_atom_site_fract_z
Si Si1 0.629309 0.808191 0.989647
Si Si2 0.489148 0.680775 0.174058
Si Si3 0.089385 0.072160 0.597583
Si Si4 0.681804 0.432438 0.451136
Si Si5 0.654693 0.180661 0.067217
Si Si6 0.108165 0.713427 0.931525
Si Si7 0.079005 0.155535 0.888982
Si Si8 0.000000 0.619083 0.750000
O O1 0.594178 0.725960 0.025067
O O2 0.507655 0.833792 0.025381
O O3 0.597401 0.838218 0.102946
O O4 0.803440 0.822764 0.809131
O O5 0.500000 0.716024 0.250000
O O6 0.570528 0.606366 0.108275
O O7 0.242080 0.114842 0.496679
O O8 0.000000 0.043313 0.750000
O O9 0.965063 0.118324 0.654810
O O10 0.144281 0.012446 0.491844
O O11 0.629359 0.402057 0.410552
O O12 0.869319 0.424720 0.312352
O O13 0.500000 0.181752 0.250000
O O14 0.750000 0.250000 0.000000
O O15 0.601070 0.177722 0.022046
O O16 0.281004 0.708929 0.747274
O O17 0.068105 0.795122 0.963411
#
# Coordination Sequence:
#
# PCOD8154572 Si02
#       8
#     8   8   8   8   8   8   8   4
#     4  12  23  37  66  99 142 179 233 301 362 416
#     4  12  22  38  62  97 134 187 239 289 354 432
#     4  12  27  49  72  99 145 197 242 298 363 436
#     4  12  27  45  69  98 144 200 240 288 357 442
#     4  12  25  46  78 107 136 180 240 307 370 427
#     4  12  24  42  71 110 142 174 232 312 367 412
#     4  12  25  45  72 110 143 183 239 303 371 434
#     4  12  24  44  66  98 144 190 238 294 354 434
#
# _framework density 21.519997
#
# number of rings (size 3 to 8) (size 9 to 14) (size 15 to 20)
#    0.000    0.000    7.333    4.000    0.933    0.000 
#    0.000    0.000    0.000    3.200    0.000    0.000 
#    0.000    0.000    0.000    0.000    0.000    0.000 
#
# Total GULP energy -371932.480072 kJ/mol
# GULP energy per Si atom -12397.749336 kJ/mol
# Density = 2.147102 g / cm^3
# Si number density = 21.519997 Si / 1000 Ang^3
#
#
#
# Elastic Constant Matrix: (Units=GPa)
#
#
# Indices 1 2 3 4 5 6 
#
# 1 148.0865 34.3761 31.1623 -0.0171 0.6762 0.0080
# 2 34.3761 100.1381 39.5867 -0.0096 -7.2587 0.0053
# 3 31.1623 39.5867 112.5074 -0.0495 -9.4453 0.0236
# 4 -0.0171 -0.0096 -0.0495 24.3013 0.0143 1.6849
# 5 0.6762 -7.2587 -9.4453 0.0143 42.0451 -0.0073
# 6 0.0080 0.0053 0.0236 1.6849 -0.0073 30.3992
#
#
#
# Elastic Compliance Matrix: (Units=1/GPa)
#
#
# Indices 1 2 3 4 5 6 
#
# 1 0.007540 -0.002084 -0.001422 0.000002 -0.000801 -0.000001
# 2 -0.002084 0.012226 -0.003613 -0.000005 0.001333 0.000002
# 3 -0.001422 -0.003613 0.010705 0.000019 0.001804 -0.000008
# 4 0.000002 -0.000005 0.000019 0.041309 -0.000011 -0.002290
# 5 -0.000801 0.001333 0.001804 -0.000011 0.024432 0.000005
# 6 -0.000001 0.000002 -0.000008 -0.002290 0.000005 0.033022
#
#
# Mechanical properties :
#
#
# Convention : Reuss Voigt Hill
#
# Bulk Modulus (GPa) = 61.60417 63.44248 62.52332
# Shear Modulus (GPa) = 33.58329 36.38959 34.98644
#
# Velocity S-wave (km/s) = 3.95468 4.11660 4.03645
# Velocity P-wave (km/s) = 7.03856 7.22079 7.13026
#
# Compressibility (1/GPa) = 0.01623267
#
# Stress axis : x y z
#
# Youngs Moduli (GPa) = 132.63445 81.78972 93.41499
#
# Poissons Ratio (x) = 0.17045 0.13286
# Poissons Ratio (y) = 0.27641 0.33750
# Poissons Ratio (z) = 0.18864 0.29550
#
# Static dielectric constant tensor:
#      x y z
#    x 4.316500 -0.000090 -0.016840 
#    y -0.000090 3.521850 0.000080 
#    z -0.016840 0.000080 3.866690 
# 
# 
# High freq. dielectric constant tensor:
#      x y z
#    x 1.874290 0.000000 0.001270 
#    y 0.000000 1.811230 0.000010 
#    z 0.001270 0.000010 1.855160 
# 
# From -- ./inp_files/67549.got.cif
#   From: 2010.06.25/outbox.cif.g09.slc.cpg/sg15_34_cif.got.tgz:67549.got - 2010.06.28 07:06:18.
