data_PCOD8154849
_publ_section_title
;
Structure prediction by ZEFSAII (Michael W. Deem and Ramdas Pophale) SiO2 
 PCOD8154849
Probable space group: C 2/C
;
_chemical_formula_sum "Si O2"
_cell_formula_units_Z 44
_cell_length_a 20.643479
_cell_length_b 6.851283
_cell_length_c 13.726322
_cell_angle_alpha 90.000000
_cell_angle_beta 102.410830
_cell_angle_gamma 90.000000
_cell_volume 1896.006333
_symmetry_space_group_name_H-M "C 2/C"
_symmetry_group_IT_number 15
_symmetry_cell_setting 'monoclinic'
loop_
_space_group_symop_operation_xyz
x,y,z
-x,y,1/2-z
-x,-y,-z
x,-y,1/2+z
1/2+x,1/2+y,z
1/2-x,1/2+y,1/2-z
1/2-x,1/2-y,-z
1/2+x,1/2-y,1/2+z
loop_
_atom_site_type_symbol
_atom_site_label
_atom_site_fract_x
_atom_site_fract_y
_atom_site_fract_z
Si Si1 0.201329 0.124989 0.045486
Si Si2 0.952322 0.655509 0.433096
Si Si3 0.287836 0.210420 0.632342
Si Si4 0.906971 0.919693 0.582827
Si Si5 0.312546 0.026251 0.832222
Si Si6 0.500000 0.358946 0.250000
O O1 0.191100 0.243538 0.141474
O O2 0.230816 0.904686 0.054578
O O3 0.250000 0.250000 0.000000
O O4 0.129847 0.110204 0.971466
O O5 0.951829 0.834866 0.509430
O O6 0.878516 0.572803 0.394762
O O7 0.976643 0.725724 0.333857
O O8 0.000000 0.500000 0.500000
O O9 0.355063 0.253059 0.596892
O O10 0.253478 0.409249 0.657908
O O11 0.310665 0.043359 0.715939
O O12 0.944981 0.992159 0.691288
#
# Coordination Sequence:
#
# PCOD8154849 Si02
#       6
#     8   8   8   8   8   4
#     4  12  24  44  75 112 154 189 239 318 387 451
#     4  12  30  53  76 109 155 205 262 312 377 455
#     4  12  26  45  75 119 150 195 248 315 388 453
#     4  12  28  50  77 110 154 197 261 317 382 454
#     4  12  26  45  77 111 154 197 252 311 386 453
#     4  12  32  50  80 106 150 212 260 314 376 450
#
# _framework density 23.206674
#
# number of rings (size 3 to 8) (size 9 to 14) (size 15 to 20)
#    0.000    0.000    5.455    3.273   12.727    0.000 
#    0.000    0.000    0.000    0.000    0.000    0.000 
#    0.000    0.000    0.000    0.000    0.000    0.000 
#
# Total GULP energy -272652.713667 kJ/mol
# GULP energy per Si atom -12393.305167 kJ/mol
# Density = 2.315385 g / cm^3
# Si number density = 23.206674 Si / 1000 Ang^3
#
#
#
# Elastic Constant Matrix: (Units=GPa)
#
#
# Indices 1 2 3 4 5 6 
#
# 1 99.8390 45.8126 60.6501 0.0000 3.2618 0.0000
# 2 45.8126 116.2684 53.9445 0.0000 0.7723 0.0000
# 3 60.6501 53.9445 140.4661 0.0000 1.8995 0.0000
# 4 0.0000 0.0000 0.0000 57.3965 0.0000 -1.6133
# 5 3.2618 0.7723 1.8995 0.0000 49.6616 0.0000
# 6 0.0000 0.0000 0.0000 -1.6133 0.0000 53.2464
#
#
#
# Elastic Compliance Matrix: (Units=1/GPa)
#
#
# Indices 1 2 3 4 5 6 
#
# 1 0.014657 -0.003454 -0.004992 0.000000 -0.000718 0.000000
# 2 -0.003454 0.011280 -0.002842 0.000000 0.000160 0.000000
# 3 -0.004992 -0.002842 0.010367 0.000000 -0.000024 0.000000
# 4 0.000000 0.000000 0.000000 0.017438 0.000000 0.000528
# 5 -0.000718 0.000160 -0.000024 0.000000 0.020182 0.000000
# 6 0.000000 0.000000 0.000000 0.000528 0.000000 0.018797
#
#
# Mechanical properties :
#
#
# Convention : Reuss Voigt Hill
#
# Bulk Modulus (GPa) = 72.85809 75.26533 74.06171
# Shear Modulus (GPa) = 41.71065 45.13865 43.42465
#
# Velocity S-wave (km/s) = 4.24412 4.41508 4.33045
# Velocity P-wave (km/s) = 7.44851 7.64811 7.54897
#
# Compressibility (1/GPa) = 0.01372531
#
# Stress axis : x y z
#
# Youngs Moduli (GPa) = 68.22468 88.65545 96.46227
#
# Poissons Ratio (x) = 0.30624 0.48158
# Poissons Ratio (y) = 0.23567 0.27419
# Poissons Ratio (z) = 0.34061 0.25200
#
# Static dielectric constant tensor:
#      x y z
#    x 2.849260 0.000000 4.097330 
#    y 0.000000 -0.604200 0.000000 
#    z 4.097330 0.000000 -8.036400 
# 
# 
# High freq. dielectric constant tensor:
#      x y z
#    x 1.918950 0.000000 0.008170 
#    y 0.000000 1.925550 0.000000 
#    z 0.008170 0.000000 1.940710 
# 
# From -- ./inp_files/170803.got.cif
#   From: 2010.06.25/outbox.cif.g09.slc.cpg/sg15_86_cif.got.tgz:170803.got - 2010.06.28 07:06:18.
