data_PCOD8154078
_publ_section_title
;
Structure prediction by ZEFSAII (Michael W. Deem and Ramdas Pophale) SiO2 
 PCOD8154078
Probable space group: C 2/C
;
_chemical_formula_sum "Si O2"
_cell_formula_units_Z 48
_cell_length_a 4.712696
_cell_length_b 19.715735
_cell_length_c 21.876615
_cell_angle_alpha 90.000000
_cell_angle_beta 94.369256
_cell_angle_gamma 90.000000
_cell_volume 2026.742276
_symmetry_space_group_name_H-M "C 2/C"
_symmetry_group_IT_number 15
_symmetry_cell_setting 'monoclinic'
loop_
_space_group_symop_operation_xyz
x,y,z
-x,y,1/2-z
-x,-y,-z
x,-y,1/2+z
1/2+x,1/2+y,z
1/2-x,1/2+y,1/2-z
1/2-x,1/2-y,-z
1/2+x,1/2-y,1/2+z
loop_
_atom_site_type_symbol
_atom_site_label
_atom_site_fract_x
_atom_site_fract_y
_atom_site_fract_z
Si Si1 0.205001 0.547599 0.043684
Si Si2 0.500000 0.197025 0.250000
Si Si3 0.884908 0.364604 0.368806
Si Si4 0.500000 0.793797 0.250000
Si Si5 0.374955 0.843666 0.617031
Si Si6 0.892635 0.932478 0.421909
Si Si7 0.155121 0.764908 0.930664
O O1 0.015670 0.590377 0.087688
O O2 0.452065 0.505455 0.082837
O O3 0.364905 0.590952 0.992915
O O4 0.000000 0.500000 0.000000
O O5 0.254343 0.244417 0.274927
O O6 0.621870 0.151033 0.308295
O O7 0.568087 0.376483 0.387505
O O8 0.879681 0.344756 0.298493
O O9 0.078883 0.431987 0.385276
O O10 0.007567 0.302942 0.408241
O O11 0.558679 0.778002 0.602502
O O12 0.055526 0.830084 0.585923
O O13 0.250000 0.750000 0.000000
#
# Coordination Sequence:
#
# PCOD8154078 Si02
#       7
#     8   4   8   4   8   8   8
#     4  11  26  46  71  98 145 187 238 297 360 410
#     4  12  22  50  69 102 137 194 236 280 358 442
#     4  12  23  44  70 104 139 183 234 282 364 431
#     4  12  24  46  73  98 149 188 222 290 358 436
#     4  12  26  44  72 102 140 190 243 290 359 433
#     4  11  25  43  71 101 138 184 231 291 360 426
#     4  12  26  40  68 108 145 175 228 300 367 432
#
# _framework density 23.683329000000001
#
# number of rings (size 3 to 8) (size 9 to 14) (size 15 to 20)
#    0.000    0.333    5.000    3.500    7.000    0.000 
#    0.000    0.833    3.667    0.000    0.000    0.000 
#    0.000    0.000    0.000    0.000    0.000    0.000 
#
# Total GULP energy -297447.176694 kJ/mol
# GULP energy per Si atom -12393.632362 kJ/mol
# Density = 2.362942 g / cm^3
# Si number density = 23.683329 Si / 1000 Ang^3
#
#
#
# Elastic Constant Matrix: (Units=GPa)
#
#
# Indices 1 2 3 4 5 6 
#
# 1 78.8367 -1.8964 14.3988 0.0000 -2.5332 0.0000
# 2 -1.8964 60.9346 33.5933 0.0000 -0.0872 0.0000
# 3 14.3988 33.5933 164.2192 0.0000 -1.2021 0.0000
# 4 0.0000 0.0000 0.0000 30.3757 0.0000 -4.6683
# 5 -2.5332 -0.0872 -1.2021 0.0000 39.4652 0.0000
# 6 0.0000 0.0000 0.0000 -4.6683 0.0000 36.9456
#
#
#
# Elastic Compliance Matrix: (Units=1/GPa)
#
#
# Indices 1 2 3 4 5 6 
#
# 1 0.012988 0.001161 -0.001370 0.000000 0.000795 0.000000
# 2 0.001161 0.018601 -0.003907 0.000000 -0.000003 0.000000
# 3 -0.001370 -0.003907 0.007010 0.000000 0.000117 0.000000
# 4 0.000000 0.000000 0.000000 0.033573 0.000000 0.004242
# 5 0.000795 -0.000003 0.000117 0.000000 0.025393 0.000000
# 6 0.000000 0.000000 0.000000 0.004242 0.000000 0.027603
#
#
# Mechanical properties :
#
#
# Convention : Reuss Voigt Hill
#
# Bulk Modulus (GPa) = 32.93165 44.02021 38.47593
# Shear Modulus (GPa) = 34.83761 38.55029 36.69395
#
# Velocity S-wave (km/s) = 3.83949 4.03890 3.94046
# Velocity P-wave (km/s) = 5.79575 6.35434 6.08146
#
# Compressibility (1/GPa) = 0.03036593
#
# Stress axis : x y z
#
# Youngs Moduli (GPa) = 76.99295 53.76041 142.66034
#
# Poissons Ratio (x) = -0.06241 0.19551
# Poissons Ratio (y) = -0.08938 0.55736
# Poissons Ratio (z) = 0.10552 0.21004
#
# Static dielectric constant tensor:
#      x y z
#    x 4.878120 0.000000 -0.086870 
#    y 0.000000 4.208290 0.000000 
#    z -0.086870 0.000000 4.275370 
# 
# 
# High freq. dielectric constant tensor:
#      x y z
#    x 1.968550 0.000000 -0.008460 
#    y 0.000000 1.922080 0.000000 
#    z -0.008460 0.000000 1.929190 
# 
# From -- ./inp_files/185329.got.cif
#   From: 2010.06.25/outbox.cif.g09.slc.cpg/sg15_93_cif.got.tgz:185329.got - 2010.06.28 07:06:18.
