data_PCOD8154908
_publ_section_title
;
Structure prediction by ZEFSAII (Michael W. Deem and Ramdas Pophale) SiO2 
 PCOD8154908
Probable space group: C 2/C
;
_chemical_formula_sum "Si O2"
_cell_formula_units_Z 52
_cell_length_a 20.256962
_cell_length_b 10.903180
_cell_length_c 13.928340
_cell_angle_alpha 90.000000
_cell_angle_beta 131.193742
_cell_angle_gamma 90.000000
_cell_volume 2314.865534
_symmetry_space_group_name_H-M "C 2/C"
_symmetry_group_IT_number 15
_symmetry_cell_setting 'monoclinic'
loop_
_space_group_symop_operation_xyz
x,y,z
-x,y,1/2-z
-x,-y,-z
x,-y,1/2+z
1/2+x,1/2+y,z
1/2-x,1/2+y,1/2-z
1/2-x,1/2-y,-z
1/2+x,1/2-y,1/2+z
loop_
_atom_site_type_symbol
_atom_site_label
_atom_site_fract_x
_atom_site_fract_y
_atom_site_fract_z
Si Si1 0.727689 0.202064 0.083294
Si Si2 0.108421 0.833406 0.224210
Si Si3 0.294102 0.922540 0.427269
Si Si4 0.411345 0.075420 0.217455
Si Si5 0.876266 0.650597 0.818573
Si Si6 0.000000 0.994782 0.750000
Si Si7 0.951669 0.186853 0.037511
O O1 0.788467 0.271960 0.216871
O O2 0.745985 0.058615 0.111896
O O3 0.750000 0.250000 0.000000
O O4 0.625609 0.220381 0.008673
O O5 0.213564 0.831878 0.328336
O O6 0.073124 0.694896 0.202622
O O7 0.075068 0.920271 0.277326
O O8 0.071201 0.879135 0.085588
O O9 0.335980 0.891120 0.569374
O O10 0.369863 0.902702 0.419959
O O11 0.500000 0.034878 0.250000
O O12 0.379197 0.962142 0.248979
O O13 0.959113 0.737715 0.884459
O O14 0.043518 0.914162 0.874872
#
# Coordination Sequence:
#
# PCOD8154908 Si02
#       7
#     8   8   8   8   8   4   8
#     4  12  24  47  74 107 150 192 248 304 366 443
#     4  12  26  50  71 108 148 198 243 313 375 449
#     4  12  26  46  75 107 149 194 246 304 375 444
#     4  12  26  48  73 107 149 190 248 304 373 445
#     4  12  27  45  77 111 143 199 244 308 371 439
#     4  12  28  46  78 104 146 196 252 308 378 446
#     4  12  26  50  75 109 151 193 255 307 374 449
#
# _framework density 22.463508999999998
#
# number of rings (size 3 to 8) (size 9 to 14) (size 15 to 20)
#    0.000    0.000    3.846    6.462    1.077    1.846 
#    0.000    0.000    0.000    0.000    0.000    0.000 
#    0.000    0.000    0.000    0.000    0.000    0.000 
#
# Total GULP energy -322614.415996 kJ/mol
# GULP energy per Si atom -12408.246769 kJ/mol
# Density = 2.241238 g / cm^3
# Si number density = 22.463509 Si / 1000 Ang^3
#
#
#
# Elastic Constant Matrix: (Units=GPa)
#
#
# Indices 1 2 3 4 5 6 
#
# 1 122.7027 29.7483 37.1312 0.0000 -6.7829 0.0000
# 2 29.7483 91.9537 25.6782 0.0000 -5.1299 0.0000
# 3 37.1312 25.6782 124.8287 0.0000 -11.0739 0.0000
# 4 0.0000 0.0000 0.0000 34.8585 0.0000 2.7086
# 5 -6.7829 -5.1299 -11.0739 0.0000 45.5754 0.0000
# 6 0.0000 0.0000 0.0000 2.7086 0.0000 35.5988
#
#
#
# Elastic Compliance Matrix: (Units=1/GPa)
#
#
# Indices 1 2 3 4 5 6 
#
# 1 0.009448 -0.002391 -0.002266 0.000000 0.000586 0.000000
# 2 -0.002391 0.012167 -0.001739 0.000000 0.000591 0.000000
# 3 -0.002266 -0.001739 0.009194 0.000000 0.001701 0.000000
# 4 0.000000 0.000000 0.000000 0.028858 0.000000 -0.002196
# 5 0.000586 0.000591 0.001701 0.000000 0.022509 0.000000
# 6 0.000000 0.000000 0.000000 -0.002196 0.000000 0.028258
#
#
# Mechanical properties :
#
#
# Convention : Reuss Voigt Hill
#
# Bulk Modulus (GPa) = 55.50761 58.28894 56.89827
# Shear Modulus (GPa) = 38.69023 39.66837 39.17930
#
# Velocity S-wave (km/s) = 4.15463 4.20682 4.18081
# Velocity P-wave (km/s) = 6.91219 7.04280 6.97780
#
# Compressibility (1/GPa) = 0.01801555
#
# Stress axis : x y z
#
# Youngs Moduli (GPa) = 105.84601 82.18830 108.76873
#
# Poissons Ratio (x) = 0.19650 0.24652
# Poissons Ratio (y) = 0.25306 0.18918
# Poissons Ratio (z) = 0.23990 0.14295
#
# Static dielectric constant tensor:
#      x y z
#    x 4.281630 0.000000 -0.125360 
#    y 0.000000 4.025310 0.000000 
#    z -0.125360 0.000000 4.153090 
# 
# 
# High freq. dielectric constant tensor:
#      x y z
#    x 1.904790 0.000000 -0.004300 
#    y 0.000000 1.887260 0.000000 
#    z -0.004300 0.000000 1.896390 
# 
# From -- ./inp_files/167728.got.cif
#   From: 2010.06.25/outbox.cif.g09.slc.cpg/sg15_84_cif.got.tgz:167728.got - 2010.06.28 07:06:18.
