data_PCOD8154169
_publ_section_title
;
Structure prediction by ZEFSAII (Michael W. Deem and Ramdas Pophale) SiO2 
 PCOD8154169
Probable space group: C 2/C
;
_chemical_formula_sum "Si O2"
_cell_formula_units_Z 32
_cell_length_a 5.062215
_cell_length_b 19.057772
_cell_length_c 14.071131
_cell_angle_alpha 90.000000
_cell_angle_beta 96.553024
_cell_angle_gamma 90.000000
_cell_volume 1348.636843
_symmetry_space_group_name_H-M "C 2/C"
_symmetry_group_IT_number 15
_symmetry_cell_setting 'monoclinic'
loop_
_space_group_symop_operation_xyz
x,y,z
-x,y,1/2-z
-x,-y,-z
x,-y,1/2+z
1/2+x,1/2+y,z
1/2-x,1/2+y,1/2-z
1/2-x,1/2-y,-z
1/2+x,1/2-y,1/2+z
loop_
_atom_site_type_symbol
_atom_site_label
_atom_site_fract_x
_atom_site_fract_y
_atom_site_fract_z
Si Si1 0.500000 0.279546 0.750000
Si Si2 0.985820 0.283517 0.450456
Si Si3 0.105308 0.969562 0.649064
Si Si4 0.182382 0.434302 0.488238
Si Si5 0.000000 0.372647 0.750000
O O1 0.559991 0.231162 0.662360
O O2 0.240449 0.326787 0.716745
O O3 0.750000 0.250000 0.500000
O O4 0.250000 0.250000 0.500000
O O5 0.999415 0.366939 0.464145
O O6 0.375850 0.922457 0.662438
O O7 0.000000 0.984545 0.750000
O O8 0.891554 0.923018 0.582234
O O9 0.155463 0.044793 0.601374
O O10 0.000000 0.500000 0.500000
#
# Coordination Sequence:
#
# PCOD8154169 Si02
#       5
#     4   8   8   8   4
#     4  12  28  47  80 109 162 208 264 318 412 467
#     4  12  30  51  78 114 162 204 260 328 393 478
#     4  11  25  45  82 111 158 204 267 322 395 471
#     4  11  28  48  77 120 155 203 265 329 395 469
#     4  12  24  47  78 115 146 212 260 316 392 489
#
# _framework density 23.727663
#
# number of rings (size 3 to 8) (size 9 to 14) (size 15 to 20)
#    0.000    0.500    1.250    4.500   17.500    3.000 
#    2.250    0.000    0.000    0.000    0.000    0.000 
#    0.000    0.000    0.000    0.000    0.000    0.000 
#
# Total GULP energy -198459.136437 kJ/mol
# GULP energy per Si atom -12403.696027 kJ/mol
# Density = 2.367366 g / cm^3
# Si number density = 23.727663 Si / 1000 Ang^3
#
#
#
# Elastic Constant Matrix: (Units=GPa)
#
#
# Indices 1 2 3 4 5 6 
#
# 1 179.0805 73.7264 70.5403 0.0000 7.3493 0.0000
# 2 73.7264 177.6324 76.9214 0.0000 -1.1178 0.0000
# 3 70.5403 76.9214 200.7422 0.0000 -3.8298 0.0000
# 4 0.0000 0.0000 0.0000 33.9787 0.0000 1.1182
# 5 7.3493 -1.1178 -3.8298 0.0000 45.2548 0.0000
# 6 0.0000 0.0000 0.0000 1.1182 0.0000 46.4955
#
#
#
# Elastic Compliance Matrix: (Units=1/GPa)
#
#
# Indices 1 2 3 4 5 6 
#
# 1 0.007249 -0.002282 -0.001699 0.000000 -0.001377 0.000000
# 2 -0.002282 0.007468 -0.002053 0.000000 0.000381 0.000000
# 3 -0.001699 -0.002053 0.006380 0.000000 0.000765 0.000000
# 4 0.000000 0.000000 0.000000 0.029454 0.000000 -0.000708
# 5 -0.001377 0.000381 0.000765 0.000000 0.022395 0.000000
# 6 0.000000 0.000000 0.000000 -0.000708 0.000000 0.021524
#
#
# Mechanical properties :
#
#
# Convention : Reuss Voigt Hill
#
# Bulk Modulus (GPa) = 110.74382 111.09238 110.91810
# Shear Modulus (GPa) = 45.64255 47.56360 46.60308
#
# Velocity S-wave (km/s) = 4.39065 4.48209 4.43660
# Velocity P-wave (km/s) = 8.51339 8.58527 8.54941
#
# Compressibility (1/GPa) = 0.00902985
#
# Stress axis : x y z
#
# Youngs Moduli (GPa) = 137.94378 133.90817 156.74536
#
# Poissons Ratio (x) = 0.30553 0.26637
# Poissons Ratio (y) = 0.31473 0.32172
# Poissons Ratio (z) = 0.23442 0.27485
#
# Static dielectric constant tensor:
#      x y z
#    x 5.983580 0.000000 -0.344090 
#    y 0.000000 4.678940 0.000000 
#    z -0.344090 0.000000 4.662370 
# 
# 
# High freq. dielectric constant tensor:
#      x y z
#    x 1.962340 0.000000 -0.002890 
#    y 0.000000 1.929930 0.000000 
#    z -0.002890 0.000000 1.958050 
# 
# From -- ./inp_files/128349.got.cif
#   From: 2010.06.25/outbox.cif.g09.slc.cpg/sg15_65_cif.got.tgz:128349.got - 2010.06.28 07:06:18.
