data_PCOD8154001
_publ_section_title
;
Structure prediction by ZEFSAII (Michael W. Deem and Ramdas Pophale) SiO2 
 PCOD8154001
Probable space group: C 2/C
;
_chemical_formula_sum "Si O2"
_cell_formula_units_Z 44
_cell_length_a 24.731132
_cell_length_b 8.780743
_cell_length_c 24.193839
_cell_angle_alpha 90.000000
_cell_angle_beta 22.862671
_cell_angle_gamma 90.000000
_cell_volume 2041.256434
_symmetry_space_group_name_H-M "C 2/C"
_symmetry_group_IT_number 15
_symmetry_cell_setting 'monoclinic'
loop_
_space_group_symop_operation_xyz
x,y,z
-x,y,1/2-z
-x,-y,-z
x,-y,1/2+z
1/2+x,1/2+y,z
1/2-x,1/2+y,1/2-z
1/2-x,1/2-y,-z
1/2+x,1/2-y,1/2+z
loop_
_atom_site_type_symbol
_atom_site_label
_atom_site_fract_x
_atom_site_fract_y
_atom_site_fract_z
Si Si1 0.011077 0.733665 0.133079
Si Si2 0.475539 0.126061 0.882349
Si Si3 0.761459 0.786804 0.668469
Si Si4 0.184887 0.818430 0.615594
Si Si5 0.622177 0.924743 0.350313
Si Si6 0.000000 0.082502 0.750000
O O1 0.018262 0.553333 0.134734
O O2 0.057599 0.812654 0.146164
O O3 0.855826 0.781798 0.261499
O O4 0.101068 0.795972 0.997533
O O5 0.558457 0.214713 0.756316
O O6 0.546105 0.172247 0.873914
O O7 0.312568 0.172020 0.038750
O O8 0.782358 0.680488 0.701893
O O9 0.722219 0.952832 0.727456
O O10 0.250000 0.750000 0.500000
O O11 0.126157 0.984157 0.655728
O O12 0.500000 0.000000 0.500000
#
# Coordination Sequence:
#
# PCOD8154001 Si02
#       6
#     8   8   8   8   8   4
#     4  11  27  46  71 106 140 187 232 295 342 426
#     4  11  26  46  72  97 146 176 236 287 349 410
#     4  11  24  48  72 103 144 178 238 280 356 410
#     4  12  26  47  68 103 136 184 235 288 347 420
#     4  11  25  46  71 105 140 184 226 294 346 416
#     4  12  28  42  76 100 142 186 240 280 366 400
#
# _framework density 21.555351999999999
#
# number of rings (size 3 to 8) (size 9 to 14) (size 15 to 20)
#    0.000    0.727    5.455    1.091   10.182    2.182 
#    0.000    0.000    0.000    0.000    0.000    0.000 
#    0.000    0.000    0.000    0.000    0.000    0.000 
#
# Total GULP energy -272843.965096 kJ/mol
# GULP energy per Si atom -12401.998413 kJ/mol
# Density = 2.150629 g / cm^3
# Si number density = 21.555352 Si / 1000 Ang^3
#
#
#
# Elastic Constant Matrix: (Units=GPa)
#
#
# Indices 1 2 3 4 5 6 
#
# 1 119.5339 48.8914 28.7084 0.0047 -1.7895 0.0007
# 2 48.8914 76.0675 32.4281 -0.0012 -1.1011 0.0009
# 3 28.7084 32.4281 86.2728 0.0115 -7.0984 0.0002
# 4 0.0047 -0.0012 0.0115 28.3879 -0.0010 -1.8029
# 5 -1.7895 -1.1011 -7.0984 -0.0010 46.9824 0.0005
# 6 0.0007 0.0009 0.0002 -1.8029 0.0005 47.0261
#
#
#
# Elastic Compliance Matrix: (Units=1/GPa)
#
#
# Indices 1 2 3 4 5 6 
#
# 1 0.011461 -0.006838 -0.001236 -0.000002 0.000090 0.000000
# 2 -0.006838 0.019748 -0.005195 0.000004 -0.000583 0.000000
# 3 -0.001236 -0.005195 0.014117 -0.000006 0.001964 0.000000
# 4 -0.000002 0.000004 -0.000006 0.035312 0.000000 0.001354
# 5 0.000090 -0.000583 0.001964 0.000000 0.021571 0.000000
# 6 0.000000 0.000000 0.000000 0.001354 0.000000 0.021317
#
#
# Mechanical properties :
#
#
# Convention : Reuss Voigt Hill
#
# Bulk Modulus (GPa) = 53.22944 55.77000 54.49972
# Shear Modulus (GPa) = 31.98436 35.93571 33.96004
#
# Velocity S-wave (km/s) = 3.85622 4.08749 3.97354
# Velocity P-wave (km/s) = 6.67647 6.94304 6.81106
#
# Compressibility (1/GPa) = 0.01878660
#
# Stress axis : x y z
#
# Youngs Moduli (GPa) = 87.25283 50.63896 70.83743
#
# Poissons Ratio (x) = 0.34628 0.08756
# Poissons Ratio (y) = 0.59665 0.36801
# Poissons Ratio (z) = 0.10785 0.26308
#
# Static dielectric constant tensor:
#      x y z
#    x 4.351110 0.000010 -0.152300 
#    y 0.000010 3.905320 0.000000 
#    z -0.152300 0.000000 4.027970 
# 
# 
# High freq. dielectric constant tensor:
#      x y z
#    x 1.867660 0.000000 -0.006170 
#    y 0.000000 1.838510 0.000000 
#    z -0.006170 0.000000 1.856380 
# 
# From -- ./inp_files/68491.got.cif
#   From: 2010.06.25/outbox.cif.g09.slc.cpg/sg15_35_cif.got.tgz:68491.got - 2010.06.28 07:06:18.
