data_PCOD8154581
_publ_section_title
;
Structure prediction by ZEFSAII (Michael W. Deem and Ramdas Pophale) SiO2 
 PCOD8154581
Probable space group: C 2/C
;
_chemical_formula_sum "Si O2"
_cell_formula_units_Z 56
_cell_length_a 19.067894
_cell_length_b 13.655646
_cell_length_c 12.318916
_cell_angle_alpha 90.000000
_cell_angle_beta 57.226287
_cell_angle_gamma 90.000000
_cell_volume 2697.043482
_symmetry_space_group_name_H-M "C 2/C"
_symmetry_group_IT_number 15
_symmetry_cell_setting 'monoclinic'
loop_
_space_group_symop_operation_xyz
x,y,z
-x,y,1/2-z
-x,-y,-z
x,-y,1/2+z
1/2+x,1/2+y,z
1/2-x,1/2+y,1/2-z
1/2-x,1/2-y,-z
1/2+x,1/2-y,1/2+z
loop_
_atom_site_type_symbol
_atom_site_label
_atom_site_fract_x
_atom_site_fract_y
_atom_site_fract_z
Si Si1 0.151963 0.326625 0.298140
Si Si2 0.192127 0.872540 0.857457
Si Si3 0.527048 0.108694 0.505119
Si Si4 0.093210 0.155450 0.648285
Si Si5 0.351120 0.057307 0.911921
Si Si6 0.772430 0.958774 0.331453
Si Si7 0.625005 0.140813 0.211429
O O1 0.182275 0.215047 0.279453
O O2 0.174162 0.367202 0.160963
O O3 0.197150 0.391700 0.351614
O O4 0.053243 0.326555 0.401885
O O5 0.276217 0.857261 0.854559
O O6 0.192044 0.974837 0.794823
O O7 0.116754 0.874988 0.006589
O O8 0.587080 0.111752 0.558370
O O9 0.576955 0.156796 0.364176
O O10 0.500000 0.000000 0.500000
O O11 0.153030 0.107526 0.687683
O O12 0.099446 0.273309 0.650652
O O13 0.000000 0.118730 0.750000
O O14 0.399269 0.963218 0.821429
O O15 0.265352 0.026228 0.042035
#
# Coordination Sequence:
#
# PCOD8154581 Si02
#       7
#     8   8   8   8   8   8   8
#     4  12  24  39  66  98 137 173 211 274 325 392
#     4  12  24  46  66  96 131 171 220 273 326 389
#     4  12  23  38  63 105 138 168 209 272 334 387
#     4  12  27  43  69  96 124 173 229 271 322 389
#     4  12  22  39  66  98 132 173 213 266 339 390
#     4  12  23  45  67  92 133 175 224 265 327 389
#     4  12  23  40  69  99 132 171 215 274 327 395
#
# _framework density 20.763477999999999
#
# number of rings (size 3 to 8) (size 9 to 14) (size 15 to 20)
#    0.000    0.000    8.571    2.571    2.000    1.143 
#    0.000    1.429    0.000    0.000    0.000    0.000 
#    0.000    0.000    0.000    0.000    0.000    0.000 
#
# Total GULP energy -347440.201078 kJ/mol
# GULP energy per Si atom -12408.578610 kJ/mol
# Density = 2.071622 g / cm^3
# Si number density = 20.763478 Si / 1000 Ang^3
#
#
#
# Elastic Constant Matrix: (Units=GPa)
#
#
# Indices 1 2 3 4 5 6 
#
# 1 86.6512 23.8574 40.1328 0.0000 -2.6787 0.0000
# 2 23.8574 70.3147 18.7937 0.0000 -1.7411 0.0000
# 3 40.1328 18.7937 121.8567 0.0000 -5.7130 0.0000
# 4 0.0000 0.0000 0.0000 29.8044 0.0000 7.8905
# 5 -2.6787 -1.7411 -5.7130 0.0000 29.4646 0.0000
# 6 0.0000 0.0000 0.0000 7.8905 0.0000 22.1087
#
#
#
# Elastic Compliance Matrix: (Units=1/GPa)
#
#
# Indices 1 2 3 4 5 6 
#
# 1 0.014537 -0.003806 -0.004187 0.000000 0.000285 0.000000
# 2 -0.003806 0.015835 -0.001172 0.000000 0.000363 0.000000
# 3 -0.004187 -0.001172 0.009834 0.000000 0.001457 0.000000
# 4 0.000000 0.000000 0.000000 0.037053 0.000000 -0.013224
# 5 0.000285 0.000363 0.001457 0.000000 0.034269 0.000000
# 6 0.000000 0.000000 0.000000 -0.013224 0.000000 0.049951
#
#
# Mechanical properties :
#
#
# Convention : Reuss Voigt Hill
#
# Bulk Modulus (GPa) = 45.71140 49.37670 47.54405
# Shear Modulus (GPa) = 26.72358 29.34480 28.03419
#
# Velocity S-wave (km/s) = 3.59144 3.76345 3.67845
# Velocity P-wave (km/s) = 6.26586 6.53582 6.40226
#
# Compressibility (1/GPa) = 0.02187638
#
# Stress axis : x y z
#
# Youngs Moduli (GPa) = 68.79232 63.15013 101.68378
#
# Poissons Ratio (x) = 0.24035 0.42577
# Poissons Ratio (y) = 0.26182 0.11915
# Poissons Ratio (z) = 0.28805 0.07400
#
# Static dielectric constant tensor:
#      x y z
#    x 3.872800 0.000000 -0.000410 
#    y 0.000000 3.659520 0.000000 
#    z -0.000410 0.000000 3.927280 
# 
# 
# High freq. dielectric constant tensor:
#      x y z
#    x 1.815000 0.000000 0.003570 
#    y 0.000000 1.794970 0.000000 
#    z 0.003570 0.000000 1.826870 
# 
# From -- ./inp_files/105643.got.cif
#   From: 2010.06.25/outbox.cif.g09.slc.cpg/sg15_53_cif.got.tgz:105643.got - 2010.06.28 07:06:18.
