data_PCOD8154515
_publ_section_title
;
Structure prediction by ZEFSAII (Michael W. Deem and Ramdas Pophale) SiO2 
 PCOD8154515
Probable space group: C 2/C
;
_chemical_formula_sum "Si O2"
_cell_formula_units_Z 56
_cell_length_a 25.038713
_cell_length_b 9.304361
_cell_length_c 11.708069
_cell_angle_alpha 90.000000
_cell_angle_beta 63.267856
_cell_angle_gamma 90.000000
_cell_volume 2436.089498
_symmetry_space_group_name_H-M "C 2/C"
_symmetry_group_IT_number 15
_symmetry_cell_setting 'monoclinic'
loop_
_space_group_symop_operation_xyz
x,y,z
-x,y,1/2-z
-x,-y,-z
x,-y,1/2+z
1/2+x,1/2+y,z
1/2-x,1/2+y,1/2-z
1/2-x,1/2-y,-z
1/2+x,1/2-y,1/2+z
loop_
_atom_site_type_symbol
_atom_site_label
_atom_site_fract_x
_atom_site_fract_y
_atom_site_fract_z
Si Si1 0.372625 0.434843 0.872466
Si Si2 0.500000 0.568876 0.750000
Si Si3 0.000000 0.502423 0.750000
Si Si4 0.646185 0.239953 0.806392
Si Si5 0.916153 0.310353 0.477865
Si Si6 0.183840 0.762123 0.018075
Si Si7 0.481225 0.337632 0.499846
Si Si8 0.610265 0.935300 0.762563
O O1 0.442477 0.468333 0.775965
O O2 0.336145 0.366986 0.799937
O O3 0.373588 0.315092 0.970918
O O4 0.338570 0.574647 0.948253
O O5 0.510742 0.685870 0.642097
O O6 0.939594 0.579889 0.858810
O O7 0.962623 0.422825 0.685913
O O8 0.639042 0.094365 0.740275
O O9 0.687701 0.221855 0.878824
O O10 0.585591 0.295764 0.916879
O O11 0.879098 0.374597 0.619645
O O12 0.980075 0.256518 0.455342
O O13 0.142603 0.656189 0.132539
O O14 0.250000 0.750000 0.000000
O O15 0.500000 0.500000 0.500000
#
# Coordination Sequence:
#
# PCOD8154515 Si02
#       8
#     8   4   4   8   8   8   8   8
#     4  12  24  45  77 108 151 192 248 305 382 464
#     4  12  21  35  62 112 149 181 234 294 369 451
#     4  12  23  45  68 116 167 191 230 300 389 485
#     4  12  25  47  72 107 148 196 246 311 382 449
#     4  12  23  41  68 110 154 199 234 290 382 469
#     4  12  31  53  75 106 144 198 275 327 372 437
#     4  12  21  34  61 104 150 187 232 285 357 461
#     4  12  28  45  75 110 157 198 249 310 388 456
#
# _framework density 22.987660000000002
#
# number of rings (size 3 to 8) (size 9 to 14) (size 15 to 20)
#    0.000    0.000    7.143    2.571    4.000    1.714 
#    0.000    0.714    0.000    0.000    0.000    0.000 
#    0.000    0.000    0.000    0.000    0.000    0.000 
#
# Total GULP energy -346906.629047 kJ/mol
# GULP energy per Si atom -12389.522466 kJ/mol
# Density = 2.293534 g / cm^3
# Si number density = 22.987660 Si / 1000 Ang^3
#
#
#
# Elastic Constant Matrix: (Units=GPa)
#
#
# Indices 1 2 3 4 5 6 
#
# 1 118.5210 39.6053 25.0272 0.0000 21.6686 0.0000
# 2 39.6053 107.1057 38.9900 0.0000 6.2428 0.0000
# 3 25.0272 38.9900 95.9863 0.0000 31.1383 0.0000
# 4 0.0000 0.0000 0.0000 25.4717 0.0000 10.3991
# 5 21.6686 6.2428 31.1383 0.0000 35.6509 0.0000
# 6 0.0000 0.0000 0.0000 10.3991 0.0000 22.3782
#
#
#
# Elastic Compliance Matrix: (Units=1/GPa)
#
#
# Indices 1 2 3 4 5 6 
#
# 1 0.010778 -0.003947 0.000968 0.000000 -0.006705 0.000000
# 2 -0.003947 0.012599 -0.005792 0.000000 0.005252 0.000000
# 3 0.000968 -0.005792 0.017275 0.000000 -0.014663 0.000000
# 4 0.000000 0.000000 0.000000 0.048451 0.000000 -0.022515
# 5 -0.006705 0.005252 -0.014663 0.000000 0.044013 0.000000
# 6 0.000000 0.000000 0.000000 -0.022515 0.000000 0.055149
#
#
# Mechanical properties :
#
#
# Convention : Reuss Voigt Hill
#
# Bulk Modulus (GPa) = 43.27181 58.76199 51.01690
# Shear Modulus (GPa) = 23.41816 31.23285 27.32550
#
# Velocity S-wave (km/s) = 3.19521 3.69003 3.45150
# Velocity P-wave (km/s) = 5.69889 6.61611 6.17456
#
# Compressibility (1/GPa) = 0.02310973
#
# Stress axis : x y z
#
# Youngs Moduli (GPa) = 92.78425 79.37433 57.88663
#
# Poissons Ratio (x) = 0.31329 -0.05606
# Poissons Ratio (y) = 0.36622 0.33529
# Poissons Ratio (z) = -0.08985 0.45975
#
# Static dielectric constant tensor:
#      x y z
#    x 3.390470 0.000000 -1.398750 
#    y 0.000000 3.522710 0.000000 
#    z -1.398750 0.000000 -1.423570 
# 
# 
# High freq. dielectric constant tensor:
#      x y z
#    x 1.879220 0.000000 0.044960 
#    y 0.000000 1.924500 0.000000 
#    z 0.044960 0.000000 1.918140 
# 
# From -- ./inp_files/121941.got.cif
#   From: 2010.06.25/outbox.cif.g09.slc.cpg/sg15_61_cif.got.tgz:121941.got - 2010.06.28 07:06:18.
