data_PCOD8154534
_publ_section_title
;
Structure prediction by ZEFSAII (Michael W. Deem and Ramdas Pophale) SiO2 
 PCOD8154534
Probable space group: C 2/C
;
_chemical_formula_sum "Si O2"
_cell_formula_units_Z 60
_cell_length_a 8.710310
_cell_length_b 23.048249
_cell_length_c 14.977071
_cell_angle_alpha 90.000000
_cell_angle_beta 76.575601
_cell_angle_gamma 90.000000
_cell_volume 2924.604404
_symmetry_space_group_name_H-M "C 2/C"
_symmetry_group_IT_number 15
_symmetry_cell_setting 'monoclinic'
loop_
_space_group_symop_operation_xyz
x,y,z
-x,y,1/2-z
-x,-y,-z
x,-y,1/2+z
1/2+x,1/2+y,z
1/2-x,1/2+y,1/2-z
1/2-x,1/2-y,-z
1/2+x,1/2-y,1/2+z
loop_
_atom_site_type_symbol
_atom_site_label
_atom_site_fract_x
_atom_site_fract_y
_atom_site_fract_z
Si Si1 0.951019 0.758890 0.161970
Si Si2 0.150849 0.320399 0.165925
Si Si3 0.187445 0.863631 0.107374
Si Si4 0.601628 0.044363 0.427324
Si Si5 0.915354 0.977249 0.424565
Si Si6 0.000000 0.484884 0.750000
Si Si7 0.788583 0.930548 0.209099
Si Si8 0.981350 0.670524 0.999247
O O1 0.042957 0.819097 0.132323
O O2 0.000000 0.731581 0.250000
O O3 0.764858 0.772031 0.192662
O O4 0.980896 0.711431 0.083955
O O5 0.243504 0.381391 0.143271
O O6 0.000000 0.327224 0.250000
O O7 0.111937 0.300736 0.070518
O O8 0.159639 0.914775 0.038554
O O9 0.212959 0.898235 0.196015
O O10 0.340184 0.829549 0.058009
O O11 0.592291 0.107804 0.471110
O O12 0.500000 0.000000 0.500000
O O13 0.784051 0.021816 0.403106
O O14 0.530229 0.051396 0.336857
O O15 0.045158 0.962253 0.331164
O O16 0.000000 0.000000 0.500000
O O17 0.155126 0.522119 0.717090
#
# Coordination Sequence:
#
# PCOD8154534 Si02
#       8
#     8   8   8   8   8   4   8   8
#     4  12  25  44  69  99 136 177 228 284 342 409
#     4  12  22  41  71  99 127 171 229 285 336 396
#     4  12  22  44  70 101 129 177 234 281 336 397
#     4  12  25  44  64  99 138 180 228 272 346 420
#     4  12  24  39  65 100 138 168 217 286 334 398
#     4  12  24  38  68  96 136 180 218 278 342 410
#     4  12  21  40  69 100 130 169 229 283 332 395
#     4  12  26  44  67  99 137 180 225 282 344 412
#
# _framework density 20.515595999999999
#
# number of rings (size 3 to 8) (size 9 to 14) (size 15 to 20)
#    0.000    0.000    7.333    3.600    0.933    0.000 
#    0.000    0.000    2.933    0.000    0.000    0.000 
#    0.000    0.000    0.000    0.000    0.000    0.000 
#
# Total GULP energy -371868.793862 kJ/mol
# GULP energy per Si atom -12395.626462 kJ/mol
# Density = 2.046890 g / cm^3
# Si number density = 20.515596 Si / 1000 Ang^3
#
#
#
# Elastic Constant Matrix: (Units=GPa)
#
#
# Indices 1 2 3 4 5 6 
#
# 1 139.9364 41.3121 57.6799 0.0000 -0.5609 0.0000
# 2 41.3121 63.1180 47.1857 0.0000 17.3056 0.0000
# 3 57.6799 47.1857 131.6641 0.0000 24.4671 0.0000
# 4 0.0000 0.0000 0.0000 52.6234 0.0000 15.1942
# 5 -0.5609 17.3056 24.4671 0.0000 42.7068 0.0000
# 6 0.0000 0.0000 0.0000 15.1942 0.0000 44.4913
#
#
#
# Elastic Compliance Matrix: (Units=1/GPa)
#
#
# Indices 1 2 3 4 5 6 
#
# 1 0.010079 -0.005270 -0.003299 0.000000 0.004158 0.000000
# 2 -0.005270 0.025330 -0.005427 0.000000 -0.007225 0.000000
# 3 -0.003299 -0.005427 0.011846 0.000000 -0.004631 0.000000
# 4 0.000000 0.000000 0.000000 0.021082 0.000000 -0.007200
# 5 0.004158 -0.007225 -0.004631 0.000000 0.029051 0.000000
# 6 0.000000 0.000000 0.000000 -0.007200 0.000000 0.024935
#
#
# Mechanical properties :
#
#
# Convention : Reuss Voigt Hill
#
# Bulk Modulus (GPa) = 51.91370 69.67487 60.79428
# Shear Modulus (GPa) = 31.90096 40.53370 36.21733
#
# Velocity S-wave (km/s) = 3.94758 4.44976 4.20617
# Velocity P-wave (km/s) = 6.79244 7.77407 7.29977
#
# Compressibility (1/GPa) = 0.01926274
#
# Stress axis : x y z
#
# Youngs Moduli (GPa) = 99.22073 39.47814 84.41870
#
# Poissons Ratio (x) = 0.20806 0.27851
# Poissons Ratio (y) = 0.52292 0.45810
# Poissons Ratio (z) = 0.32735 0.21423
#
# Static dielectric constant tensor:
#      x y z
#    x 4.370880 0.000000 0.274800 
#    y 0.000000 3.896510 0.000000 
#    z 0.274800 0.000000 4.102840 
# 
# 
# High freq. dielectric constant tensor:
#      x y z
#    x 1.831030 0.000000 0.008490 
#    y 0.000000 1.782190 0.000000 
#    z 0.008490 0.000000 1.802730 
# 
# From -- ./inp_files/137345.got.cif
#   From: 2010.06.25/outbox.cif.g09.slc.cpg/sg15_69_cif.got.tgz:137345.got - 2010.06.28 07:06:18.
