data_PCOD8154043
_publ_section_title
;
Structure prediction by ZEFSAII (Michael W. Deem and Ramdas Pophale) SiO2 
 PCOD8154043
Probable space group: C 2/C
;
_chemical_formula_sum "Si O2"
_cell_formula_units_Z 48
_cell_length_a 10.825540
_cell_length_b 10.951012
_cell_length_c 21.643231
_cell_angle_alpha 90.000000
_cell_angle_beta 122.023538
_cell_angle_gamma 90.000000
_cell_volume 2175.378666
_symmetry_space_group_name_H-M "C 2/C"
_symmetry_group_IT_number 15
_symmetry_cell_setting 'monoclinic'
loop_
_space_group_symop_operation_xyz
x,y,z
-x,y,1/2-z
-x,-y,-z
x,-y,1/2+z
1/2+x,1/2+y,z
1/2-x,1/2+y,1/2-z
1/2-x,1/2-y,-z
1/2+x,1/2-y,1/2+z
loop_
_atom_site_type_symbol
_atom_site_label
_atom_site_fract_x
_atom_site_fract_y
_atom_site_fract_z
Si Si1 0.058025 0.741935 0.142381
Si Si2 0.900624 0.449820 0.671990
Si Si3 0.410978 0.653863 0.093404
Si Si4 0.191417 0.855131 0.063285
Si Si5 0.228293 0.752904 0.697373
Si Si6 0.620694 0.433787 0.332990
O O1 0.089571 0.769698 0.078932
O O2 0.214699 0.760979 0.217482
O O3 0.992530 0.604819 0.137560
O O4 0.941890 0.842922 0.132193
O O5 0.759689 0.527227 0.615158
O O6 0.850364 0.331557 0.695821
O O7 0.000000 0.522440 0.750000
O O8 0.329762 0.781737 0.075093
O O9 0.575408 0.680318 0.156718
O O10 0.336945 0.558443 0.120906
O O11 0.404593 0.603100 0.021327
O O12 0.234941 0.622299 0.662715
O O13 0.500000 0.463041 0.250000
#
# Coordination Sequence:
#
# PCOD8154043 Si02
#       6
#     8   8   8   8   8   8
#     4   9  20  39  62  88 115 150 201 252 296 347
#     4   9  20  39  62  88 115 150 201 252 296 347
#     4  11  25  39  55  87 125 160 195 236 298 362
#     4  11  25  39  55  87 125 160 195 236 298 362
#     4   9  20  39  62  88 115 150 201 252 296 347
#     4   9  20  39  62  88 115 150 201 252 296 347
#
# _framework density 22.065124999999998
#
# number of rings (size 3 to 8) (size 9 to 14) (size 15 to 20)
#    0.000    2.333    0.000    3.000    4.667    5.333 
#    0.000    6.667    0.000    0.000    0.000    0.000 
#    0.000    0.000    0.000    0.000    0.000    0.000 
#
# Total GULP energy -297473.981625 kJ/mol
# GULP energy per Si atom -12394.749234 kJ/mol
# Density = 2.201490 g / cm^3
# Si number density = 22.065125 Si / 1000 Ang^3
#
#
#
# Elastic Constant Matrix: (Units=GPa)
#
#
# Indices 1 2 3 4 5 6 
#
# 1 39.1783 3.0283 -6.3212 0.0000 -6.8215 0.0000
# 2 3.0283 61.1559 14.4857 0.0000 -2.5157 0.0000
# 3 -6.3212 14.4857 42.7185 0.0000 -17.6002 0.0000
# 4 0.0000 0.0000 0.0000 21.4135 0.0000 -8.4327
# 5 -6.8215 -2.5157 -17.6002 0.0000 32.7124 0.0000
# 6 0.0000 0.0000 0.0000 -8.4327 0.0000 20.0107
#
#
#
# Elastic Compliance Matrix: (Units=1/GPa)
#
#
# Indices 1 2 3 4 5 6 
#
# 1 0.029405 -0.003400 0.010179 0.000000 0.011347 0.000000
# 2 -0.003400 0.018322 -0.008258 0.000000 -0.003743 0.000000
# 3 0.010179 -0.008258 0.036397 0.000000 0.021070 0.000000
# 4 0.000000 0.000000 0.000000 0.055991 0.000000 0.023595
# 5 0.011347 -0.003743 0.021070 0.000000 0.043984 0.000000
# 6 0.000000 0.000000 0.000000 0.023595 0.000000 0.059916
#
#
# Mechanical properties :
#
#
# Convention : Reuss Voigt Hill
#
# Bulk Modulus (GPa) = 12.32060 18.38203 15.35132
# Shear Modulus (GPa) = 18.24620 23.61799 20.93209
#
# Velocity S-wave (km/s) = 2.87875 3.27521 3.08336
# Velocity P-wave (km/s) = 4.07989 4.75937 4.43266
#
# Compressibility (1/GPa) = 0.08116491
#
# Stress axis : x y z
#
# Youngs Moduli (GPa) = 34.00759 54.57866 27.47507
#
# Poissons Ratio (x) = 0.18559 -0.27968
# Poissons Ratio (y) = 0.11564 0.22690
# Poissons Ratio (z) = -0.34617 0.45073
#
# Static dielectric constant tensor:
#      x y z
#    x 3.704320 0.000000 -0.140310 
#    y 0.000000 3.847340 0.000000 
#    z -0.140310 0.000000 4.018140 
# 
# 
# High freq. dielectric constant tensor:
#      x y z
#    x 1.858700 0.000000 -0.010790 
#    y 0.000000 1.861470 0.000000 
#    z -0.010790 0.000000 1.857310 
# 
# From -- ./inp_files/196050.got.cif
#   From: 2010.06.25/outbox.cif.g09.slc.cpg/sg15_99_cif.got.tgz:196050.got - 2010.06.28 07:06:18.
