data_PCOD8154569
_publ_section_title
;
Structure prediction by ZEFSAII (Michael W. Deem and Ramdas Pophale) SiO2 
 PCOD8154569
Probable space group: C 2/C
;
_chemical_formula_sum "Si O2"
_cell_formula_units_Z 40
_cell_length_a 19.227596
_cell_length_b 4.939807
_cell_length_c 18.002170
_cell_angle_alpha 90.000000
_cell_angle_beta 100.666025
_cell_angle_gamma 90.000000
_cell_volume 1680.315466
_symmetry_space_group_name_H-M "C 2/C"
_symmetry_group_IT_number 15
_symmetry_cell_setting 'monoclinic'
loop_
_space_group_symop_operation_xyz
x,y,z
-x,y,1/2-z
-x,-y,-z
x,-y,1/2+z
1/2+x,1/2+y,z
1/2-x,1/2+y,1/2-z
1/2-x,1/2-y,-z
1/2+x,1/2-y,1/2+z
loop_
_atom_site_type_symbol
_atom_site_label
_atom_site_fract_x
_atom_site_fract_y
_atom_site_fract_z
Si Si1 0.375688 0.473570 0.133978
Si Si2 0.902126 0.510569 0.383613
Si Si3 0.414569 0.490397 0.977857
Si Si4 0.792715 0.281638 0.742975
Si Si5 0.539315 0.015285 0.828049
O O1 0.307143 0.373112 0.166712
O O2 0.392520 0.792200 0.145288
O O3 0.437347 0.291448 0.182833
O O4 0.374810 0.407749 0.046184
O O5 0.883397 0.212971 0.409319
O O6 0.860909 0.598346 0.300444
O O7 0.986514 0.493666 0.386943
O O8 0.887207 0.716861 0.447367
O O9 0.500000 0.500000 0.000000
O O10 0.744110 0.543493 0.715939
O O11 0.500000 0.140425 0.750000
#
# Coordination Sequence:
#
# PCOD8154569 Si02
#       5
#     8   8   8   8   8
#     4  12  25  41  69 102 141 173 224 288 349 415
#     4  12  24  43  69 102 141 177 221 286 349 416
#     4  12  23  41  67 110 145 168 209 282 378 428
#     4  12  28  50  68  94 136 197 250 281 316 396
#     4  12  22  37  68 108 135 167 222 290 361 409
#
# _framework density 23.805056
#
# number of rings (size 3 to 8) (size 9 to 14) (size 15 to 20)
#    0.000    0.000    6.000    4.800    2.800    0.000 
#    0.000    6.000    0.000    0.000    0.000    0.000 
#    0.000    0.000    0.000    0.000    0.000    0.000 
#
# Total GULP energy -247836.671519 kJ/mol
# GULP energy per Si atom -12391.833576 kJ/mol
# Density = 2.375087 g / cm^3
# Si number density = 23.805056 Si / 1000 Ang^3
#
#
#
# Elastic Constant Matrix: (Units=GPa)
#
#
# Indices 1 2 3 4 5 6 
#
# 1 64.6216 24.9563 18.2452 0.0000 -15.5046 0.0000
# 2 24.9563 131.2770 22.6033 0.0000 -2.3826 0.0000
# 3 18.2452 22.6033 91.0415 0.0000 -21.0130 0.0000
# 4 0.0000 0.0000 0.0000 43.9755 0.0000 4.4873
# 5 -15.5046 -2.3826 -21.0130 0.0000 27.2058 0.0000
# 6 0.0000 0.0000 0.0000 4.4873 0.0000 39.2680
#
#
#
# Elastic Compliance Matrix: (Units=1/GPa)
#
#
# Indices 1 2 3 4 5 6 
#
# 1 0.019437 -0.003391 -0.000688 0.000000 0.010249 0.000000
# 2 -0.003391 0.008572 -0.002095 0.000000 -0.002800 0.000000
# 3 -0.000688 -0.002095 0.014006 0.000000 0.010242 0.000000
# 4 0.000000 0.000000 0.000000 0.023008 0.000000 -0.002629
# 5 0.010249 -0.002800 0.010242 0.000000 0.050264 0.000000
# 6 0.000000 0.000000 0.000000 -0.002629 0.000000 0.025767
#
#
# Mechanical properties :
#
#
# Convention : Reuss Voigt Hill
#
# Bulk Modulus (GPa) = 33.70600 46.50555 40.10577
# Shear Modulus (GPa) = 30.62034 36.83220 33.72627
#
# Velocity S-wave (km/s) = 3.59039 3.93777 3.76808
# Velocity P-wave (km/s) = 5.60159 6.34453 5.98460
#
# Compressibility (1/GPa) = 0.02966831
#
# Stress axis : x y z
#
# Youngs Moduli (GPa) = 51.44706 116.65960 71.39816
#
# Poissons Ratio (x) = 0.39555 0.04912
# Poissons Ratio (y) = 0.17444 0.14957
# Poissons Ratio (z) = 0.03539 0.24439
#
# Static dielectric constant tensor:
#      x y z
#    x 4.155030 0.000000 -0.309420 
#    y 0.000000 4.440800 0.000000 
#    z -0.309420 0.000000 4.132670 
# 
# 
# High freq. dielectric constant tensor:
#      x y z
#    x 1.911660 0.000000 -0.024360 
#    y 0.000000 1.967040 0.000000 
#    z -0.024360 0.000000 1.935420 
# 
# From -- ./inp_files/208096.got.cif
#   From: 2010.06.25/outbox.cif.g09.slc.cpg/sg15_105_cif.got.tgz:208096.got - 2010.06.28 07:06:18.
