data_PCOD8154165
_publ_section_title
;
Structure prediction by ZEFSAII (Michael W. Deem and Ramdas Pophale) SiO2 
 PCOD8154165
Probable space group: C 2/C
;
_chemical_formula_sum "Si O2"
_cell_formula_units_Z 40
_cell_length_a 15.214469
_cell_length_b 12.531715
_cell_length_c 12.897444
_cell_angle_alpha 90.000000
_cell_angle_beta 138.786540
_cell_angle_gamma 90.000000
_cell_volume 1620.198362
_symmetry_space_group_name_H-M "C 2/C"
_symmetry_group_IT_number 15
_symmetry_cell_setting 'monoclinic'
loop_
_space_group_symop_operation_xyz
x,y,z
-x,y,1/2-z
-x,-y,-z
x,-y,1/2+z
1/2+x,1/2+y,z
1/2-x,1/2+y,1/2-z
1/2-x,1/2-y,-z
1/2+x,1/2-y,1/2+z
loop_
_atom_site_type_symbol
_atom_site_label
_atom_site_fract_x
_atom_site_fract_y
_atom_site_fract_z
Si Si1 0.496526 0.267158 0.015956
Si Si2 0.806187 0.941385 0.808701
Si Si3 0.729373 0.345688 0.336774
Si Si4 0.671951 0.827871 0.505778
Si Si5 0.853747 0.550352 0.129168
O O1 0.443429 0.389898 0.972662
O O2 0.377897 0.186480 0.936278
O O3 0.616344 0.256371 0.210249
O O4 0.546694 0.235480 0.944824
O O5 0.763331 0.857740 0.683500
O O6 0.692922 0.955126 0.794919
O O7 0.825827 0.057566 0.780437
O O8 0.741741 0.378679 0.468590
O O9 0.750000 0.750000 0.500000
O O10 0.629714 0.933405 0.407022
O O11 0.000000 0.603490 0.250000
#
# Coordination Sequence:
#
# PCOD8154165 Si02
#       5
#     8   8   8   8   8
#     4  12  24  48  75 111 151 198 256 309 373 452
#     4  11  25  48  73 110 151 196 250 318 373 448
#     4  11  26  47  74 109 151 196 252 312 380 445
#     4  11  25  45  76 111 147 200 256 309 373 451
#     4  11  25  45  75 108 152 198 249 313 382 445
#
# _framework density 24.688333
#
# number of rings (size 3 to 8) (size 9 to 14) (size 15 to 20)
#    0.000    0.800    2.000    4.200    2.800    4.800 
#    3.600    4.000    0.000    0.000    0.000    0.000 
#    0.000    0.000    0.000    0.000    0.000    0.000 
#
# Total GULP energy -247921.132076 kJ/mol
# GULP energy per Si atom -12396.056604 kJ/mol
# Density = 2.463214 g / cm^3
# Si number density = 24.688333 Si / 1000 Ang^3
#
#
#
# Elastic Constant Matrix: (Units=GPa)
#
#
# Indices 1 2 3 4 5 6 
#
# 1 92.8202 2.7923 46.5860 0.0000 3.9926 0.0000
# 2 2.7923 70.3179 19.5377 0.0000 6.8265 0.0000
# 3 46.5860 19.5377 123.6547 0.0000 2.6861 0.0000
# 4 0.0000 0.0000 0.0000 22.0211 0.0000 10.4374
# 5 3.9926 6.8265 2.6861 0.0000 39.4437 0.0000
# 6 0.0000 0.0000 0.0000 10.4374 0.0000 25.6320
#
#
#
# Elastic Compliance Matrix: (Units=1/GPa)
#
#
# Indices 1 2 3 4 5 6 
#
# 1 0.013394 0.001023 -0.005182 0.000000 -0.001180 0.000000
# 2 0.001023 0.015186 -0.002729 0.000000 -0.002546 0.000000
# 3 -0.005182 -0.002729 0.010464 0.000000 0.000284 0.000000
# 4 0.000000 0.000000 0.000000 0.056271 0.000000 -0.022914
# 5 -0.001180 -0.002546 0.000284 0.000000 0.025893 0.000000
# 6 0.000000 0.000000 0.000000 -0.022914 0.000000 0.048344
#
#
# Mechanical properties :
#
#
# Convention : Reuss Voigt Hill
#
# Bulk Modulus (GPa) = 39.57751 47.18053 43.37902
# Shear Modulus (GPa) = 26.07508 31.94450 29.00979
#
# Velocity S-wave (km/s) = 3.25340 3.60100 3.43161
# Velocity P-wave (km/s) = 5.49350 6.03668 5.77148
#
# Compressibility (1/GPa) = 0.02526688
#
# Stress axis : x y z
#
# Youngs Moduli (GPa) = 74.65798 65.85003 95.56163
#
# Poissons Ratio (x) = -0.06733 0.49522
# Poissons Ratio (y) = -0.07634 0.26082
# Poissons Ratio (z) = 0.38689 0.17973
#
# Static dielectric constant tensor:
#      x y z
#    x 3.953460 0.000000 0.050960 
#    y 0.000000 4.597210 0.000000 
#    z 0.050960 0.000000 4.601930 
# 
# 
# High freq. dielectric constant tensor:
#      x y z
#    x 1.977350 0.000000 0.002840 
#    y 0.000000 1.997100 0.000000 
#    z 0.002840 0.000000 1.996130 
# 
# From -- ./inp_files/96657.got.cif
#   From: 2010.06.25/outbox.cif.g09.slc.cpg/sg15_49_cif.got.tgz:96657.got - 2010.06.28 07:06:18.
