data_PCOD8154430
_publ_section_title
;
Structure prediction by ZEFSAII (Michael W. Deem and Ramdas Pophale) SiO2 
 PCOD8154430
Probable space group: C 2/C
;
_chemical_formula_sum "Si O2"
_cell_formula_units_Z 40
_cell_length_a 8.456161
_cell_length_b 25.760285
_cell_length_c 7.961859
_cell_angle_alpha 90.000000
_cell_angle_beta 53.603003
_cell_angle_gamma 90.000000
_cell_volume 1396.026783
_symmetry_space_group_name_H-M "C 2/C"
_symmetry_group_IT_number 15
_symmetry_cell_setting 'monoclinic'
loop_
_space_group_symop_operation_xyz
x,y,z
-x,y,1/2-z
-x,-y,-z
x,-y,1/2+z
1/2+x,1/2+y,z
1/2-x,1/2+y,1/2-z
1/2-x,1/2-y,-z
1/2+x,1/2-y,1/2+z
loop_
_atom_site_type_symbol
_atom_site_label
_atom_site_fract_x
_atom_site_fract_y
_atom_site_fract_z
Si Si1 0.341388 0.146921 0.131651
Si Si2 0.831252 0.054854 0.134493
Si Si3 0.241264 0.189308 0.533449
Si Si4 0.322700 0.631838 0.606681
Si Si5 0.326444 0.958953 0.125211
O O1 0.346101 0.083548 0.143791
O O2 0.192489 0.162806 0.382556
O O3 0.542887 0.174971 0.037273
O O4 0.251071 0.164410 0.008511
O O5 0.847648 0.994398 0.177965
O O6 0.763653 0.061817 0.987895
O O7 0.023387 0.088516 0.051214
O O8 0.250000 0.250000 0.500000
O O9 0.108799 0.171200 0.782359
O O10 0.141761 0.594594 0.789180
O O11 0.500000 0.000000 0.000000
#
# Coordination Sequence:
#
# PCOD8154430 Si02
#       5
#     8   8   8   8   8
#     4  11  26  50  80 114 159 203 267 322 406 482
#     4  12  26  47  76 121 165 213 267 328 397 487
#     4  11  27  52  83 113 157 208 268 339 411 476
#     4  12  26  51  80 116 163 207 267 338 396 479
#     4  12  26  46  77 116 168 216 265 322 396 484
#
# _framework density 28.652743000000001
#
# number of rings (size 3 to 8) (size 9 to 14) (size 15 to 20)
#    0.000    0.400    2.000    5.400    2.800    7.200 
#    0.000    2.000    0.000    0.000    0.000    0.000 
#    0.000    0.000    0.000    0.000    0.000    0.000 
#
# Total GULP energy -247912.453037 kJ/mol
# GULP energy per Si atom -12395.622652 kJ/mol
# Density = 2.858753 g / cm^3
# Si number density = 28.652743 Si / 1000 Ang^3
#
#
#
# Elastic Constant Matrix: (Units=GPa)
#
#
# Indices 1 2 3 4 5 6 
#
# 1 137.2023 28.4011 51.6141 0.0000 63.3420 0.0000
# 2 28.4011 179.8576 36.2115 0.0000 25.5480 0.0000
# 3 51.6141 36.2115 141.7509 0.0000 44.9659 0.0000
# 4 0.0000 0.0000 0.0000 39.8504 0.0000 4.8941
# 5 63.3420 25.5480 44.9659 0.0000 57.7186 0.0000
# 6 0.0000 0.0000 0.0000 4.8941 0.0000 35.1380
#
#
#
# Elastic Compliance Matrix: (Units=1/GPa)
#
#
# Indices 1 2 3 4 5 6 
#
# 1 0.014784 -0.000002 -0.000314 0.000000 -0.015979 0.000000
# 2 -0.000002 0.006022 -0.000920 0.000000 -0.001947 0.000000
# 3 -0.000314 -0.000920 0.009518 0.000000 -0.006663 0.000000
# 4 0.000000 0.000000 0.000000 0.025531 0.000000 -0.003556
# 5 -0.015979 -0.001947 -0.006663 0.000000 0.040914 0.000000
# 6 0.000000 0.000000 0.000000 -0.003556 0.000000 0.028954
#
#
# Mechanical properties :
#
#
# Convention : Reuss Voigt Hill
#
# Bulk Modulus (GPa) = 35.90360 76.80712 56.35536
# Shear Modulus (GPa) = 36.36946 49.38035 42.87490
#
# Velocity S-wave (km/s) = 3.56661 4.15590 3.87248
# Velocity P-wave (km/s) = 5.43312 7.06350 6.30126
#
# Compressibility (1/GPa) = 0.02785236
#
# Stress axis : x y z
#
# Youngs Moduli (GPa) = 67.64082 166.05717 105.06849
#
# Poissons Ratio (x) = 0.00026 0.03298
# Poissons Ratio (y) = 0.00011 0.09669
# Poissons Ratio (z) = 0.02123 0.15281
#
# Static dielectric constant tensor:
#      x y z
#    x 4.923270 0.000000 -0.397650 
#    y 0.000000 6.555650 0.000000 
#    z -0.397650 0.000000 7.121210 
# 
# 
# High freq. dielectric constant tensor:
#      x y z
#    x 2.166260 0.000000 -0.022430 
#    y 0.000000 2.153240 0.000000 
#    z -0.022430 0.000000 2.216880 
# 
# From -- ./inp_files/25354.got.cif
#   From: 2010.06.25/outbox.cif.g09.slc.cpg/sg15_13_cif.got.tgz:25354.got - 2010.06.28 07:06:18.
