data_PCOD8154118
_publ_section_title
;
Structure prediction by ZEFSAII (Michael W. Deem and Ramdas Pophale) SiO2 
 PCOD8154118
Probable space group: C 2/C
;
_chemical_formula_sum "Si O2"
_cell_formula_units_Z 52
_cell_length_a 9.251723
_cell_length_b 11.645687
_cell_length_c 25.208916
_cell_angle_alpha 90.000000
_cell_angle_beta 62.479352
_cell_angle_gamma 90.000000
_cell_volume 2408.736649
_symmetry_space_group_name_H-M "C 2/C"
_symmetry_group_IT_number 15
_symmetry_cell_setting 'monoclinic'
loop_
_space_group_symop_operation_xyz
x,y,z
-x,y,1/2-z
-x,-y,-z
x,-y,1/2+z
1/2+x,1/2+y,z
1/2-x,1/2+y,1/2-z
1/2-x,1/2-y,-z
1/2+x,1/2-y,1/2+z
loop_
_atom_site_type_symbol
_atom_site_label
_atom_site_fract_x
_atom_site_fract_y
_atom_site_fract_z
Si Si1 0.500000 0.702909 0.250000
Si Si2 0.240333 0.484512 0.925869
Si Si3 0.577988 0.111700 0.163380
Si Si4 0.247855 0.457655 0.735395
Si Si5 0.038884 0.856182 0.345838
Si Si6 0.895578 0.464443 0.438733
Si Si7 0.295475 0.227953 0.878477
O O1 0.645159 0.625485 0.247078
O O2 0.572090 0.782447 0.191218
O O3 0.392720 0.559374 0.883322
O O4 0.268626 0.358143 0.899271
O O5 0.080999 0.540151 0.926897
O O6 0.225946 0.483278 0.991729
O O7 0.425819 0.030794 0.205971
O O8 0.724614 0.095124 0.180258
O O9 0.526638 0.244115 0.172913
O O10 0.637447 0.069991 0.095776
O O11 0.333953 0.581662 0.715624
O O12 0.124790 0.822867 0.386556
O O13 0.857114 0.342887 0.418320
#
# Coordination Sequence:
#
# PCOD8154118 Si02
#       7
#     4   8   8   8   8   8   8
#     4  12  24  44  72 102 140 178 230 286 350 412
#     4  11  26  48  70 104 139 186 238 285 349 416
#     4  11  25  46  67 107 139 183 235 278 360 420
#     4  11  25  45  67 101 143 178 225 288 350 413
#     4  12  25  44  71  99 139 181 226 288 340 420
#     4  11  25  47  72  99 145 185 232 296 342 412
#     4  12  25  47  69 103 141 181 234 287 349 419
#
# _framework density 21.588077999999999
#
# number of rings (size 3 to 8) (size 9 to 14) (size 15 to 20)
#    0.000    0.615    6.154    0.462    4.308    2.462 
#    0.000    0.000    0.000    0.000    0.000    0.000 
#    0.000    0.000    0.000    0.000    0.000    0.000 
#
# Total GULP energy -322547.961562 kJ/mol
# GULP energy per Si atom -12405.690829 kJ/mol
# Density = 2.153894 g / cm^3
# Si number density = 21.588078 Si / 1000 Ang^3
#
#
#
# Elastic Constant Matrix: (Units=GPa)
#
#
# Indices 1 2 3 4 5 6 
#
# 1 68.6225 19.4827 2.8804 0.0000 9.8780 0.0000
# 2 19.4827 108.7697 20.4024 0.0000 -12.0324 0.0000
# 3 2.8804 20.4024 66.9733 0.0000 12.5246 0.0000
# 4 0.0000 0.0000 0.0000 -50.6321 0.0000 29.7794
# 5 9.8780 -12.0324 12.5246 0.0000 32.2405 0.0000
# 6 0.0000 0.0000 0.0000 29.7794 0.0000 26.9684
#
#
#
# Elastic Compliance Matrix: (Units=1/GPa)
#
#
# Indices 1 2 3 4 5 6 
#
# 1 0.016754 -0.004191 0.001950 0.000000 -0.007455 0.000000
# 2 -0.004191 0.011670 -0.004776 0.000000 0.007495 0.000000
# 3 0.001950 -0.004776 0.018060 0.000000 -0.009396 0.000000
# 4 0.000000 0.000000 0.000000 -0.011974 0.000000 0.013222
# 5 -0.007455 0.007495 -0.009396 0.000000 0.039748 0.000000
# 6 0.000000 0.000000 0.000000 0.013222 0.000000 0.022480
#
#
# Mechanical properties :
#
#
# Convention : Reuss Voigt Hill
#
# Bulk Modulus (GPa) = 30.81824 36.65514 33.73669
# Shear Modulus (GPa) = 41.12245 15.15536 28.13890
#
# Velocity S-wave (km/s) = 4.36921 2.65245 3.61424
# Velocity P-wave (km/s) = 6.30555 5.13779 5.75138
#
# Compressibility (1/GPa) = 0.03244831
#
# Stress axis : x y z
#
# Youngs Moduli (GPa) = 59.68815 85.69342 55.37241
#
# Poissons Ratio (x) = 0.35918 -0.10800
# Poissons Ratio (y) = 0.25018 0.26447
# Poissons Ratio (z) = -0.11642 0.40929
#
# Static dielectric constant tensor:
#      x y z
#    x 4.140630 0.000000 0.090100 
#    y 0.000000 3.901000 0.000000 
#    z 0.090100 0.000000 4.056180 
# 
# 
# High freq. dielectric constant tensor:
#      x y z
#    x 1.862330 0.000000 0.008380 
#    y 0.000000 1.853130 0.000000 
#    z 0.008380 0.000000 1.845760 
# 
# From -- ./inp_files/287895.got.cif
#   From: 2010.06.25/outbox.cif.g09.slc.cpg/sg15_144_cif.got.tgz:287895.got - 2010.06.28 07:06:18.
