data_PCOD8154705
_publ_section_title
;
Structure prediction by ZEFSAII (Michael W. Deem and Ramdas Pophale) SiO2 
 PCOD8154705
Probable space group: C 2/C
;
_chemical_formula_sum "Si O2"
_cell_formula_units_Z 48
_cell_length_a 12.039550
_cell_length_b 23.250931
_cell_length_c 11.188970
_cell_angle_alpha 90.000000
_cell_angle_beta 47.804915
_cell_angle_gamma 90.000000
_cell_volume 2320.481752
_symmetry_space_group_name_H-M "C 2/C"
_symmetry_group_IT_number 15
_symmetry_cell_setting 'monoclinic'
loop_
_space_group_symop_operation_xyz
x,y,z
-x,y,1/2-z
-x,-y,-z
x,-y,1/2+z
1/2+x,1/2+y,z
1/2-x,1/2+y,1/2-z
1/2-x,1/2-y,-z
1/2+x,1/2-y,1/2+z
loop_
_atom_site_type_symbol
_atom_site_label
_atom_site_fract_x
_atom_site_fract_y
_atom_site_fract_z
Si Si1 0.722479 0.937000 0.428519
Si Si2 0.084809 0.748813 0.071342
Si Si3 0.589482 0.441186 0.442907
Si Si4 0.550632 0.859169 0.930753
Si Si5 0.144387 0.559390 0.566335
Si Si6 0.659452 0.632303 0.434108
O O1 0.829813 0.925341 0.239494
O O2 0.562773 0.906313 0.536385
O O3 0.807338 0.912800 0.483236
O O4 0.682137 0.004544 0.457222
O O5 0.000000 0.730019 0.250000
O O6 0.040351 0.701956 0.999935
O O7 0.250000 0.750000 0.000000
O O8 0.059069 0.813002 0.044997
O O9 0.500000 0.500000 0.500000
O O10 0.710002 0.433221 0.458584
O O11 0.456666 0.397289 0.571578
O O12 0.689029 0.850356 0.741489
O O13 0.612377 0.882225 0.013696
O O14 0.000000 0.544891 0.750000
#
# Coordination Sequence:
#
# PCOD8154705 Si02
#       6
#     8   8   8   8   8   8
#     4  12  23  42  70 101 138 180 228 285 348 409
#     4  12  23  43  70 103 135 172 232 295 338 391
#     4  12  26  43  66 103 142 182 227 281 345 423
#     4  12  25  44  68 100 138 180 227 282 349 415
#     4  12  26  44  69  99 141 189 223 276 346 427
#     4  12  25  42  72 104 136 171 233 298 347 393
#
# _framework density 20.685358999999998
#
# number of rings (size 3 to 8) (size 9 to 14) (size 15 to 20)
#    0.000    0.000    6.667    4.500    0.000    2.000 
#    0.000    0.833    0.000    0.000    0.000    0.000 
#    0.000    0.000    0.000    0.000    0.000    0.000 
#
# Total GULP energy -297394.303270 kJ/mol
# GULP energy per Si atom -12391.429303 kJ/mol
# Density = 2.063828 g / cm^3
# Si number density = 20.685359 Si / 1000 Ang^3
#
#
#
# Elastic Constant Matrix: (Units=GPa)
#
#
# Indices 1 2 3 4 5 6 
#
# 1 161.7448 67.2663 29.0356 0.0000 -21.4648 0.0000
# 2 67.2663 135.4873 21.5134 0.0000 -5.3513 0.0000
# 3 29.0356 21.5134 75.5745 0.0000 -10.4204 0.0000
# 4 0.0000 0.0000 0.0000 31.7861 0.0000 -2.3489
# 5 -21.4648 -5.3513 -10.4204 0.0000 29.9508 0.0000
# 6 0.0000 0.0000 0.0000 -2.3489 0.0000 49.6174
#
#
#
# Elastic Compliance Matrix: (Units=1/GPa)
#
#
# Indices 1 2 3 4 5 6 
#
# 1 0.008752 -0.003899 -0.001559 0.000000 0.005033 0.000000
# 2 -0.003899 0.009479 -0.001420 0.000000 -0.001595 0.000000
# 3 -0.001559 -0.001420 0.014754 0.000000 0.003762 0.000000
# 4 0.000000 0.000000 0.000000 0.031571 0.000000 0.001495
# 5 0.005033 -0.001595 0.003762 0.000000 0.038019 0.000000
# 6 0.000000 0.000000 0.000000 0.001495 0.000000 0.020225
#
#
# Mechanical properties :
#
#
# Convention : Reuss Voigt Hill
#
# Bulk Modulus (GPa) = 52.00404 67.60414 59.80409
# Shear Modulus (GPa) = 34.97372 39.27029 37.12200
#
# Velocity S-wave (km/s) = 4.11633 4.36186 4.24087
# Velocity P-wave (km/s) = 6.91284 7.62370 7.27695
#
# Compressibility (1/GPa) = 0.01922927
#
# Stress axis : x y z
#
# Youngs Moduli (GPa) = 114.26313 105.49697 67.77899
#
# Poissons Ratio (x) = 0.41131 0.10564
# Poissons Ratio (y) = 0.44548 0.09627
# Poissons Ratio (z) = 0.17809 0.14984
#
# Static dielectric constant tensor:
#      x y z
#    x 3.746740 0.000000 -0.259920 
#    y 0.000000 3.233860 0.000000 
#    z -0.259920 0.000000 3.718450 
# 
# 
# High freq. dielectric constant tensor:
#      x y z
#    x 1.817510 0.000000 -0.026100 
#    y 0.000000 1.812380 0.000000 
#    z -0.026100 0.000000 1.811810 
# 
# From -- ./inp_files/32497.got.cif
#   From: 2010.06.25/outbox.cif.g09.slc.cpg/sg15_17_cif.got.tgz:32497.got - 2010.06.28 07:06:18.
