data_PCOD8154427
_publ_section_title
;
Structure prediction by ZEFSAII (Michael W. Deem and Ramdas Pophale) SiO2 
 PCOD8154427
Probable space group: C 2/C
;
_chemical_formula_sum "Si O2"
_cell_formula_units_Z 64
_cell_length_a 16.195645
_cell_length_b 14.002447
_cell_length_c 18.103280
_cell_angle_alpha 90.000000
_cell_angle_beta 136.456624
_cell_angle_gamma 90.000000
_cell_volume 2828.250434
_symmetry_space_group_name_H-M "C 2/C"
_symmetry_group_IT_number 15
_symmetry_cell_setting 'monoclinic'
loop_
_space_group_symop_operation_xyz
x,y,z
-x,y,1/2-z
-x,-y,-z
x,-y,1/2+z
1/2+x,1/2+y,z
1/2-x,1/2+y,1/2-z
1/2-x,1/2-y,-z
1/2+x,1/2-y,1/2+z
loop_
_atom_site_type_symbol
_atom_site_label
_atom_site_fract_x
_atom_site_fract_y
_atom_site_fract_z
Si Si1 0.774609 0.893665 0.561146
Si Si2 0.004805 0.855368 0.336978
Si Si3 0.036261 0.665186 0.422903
Si Si4 0.709152 0.485615 0.275744
Si Si5 0.702690 0.124606 0.274621
Si Si6 0.639197 0.198863 0.639519
Si Si7 0.448425 0.222349 0.640197
Si Si8 0.757509 0.578916 0.037227
O O1 0.648728 0.838992 0.468370
O O2 0.888471 0.823730 0.624631
O O3 0.780728 0.951365 0.642558
O O4 0.779148 0.969214 0.497528
O O5 0.912127 0.926203 0.314794
O O6 0.000000 0.887411 0.250000
O O7 0.979532 0.743316 0.329315
O O8 0.137231 0.860059 0.456980
O O9 0.055949 0.715068 0.514177
O O10 0.154827 0.612398 0.471665
O O11 0.919993 0.596917 0.349503
O O12 0.700047 0.556374 0.200391
O O13 0.819641 0.411678 0.337435
O O14 0.744627 0.234000 0.291746
O O15 0.680250 0.095912 0.344576
O O16 0.564295 0.230153 0.662863
O O17 0.500000 0.175803 0.750000
#
# Coordination Sequence:
#
# PCOD8154427 Si02
#       8
#     8   8   8   8   8   8   8   8
#     4  11  26  50  72 108 145 197 247 303 363 452
#     4  12  23  43  74 105 142 190 234 299 372 440
#     4  12  25  47  73 102 149 186 237 307 372 433
#     4  12  27  47  75 106 147 196 246 298 378 445
#     4  12  28  44  71 109 146 185 242 310 367 435
#     4  12  26  48  72 108 146 192 246 303 374 444
#     4  11  28  48  76 103 151 198 248 301 369 439
#     4  12  26  43  74 106 142 181 250 299 366 439
#
# _framework density 22.628831999999999
#
# number of rings (size 3 to 8) (size 9 to 14) (size 15 to 20)
#    0.000    0.250    5.000    3.000    7.000    3.500 
#    0.000    0.000    0.000    0.000    0.000    0.000 
#    0.000    0.000    0.000    0.000    0.000    0.000 
#
# Total GULP energy -396702.158674 kJ/mol
# GULP energy per Si atom -12396.942459 kJ/mol
# Density = 2.257733 g / cm^3
# Si number density = 22.628832 Si / 1000 Ang^3
#
#
#
# Elastic Constant Matrix: (Units=GPa)
#
#
# Indices 1 2 3 4 5 6 
#
# 1 112.8009 20.7656 42.9902 0.0000 -9.8490 0.0000
# 2 20.7656 87.3180 15.2543 0.0000 -15.1779 0.0000
# 3 42.9902 15.2543 103.6612 0.0000 7.0600 0.0000
# 4 0.0000 0.0000 0.0000 64.9793 0.0000 -13.7852
# 5 -9.8490 -15.1779 7.0600 0.0000 31.3037 0.0000
# 6 0.0000 0.0000 0.0000 -13.7852 0.0000 42.8908
#
#
#
# Elastic Compliance Matrix: (Units=1/GPa)
#
#
# Indices 1 2 3 4 5 6 
#
# 1 0.011249 -0.001134 -0.004775 0.000000 0.004066 0.000000
# 2 -0.001134 0.013179 -0.001909 0.000000 0.006464 0.000000
# 3 -0.004775 -0.001909 0.012262 0.000000 -0.005194 0.000000
# 4 0.000000 0.000000 0.000000 0.016516 0.000000 0.005308
# 5 0.004066 0.006464 -0.005194 0.000000 0.037530 0.000000
# 6 0.000000 0.000000 0.000000 0.005308 0.000000 0.025021
#
#
# Mechanical properties :
#
#
# Convention : Reuss Voigt Hill
#
# Bulk Modulus (GPa) = 47.49963 51.31114 49.40539
# Shear Modulus (GPa) = 36.12420 42.81942 39.47181
#
# Velocity S-wave (km/s) = 3.99981 4.35472 4.18103
# Velocity P-wave (km/s) = 6.50904 6.92886 6.72223
#
# Compressibility (1/GPa) = 0.02105279
#
# Stress axis : x y z
#
# Youngs Moduli (GPa) = 88.89769 75.87691 81.55383
#
# Poissons Ratio (x) = 0.08605 0.38943
# Poissons Ratio (y) = 0.10082 0.15571
# Poissons Ratio (z) = 0.42450 0.14487
#
# Static dielectric constant tensor:
#      x y z
#    x 4.033840 0.000000 0.140720 
#    y 0.000000 4.130660 0.000000 
#    z 0.140720 0.000000 4.160130 
# 
# 
# High freq. dielectric constant tensor:
#      x y z
#    x 1.897210 0.000000 0.008800 
#    y 0.000000 1.899030 0.000000 
#    z 0.008800 0.000000 1.901000 
# 
# From -- ./inp_files/211402.got.cif
#   From: 2010.06.25/outbox.cif.g09.slc.cpg/sg15_106_cif.got.tgz:211402.got - 2010.06.28 07:06:18.
