data_PCOD8154863
_publ_section_title
;
Structure prediction by ZEFSAII (Michael W. Deem and Ramdas Pophale) SiO2 
 PCOD8154863
Probable space group: C 2/C
;
_chemical_formula_sum "Si O2"
_cell_formula_units_Z 48
_cell_length_a 24.904633
_cell_length_b 9.195163
_cell_length_c 13.743486
_cell_angle_alpha 90.000000
_cell_angle_beta 137.499937
_cell_angle_gamma 90.000000
_cell_volume 2126.279490
_symmetry_space_group_name_H-M "C 2/C"
_symmetry_group_IT_number 15
_symmetry_cell_setting 'monoclinic'
loop_
_space_group_symop_operation_xyz
x,y,z
-x,y,1/2-z
-x,-y,-z
x,-y,1/2+z
1/2+x,1/2+y,z
1/2-x,1/2+y,1/2-z
1/2-x,1/2-y,-z
1/2+x,1/2-y,1/2+z
loop_
_atom_site_type_symbol
_atom_site_label
_atom_site_fract_x
_atom_site_fract_y
_atom_site_fract_z
Si Si1 0.324465 0.457914 0.329379
Si Si2 0.588329 0.190357 0.376104
Si Si3 0.089788 0.167605 0.381308
Si Si4 0.333594 0.196860 0.822530
Si Si5 0.827247 0.935378 0.117195
Si Si6 0.654728 0.926219 0.367482
O O1 0.396439 0.409857 0.495837
O O2 0.318241 0.630765 0.306188
O O3 0.245635 0.396631 0.272483
O O4 0.336770 0.383709 0.240905
O O5 0.500000 0.258658 0.250000
O O6 0.605772 0.150830 0.511389
O O7 0.658261 0.298412 0.433886
O O8 0.590972 0.049131 0.310682
O O9 0.149787 0.303230 0.445268
O O10 0.000000 0.223072 0.250000
O O11 0.104948 0.052044 0.315967
O O12 0.370028 0.148124 0.767624
O O13 0.742017 0.005419 0.981963
#
# Coordination Sequence:
#
# PCOD8154863 Si02
#       6
#     8   8   8   8   8   8
#     4  12  26  42  74 105 136 187 241 282 346 418
#     4  12  28  46  70 107 146 178 231 298 355 407
#     4  12  26  45  71 106 146 180 230 297 349 404
#     4  12  25  44  73 103 137 186 240 286 344 418
#     4  12  24  45  74 101 137 187 239 284 339 427
#     4  12  25  47  73 103 141 188 237 283 346 423
#
# _framework density 22.574642000000001
#
# number of rings (size 3 to 8) (size 9 to 14) (size 15 to 20)
#    0.000    0.000    6.667    3.000    2.333    2.667 
#    0.000    0.000    0.000    0.000    0.000    0.000 
#    0.000    0.000    0.000    0.000    0.000    0.000 
#
# Total GULP energy -297647.940465 kJ/mol
# GULP energy per Si atom -12401.997519 kJ/mol
# Density = 2.252326 g / cm^3
# Si number density = 22.574642 Si / 1000 Ang^3
#
#
#
# Elastic Constant Matrix: (Units=GPa)
#
#
# Indices 1 2 3 4 5 6 
#
# 1 94.5614 41.3061 55.2671 0.0000 -21.7502 0.0000
# 2 41.3061 132.3254 33.1677 0.0000 -8.8725 0.0000
# 3 55.2671 33.1677 136.6074 0.0000 -8.9273 0.0000
# 4 0.0000 0.0000 0.0000 22.9085 0.0000 -0.9480
# 5 -21.7502 -8.8725 -8.9273 0.0000 28.4428 0.0000
# 6 0.0000 0.0000 0.0000 -0.9480 0.0000 43.5005
#
#
#
# Elastic Compliance Matrix: (Units=1/GPa)
#
#
# Indices 1 2 3 4 5 6 
#
# 1 0.017895 -0.003432 -0.005699 0.000000 0.010825 0.000000
# 2 -0.003432 0.008811 -0.000758 0.000000 -0.000114 0.000000
# 3 -0.005699 -0.000758 0.009709 0.000000 -0.001547 0.000000
# 4 0.000000 0.000000 0.000000 0.043691 0.000000 0.000952
# 5 0.010825 -0.000114 -0.001547 0.000000 0.042915 0.000000
# 6 0.000000 0.000000 0.000000 0.000952 0.000000 0.023009
#
#
# Mechanical properties :
#
#
# Convention : Reuss Voigt Hill
#
# Bulk Modulus (GPa) = 60.10911 69.21958 64.66434
# Shear Modulus (GPa) = 29.17944 34.55392 31.86668
#
# Velocity S-wave (km/s) = 3.59914 3.91660 3.76122
# Velocity P-wave (km/s) = 6.62996 7.15417 6.89705
#
# Compressibility (1/GPa) = 0.01663641
#
# Stress axis : x y z
#
# Youngs Moduli (GPa) = 55.88178 113.49722 102.99791
#
# Poissons Ratio (x) = 0.38949 0.58700
# Poissons Ratio (y) = 0.19177 0.07810
# Poissons Ratio (z) = 0.31848 0.08607
#
# Static dielectric constant tensor:
#      x y z
#    x 4.357810 0.000000 -0.377260 
#    y 0.000000 4.292690 0.000000 
#    z -0.377260 0.000000 3.930560 
# 
# 
# High freq. dielectric constant tensor:
#      x y z
#    x 1.897210 0.000000 -0.016350 
#    y 0.000000 1.903380 0.000000 
#    z -0.016350 0.000000 1.877810 
# 
# From -- ./inp_files/176977.got.cif
#   From: 2010.06.25/outbox.cif.g09.slc.cpg/sg15_89_cif.got.tgz:176977.got - 2010.06.28 07:06:18.
