data_PCOD8154869
_publ_section_title
;
Structure prediction by ZEFSAII (Michael W. Deem and Ramdas Pophale) SiO2 
 PCOD8154869
Probable space group: C 2/C
;
_chemical_formula_sum "Si O2"
_cell_formula_units_Z 36
_cell_length_a 12.327147
_cell_length_b 16.621630
_cell_length_c 14.297859
_cell_angle_alpha 90.000000
_cell_angle_beta 34.138587
_cell_angle_gamma 90.000000
_cell_volume 1644.077104
_symmetry_space_group_name_H-M "C 2/C"
_symmetry_group_IT_number 15
_symmetry_cell_setting 'monoclinic'
loop_
_space_group_symop_operation_xyz
x,y,z
-x,y,1/2-z
-x,-y,-z
x,-y,1/2+z
1/2+x,1/2+y,z
1/2-x,1/2+y,1/2-z
1/2-x,1/2-y,-z
1/2+x,1/2-y,1/2+z
loop_
_atom_site_type_symbol
_atom_site_label
_atom_site_fract_x
_atom_site_fract_y
_atom_site_fract_z
Si Si1 0.535267 0.053095 0.385629
Si Si2 0.313409 0.658912 0.944584
Si Si3 0.000000 0.442148 0.250000
Si Si4 0.660467 0.662463 0.054845
Si Si5 0.574232 0.591007 0.436692
O O1 0.355401 0.107949 0.484548
O O2 0.731135 0.102371 0.265060
O O3 0.500000 0.000000 0.500000
O O4 0.608524 0.997804 0.247112
O O5 0.500000 0.651543 0.750000
O O6 0.250000 0.750000 0.000000
O O7 0.377616 0.625812 0.997386
O O8 0.847301 0.395197 0.424800
O O9 0.500000 0.644000 0.250000
O O10 0.575443 0.648345 0.011567
O O11 0.750000 0.750000 0.000000
O O12 0.500000 0.500000 0.500000
#
# Coordination Sequence:
#
# PCOD8154869 Si02
#       5
#     8   8   4   8   8
#     4  12  24  45  77 106 145 195 248 302 371 448
#     4  12  27  47  72 109 149 191 246 307 375 446
#     4  12  24  48  76 108 152 188 260 308 366 454
#     4  12  27  47  73 110 150 196 249 309 379 445
#     4  12  24  46  74 105 145 191 246 304 366 444
#
# _framework density 21.896782999999999
#
# number of rings (size 3 to 8) (size 9 to 14) (size 15 to 20)
#    0.000    0.000    5.556    4.000    0.000    7.111 
#    0.000    0.000    0.000    0.000    0.000    0.000 
#    0.000    0.000    0.000    0.000    0.000    0.000 
#
# Total GULP energy -223058.707122 kJ/mol
# GULP energy per Si atom -12392.150396 kJ/mol
# Density = 2.184694 g / cm^3
# Si number density = 21.896783 Si / 1000 Ang^3
#
#
#
# Elastic Constant Matrix: (Units=GPa)
#
#
# Indices 1 2 3 4 5 6 
#
# 1 148.2253 80.7526 38.9926 0.0089 -7.2131 -0.0043
# 2 80.7526 152.8470 56.0489 0.0211 -3.1322 -0.0003
# 3 38.9926 56.0489 171.6082 0.0339 -10.6892 0.0026
# 4 0.0089 0.0211 0.0339 30.4368 -0.0097 -11.8816
# 5 -7.2131 -3.1322 -10.6892 -0.0097 42.1437 0.0012
# 6 -0.0043 -0.0003 0.0026 -11.8816 0.0012 42.1455
#
#
#
# Elastic Compliance Matrix: (Units=1/GPa)
#
#
# Indices 1 2 3 4 5 6 
#
# 1 0.009580 -0.004846 -0.000522 0.000002 0.001147 0.000002
# 2 -0.004846 0.009884 -0.002167 -0.000004 -0.000645 -0.000001
# 3 -0.000522 -0.002167 0.006745 -0.000006 0.001460 -0.000002
# 4 0.000002 -0.000004 -0.000006 0.036918 0.000007 0.010408
# 5 0.001147 -0.000645 0.001460 0.000007 0.024247 0.000001
# 6 0.000002 -0.000001 -0.000002 0.010408 0.000001 0.026661
#
#
# Mechanical properties :
#
#
# Convention : Reuss Voigt Hill
#
# Bulk Modulus (GPa) = 89.79026 91.58541 90.68783
# Shear Modulus (GPa) = 37.64494 42.73762 40.19128
#
# Velocity S-wave (km/s) = 4.15082 4.42268 4.28891
# Velocity P-wave (km/s) = 8.00422 8.24603 8.12602
#
# Compressibility (1/GPa) = 0.01113707
#
# Stress axis : x y z
#
# Youngs Moduli (GPa) = 104.38474 101.16943 148.26289
#
# Poissons Ratio (x) = 0.49029 0.07746
# Poissons Ratio (y) = 0.50587 0.32134
# Poissons Ratio (z) = 0.05454 0.21927
#
# Static dielectric constant tensor:
#      x y z
#    x 4.004220 -0.000020 -0.217120 
#    y -0.000020 4.103550 0.000060 
#    z -0.217120 0.000060 4.296130 
# 
# 
# High freq. dielectric constant tensor:
#      x y z
#    x 1.881050 0.000000 -0.011770 
#    y 0.000000 1.860540 0.000000 
#    z -0.011770 0.000000 1.888000 
# 
# From -- ./inp_files/144017.got.cif
#   From: 2010.06.25/outbox.cif.g09.slc.cpg/sg15_73_cif.got.tgz:144017.got - 2010.06.28 07:06:18.
