data_PCOD8154770
_publ_section_title
;
Structure prediction by ZEFSAII (Michael W. Deem and Ramdas Pophale) SiO2 
 PCOD8154770
Probable space group: C 2/C
;
_chemical_formula_sum "Si O2"
_cell_formula_units_Z 36
_cell_length_a 15.377931
_cell_length_b 17.364878
_cell_length_c 9.875283
_cell_angle_alpha 90.000000
_cell_angle_beta 38.148540
_cell_angle_gamma 90.000000
_cell_volume 1628.915047
_symmetry_space_group_name_H-M "C 2/C"
_symmetry_group_IT_number 15
_symmetry_cell_setting 'monoclinic'
loop_
_space_group_symop_operation_xyz
x,y,z
-x,y,1/2-z
-x,-y,-z
x,-y,1/2+z
1/2+x,1/2+y,z
1/2-x,1/2+y,1/2-z
1/2-x,1/2-y,-z
1/2+x,1/2-y,1/2+z
loop_
_atom_site_type_symbol
_atom_site_label
_atom_site_fract_x
_atom_site_fract_y
_atom_site_fract_z
Si Si1 0.931859 0.238710 0.102336
Si Si2 0.258431 0.583262 0.314684
Si Si3 0.837657 0.956677 0.425473
Si Si4 0.735145 0.306856 0.139283
Si Si5 0.000000 0.340518 0.250000
O O1 0.846979 0.160437 0.195150
O O2 0.875397 0.297315 0.057080
O O3 0.905053 0.284403 0.274111
O O4 0.096134 0.217824 0.891452
O O5 0.321066 0.536171 0.364876
O O6 0.096702 0.604206 0.540217
O O7 0.265051 0.538251 0.162708
O O8 0.769061 0.892997 0.412545
O O9 0.000000 0.936320 0.250000
O O10 0.750000 0.250000 0.000000
#
# Coordination Sequence:
#
# PCOD8154770 Si02
#       5
#     8   8   8   8   4
#     4  12  25  45  76 106 141 192 241 302 353 433
#     4  12  28  46  71 107 145 192 241 300 365 428
#     4  12  26  47  74 106 146 192 241 300 364 440
#     4  12  23  46  74 107 144 186 247 294 357 432
#     4  12  28  48  70 106 150 190 248 296 372 430
#
# _framework density 22.100601999999999
#
# number of rings (size 3 to 8) (size 9 to 14) (size 15 to 20)
#    0.000    0.000    6.667    2.000    4.667    0.889 
#    4.000    0.000    0.000    0.000    0.000    0.000 
#    0.000    0.000    0.000    0.000    0.000    0.000 
#
# Total GULP energy -223257.575539 kJ/mol
# GULP energy per Si atom -12403.198641 kJ/mol
# Density = 2.205030 g / cm^3
# Si number density = 22.100602 Si / 1000 Ang^3
#
#
#
# Elastic Constant Matrix: (Units=GPa)
#
#
# Indices 1 2 3 4 5 6 
#
# 1 87.2974 18.3700 17.2068 -0.0009 38.4130 0.0014
# 2 18.3700 72.6396 19.0746 -0.0004 21.1386 0.0005
# 3 17.2068 19.0746 124.6054 -0.0003 17.4839 0.0005
# 4 -0.0009 -0.0004 -0.0003 31.1023 0.0004 17.8395
# 5 38.4130 21.1386 17.4839 0.0004 42.0330 -0.0007
# 6 0.0014 0.0005 0.0005 17.8395 -0.0007 47.9836
#
#
#
# Elastic Compliance Matrix: (Units=1/GPa)
#
#
# Indices 1 2 3 4 5 6 
#
# 1 0.019171 0.000331 -0.000230 0.000002 -0.017591 -0.000001
# 2 0.000331 0.016370 -0.001438 0.000001 -0.007937 -0.000001
# 3 -0.000230 -0.001438 0.008651 0.000000 -0.002665 0.000000
# 4 0.000002 0.000001 0.000000 0.040867 -0.000002 -0.015193
# 5 -0.017591 -0.007937 -0.002665 -0.000002 0.044967 0.000002
# 6 -0.000001 -0.000001 0.000000 -0.015193 0.000002 0.026489
#
#
# Mechanical properties :
#
#
# Convention : Reuss Voigt Hill
#
# Bulk Modulus (GPa) = 24.08508 43.76058 33.92283
# Shear Modulus (GPa) = 28.89700 39.54986 34.22343
#
# Velocity S-wave (km/s) = 3.61989 4.23488 3.93940
# Velocity P-wave (km/s) = 5.32851 6.61483 6.00620
#
# Compressibility (1/GPa) = 0.04151947
#
# Stress axis : x y z
#
# Youngs Moduli (GPa) = 52.16161 61.08649 115.59121
#
# Poissons Ratio (x) = -0.02023 0.02656
# Poissons Ratio (y) = -0.01728 0.16622
# Poissons Ratio (z) = 0.01199 0.08784
#
# Static dielectric constant tensor:
#      x y z
#    x 3.513420 0.000000 0.509510 
#    y 0.000000 3.595670 0.000000 
#    z 0.509510 0.000000 3.821990 
# 
# 
# High freq. dielectric constant tensor:
#      x y z
#    x 1.875940 0.000000 0.009730 
#    y 0.000000 1.871650 0.000000 
#    z 0.009730 0.000000 1.882010 
# 
# From -- ./inp_files/48256.got.cif
#   From: 2010.06.25/outbox.cif.g09.slc.cpg/sg15_25_cif.got.tgz:48256.got - 2010.06.28 07:06:18.
