data_PCOD8154180
_publ_section_title
;
Structure prediction by ZEFSAII (Michael W. Deem and Ramdas Pophale) SiO2 
 PCOD8154180
Probable space group: C 2/C
;
_chemical_formula_sum "Si O2"
_cell_formula_units_Z 48
_cell_length_a 14.399731
_cell_length_b 8.517699
_cell_length_c 26.185741
_cell_angle_alpha 90.000000
_cell_angle_beta 138.142331
_cell_angle_gamma 90.000000
_cell_volume 2143.143484
_symmetry_space_group_name_H-M "C 2/C"
_symmetry_group_IT_number 15
_symmetry_cell_setting 'monoclinic'
loop_
_space_group_symop_operation_xyz
x,y,z
-x,y,1/2-z
-x,-y,-z
x,-y,1/2+z
1/2+x,1/2+y,z
1/2-x,1/2+y,1/2-z
1/2-x,1/2-y,-z
1/2+x,1/2-y,1/2+z
loop_
_atom_site_type_symbol
_atom_site_label
_atom_site_fract_x
_atom_site_fract_y
_atom_site_fract_z
Si Si1 0.620252 0.818073 0.597232
Si Si2 0.321401 0.324467 0.980211
Si Si3 0.622746 0.144151 0.764947
Si Si4 0.841094 0.297254 0.686359
Si Si5 0.393506 0.853497 0.357987
Si Si6 0.850165 0.190599 0.997928
O O1 0.483802 0.713202 0.546983
O O2 0.745538 0.760073 0.684975
O O3 0.676975 0.798093 0.562952
O O4 0.580110 0.994156 0.596199
O O5 0.239479 0.251910 0.898538
O O6 0.311684 0.511167 0.972740
O O7 0.250000 0.250000 0.000000
O O8 0.500000 0.217526 0.750000
O O9 0.569235 0.111405 0.685585
O O10 0.668923 0.982221 0.809356
O O11 0.765665 0.204354 0.701469
O O12 0.000000 0.238381 0.750000
O O13 0.490741 0.713303 0.418763
O O14 0.750000 0.250000 0.000000
#
# Coordination Sequence:
#
# PCOD8154180 Si02
#       6
#     8   8   8   8   8   8
#     4  12  25  46  73 104 144 185 236 291 352 421
#     4  12  27  46  75 103 137 191 235 291 361 418
#     4  11  25  46  71 100 146 193 231 288 358 417
#     4  11  26  48  70  98 145 185 234 289 351 426
#     4  12  26  44  72 109 139 187 239 290 351 422
#     4  12  25  45  72 106 142 177 235 299 347 417
#
# _framework density 22.397008
#
# number of rings (size 3 to 8) (size 9 to 14) (size 15 to 20)
#    0.000    0.333    3.333    5.000   11.667    0.667 
#    0.000    0.000    0.000    0.000    0.000    0.000 
#    0.000    0.000    0.000    0.000    0.000    0.000 
#
# Total GULP energy -297710.967074 kJ/mol
# GULP energy per Si atom -12404.623628 kJ/mol
# Density = 2.234603 g / cm^3
# Si number density = 22.397008 Si / 1000 Ang^3
#
#
#
# Elastic Constant Matrix: (Units=GPa)
#
#
# Indices 1 2 3 4 5 6 
#
# 1 154.4112 43.4113 52.0953 0.0000 -8.6631 0.0000
# 2 43.4113 66.6117 29.7162 0.0000 3.9682 0.0000
# 3 52.0953 29.7162 110.4105 0.0000 1.0162 0.0000
# 4 0.0000 0.0000 0.0000 27.3697 0.0000 3.2377
# 5 -8.6631 3.9682 1.0162 0.0000 45.9639 0.0000
# 6 0.0000 0.0000 0.0000 3.2377 0.0000 40.3327
#
#
#
# Elastic Compliance Matrix: (Units=1/GPa)
#
#
# Indices 1 2 3 4 5 6 
#
# 1 0.008893 -0.004594 -0.002979 0.000000 0.002139 0.000000
# 2 -0.004594 0.019521 -0.003063 0.000000 -0.002483 0.000000
# 3 -0.002979 -0.003063 0.011292 0.000000 -0.000547 0.000000
# 4 0.000000 0.000000 0.000000 0.036887 0.000000 -0.002961
# 5 0.002139 -0.002483 -0.000547 0.000000 0.022386 0.000000
# 6 0.000000 0.000000 0.000000 -0.002961 0.000000 0.025031
#
#
# Mechanical properties :
#
#
# Convention : Reuss Voigt Hill
#
# Bulk Modulus (GPa) = 54.25091 64.65323 59.45207
# Shear Modulus (GPa) = 33.01906 36.48064 34.74985
#
# Velocity S-wave (km/s) = 3.84378 4.04024 3.94323
# Velocity P-wave (km/s) = 6.63133 7.11999 6.88000
#
# Compressibility (1/GPa) = 0.01843287
#
# Stress axis : x y z
#
# Youngs Moduli (GPa) = 112.44996 51.22732 88.55556
#
# Poissons Ratio (x) = 0.23533 0.26383
# Poissons Ratio (y) = 0.51658 0.27129
# Poissons Ratio (z) = 0.33501 0.15693
#
# Static dielectric constant tensor:
#      x y z
#    x 4.312270 0.000000 -0.034000 
#    y 0.000000 3.668880 0.000000 
#    z -0.034000 0.000000 3.689710 
# 
# 
# High freq. dielectric constant tensor:
#      x y z
#    x 1.903900 0.000000 0.001740 
#    y 0.000000 1.871060 0.000000 
#    z 0.001740 0.000000 1.891770 
# 
# From -- ./inp_files/295441.got.cif
#   From: 2010.06.25/outbox.cif.g09.slc.cpg/sg15_148_cif.got.tgz:295441.got - 2010.06.28 07:06:18.
