data_PCOD8154713
_publ_section_title
;
Structure prediction by ZEFSAII (Michael W. Deem and Ramdas Pophale) SiO2 
 PCOD8154713
Probable space group: C 2/C
;
_chemical_formula_sum "Si O2"
_cell_formula_units_Z 64
_cell_length_a 30.018954
_cell_length_b 8.717920
_cell_length_c 14.717664
_cell_angle_alpha 90.000000
_cell_angle_beta 132.626291
_cell_angle_gamma 90.000000
_cell_volume 2833.995027
_symmetry_space_group_name_H-M "C 2/C"
_symmetry_group_IT_number 15
_symmetry_cell_setting 'monoclinic'
loop_
_space_group_symop_operation_xyz
x,y,z
-x,y,1/2-z
-x,-y,-z
x,-y,1/2+z
1/2+x,1/2+y,z
1/2-x,1/2+y,1/2-z
1/2-x,1/2-y,-z
1/2+x,1/2-y,1/2+z
loop_
_atom_site_type_symbol
_atom_site_label
_atom_site_fract_x
_atom_site_fract_y
_atom_site_fract_z
Si Si1 0.084117 0.884029 0.215335
Si Si2 0.433395 0.680025 0.014737
Si Si3 0.349546 0.765219 0.544605
Si Si4 0.311734 0.223040 0.408824
Si Si5 0.932961 0.232467 0.328092
Si Si6 0.175115 0.426678 0.397089
Si Si7 0.747408 0.461321 0.666628
Si Si8 0.950724 0.830610 0.059143
O O1 0.090159 0.833033 0.120434
O O2 0.142089 0.818034 0.346943
O O3 0.022570 0.810325 0.171132
O O4 0.086330 0.065757 0.233951
O O5 0.385116 0.777472 0.005402
O O6 0.498295 0.765629 0.109997
O O7 0.437145 0.509002 0.058598
O O8 0.297029 0.678815 0.417546
O O9 0.412732 0.766380 0.578045
O O10 0.334323 0.939556 0.542735
O O11 0.293015 0.194949 0.489363
O O12 0.288689 0.390803 0.347308
O O13 0.288126 0.093966 0.306821
O O14 0.888104 0.362140 0.229125
O O15 0.930032 0.228414 0.432405
O O16 0.214677 0.485749 0.368497
#
# Coordination Sequence:
#
# PCOD8154713 Si02
#       8
#     8   8   8   8   8   8   8   8
#     4   9  19  39  70 100 131 171 226 275 330 408
#     4   9  19  42  69 102 128 177 223 273 339 399
#     4  12  23  43  65  99 135 180 222 277 338 405
#     4  12  26  47  71  96 132 182 232 278 340 404
#     4   9  21  41  70  99 137 173 218 284 335 404
#     4  12  28  44  66 104 139 179 226 282 349 400
#     4  12  28  47  70  97 136 182 234 287 329 403
#     4   9  19  39  69  98 132 175 223 269 336 404
#
# _framework density 22.582961000000001
#
# number of rings (size 3 to 8) (size 9 to 14) (size 15 to 20)
#    0.000    1.500    1.250    4.875    3.500    1.500 
#    4.500    1.875    0.000    0.000    0.000    0.000 
#    0.000    0.000    0.000    0.000    0.000    0.000 
#
# Total GULP energy -396742.385781 kJ/mol
# GULP energy per Si atom -12398.199556 kJ/mol
# Density = 2.253156 g / cm^3
# Si number density = 22.582961 Si / 1000 Ang^3
#
#
#
# Elastic Constant Matrix: (Units=GPa)
#
#
# Indices 1 2 3 4 5 6 
#
# 1 87.5046 21.3272 5.9369 0.0000 -3.9011 0.0000
# 2 21.3272 77.0693 27.8929 0.0000 3.6578 0.0000
# 3 5.9369 27.8929 85.1978 0.0000 -2.7537 0.0000
# 4 0.0000 0.0000 0.0000 32.1939 0.0000 -8.2765
# 5 -3.9011 3.6578 -2.7537 0.0000 20.2323 0.0000
# 6 0.0000 0.0000 0.0000 -8.2765 0.0000 16.6695
#
#
#
# Elastic Compliance Matrix: (Units=1/GPa)
#
#
# Indices 1 2 3 4 5 6 
#
# 1 0.012454 -0.003764 0.000466 0.000000 0.003145 0.000000
# 2 -0.003764 0.016084 -0.005144 0.000000 -0.004334 0.000000
# 3 0.000466 -0.005144 0.013481 0.000000 0.002855 0.000000
# 4 0.000000 0.000000 0.000000 0.035607 0.000000 0.017679
# 5 0.003145 -0.004334 0.002855 0.000000 0.051205 0.000000
# 6 0.000000 0.000000 0.000000 0.017679 0.000000 0.068767
#
#
# Mechanical properties :
#
#
# Convention : Reuss Voigt Hill
#
# Bulk Modulus (GPa) = 39.78361 40.00952 39.89656
# Shear Modulus (GPa) = 22.43559 26.79346 24.61453
#
# Velocity S-wave (km/s) = 3.15536 3.44822 3.30504
# Velocity P-wave (km/s) = 5.56147 5.79731 5.68061
#
# Compressibility (1/GPa) = 0.02513598
#
# Stress axis : x y z
#
# Youngs Moduli (GPa) = 80.29521 62.17242 74.17775
#
# Poissons Ratio (x) = 0.23404 -0.03459
# Poissons Ratio (y) = 0.30226 0.38154
# Poissons Ratio (z) = -0.03744 0.31979
#
# Static dielectric constant tensor:
#      x y z
#    x 4.062830 0.000000 0.001610 
#    y 0.000000 3.934660 0.000000 
#    z 0.001610 0.000000 4.088650 
# 
# 
# High freq. dielectric constant tensor:
#      x y z
#    x 1.894300 0.000000 -0.006890 
#    y 0.000000 1.876880 0.000000 
#    z -0.006890 0.000000 1.900810 
# 
# From -- ./inp_files/181161.got.cif
#   From: 2010.06.25/outbox.cif.g09.slc.cpg/sg15_91_cif.got.tgz:181161.got - 2010.06.28 07:06:18.
