data_PCOD8154797
_publ_section_title
;
Structure prediction by ZEFSAII (Michael W. Deem and Ramdas Pophale) SiO2 
 PCOD8154797
Probable space group: C 2/C
;
_chemical_formula_sum "Si O2"
_cell_formula_units_Z 40
_cell_length_a 9.184084
_cell_length_b 16.204505
_cell_length_c 11.805983
_cell_angle_alpha 90.000000
_cell_angle_beta 76.965718
_cell_angle_gamma 90.000000
_cell_volume 1711.739329
_symmetry_space_group_name_H-M "C 2/C"
_symmetry_group_IT_number 15
_symmetry_cell_setting 'monoclinic'
loop_
_space_group_symop_operation_xyz
x,y,z
-x,y,1/2-z
-x,-y,-z
x,-y,1/2+z
1/2+x,1/2+y,z
1/2-x,1/2+y,1/2-z
1/2-x,1/2-y,-z
1/2+x,1/2-y,1/2+z
loop_
_atom_site_type_symbol
_atom_site_label
_atom_site_fract_x
_atom_site_fract_y
_atom_site_fract_z
Si Si1 0.500000 0.615530 0.750000
Si Si2 0.618654 0.871934 0.999054
Si Si3 0.820001 0.668432 0.429998
Si Si4 0.651427 0.477625 0.034098
Si Si5 0.695837 0.244620 0.293233
Si Si6 0.000000 0.309270 0.250000
O O1 0.382090 0.558376 0.835759
O O2 0.401649 0.671381 0.680510
O O3 0.591040 0.859233 0.137686
O O4 0.455724 0.876521 0.972101
O O5 0.699152 0.796960 0.916908
O O6 0.723963 0.951798 0.970432
O O7 0.750000 0.750000 0.500000
O O8 0.701437 0.595986 0.443581
O O9 0.876727 0.689839 0.294142
O O10 0.500000 0.500000 0.000000
O O11 0.866719 0.256067 0.218691
#
# Coordination Sequence:
#
# PCOD8154797 Si02
#       6
#     4   8   8   8   8   4
#     4  12  24  51  73 108 152 202 246 314 374 466
#     4  12  26  48  73 114 148 202 249 316 384 451
#     4  12  23  50  76 105 148 205 251 306 372 465
#     4  12  29  45  74 112 159 193 249 315 392 446
#     4  12  25  46  80 108 147 197 258 307 379 451
#     4  12  26  43  77 108 154 186 260 312 372 456
#
# _framework density 23.368044000000001
#
# number of rings (size 3 to 8) (size 9 to 14) (size 15 to 20)
#    0.000    0.000    6.000    2.400    5.600    0.000 
#    3.600    0.000    0.000    0.000    0.000    0.000 
#    0.000    0.000    0.000    0.000    0.000    0.000 
#
# Total GULP energy -247801.608915 kJ/mol
# GULP energy per Si atom -12390.080446 kJ/mol
# Density = 2.331486 g / cm^3
# Si number density = 23.368044 Si / 1000 Ang^3
#
#
#
# Elastic Constant Matrix: (Units=GPa)
#
#
# Indices 1 2 3 4 5 6 
#
# 1 154.2665 83.0576 37.0872 0.0000 -14.8687 0.0000
# 2 83.0576 158.4103 76.1791 0.0000 -11.6014 0.0000
# 3 37.0872 76.1791 156.3026 0.0000 -13.5164 0.0000
# 4 0.0000 0.0000 0.0000 33.7431 0.0000 -11.9272
# 5 -14.8687 -11.6014 -13.5164 0.0000 43.6968 0.0000
# 6 0.0000 0.0000 0.0000 -11.9272 0.0000 52.8382
#
#
#
# Elastic Compliance Matrix: (Units=1/GPa)
#
#
# Indices 1 2 3 4 5 6 
#
# 1 0.009196 -0.004846 0.000349 0.000000 0.001950 0.000000
# 2 -0.004846 0.010840 -0.004138 0.000000 -0.000051 0.000000
# 3 0.000349 -0.004138 0.008474 0.000000 0.001641 0.000000
# 4 0.000000 0.000000 0.000000 0.032205 0.000000 0.007270
# 5 0.001950 -0.000051 0.001641 0.000000 0.024043 0.000000
# 6 0.000000 0.000000 0.000000 0.007270 0.000000 0.020567
#
#
# Mechanical properties :
#
#
# Convention : Reuss Voigt Hill
#
# Bulk Modulus (GPa) = 88.97852 95.73634 92.35743
# Shear Modulus (GPa) = 39.57558 44.23266 41.90412
#
# Velocity S-wave (km/s) = 4.11977 4.35543 4.23924
# Velocity P-wave (km/s) = 7.79678 8.14561 7.97310
#
# Compressibility (1/GPa) = 0.01123867
#
# Stress axis : x y z
#
# Youngs Moduli (GPa) = 108.74624 92.25269 118.01345
#
# Poissons Ratio (x) = 0.44709 -0.04116
# Poissons Ratio (y) = 0.52703 0.48829
# Poissons Ratio (z) = -0.03792 0.38170
#
# Static dielectric constant tensor:
#      x y z
#    x 4.677980 0.000000 -0.162060 
#    y 0.000000 4.160950 0.000000 
#    z -0.162060 0.000000 4.198690 
# 
# 
# High freq. dielectric constant tensor:
#      x y z
#    x 1.958500 0.000000 -0.012280 
#    y 0.000000 1.909690 0.000000 
#    z -0.012280 0.000000 1.930510 
# 
# From -- ./inp_files/76754.got.cif
#   From: 2010.06.25/outbox.cif.g09.slc.cpg/sg15_39_cif.got.tgz:76754.got - 2010.06.28 07:06:18.
