data_PCOD8154942
_publ_section_title
;
Structure prediction by ZEFSAII (Michael W. Deem and Ramdas Pophale) SiO2 
 PCOD8154942
Probable space group: C 2/C
;
_chemical_formula_sum "Si O2"
_cell_formula_units_Z 40
_cell_length_a 18.995613
_cell_length_b 12.414396
_cell_length_c 10.369142
_cell_angle_alpha 90.000000
_cell_angle_beta 135.457880
_cell_angle_gamma 90.000000
_cell_volume 1715.173968
_symmetry_space_group_name_H-M "C 2/C"
_symmetry_group_IT_number 15
_symmetry_cell_setting 'monoclinic'
loop_
_space_group_symop_operation_xyz
x,y,z
-x,y,1/2-z
-x,-y,-z
x,-y,1/2+z
1/2+x,1/2+y,z
1/2-x,1/2+y,1/2-z
1/2-x,1/2-y,-z
1/2+x,1/2-y,1/2+z
loop_
_atom_site_type_symbol
_atom_site_label
_atom_site_fract_x
_atom_site_fract_y
_atom_site_fract_z
Si Si1 0.405328 0.425119 0.356618
Si Si2 0.285768 0.961117 0.815129
Si Si3 0.569302 0.782628 0.464009
Si Si4 0.557276 0.853036 0.958144
Si Si5 0.825589 0.176295 0.519985
O O1 0.500000 0.500000 0.500000
O O2 0.302869 0.492948 0.211784
O O3 0.398481 0.339946 0.464801
O O4 0.414112 0.363557 0.231373
O O5 0.235012 0.925909 0.613843
O O6 0.332797 0.853816 0.941319
O O7 0.371914 0.049031 0.906596
O O8 0.500000 0.783931 0.250000
O O9 0.518981 0.834964 0.524786
O O10 0.500000 0.882548 0.750000
O O11 0.623444 0.744989 0.027473
O O12 0.750000 0.250000 0.500000
#
# Coordination Sequence:
#
# PCOD8154942 Si02
#       5
#     8   8   8   8   8
#     4  12  28  49  76 107 149 204 255 313 387 459
#     4  12  26  44  75 111 146 198 255 314 378 455
#     4  12  28  48  71 116 155 191 254 321 383 456
#     4  12  24  48  79 108 152 206 252 313 387 462
#     4  12  24  51  76 110 151 200 262 313 383 463
#
# _framework density 23.321249999999999
#
# number of rings (size 3 to 8) (size 9 to 14) (size 15 to 20)
#    0.000    0.000    6.000    2.400    5.600    0.000 
#    0.000    3.000    0.000    0.000    0.000    0.000 
#    0.000    0.000    0.000    0.000    0.000    0.000 
#
# Total GULP energy -248068.988157 kJ/mol
# GULP energy per Si atom -12403.449408 kJ/mol
# Density = 2.326817 g / cm^3
# Si number density = 23.321250 Si / 1000 Ang^3
#
#
#
# Elastic Constant Matrix: (Units=GPa)
#
#
# Indices 1 2 3 4 5 6 
#
# 1 72.4198 36.3697 25.5821 0.0000 5.9463 0.0000
# 2 36.3697 149.7351 66.0494 0.0000 11.7723 0.0000
# 3 25.5821 66.0494 161.2610 0.0000 -7.5514 0.0000
# 4 0.0000 0.0000 0.0000 58.2205 0.0000 9.3435
# 5 5.9463 11.7723 -7.5514 0.0000 45.1377 0.0000
# 6 0.0000 0.0000 0.0000 9.3435 0.0000 34.3526
#
#
#
# Elastic Compliance Matrix: (Units=1/GPa)
#
#
# Indices 1 2 3 4 5 6 
#
# 1 0.015994 -0.003195 -0.001299 0.000000 -0.001491 0.000000
# 2 -0.003195 0.009131 -0.003351 0.000000 -0.002521 0.000000
# 3 -0.001299 -0.003351 0.007890 0.000000 0.002365 0.000000
# 4 0.000000 0.000000 0.000000 0.017960 0.000000 -0.004885
# 5 -0.001491 -0.002521 0.002365 0.000000 0.023404 0.000000
# 6 0.000000 0.000000 0.000000 -0.004885 0.000000 0.030439
#
#
# Mechanical properties :
#
#
# Convention : Reuss Voigt Hill
#
# Bulk Modulus (GPa) = 57.71537 71.04647 64.38092
# Shear Modulus (GPa) = 39.59389 44.56981 42.08185
#
# Velocity S-wave (km/s) = 4.12486 4.37638 4.25248
# Velocity P-wave (km/s) = 6.89113 7.48782 7.19566
#
# Compressibility (1/GPa) = 0.01732641
#
# Stress axis : x y z
#
# Youngs Moduli (GPa) = 62.52363 109.51867 126.73617
#
# Poissons Ratio (x) = 0.34989 0.16457
# Poissons Ratio (y) = 0.19975 0.42470
# Poissons Ratio (z) = 0.08119 0.36700
#
# Static dielectric constant tensor:
#      x y z
#    x 2.363730 0.000000 1.074920 
#    y 0.000000 4.788400 0.000000 
#    z 1.074920 0.000000 4.005450 
# 
# 
# High freq. dielectric constant tensor:
#      x y z
#    x 1.904840 0.000000 0.014830 
#    y 0.000000 1.941190 0.000000 
#    z 0.014830 0.000000 1.941740 
# 
# From -- ./inp_files/111885.got.cif
#   From: 2010.06.25/outbox.cif.g09.slc.cpg/sg15_56_cif.got.tgz:111885.got - 2010.06.28 07:06:18.
