data_PCOD8154611
_publ_section_title
;
Structure prediction by ZEFSAII (Michael W. Deem and Ramdas Pophale) SiO2 
 PCOD8154611
Probable space group: C 2/C
;
_chemical_formula_sum "Si O2"
_cell_formula_units_Z 52
_cell_length_a 11.448626
_cell_length_b 10.562266
_cell_length_c 27.885277
_cell_angle_alpha 90.000000
_cell_angle_beta 41.558873
_cell_angle_gamma 90.000000
_cell_volume 2236.937629
_symmetry_space_group_name_H-M "C 2/C"
_symmetry_group_IT_number 15
_symmetry_cell_setting 'monoclinic'
loop_
_space_group_symop_operation_xyz
x,y,z
-x,y,1/2-z
-x,-y,-z
x,-y,1/2+z
1/2+x,1/2+y,z
1/2-x,1/2+y,1/2-z
1/2-x,1/2-y,-z
1/2+x,1/2-y,1/2+z
loop_
_atom_site_type_symbol
_atom_site_label
_atom_site_fract_x
_atom_site_fract_y
_atom_site_fract_z
Si Si1 0.496519 0.435666 0.184184
Si Si2 0.281667 0.140327 0.101262
Si Si3 0.358151 0.985792 0.159080
Si Si4 0.418163 0.884493 0.327063
Si Si5 0.336006 0.545684 0.139051
Si Si6 0.500000 0.787281 0.750000
Si Si7 0.555601 0.771203 0.040723
O O1 0.684286 0.505833 0.125242
O O2 0.352567 0.479829 0.268190
O O3 0.413933 0.456806 0.157128
O O4 0.533317 0.291393 0.190014
O O5 0.382765 0.118775 0.121752
O O6 0.121180 0.241203 0.144412
O O7 0.432759 0.170936 0.016401
O O8 0.459630 0.975206 0.178239
O O9 0.433850 0.864847 0.107986
O O10 0.500000 0.876646 0.250000
O O11 0.227068 0.949185 0.382787
O O12 0.170254 0.627268 0.208939
O O13 0.476819 0.631513 0.068729
O O14 0.750000 0.750000 0.000000
#
# Coordination Sequence:
#
# PCOD8154611 Si02
#       7
#     8   8   8   8   8   4   8
#     4  12  22  41  74 100 135 188 240 296 353 427
#     4  12  26  44  71 109 142 194 245 288 371 447
#     4  12  23  45  70 103 142 184 245 300 354 433
#     4  12  25  43  70 104 143 187 237 311 362 421
#     4  12  25  44  69 104 145 181 238 299 367 422
#     4  12  24  44  66 108 140 184 236 306 360 418
#     4  12  24  46  73 100 150 193 235 301 364 442
#
# _framework density 23.246067
#
# number of rings (size 3 to 8) (size 9 to 14) (size 15 to 20)
#    0.000    0.000    8.462    1.385    0.000    3.077 
#    0.000    0.769    0.000    0.000    0.000    0.000 
#    0.000    0.000    0.000    0.000    0.000    0.000 
#
# Total GULP energy -322090.413432 kJ/mol
# GULP energy per Si atom -12388.092824 kJ/mol
# Density = 2.319316 g / cm^3
# Si number density = 23.246067 Si / 1000 Ang^3
#
#
#
# Elastic Constant Matrix: (Units=GPa)
#
#
# Indices 1 2 3 4 5 6 
#
# 1 87.0382 16.9700 22.0020 0.0000 1.5990 0.0000
# 2 16.9700 62.5865 -1.4615 0.0000 -4.2263 0.0000
# 3 22.0020 -1.4615 79.3832 0.0003 5.4828 -0.0001
# 4 0.0000 0.0000 0.0003 38.6844 -0.0001 -3.4344
# 5 1.5990 -4.2263 5.4828 -0.0001 35.6288 0.0000
# 6 0.0000 0.0000 -0.0001 -3.4344 0.0000 36.0352
#
#
#
# Elastic Compliance Matrix: (Units=1/GPa)
#
#
# Indices 1 2 3 4 5 6 
#
# 1 0.013146 -0.003681 -0.003679 0.000000 -0.000460 0.000000
# 2 -0.003681 0.017140 0.001197 0.000000 0.002014 0.000000
# 3 -0.003679 0.001197 0.013764 0.000000 -0.001811 0.000000
# 4 0.000000 0.000000 0.000000 0.026071 0.000000 0.002485
# 5 -0.000460 0.002014 -0.001811 0.000000 0.028606 0.000000
# 6 0.000000 0.000000 0.000000 0.002485 0.000000 0.027987
#
#
# Mechanical properties :
#
#
# Convention : Reuss Voigt Hill
#
# Bulk Modulus (GPa) = 31.52425 33.78098 32.65261
# Shear Modulus (GPa) = 33.41907 34.83617 34.12762
#
# Velocity S-wave (km/s) = 3.79571 3.87535 3.83574
# Velocity P-wave (km/s) = 5.72717 5.88115 5.80467
#
# Compressibility (1/GPa) = 0.03172161
#
# Stress axis : x y z
#
# Youngs Moduli (GPa) = 76.07152 58.34301 72.65310
#
# Poissons Ratio (x) = 0.21478 0.26732
# Poissons Ratio (y) = 0.28005 -0.08695
# Poissons Ratio (z) = 0.27990 -0.06982
#
# Static dielectric constant tensor:
#      x y z
#    x 4.849500 0.000000 0.327060 
#    y 0.000000 4.564610 0.000000 
#    z 0.327060 0.000000 4.928870 
# 
# 
# High freq. dielectric constant tensor:
#      x y z
#    x 1.928590 0.000000 -0.001460 
#    y 0.000000 1.915690 0.000000 
#    z -0.001460 0.000000 1.912690 
# 
# From -- ./inp_files/310764.got.cif
#   From: 2010.06.25/outbox.cif.g09.slc.cpg/sg15_156_cif.got.tgz:310764.got - 2010.06.28 07:06:18.
