data_PCOD8154142
_publ_section_title
;
Structure prediction by ZEFSAII (Michael W. Deem and Ramdas Pophale) SiO2 
 PCOD8154142
Probable space group: C 2/C
;
_chemical_formula_sum "Si O2"
_cell_formula_units_Z 44
_cell_length_a 5.402268
_cell_length_b 18.687042
_cell_length_c 17.950549
_cell_angle_alpha 90.000000
_cell_angle_beta 95.552085
_cell_angle_gamma 90.000000
_cell_volume 1803.649744
_symmetry_space_group_name_H-M "C 2/C"
_symmetry_group_IT_number 15
_symmetry_cell_setting 'monoclinic'
loop_
_space_group_symop_operation_xyz
x,y,z
-x,y,1/2-z
-x,-y,-z
x,-y,1/2+z
1/2+x,1/2+y,z
1/2-x,1/2+y,1/2-z
1/2-x,1/2-y,-z
1/2+x,1/2-y,1/2+z
loop_
_atom_site_type_symbol
_atom_site_label
_atom_site_fract_x
_atom_site_fract_y
_atom_site_fract_z
Si Si1 0.904528 0.888563 0.164262
Si Si2 0.570291 0.581487 0.519345
Si Si3 0.833215 0.728817 0.172492
Si Si4 0.391451 0.019814 0.322951
Si Si5 0.561801 0.121530 0.441681
Si Si6 0.000000 0.868901 0.750000
O O1 0.770412 0.811611 0.154648
O O2 0.714295 0.951547 0.136808
O O3 0.000000 0.903616 0.250000
O O4 0.121559 0.899883 0.108512
O O5 0.500000 0.500000 0.500000
O O6 0.319849 0.627078 0.493940
O O7 0.814930 0.607662 0.483192
O O8 0.971728 0.695856 0.104540
O O9 0.592294 0.681627 0.184963
O O10 0.000000 0.723531 0.250000
O O11 0.500000 0.989247 0.250000
O O12 0.593415 0.055679 0.383588
O O13 0.199065 0.082144 0.296927
#
# Coordination Sequence:
#
# PCOD8154142 Si02
#       6
#     8   8   8   8   8   4
#     4  11  28  48  71 110 151 192 252 314 380 442
#     4  12  28  48  76 113 148 199 248 317 370 447
#     4  11  25  45  71 112 146 200 250 311 370 449
#     4  12  24  40  76 110 138 201 252 304 368 451
#     4  12  25  48  79 102 154 194 253 304 372 446
#     4  12  20  44  70 108 146 194 258 300 362 448
#
# _framework density 24.39498
#
# number of rings (size 3 to 8) (size 9 to 14) (size 15 to 20)
#    0.000    0.364    6.364    1.636    3.818    1.455 
#    3.273    0.000    0.000    0.000    0.000    0.000 
#    0.000    0.000    0.000    0.000    0.000    0.000 
#
# Total GULP energy -272710.371496 kJ/mol
# GULP energy per Si atom -12395.925977 kJ/mol
# Density = 2.433946 g / cm^3
# Si number density = 24.394980 Si / 1000 Ang^3
#
#
#
# Elastic Constant Matrix: (Units=GPa)
#
#
# Indices 1 2 3 4 5 6 
#
# 1 107.4343 22.5212 37.9577 0.0000 -22.9445 0.0000
# 2 22.5212 154.7388 31.8380 0.0000 -17.3618 0.0000
# 3 37.9577 31.8380 139.7530 0.0000 -28.3364 0.0000
# 4 0.0000 0.0000 0.0000 16.2914 0.0000 -22.8947
# 5 -22.9445 -17.3618 -28.3364 0.0000 41.9939 0.0000
# 6 0.0000 0.0000 0.0000 -22.8947 0.0000 7.6781
#
#
#
# Elastic Compliance Matrix: (Units=1/GPa)
#
#
# Indices 1 2 3 4 5 6 
#
# 1 0.011097 -0.000715 -0.001948 0.000000 0.004453 0.000000
# 2 -0.000715 0.006981 -0.001031 0.000000 0.001800 0.000000
# 3 -0.001948 -0.001031 0.008825 0.000000 0.004464 0.000000
# 4 0.000000 0.000000 0.000000 -0.019240 0.000000 -0.057369
# 5 0.004453 0.001800 0.004464 0.000000 0.030002 0.000000
# 6 0.000000 0.000000 0.000000 -0.057369 0.000000 -0.040822
#
#
# Mechanical properties :
#
#
# Convention : Reuss Voigt Hill
#
# Bulk Modulus (GPa) = 51.24516 65.17331 58.20923
# Shear Modulus (GPa) = 465.71684 33.83330 249.77507
#
# Velocity S-wave (km/s) = 13.83189 3.72815 10.12967
# Velocity P-wave (km/s) = 16.61767 6.73097 12.67780
#
# Compressibility (1/GPa) = 0.01951404
#
# Stress axis : x y z
#
# Youngs Moduli (GPa) = 90.11254 143.25353 113.31842
#
# Poissons Ratio (x) = 0.10237 0.22078
# Poissons Ratio (y) = 0.06439 0.11687
# Poissons Ratio (z) = 0.17557 0.14774
#
# Static dielectric constant tensor:
#      x y z
#    x 4.408190 0.000000 -0.187650 
#    y 0.000000 4.636320 0.000000 
#    z -0.187650 0.000000 4.913060 
# 
# 
# High freq. dielectric constant tensor:
#      x y z
#    x 1.951860 0.000000 -0.014090 
#    y 0.000000 1.973620 0.000000 
#    z -0.014090 0.000000 1.987180 
# 
# From -- ./inp_files/184944.got.cif
#   From: 2010.06.25/outbox.cif.g09.slc.cpg/sg15_93_cif.got.tgz:184944.got - 2010.06.28 07:06:18.
