data_PCOD8154993
_publ_section_title
;
Structure prediction by ZEFSAII (Michael W. Deem and Ramdas Pophale) SiO2 
 PCOD8154993
Probable space group: C 2/C
;
_chemical_formula_sum "Si O2"
_cell_formula_units_Z 44
_cell_length_a 6.673905
_cell_length_b 30.536739
_cell_length_c 11.033967
_cell_angle_alpha 90.000000
_cell_angle_beta 67.433416
_cell_angle_gamma 90.000000
_cell_volume 2076.540031
_symmetry_space_group_name_H-M "C 2/C"
_symmetry_group_IT_number 15
_symmetry_cell_setting 'monoclinic'
loop_
_space_group_symop_operation_xyz
x,y,z
-x,y,1/2-z
-x,-y,-z
x,-y,1/2+z
1/2+x,1/2+y,z
1/2-x,1/2+y,1/2-z
1/2-x,1/2-y,-z
1/2+x,1/2-y,1/2+z
loop_
_atom_site_type_symbol
_atom_site_label
_atom_site_fract_x
_atom_site_fract_y
_atom_site_fract_z
Si Si1 0.577768 0.450889 0.474868
Si Si2 0.500000 0.925461 0.250000
Si Si3 0.500000 0.409997 0.750000
Si Si4 0.746946 0.385438 0.090222
Si Si5 0.000000 0.194268 0.750000
Si Si6 0.393524 0.148537 0.157129
Si Si7 0.762570 0.760121 0.858988
O O1 0.500000 0.500000 0.500000
O O2 0.827627 0.453080 0.369812
O O3 0.576422 0.436585 0.614989
O O4 0.428459 0.420644 0.420622
O O5 0.345673 0.897329 0.198075
O O6 0.304631 0.380303 0.750383
O O7 0.643302 0.337266 0.130682
O O8 0.946105 0.382961 0.952970
O O9 0.870193 0.225691 0.689978
O O10 0.500000 0.168865 0.250000
O O11 0.326034 0.191170 0.102082
O O12 0.000000 0.761262 0.750000
O O13 0.750000 0.750000 0.000000
#
# Coordination Sequence:
#
# PCOD8154993 Si02
#       7
#     8   4   4   8   4   8   8
#     4  12  29  49  77 112 145 188 246 301 365 433
#     4  12  26  50  75 105 150 194 233 299 362 438
#     4  12  26  47  75 106 146 194 236 302 366 430
#     4  12  27  46  76 107 146 199 241 294 368 444
#     4  12  28  45  72 107 148 190 249 293 364 436
#     4  12  25  46  72 103 146 190 246 295 360 424
#     4  12  29  45  70 106 147 190 242 304 354 426
#
# _framework density 21.189094000000001
#
# number of rings (size 3 to 8) (size 9 to 14) (size 15 to 20)
#    0.000    0.000    7.273    1.091   11.455    3.636 
#    0.000    0.000    0.000    0.000    0.000    0.000 
#    0.000    0.000    0.000    0.000    0.000    0.000 
#
# Total GULP energy -272616.659178 kJ/mol
# GULP energy per Si atom -12391.666326 kJ/mol
# Density = 2.114087 g / cm^3
# Si number density = 21.189094 Si / 1000 Ang^3
#
#
#
# Elastic Constant Matrix: (Units=GPa)
#
#
# Indices 1 2 3 4 5 6 
#
# 1 126.6428 58.2053 63.0716 0.0000 -7.6158 0.0000
# 2 58.2053 136.1049 43.2208 0.0000 -3.0587 0.0000
# 3 63.0716 43.2208 140.1279 0.0000 -4.9798 0.0000
# 4 0.0000 0.0000 0.0000 278.0771 0.0000 -214.6947
# 5 -7.6158 -3.0587 -4.9798 0.0000 56.9008 0.0000
# 6 0.0000 0.0000 0.0000 -214.6947 0.0000 188.6557
#
#
#
# Elastic Compliance Matrix: (Units=1/GPa)
#
#
# Indices 1 2 3 4 5 6 
#
# 1 0.011682 -0.003675 -0.004089 0.000000 0.001008 0.000000
# 2 -0.003675 0.009304 -0.001219 0.000000 -0.000098 0.000000
# 3 -0.004089 -0.001219 0.009360 0.000000 0.000206 0.000000
# 4 0.000000 0.000000 0.000000 0.029630 0.000000 0.033720
# 5 0.001008 -0.000098 0.000206 0.000000 0.017722 0.000000
# 6 0.000000 0.000000 0.000000 0.033720 0.000000 0.043674
#
#
# Mechanical properties :
#
#
# Convention : Reuss Voigt Hill
#
# Bulk Modulus (GPa) = 80.77241 81.31899 81.04570
# Shear Modulus (GPa) = 34.85171 120.61859 77.73515
#
# Velocity S-wave (km/s) = 4.06001 7.55304 6.06350
# Velocity P-wave (km/s) = 7.75763 10.70167 9.34629
#
# Compressibility (1/GPa) = 0.01238047
#
# Stress axis : x y z
#
# Youngs Moduli (GPa) = 85.60062 107.48395 106.83663
#
# Poissons Ratio (x) = 0.39498 0.43684
# Poissons Ratio (y) = 0.31456 0.13024
# Poissons Ratio (z) = 0.35001 0.13103
#
# Static dielectric constant tensor:
#      x y z
#    x 4.171080 0.000000 -0.046820 
#    y 0.000000 3.715480 0.000000 
#    z -0.046820 0.000000 3.947980 
# 
# 
# High freq. dielectric constant tensor:
#      x y z
#    x 1.850030 0.000000 -0.003160 
#    y 0.000000 1.831070 0.000000 
#    z -0.003160 0.000000 1.855640 
# 
# From -- ./inp_files/73927.got.cif
#   From: 2010.06.25/outbox.cif.g09.slc.cpg/sg15_37_cif.got.tgz:73927.got - 2010.06.28 07:06:18.
