data_PCOD8154467
_publ_section_title
;
Structure prediction by ZEFSAII (Michael W. Deem and Ramdas Pophale) SiO2 
 PCOD8154467
Probable space group: C 2/C
;
_chemical_formula_sum "Si O2"
_cell_formula_units_Z 52
_cell_length_a 28.717922
_cell_length_b 5.478269
_cell_length_c 14.935297
_cell_angle_alpha 90.000000
_cell_angle_beta 63.611518
_cell_angle_gamma 90.000000
_cell_volume 2104.853299
_symmetry_space_group_name_H-M "C 2/C"
_symmetry_group_IT_number 15
_symmetry_cell_setting 'monoclinic'
loop_
_space_group_symop_operation_xyz
x,y,z
-x,y,1/2-z
-x,-y,-z
x,-y,1/2+z
1/2+x,1/2+y,z
1/2-x,1/2+y,1/2-z
1/2-x,1/2-y,-z
1/2+x,1/2-y,1/2+z
loop_
_atom_site_type_symbol
_atom_site_label
_atom_site_fract_x
_atom_site_fract_y
_atom_site_fract_z
Si Si1 0.500000 0.237137 0.750000
Si Si2 0.495489 0.400952 0.404440
Si Si3 0.146355 0.835262 0.799319
Si Si4 0.809978 0.278269 0.056200
Si Si5 0.286278 0.557199 0.423342
Si Si6 0.095524 0.333555 0.804678
Si Si7 0.408789 0.114365 0.388927
O O1 0.479920 0.402148 0.684991
O O2 0.550162 0.095812 0.669700
O O3 0.500000 0.500000 0.500000
O O4 0.532535 0.162385 0.364035
O O5 0.437634 0.326345 0.422404
O O6 0.186805 0.826056 0.846593
O O7 0.175567 0.817625 0.679843
O O8 0.112137 0.588578 0.834943
O O9 0.115528 0.090049 0.838960
O O10 0.751576 0.375239 0.098299
O O11 0.858325 0.465564 0.991736
O O12 0.818997 0.068245 0.974352
O O13 0.250000 0.750000 0.500000
O O14 0.114069 0.296030 0.686658
#
# Coordination Sequence:
#
# PCOD8154467 Si02
#       7
#     4   8   8   8   8   8   8
#     4  12  24  46  80 104 160 214 252 334 380 482
#     4  12  27  45  74 114 157 207 269 324 396 477
#     4  12  29  48  82 112 161 201 266 322 400 475
#     4  11  28  49  78 117 152 208 263 331 402 476
#     4  11  27  50  80 111 154 203 262 331 400 477
#     4  12  25  50  73 116 152 212 255 324 387 472
#     4  12  24  47  74 107 156 205 262 319 399 463
#
# _framework density 24.704809000000001
#
# number of rings (size 3 to 8) (size 9 to 14) (size 15 to 20)
#    0.000    0.308    4.615    2.769    8.615    1.846 
#    0.000    0.000    0.000    0.000    0.000    0.000 
#    0.000    0.000    0.000    0.000    0.000    0.000 
#
# Total GULP energy -322306.255487 kJ/mol
# GULP energy per Si atom -12396.394442 kJ/mol
# Density = 2.464858 g / cm^3
# Si number density = 24.704809 Si / 1000 Ang^3
#
#
#
# Elastic Constant Matrix: (Units=GPa)
#
#
# Indices 1 2 3 4 5 6 
#
# 1 70.3814 33.0473 14.0589 -0.0001 25.9324 -0.0001
# 2 33.0473 120.2428 19.5967 0.0001 15.3811 -0.0006
# 3 14.0589 19.5967 95.4008 -0.0001 24.3635 -0.0002
# 4 -0.0001 0.0001 -0.0001 24.5497 0.0000 -7.9217
# 5 25.9324 15.3811 24.3635 0.0000 60.1569 -0.0001
# 6 -0.0001 -0.0006 -0.0002 -7.9217 -0.0001 28.3418
#
#
#
# Elastic Compliance Matrix: (Units=1/GPa)
#
#
# Indices 1 2 3 4 5 6 
#
# 1 0.018797 -0.004256 -0.000116 0.000000 -0.006968 0.000000
# 2 -0.004256 0.009719 -0.001342 0.000000 -0.000107 0.000000
# 3 -0.000116 -0.001342 0.011906 0.000000 -0.004429 0.000000
# 4 0.000000 0.000000 0.000000 0.044772 0.000000 0.012514
# 5 -0.006968 -0.000107 -0.004429 0.000000 0.021448 0.000000
# 6 0.000000 0.000000 0.000000 0.012514 0.000000 0.038781
#
#
# Mechanical properties :
#
#
# Convention : Reuss Voigt Hill
#
# Bulk Modulus (GPa) = 34.49087 46.60341 40.54714
# Shear Modulus (GPa) = 30.02730 37.23117 33.62923
#
# Velocity S-wave (km/s) = 3.49010 3.88627 3.69350
# Velocity P-wave (km/s) = 5.49842 6.24840 5.88537
#
# Compressibility (1/GPa) = 0.02899318
#
# Stress axis : x y z
#
# Youngs Moduli (GPa) = 53.19930 102.89604 83.99225
#
# Poissons Ratio (x) = 0.43792 0.00978
# Poissons Ratio (y) = 0.22641 0.11271
# Poissons Ratio (z) = 0.00619 0.13807
#
# Static dielectric constant tensor:
#      x y z
#    x 7.333320 0.000060 -0.132080 
#    y 0.000060 4.507760 0.000000 
#    z -0.132080 0.000000 4.538700 
# 
# 
# High freq. dielectric constant tensor:
#      x y z
#    x 1.998180 0.000000 0.006800 
#    y 0.000000 1.970240 0.000000 
#    z 0.006800 0.000000 1.991160 
# 
# From -- ./inp_files/180070.got.cif
#   From: 2010.06.25/outbox.cif.g09.slc.cpg/sg15_91_cif.got.tgz:180070.got - 2010.06.28 07:06:18.
