data_PCOD8154716
_publ_section_title
;
Structure prediction by ZEFSAII (Michael W. Deem and Ramdas Pophale) SiO2 
 PCOD8154716
Probable space group: C 2/C
;
_chemical_formula_sum "Si O2"
_cell_formula_units_Z 56
_cell_length_a 8.414234
_cell_length_b 12.201424
_cell_length_c 26.690053
_cell_angle_alpha 90.000000
_cell_angle_beta 59.301783
_cell_angle_gamma 90.000000
_cell_volume 2356.168840
_symmetry_space_group_name_H-M "C 2/C"
_symmetry_group_IT_number 15
_symmetry_cell_setting 'monoclinic'
loop_
_space_group_symop_operation_xyz
x,y,z
-x,y,1/2-z
-x,-y,-z
x,-y,1/2+z
1/2+x,1/2+y,z
1/2-x,1/2+y,1/2-z
1/2-x,1/2-y,-z
1/2+x,1/2-y,1/2+z
loop_
_atom_site_type_symbol
_atom_site_label
_atom_site_fract_x
_atom_site_fract_y
_atom_site_fract_z
Si Si1 0.772358 0.958011 0.419593
Si Si2 0.435098 0.004679 0.906951
Si Si3 0.065998 0.017489 0.290833
Si Si4 0.345966 0.634730 0.493517
Si Si5 0.394470 0.887247 0.215250
Si Si6 0.247224 0.287061 0.576587
Si Si7 0.210040 0.301967 0.699019
O O1 0.562697 0.964111 0.433538
O O2 0.793200 0.834562 0.439890
O O3 0.895390 0.977904 0.350975
O O4 0.822619 0.051587 0.450788
O O5 0.511442 0.030464 0.839605
O O6 0.406729 0.873758 0.916259
O O7 0.245627 0.074637 0.943745
O O8 0.176081 0.911124 0.254616
O O9 0.000000 0.079231 0.250000
O O10 0.224901 0.076293 0.298062
O O11 0.250000 0.750000 0.500000
O O12 0.558133 0.660482 0.471112
O O13 0.500000 0.893358 0.250000
O O14 0.379177 0.763976 0.198031
O O15 0.233572 0.272472 0.637828
O O16 0.000000 0.283622 0.750000
#
# Coordination Sequence:
#
# PCOD8154716 Si02
#       7
#     8   8   8   8   8   8   8
#     4  12  26  49  76 106 149 196 246 306 379 434
#     4  12  26  48  75 109 147 196 245 304 370 444
#     4  12  23  43  69 107 147 190 247 306 369 451
#     4  12  26  51  77 105 151 193 251 310 365 440
#     4  12  25  45  71 109 148 191 247 298 375 448
#     4  12  25  49  72 107 148 192 246 312 367 438
#     4  12  24  45  71 104 148 198 242 311 374 439
#
# _framework density 23.767395
#
# number of rings (size 3 to 8) (size 9 to 14) (size 15 to 20)
#    0.000    0.000    5.714    4.714    0.000    0.571 
#    5.143    0.000    0.000    0.000    0.000    0.000 
#    0.000    0.000    0.000    0.000    0.000    0.000 
#
# Total GULP energy -347118.728437 kJ/mol
# GULP energy per Si atom -12397.097444 kJ/mol
# Density = 2.371330 g / cm^3
# Si number density = 23.767395 Si / 1000 Ang^3
#
#
#
# Elastic Constant Matrix: (Units=GPa)
#
#
# Indices 1 2 3 4 5 6 
#
# 1 67.0329 32.7741 26.6355 0.0000 -11.6685 0.0000
# 2 32.7741 157.5156 29.8719 0.0000 -5.4680 0.0000
# 3 26.6355 29.8719 88.0779 0.0000 -19.2534 -0.0001
# 4 0.0000 0.0000 0.0000 -8.5226 0.0000 66.4793
# 5 -11.6685 -5.4680 -19.2534 0.0000 32.9642 0.0000
# 6 0.0000 0.0000 -0.0001 66.4793 0.0000 -87.4315
#
#
#
# Elastic Compliance Matrix: (Units=1/GPa)
#
#
# Indices 1 2 3 4 5 6 
#
# 1 0.018555 -0.003017 -0.003739 0.000000 0.003884 0.000000
# 2 -0.003017 0.007277 -0.001749 0.000000 -0.000882 0.000000
# 3 -0.003739 -0.001749 0.014587 0.000000 0.006906 0.000000
# 4 0.000000 0.000000 0.000000 0.023795 0.000000 0.018093
# 5 0.003884 -0.000882 0.006906 0.000000 0.035598 0.000000
# 6 0.000000 0.000000 0.000000 0.018093 0.000000 0.002319
#
#
# Mechanical properties :
#
#
# Convention : Reuss Voigt Hill
#
# Bulk Modulus (GPa) = 42.71634 54.57660 48.64647
# Shear Modulus (GPa) = 39.38748 2.29169 20.83958
#
# Velocity S-wave (km/s) = 4.07530 0.98301 2.96432
# Velocity P-wave (km/s) = 6.33686 4.92961 5.67701
#
# Compressibility (1/GPa) = 0.02341025
#
# Stress axis : x y z
#
# Youngs Moduli (GPa) = 53.89459 137.41421 68.55404
#
# Poissons Ratio (x) = 0.41455 0.25632
# Poissons Ratio (y) = 0.16259 0.11988
# Poissons Ratio (z) = 0.20151 0.24029
#
# Static dielectric constant tensor:
#      x y z
#    x 4.098280 0.000000 -0.187890 
#    y 0.000000 4.535220 0.000000 
#    z -0.187890 0.000000 4.449570 
# 
# 
# High freq. dielectric constant tensor:
#      x y z
#    x 1.939610 0.000000 -0.009020 
#    y 0.000000 1.958010 0.000000 
#    z -0.009020 0.000000 1.954950 
# 
# From -- ./inp_files/307416.got.cif
#   From: 2010.06.25/outbox.cif.g09.slc.cpg/sg15_154_cif.got.tgz:307416.got - 2010.06.28 07:06:18.
