data_PCOD8154396
_publ_section_title
;
Structure prediction by ZEFSAII (Michael W. Deem and Ramdas Pophale) SiO2 
 PCOD8154396
Probable space group: C 2/C
;
_chemical_formula_sum "Si O2"
_cell_formula_units_Z 36
_cell_length_a 6.492358
_cell_length_b 21.382557
_cell_length_c 11.708793
_cell_angle_alpha 90.000000
_cell_angle_beta 95.916772
_cell_angle_gamma 90.000000
_cell_volume 1616.792991
_symmetry_space_group_name_H-M "C 2/C"
_symmetry_group_IT_number 15
_symmetry_cell_setting 'monoclinic'
loop_
_space_group_symop_operation_xyz
x,y,z
-x,y,1/2-z
-x,-y,-z
x,-y,1/2+z
1/2+x,1/2+y,z
1/2-x,1/2+y,1/2-z
1/2-x,1/2-y,-z
1/2+x,1/2-y,1/2+z
loop_
_atom_site_type_symbol
_atom_site_label
_atom_site_fract_x
_atom_site_fract_y
_atom_site_fract_z
Si Si1 0.500000 0.254405 0.750000
Si Si2 0.644828 0.842577 0.650622
Si Si3 0.479485 0.580208 0.616800
Si Si4 0.711416 0.035375 0.042269
Si Si5 0.672457 0.811540 0.052815
O O1 0.347692 0.299264 0.669346
O O2 0.373346 0.205971 0.819818
O O3 0.500000 0.827498 0.750000
O O4 0.694925 0.916355 0.647632
O O5 0.535067 0.831258 0.523466
O O6 0.500000 0.598365 0.750000
O O7 0.699429 0.572686 0.563950
O O8 0.370260 0.514087 0.600156
O O9 0.343826 0.634424 0.549940
O O10 0.500000 0.000000 0.000000
O O11 0.750000 0.750000 0.000000
#
# Coordination Sequence:
#
# PCOD8154396 Si02
#       5
#     4   8   8   8   8
#     4  12  28  46  78 102 148 194 240 306 362 446
#     4  12  27  47  75 102 143 192 244 299 365 433
#     4  11  28  45  73 107 146 186 240 303 362 430
#     4  11  26  48  71 103 144 187 244 296 358 431
#     4  12  26  48  71 108 147 188 243 298 369 429
#
# _framework density 22.266303000000001
#
# number of rings (size 3 to 8) (size 9 to 14) (size 15 to 20)
#    0.000    0.444    4.444    2.000   10.889    0.000 
#    0.000    0.000    0.000    0.000    0.000    0.000 
#    0.000    0.000    0.000    0.000    0.000    0.000 
#
# Total GULP energy -223214.462796 kJ/mol
# GULP energy per Si atom -12400.803489 kJ/mol
# Density = 2.221562 g / cm^3
# Si number density = 22.266303 Si / 1000 Ang^3
#
#
#
# Elastic Constant Matrix: (Units=GPa)
#
#
# Indices 1 2 3 4 5 6 
#
# 1 124.0647 47.6783 37.1510 0.0000 1.8817 0.0000
# 2 47.6783 132.2102 28.6821 0.0000 0.2683 0.0000
# 3 37.1510 28.6821 92.2888 0.0000 3.0935 0.0000
# 4 0.0000 0.0000 0.0000 46.7121 0.0000 -0.9444
# 5 1.8817 0.2683 3.0935 0.0000 41.1652 0.0000
# 6 0.0000 0.0000 0.0000 -0.9444 0.0000 41.3823
#
#
#
# Elastic Compliance Matrix: (Units=1/GPa)
#
#
# Indices 1 2 3 4 5 6 
#
# 1 0.010152 -0.002976 -0.003155 0.000000 -0.000208 0.000000
# 2 -0.002976 0.008984 -0.001601 0.000000 0.000198 0.000000
# 3 -0.003155 -0.001601 0.012630 0.000000 -0.000794 0.000000
# 4 0.000000 0.000000 0.000000 0.021418 0.000000 0.000489
# 5 -0.000208 0.000198 -0.000794 0.000000 0.024360 0.000000
# 6 0.000000 0.000000 0.000000 0.000489 0.000000 0.024176
#
#
# Mechanical properties :
#
#
# Convention : Reuss Voigt Hill
#
# Bulk Modulus (GPa) = 61.34138 63.95405 62.64772
# Shear Modulus (GPa) = 40.77757 41.52208 41.14983
#
# Velocity S-wave (km/s) = 4.28408 4.32301 4.30359
# Velocity P-wave (km/s) = 7.21664 7.32821 7.27264
#
# Compressibility (1/GPa) = 0.01630221
#
# Stress axis : x y z
#
# Youngs Moduli (GPa) = 98.50371 111.31091 79.17928
#
# Poissons Ratio (x) = 0.33128 0.24979
# Poissons Ratio (y) = 0.29317 0.12673
# Poissons Ratio (z) = 0.31075 0.17816
#
# Static dielectric constant tensor:
#      x y z
#    x 3.604190 0.000000 0.061010 
#    y 0.000000 3.861210 0.000000 
#    z 0.061010 0.000000 3.816630 
# 
# 
# High freq. dielectric constant tensor:
#      x y z
#    x 1.886060 0.000000 -0.004660 
#    y 0.000000 1.901800 0.000000 
#    z -0.004660 0.000000 1.872500 
# 
# From -- ./inp_files/72430.got.cif
#   From: 2010.06.25/outbox.cif.g09.slc.cpg/sg15_37_cif.got.tgz:72430.got - 2010.06.28 07:06:18.
