data_PCOD8154161
_publ_section_title
;
Structure prediction by ZEFSAII (Michael W. Deem and Ramdas Pophale) SiO2 
 PCOD8154161
Probable space group: C 2/C
;
_chemical_formula_sum "Si O2"
_cell_formula_units_Z 48
_cell_length_a 26.073018
_cell_length_b 14.679398
_cell_length_c 9.184967
_cell_angle_alpha 90.000000
_cell_angle_beta 36.838487
_cell_angle_gamma 90.000000
_cell_volume 2107.709572
_symmetry_space_group_name_H-M "C 2/C"
_symmetry_group_IT_number 15
_symmetry_cell_setting 'monoclinic'
loop_
_space_group_symop_operation_xyz
x,y,z
-x,y,1/2-z
-x,-y,-z
x,-y,1/2+z
1/2+x,1/2+y,z
1/2-x,1/2+y,1/2-z
1/2-x,1/2-y,-z
1/2+x,1/2-y,1/2+z
loop_
_atom_site_type_symbol
_atom_site_label
_atom_site_fract_x
_atom_site_fract_y
_atom_site_fract_z
Si Si1 0.948946 0.932634 0.219069
Si Si2 0.107757 0.254316 0.782875
Si Si3 0.777137 0.235234 0.716385
Si Si4 0.776805 0.034696 0.609383
Si Si5 0.798709 0.412934 0.501575
Si Si6 0.518075 0.093554 0.036881
O O1 0.934705 0.841103 0.160988
O O2 0.000000 0.909837 0.250000
O O3 0.858732 0.975974 0.468701
O O4 0.000000 0.000000 0.000000
O O5 0.137737 0.256402 0.882809
O O6 0.191629 0.275785 0.501451
O O7 0.038012 0.331196 0.915803
O O8 0.792382 0.139776 0.605662
O O9 0.761154 0.316332 0.638543
O O10 0.762862 0.031472 0.468275
O O11 0.695990 0.985293 0.875579
O O12 0.883323 0.386393 0.220377
O O13 0.500000 0.091923 0.250000
O O14 0.500000 0.000000 0.000000
#
# Coordination Sequence:
#
# PCOD8154161 Si02
#       6
#     8   8   8   8   8   8
#     4  12  26  45  74 107 145 189 242 308 371 435
#     4  11  25  47  72 105 151 185 246 305 366 435
#     4  11  25  45  74 106 140 198 242 302 368 439
#     4  12  26  48  75 104 145 191 249 302 367 449
#     4  12  26  46  76 105 144 195 246 298 372 442
#     4  12  28  46  72 106 147 191 243 305 365 434
#
# _framework density 22.773534999999999
#
# number of rings (size 3 to 8) (size 9 to 14) (size 15 to 20)
#    0.000    0.333    1.667    7.000    9.333    0.000 
#    0.000    0.000    0.000    0.000    0.000    0.000 
#    0.000    0.000    0.000    0.000    0.000    0.000 
#
# Total GULP energy -297633.905898 kJ/mol
# GULP energy per Si atom -12401.412746 kJ/mol
# Density = 2.272170 g / cm^3
# Si number density = 22.773535 Si / 1000 Ang^3
#
#
#
# Elastic Constant Matrix: (Units=GPa)
#
#
# Indices 1 2 3 4 5 6 
#
# 1 101.2153 44.8842 33.0727 0.0000 -2.5046 0.0000
# 2 44.8842 159.1732 22.3527 0.0000 10.1892 0.0000
# 3 33.0727 22.3527 66.6316 0.0000 14.5575 0.0000
# 4 0.0000 0.0000 0.0000 45.3715 0.0000 -0.8448
# 5 -2.5046 10.1892 14.5575 0.0000 32.2957 0.0000
# 6 0.0000 0.0000 0.0000 -0.8448 0.0000 45.3083
#
#
#
# Elastic Compliance Matrix: (Units=1/GPa)
#
#
# Indices 1 2 3 4 5 6 
#
# 1 0.013669 -0.003226 -0.006829 0.000000 0.005156 0.000000
# 2 -0.003226 0.007396 -0.000350 0.000000 -0.002426 0.000000
# 3 -0.006829 -0.000350 0.020639 0.000000 -0.009722 0.000000
# 4 0.000000 0.000000 0.000000 0.022048 0.000000 0.000411
# 5 0.005156 -0.002426 -0.009722 0.000000 0.036512 0.000000
# 6 0.000000 0.000000 0.000000 0.000411 0.000000 0.022079
#
#
# Mechanical properties :
#
#
# Convention : Reuss Voigt Hill
#
# Bulk Modulus (GPa) = 47.85848 58.62661 53.24255
# Shear Modulus (GPa) = 33.30704 39.70913 36.50808
#
# Velocity S-wave (km/s) = 3.82846 4.18024 4.00821
# Velocity P-wave (km/s) = 6.37208 7.00702 6.69708
#
# Compressibility (1/GPa) = 0.02089494
#
# Stress axis : x y z
#
# Youngs Moduli (GPa) = 73.15610 135.19913 48.45142
#
# Poissons Ratio (x) = 0.43609 0.33089
# Poissons Ratio (y) = 0.23597 0.01697
# Poissons Ratio (z) = 0.49960 0.04736
#
# Static dielectric constant tensor:
#      x y z
#    x 4.455160 0.000000 0.034880 
#    y 0.000000 4.121280 0.000000 
#    z 0.034880 0.000000 4.037070 
# 
# 
# High freq. dielectric constant tensor:
#      x y z
#    x 1.907880 0.000000 0.005050 
#    y 0.000000 1.918140 0.000000 
#    z 0.005050 0.000000 1.905870 
# 
# From -- ./inp_files/66406.got.cif
#   From: 2010.06.25/outbox.cif.g09.slc.cpg/sg15_34_cif.got.tgz:66406.got - 2010.06.28 07:06:18.
