data_PCOD8154984
_publ_section_title
;
Structure prediction by ZEFSAII (Michael W. Deem and Ramdas Pophale) SiO2 
 PCOD8154984
Probable space group: C 2/C
;
_chemical_formula_sum "Si O2"
_cell_formula_units_Z 48
_cell_length_a 11.058380
_cell_length_b 15.412395
_cell_length_c 13.739933
_cell_angle_alpha 90.000000
_cell_angle_beta 120.433734
_cell_angle_gamma 90.000000
_cell_volume 2019.119964
_symmetry_space_group_name_H-M "C 2/C"
_symmetry_group_IT_number 15
_symmetry_cell_setting 'monoclinic'
loop_
_space_group_symop_operation_xyz
x,y,z
-x,y,1/2-z
-x,-y,-z
x,-y,1/2+z
1/2+x,1/2+y,z
1/2-x,1/2+y,1/2-z
1/2-x,1/2-y,-z
1/2+x,1/2-y,1/2+z
loop_
_atom_site_type_symbol
_atom_site_label
_atom_site_fract_x
_atom_site_fract_y
_atom_site_fract_z
Si Si1 0.695253 0.005212 0.256650
Si Si2 0.490800 0.132342 0.080673
Si Si3 0.080149 0.910944 0.525730
Si Si4 0.500000 0.136785 0.750000
Si Si5 0.000000 0.241643 0.750000
Si Si6 0.908803 0.255850 0.034204
Si Si7 0.202879 0.896080 0.364153
O O1 0.641009 0.922272 0.296543
O O2 0.801409 0.977529 0.212322
O O3 0.553927 0.046488 0.154424
O O4 0.772606 0.076181 0.356308
O O5 0.438869 0.199310 0.139841
O O6 0.606741 0.179619 0.063082
O O7 0.363963 0.112937 0.956859
O O8 0.108382 0.900287 0.422543
O O9 0.988217 0.832994 0.534017
O O10 0.000000 0.000000 0.500000
O O11 0.504088 0.199304 0.844494
O O12 0.863760 0.183925 0.723573
O O13 0.750000 0.250000 0.000000
#
# Coordination Sequence:
#
# PCOD8154984 Si02
#       7
#     8   8   8   4   4   8   8
#     4  12  28  46  79 113 156 208 256 316 397 468
#     4  12  27  47  77 108 150 199 257 321 385 465
#     4  12  28  51  77 113 156 201 258 328 391 472
#     4  12  27  50  75 116 158 204 258 317 390 477
#     4  12  25  44  79 108 142 194 256 319 384 461
#     4  12  30  48  76 110 156 205 257 325 393 464
#     4  12  26  49  75 112 149 194 259 319 383 456
#
# _framework density 23.772734
#
# number of rings (size 3 to 8) (size 9 to 14) (size 15 to 20)
#    0.000    0.000    3.333    5.500   11.667    0.000 
#    0.000    0.000    0.000    0.000    0.000    0.000 
#    0.000    0.000    0.000    0.000    0.000    0.000 
#
# Total GULP energy -297503.342596 kJ/mol
# GULP energy per Si atom -12395.972608 kJ/mol
# Density = 2.371863 g / cm^3
# Si number density = 23.772734 Si / 1000 Ang^3
#
#
#
# Elastic Constant Matrix: (Units=GPa)
#
#
# Indices 1 2 3 4 5 6 
#
# 1 114.2850 42.5699 11.5644 0.0000 -6.9362 0.0000
# 2 42.5699 119.1926 23.7429 0.0000 -9.7982 0.0000
# 3 11.5644 23.7429 68.9046 0.0000 -3.4701 0.0000
# 4 0.0000 0.0000 0.0000 35.9073 0.0000 -8.6020
# 5 -6.9362 -9.7982 -3.4701 0.0000 41.2203 0.0000
# 6 0.0000 0.0000 0.0000 -8.6020 0.0000 38.1802
#
#
#
# Elastic Compliance Matrix: (Units=1/GPa)
#
#
# Indices 1 2 3 4 5 6 
#
# 1 0.010137 -0.003458 -0.000467 0.000000 0.000844 0.000000
# 2 -0.003458 0.010336 -0.002899 0.000000 0.001631 0.000000
# 3 -0.000467 -0.002899 0.015618 0.000000 0.000547 0.000000
# 4 0.000000 0.000000 0.000000 0.029438 0.000000 0.006633
# 5 0.000844 0.001631 0.000547 0.000000 0.024836 0.000000
# 6 0.000000 0.000000 0.000000 0.006633 0.000000 0.027686
#
#
# Mechanical properties :
#
#
# Convention : Reuss Voigt Hill
#
# Bulk Modulus (GPa) = 44.55884 50.90406 47.73145
# Shear Modulus (GPa) = 35.92470 38.02854 36.97662
#
# Velocity S-wave (km/s) = 3.89160 4.00393 3.94816
# Velocity P-wave (km/s) = 6.24316 6.54481 6.39576
#
# Compressibility (1/GPa) = 0.02244223
#
# Stress axis : x y z
#
# Youngs Moduli (GPa) = 98.65263 96.74605 64.02960
#
# Poissons Ratio (x) = 0.33453 0.02992
# Poissons Ratio (y) = 0.34112 0.18563
# Poissons Ratio (z) = 0.04609 0.28048
#
# Static dielectric constant tensor:
#      x y z
#    x 5.174100 0.000000 0.091330 
#    y 0.000000 4.558920 0.000000 
#    z 0.091330 0.000000 5.038250 
# 
# 
# High freq. dielectric constant tensor:
#      x y z
#    x 1.949700 0.000000 -0.007920 
#    y 0.000000 1.948450 0.000000 
#    z -0.007920 0.000000 1.957880 
# 
# From -- ./inp_files/144424.got.cif
#   From: 2010.06.25/outbox.cif.g09.slc.cpg/sg15_73_cif.got.tgz:144424.got - 2010.06.28 07:06:18.
