data_PCOD8154272
_publ_section_title
;
Structure prediction by ZEFSAII (Michael W. Deem and Ramdas Pophale) SiO2 
 PCOD8154272
Probable space group: C 2/C
;
_chemical_formula_sum "Si O2"
_cell_formula_units_Z 32
_cell_length_a 19.284026
_cell_length_b 6.906567
_cell_length_c 16.990897
_cell_angle_alpha 90.000000
_cell_angle_beta 145.724212
_cell_angle_gamma 90.000000
_cell_volume 1274.444956
_symmetry_space_group_name_H-M "C 2/C"
_symmetry_group_IT_number 15
_symmetry_cell_setting 'monoclinic'
loop_
_space_group_symop_operation_xyz
x,y,z
-x,y,1/2-z
-x,-y,-z
x,-y,1/2+z
1/2+x,1/2+y,z
1/2-x,1/2+y,1/2-z
1/2-x,1/2-y,-z
1/2+x,1/2-y,1/2+z
loop_
_atom_site_type_symbol
_atom_site_label
_atom_site_fract_x
_atom_site_fract_y
_atom_site_fract_z
Si Si1 0.393860 0.652961 0.885119
Si Si2 0.953111 0.503039 0.830278
Si Si3 0.197386 0.461135 0.960653
Si Si4 0.698072 0.662261 0.304759
O O1 0.299223 0.542708 0.738059
O O2 0.319475 0.716320 0.893161
O O3 0.439843 0.847555 0.885990
O O4 0.500000 0.500000 0.000000
O O5 0.837792 0.519467 0.660669
O O6 0.930907 0.723719 0.841092
O O7 0.078569 0.457718 0.905081
O O8 0.250000 0.250000 0.000000
O O9 0.294020 0.607342 0.093938
#
# Coordination Sequence:
#
# PCOD8154272 Si02
#       4
#     8   8   8   8
#     4  12  27  43  75 110 146 190 244 304 369 439
#     4  11  26  48  71 108 143 194 247 300 370 439
#     4  11  25  48  74 101 146 194 245 303 361 436
#     4  12  25  48  74 106 147 192 242 305 370 436
#
# _framework density 25.108969999999999
#
# number of rings (size 3 to 8) (size 9 to 14) (size 15 to 20)
#    0.000    0.500    5.000    2.250    7.000    2.000 
#    9.000    0.000    0.000    0.000    0.000    0.000 
#    0.000    0.000    0.000    0.000    0.000    0.000 
#
# Total GULP energy -198292.902822 kJ/mol
# GULP energy per Si atom -12393.306426 kJ/mol
# Density = 2.505182 g / cm^3
# Si number density = 25.108970 Si / 1000 Ang^3
#
#
#
# Elastic Constant Matrix: (Units=GPa)
#
#
# Indices 1 2 3 4 5 6 
#
# 1 102.9653 41.3653 9.3656 0.0000 9.8767 0.0000
# 2 41.3653 156.1215 41.1080 0.0000 -4.2899 0.0000
# 3 9.3656 41.1080 58.5753 0.0000 -3.1981 0.0000
# 4 0.0000 0.0000 0.0000 50.4018 0.0000 -7.3942
# 5 9.8767 -4.2899 -3.1981 0.0000 45.6621 0.0000
# 6 0.0000 0.0000 0.0000 -7.3942 0.0000 54.5658
#
#
#
# Elastic Compliance Matrix: (Units=1/GPa)
#
#
# Indices 1 2 3 4 5 6 
#
# 1 0.011196 -0.003104 0.000241 0.000000 -0.002696 0.000000
# 2 -0.003104 0.008723 -0.005566 0.000000 0.001101 0.000000
# 3 0.000241 -0.005566 0.020988 0.000000 0.000895 0.000000
# 4 0.000000 0.000000 0.000000 0.020243 0.000000 0.002743
# 5 -0.002696 0.001101 0.000895 0.000000 0.022649 0.000000
# 6 0.000000 0.000000 0.000000 0.002743 0.000000 0.018698
#
#
# Mechanical properties :
#
#
# Convention : Reuss Voigt Hill
#
# Bulk Modulus (GPa) = 41.57946 55.70443 48.64195
# Shear Modulus (GPa) = 39.25511 45.18081 42.21796
#
# Velocity S-wave (km/s) = 3.95826 4.24652 4.10492
# Velocity P-wave (km/s) = 6.12258 6.80273 6.47160
#
# Compressibility (1/GPa) = 0.02405034
#
# Stress axis : x y z
#
# Youngs Moduli (GPa) = 89.32004 114.63403 47.64546
#
# Poissons Ratio (x) = 0.35581 -0.01148
# Poissons Ratio (y) = 0.27724 0.26518
# Poissons Ratio (z) = -0.02153 0.63802
#
# Static dielectric constant tensor:
#      x y z
#    x 5.317660 0.000000 -0.652010 
#    y 0.000000 5.739580 0.000000 
#    z -0.652010 0.000000 5.165680 
# 
# 
# High freq. dielectric constant tensor:
#      x y z
#    x 1.996030 0.000000 -0.017210 
#    y 0.000000 2.030800 0.000000 
#    z -0.017210 0.000000 2.017750 
# 
# From -- ./inp_files/254181.got.cif
#   From: 2010.06.25/outbox.cif.g09.slc.cpg/sg15_128_cif.got.tgz:254181.got - 2010.06.28 07:06:18.
