data_PCOD8154788
_publ_section_title
;
Structure prediction by ZEFSAII (Michael W. Deem and Ramdas Pophale) SiO2 
 PCOD8154788
Probable space group: C 2/C
;
_chemical_formula_sum "Si O2"
_cell_formula_units_Z 40
_cell_length_a 11.272424
_cell_length_b 13.811733
_cell_length_c 10.799585
_cell_angle_alpha 90.000000
_cell_angle_beta 69.271820
_cell_angle_gamma 90.000000
_cell_volume 1572.568573
_symmetry_space_group_name_H-M "C 2/C"
_symmetry_group_IT_number 15
_symmetry_cell_setting 'monoclinic'
loop_
_space_group_symop_operation_xyz
x,y,z
-x,y,1/2-z
-x,-y,-z
x,-y,1/2+z
1/2+x,1/2+y,z
1/2-x,1/2+y,1/2-z
1/2-x,1/2-y,-z
1/2+x,1/2-y,1/2+z
loop_
_atom_site_type_symbol
_atom_site_label
_atom_site_fract_x
_atom_site_fract_y
_atom_site_fract_z
Si Si1 0.274540 0.079117 0.376479
Si Si2 0.858957 0.375722 0.261412
Si Si3 0.237487 0.824932 0.644825
Si Si4 0.578472 0.493602 0.598545
Si Si5 0.522117 0.111125 0.022366
O O1 0.210926 0.147958 0.298069
O O2 0.412849 0.119032 0.366044
O O3 0.277727 0.972680 0.310912
O O4 0.190110 0.071877 0.533067
O O5 0.797255 0.287793 0.363287
O O6 0.875361 0.345008 0.111939
O O7 0.000000 0.400671 0.250000
O O8 0.144037 0.888618 0.593902
O O9 0.386577 0.837161 0.563302
O O10 0.500000 0.524326 0.750000
O O11 0.500000 0.500000 0.500000
O O12 0.500000 0.000000 0.000000
#
# Coordination Sequence:
#
# PCOD8154788 Si02
#       5
#     8   8   8   8   8
#     4  12  24  49  80 104 154 208 262 317 392 467
#     4  12  25  44  76 115 151 200 266 323 383 465
#     4  12  26  45  77 116 151 200 266 322 384 469
#     4  12  25  44  71 113 153 202 249 319 389 458
#     4  12  23  47  77 108 147 210 258 317 387 468
#
# _framework density 25.436093
#
# number of rings (size 3 to 8) (size 9 to 14) (size 15 to 20)
#    0.000    0.000    8.000    1.200    0.000    5.600 
#    0.000    0.000    4.400    0.000    0.000    0.000 
#    0.000    0.000    0.000    0.000    0.000    0.000 
#
# Total GULP energy -247861.742354 kJ/mol
# GULP energy per Si atom -12393.087118 kJ/mol
# Density = 2.537820 g / cm^3
# Si number density = 25.436093 Si / 1000 Ang^3
#
#
#
# Elastic Constant Matrix: (Units=GPa)
#
#
# Indices 1 2 3 4 5 6 
#
# 1 132.8402 35.2347 47.8805 0.0000 13.5460 0.0000
# 2 35.2347 57.3648 4.4203 0.0000 5.7587 0.0000
# 3 47.8805 4.4203 142.5886 0.0000 -13.1611 0.0000
# 4 0.0000 0.0000 0.0000 40.7023 0.0000 1.7327
# 5 13.5460 5.7587 -13.1611 0.0000 56.5088 0.0000
# 6 0.0000 0.0000 0.0000 1.7327 0.0000 18.7316
#
#
#
# Elastic Compliance Matrix: (Units=1/GPa)
#
#
# Indices 1 2 3 4 5 6 
#
# 1 0.010741 -0.006031 -0.003680 0.000000 -0.002817 0.000000
# 2 -0.006031 0.021073 0.001336 0.000000 -0.000391 0.000000
# 3 -0.003680 0.001336 0.008458 0.000000 0.002716 0.000000
# 4 0.000000 0.000000 0.000000 0.024666 0.000000 -0.002282
# 5 -0.002817 -0.000391 0.002716 0.000000 0.019044 0.000000
# 6 0.000000 0.000000 0.000000 -0.002282 0.000000 0.053597
#
#
# Mechanical properties :
#
#
# Convention : Reuss Voigt Hill
#
# Bulk Modulus (GPa) = 42.51321 56.42941 49.47131
# Shear Modulus (GPa) = 30.83186 39.53907 35.18546
#
# Velocity S-wave (km/s) = 3.48534 3.94693 3.72329
# Velocity P-wave (km/s) = 5.73993 6.55774 6.16242
#
# Compressibility (1/GPa) = 0.02352210
#
# Stress axis : x y z
#
# Youngs Moduli (GPa) = 93.09942 47.45406 118.22918
#
# Poissons Ratio (x) = 0.28620 0.43507
# Poissons Ratio (y) = 0.56149 -0.15794
# Poissons Ratio (z) = 0.34260 -0.06339
#
# Static dielectric constant tensor:
#      x y z
#    x 4.985910 0.000000 0.226660 
#    y 0.000000 4.211870 0.000000 
#    z 0.226660 0.000000 6.673310 
# 
# 
# High freq. dielectric constant tensor:
#      x y z
#    x 2.028740 0.000000 0.000850 
#    y 0.000000 1.973290 0.000000 
#    z 0.000850 0.000000 2.047390 
# 
# From -- ./inp_files/85973.got.cif
#   From: 2010.06.25/outbox.cif.g09.slc.cpg/sg15_43_cif.got.tgz:85973.got - 2010.06.28 07:06:18.
