data_PCOD8154335
_publ_section_title
;
Structure prediction by ZEFSAII (Michael W. Deem and Ramdas Pophale) SiO2 
 PCOD8154335
Probable space group: C 2/C
;
_chemical_formula_sum "Si O2"
_cell_formula_units_Z 64
_cell_length_a 22.508163
_cell_length_b 19.949674
_cell_length_c 16.465815
_cell_angle_alpha 90.000000
_cell_angle_beta 159.269887
_cell_angle_gamma 90.000000
_cell_volume 2617.105143
_symmetry_space_group_name_H-M "C 2/C"
_symmetry_group_IT_number 15
_symmetry_cell_setting 'monoclinic'
loop_
_space_group_symop_operation_xyz
x,y,z
-x,y,1/2-z
-x,-y,-z
x,-y,1/2+z
1/2+x,1/2+y,z
1/2-x,1/2+y,1/2-z
1/2-x,1/2-y,-z
1/2+x,1/2-y,1/2+z
loop_
_atom_site_type_symbol
_atom_site_label
_atom_site_fract_x
_atom_site_fract_y
_atom_site_fract_z
Si Si1 0.830041 0.612976 0.133815
Si Si2 0.661720 0.518132 0.409884
Si Si3 0.697483 0.121796 0.586686
Si Si4 0.269054 0.323556 0.736748
Si Si5 0.934216 0.627206 0.757368
Si Si6 0.834575 0.770522 0.988596
Si Si7 0.341802 0.300627 0.501694
Si Si8 0.513549 0.403944 0.936639
O O1 0.022030 0.608299 0.409456
O O2 0.701266 0.555364 0.998584
O O3 0.820836 0.596251 0.027179
O O4 0.775688 0.687967 0.087901
O O5 0.500000 0.546392 0.250000
O O6 0.838014 0.557007 0.646385
O O7 0.595353 0.530981 0.231766
O O8 0.748167 0.201078 0.647292
O O9 0.836348 0.077259 0.810143
O O10 0.227643 0.249054 0.654613
O O11 0.390219 0.354722 0.825834
O O12 0.097466 0.367461 0.524820
O O13 0.357293 0.318435 0.938442
O O14 0.799778 0.683681 0.611651
O O15 0.000000 0.638120 0.750000
O O16 0.000000 0.750899 0.250000
O O17 0.403205 0.367264 0.534114
O O18 0.500000 0.267300 0.750000
#
# Coordination Sequence:
#
# PCOD8154335 Si02
#       8
#     8   8   8   8   8   8   8   8
#     4  11  27  48  74 105 141 207 253 306 379 436
#     4  12  26  51  76 101 152 199 251 305 372 456
#     4  11  26  44  76 109 145 191 246 321 379 442
#     4  12  27  38  75 113 149 197 248 308 376 455
#     4  12  24  45  72 107 149 200 247 302 368 452
#     4  12  25  47  72 107 153 188 249 313 378 444
#     4  12  23  42  68 108 156 196 241 300 387 446
#     4  12  24  45  70 110 153 198 240 310 378 444
#
# _framework density 24.454499999999999
#
# number of rings (size 3 to 8) (size 9 to 14) (size 15 to 20)
#    0.000    0.250    6.250    2.625    5.250    2.000 
#    0.000    3.750    0.000    0.000    0.000    0.000 
#    0.000    0.000    0.000    0.000    0.000    0.000 
#
# Total GULP energy -396491.675263 kJ/mol
# GULP energy per Si atom -12390.364852 kJ/mol
# Density = 2.439884 g / cm^3
# Si number density = 24.454500 Si / 1000 Ang^3
#
#
#
# Elastic Constant Matrix: (Units=GPa)
#
#
# Indices 1 2 3 4 5 6 
#
# 1 75.3668 1.2938 30.0110 0.0000 11.5600 0.0000
# 2 1.2938 72.9686 40.9320 0.0000 -1.3761 0.0000
# 3 30.0110 40.9320 134.5750 0.0001 2.6079 0.0000
# 4 0.0000 0.0000 0.0001 20.6529 0.0000 4.1934
# 5 11.5600 -1.3761 2.6079 0.0000 44.3811 0.0000
# 6 0.0000 0.0000 0.0000 4.1934 0.0000 23.1387
#
#
#
# Elastic Compliance Matrix: (Units=1/GPa)
#
#
# Indices 1 2 3 4 5 6 
#
# 1 0.015367 0.001856 -0.003920 0.000000 -0.003715 0.000000
# 2 0.001856 0.016777 -0.005524 0.000000 0.000361 0.000000
# 3 -0.003920 -0.005524 0.009980 0.000000 0.000263 0.000000
# 4 0.000000 0.000000 0.000000 0.050269 0.000000 -0.009110
# 5 -0.003715 0.000361 0.000263 0.000000 0.023495 0.000000
# 6 0.000000 0.000000 0.000000 -0.009110 0.000000 0.044869
#
#
# Mechanical properties :
#
#
# Convention : Reuss Voigt Hill
#
# Bulk Modulus (GPa) = 37.10622 47.48711 42.29667
# Shear Modulus (GPa) = 27.03948 31.67944 29.35946
#
# Velocity S-wave (km/s) = 3.32882 3.60313 3.46869
# Velocity P-wave (km/s) = 5.47552 6.06389 5.77720
#
# Compressibility (1/GPa) = 0.02694966
#
# Stress axis : x y z
#
# Youngs Moduli (GPa) = 65.07399 59.60542 100.20162
#
# Poissons Ratio (x) = -0.11064 0.39274
# Poissons Ratio (y) = -0.12079 0.55349
# Poissons Ratio (z) = 0.25506 0.32925
#
# Static dielectric constant tensor:
#      x y z
#    x 4.459100 0.000000 0.013760 
#    y 0.000000 4.088520 0.000000 
#    z 0.013760 0.000000 4.840350 
# 
# 
# High freq. dielectric constant tensor:
#      x y z
#    x 1.974530 0.000000 0.006320 
#    y 0.000000 1.950230 0.000000 
#    z 0.006320 0.000000 1.984060 
# 
# From -- ./inp_files/220287.got.cif
#   From: 2010.06.25/outbox.cif.g09.slc.cpg/sg15_111_cif.got.tgz:220287.got - 2010.06.28 07:06:18.
