data_PCOD8154009
_publ_section_title
;
Structure prediction by ZEFSAII (Michael W. Deem and Ramdas Pophale) SiO2 
 PCOD8154009
Probable space group: C 2/C
;
_chemical_formula_sum "Si O2"
_cell_formula_units_Z 44
_cell_length_a 11.167737
_cell_length_b 20.812000
_cell_length_c 9.407764
_cell_angle_alpha 90.000000
_cell_angle_beta 69.068152
_cell_angle_gamma 90.000000
_cell_volume 2042.279097
_symmetry_space_group_name_H-M "C 2/C"
_symmetry_group_IT_number 15
_symmetry_cell_setting 'monoclinic'
loop_
_space_group_symop_operation_xyz
x,y,z
-x,y,1/2-z
-x,-y,-z
x,-y,1/2+z
1/2+x,1/2+y,z
1/2-x,1/2+y,1/2-z
1/2-x,1/2-y,-z
1/2+x,1/2-y,1/2+z
loop_
_atom_site_type_symbol
_atom_site_label
_atom_site_fract_x
_atom_site_fract_y
_atom_site_fract_z
Si Si1 0.000000 0.015103 0.750000
Si Si2 0.810459 0.334144 0.077575
Si Si3 0.520249 0.934907 0.907731
Si Si4 0.098922 0.124448 0.883664
Si Si5 0.306204 0.402853 0.855669
Si Si6 0.368843 0.305091 0.592008
O O1 0.981809 0.059586 0.617353
O O2 0.873674 0.971765 0.814091
O O3 0.691315 0.362349 0.213633
O O4 0.865567 0.270410 0.131900
O O5 0.760983 0.319536 0.939876
O O6 0.923302 0.384773 0.017884
O O7 0.500000 0.946932 0.750000
O O8 0.660965 0.907625 0.870523
O O9 0.500000 0.000000 0.000000
O O10 0.186751 0.118446 0.984646
O O11 0.996672 0.181802 0.945636
O O12 0.376461 0.349615 0.728533
#
# Coordination Sequence:
#
# PCOD8154009 Si02
#       6
#     4   8   8   8   8   8
#     4  12  24  44  78 102 142 186 242 300 360 420
#     4  11  26  47  77 101 147 193 239 291 368 434
#     4  12  29  49  73 105 152 192 239 295 370 442
#     4  12  25  46  74 108 138 188 247 302 357 426
#     4  12  27  44  74 107 144 186 245 302 361 425
#     4  11  24  48  73 107 139 195 242 297 359 425
#
# _framework density 21.544556
#
# number of rings (size 3 to 8) (size 9 to 14) (size 15 to 20)
#    0.000    0.364    5.455    1.636    7.636    0.727 
#    3.273    0.000    0.000    0.000    0.000    0.000 
#    0.000    0.000    0.000    0.000    0.000    0.000 
#
# Total GULP energy -272911.016931 kJ/mol
# GULP energy per Si atom -12405.046224 kJ/mol
# Density = 2.149552 g / cm^3
# Si number density = 21.544556 Si / 1000 Ang^3
#
#
#
# Elastic Constant Matrix: (Units=GPa)
#
#
# Indices 1 2 3 4 5 6 
#
# 1 128.9737 51.2615 44.2349 0.0000 -2.6976 0.0000
# 2 51.2615 158.9582 55.5811 0.0000 -5.2373 0.0000
# 3 44.2349 55.5811 105.4998 0.0000 5.1861 0.0000
# 4 0.0000 0.0000 0.0000 21.0152 0.0000 -2.2301
# 5 -2.6976 -5.2373 5.1861 0.0000 48.3962 0.0000
# 6 0.0000 0.0000 0.0000 -2.2301 0.0000 35.0189
#
#
#
# Elastic Compliance Matrix: (Units=1/GPa)
#
#
# Indices 1 2 3 4 5 6 
#
# 1 0.009598 -0.002030 -0.002986 0.000000 0.000635 0.000000
# 2 -0.002030 0.008220 -0.003536 0.000000 0.001155 0.000000
# 3 -0.002986 -0.003536 0.012688 0.000000 -0.001909 0.000000
# 4 0.000000 0.000000 0.000000 0.047908 0.000000 0.003051
# 5 0.000635 0.001155 -0.001909 0.000000 0.021028 0.000000
# 6 0.000000 0.000000 0.000000 0.003051 0.000000 0.028750
#
#
# Mechanical properties :
#
#
# Convention : Reuss Voigt Hill
#
# Bulk Modulus (GPa) = 74.62224 77.28740 75.95482
# Shear Modulus (GPa) = 33.38594 37.04300 35.21447
#
# Velocity S-wave (km/s) = 3.94080 4.15102 4.04727
# Velocity P-wave (km/s) = 7.44432 7.67632 7.56121
#
# Compressibility (1/GPa) = 0.01340083
#
# Stress axis : x y z
#
# Youngs Moduli (GPa) = 104.19049 121.65134 78.81767
#
# Poissons Ratio (x) = 0.24697 0.23534
# Poissons Ratio (y) = 0.21152 0.27872
# Poissons Ratio (z) = 0.31110 0.43019
#
# Static dielectric constant tensor:
#      x y z
#    x 3.960810 0.000000 0.117520 
#    y 0.000000 3.985740 0.000000 
#    z 0.117520 0.000000 3.804810 
# 
# 
# High freq. dielectric constant tensor:
#      x y z
#    x 1.860240 0.000000 0.003080 
#    y 0.000000 1.852520 0.000000 
#    z 0.003080 0.000000 1.847240 
# 
# From -- ./inp_files/30704.got.cif
#   From: 2010.06.25/outbox.cif.g09.slc.cpg/sg15_16_cif.got.tgz:30704.got - 2010.06.28 07:06:18.
