data_PCOD8154127
_publ_section_title
;
Structure prediction by ZEFSAII (Michael W. Deem and Ramdas Pophale) SiO2 
 PCOD8154127
Probable space group: C 2/C
;
_chemical_formula_sum "Si O2"
_cell_formula_units_Z 44
_cell_length_a 18.985018
_cell_length_b 9.143868
_cell_length_c 12.320101
_cell_angle_alpha 90.000000
_cell_angle_beta 61.536032
_cell_angle_gamma 90.000000
_cell_volume 1880.190761
_symmetry_space_group_name_H-M "C 2/C"
_symmetry_group_IT_number 15
_symmetry_cell_setting 'monoclinic'
loop_
_space_group_symop_operation_xyz
x,y,z
-x,y,1/2-z
-x,-y,-z
x,-y,1/2+z
1/2+x,1/2+y,z
1/2-x,1/2+y,1/2-z
1/2-x,1/2-y,-z
1/2+x,1/2-y,1/2+z
loop_
_atom_site_type_symbol
_atom_site_label
_atom_site_fract_x
_atom_site_fract_y
_atom_site_fract_z
Si Si1 0.139738 0.958570 0.538287
Si Si2 0.585816 0.254172 0.165718
Si Si3 0.500000 0.714606 0.250000
Si Si4 0.049653 0.543247 0.566695
Si Si5 0.769567 0.586441 0.104893
Si Si6 0.190271 0.828488 0.285918
O O1 0.226152 0.905162 0.520186
O O2 0.134588 0.913066 0.416107
O O3 0.076248 0.887544 0.669320
O O4 0.132247 0.135264 0.550364
O O5 0.500000 0.328028 0.250000
O O6 0.570713 0.093524 0.128613
O O7 0.632722 0.240759 0.245381
O O8 0.507545 0.829364 0.343662
O O9 0.135507 0.612539 0.476764
O O10 0.000000 0.500000 0.500000
O O11 0.746982 0.718680 0.202559
O O12 0.746838 0.435509 0.177555
#
# Coordination Sequence:
#
# PCOD8154127 Si02
#       6
#     8   8   4   8   8   8
#     4  11  26  46  71 103 146 189 240 302 357 437
#     4  11  25  45  69 105 140 182 239 290 359 434
#     4  12  26  44  72 106 136 190 248 288 370 416
#     4  12  28  45  73 104 146 185 242 307 358 431
#     4  11  27  44  70 105 142 193 237 296 367 427
#     4  11  26  44  71 101 142 192 232 301 357 431
#
# _framework density 23.401879999999998
#
# number of rings (size 3 to 8) (size 9 to 14) (size 15 to 20)
#    0.000    0.727    3.636    1.636    7.636    3.636 
#    0.000    0.000    0.000    0.000    0.000    0.000 
#    0.000    0.000    0.000    0.000    0.000    0.000 
#
# Total GULP energy -272646.358323 kJ/mol
# GULP energy per Si atom -12393.016287 kJ/mol
# Density = 2.334862 g / cm^3
# Si number density = 23.401880 Si / 1000 Ang^3
#
#
#
# Elastic Constant Matrix: (Units=GPa)
#
#
# Indices 1 2 3 4 5 6 
#
# 1 75.7101 0.1743 22.5919 0.0000 8.6798 0.0000
# 2 0.1743 84.9882 12.4276 0.0000 12.3734 0.0000
# 3 22.5919 12.4276 83.7887 0.0000 14.4079 0.0000
# 4 0.0000 0.0000 0.0000 30.0253 0.0000 -0.6267
# 5 8.6798 12.3734 14.4079 0.0000 38.2783 0.0000
# 6 0.0000 0.0000 0.0000 -0.6267 0.0000 31.9111
#
#
#
# Elastic Compliance Matrix: (Units=1/GPa)
#
#
# Indices 1 2 3 4 5 6 
#
# 1 0.014552 0.000825 -0.003670 0.000000 -0.002185 0.000000
# 2 0.000825 0.012513 -0.001444 0.000000 -0.003688 0.000000
# 3 -0.003670 -0.001444 0.013809 0.000000 -0.003899 0.000000
# 4 0.000000 0.000000 0.000000 0.033319 0.000000 0.000654
# 5 -0.002185 -0.003688 -0.003899 0.000000 0.029280 0.000000
# 6 0.000000 0.000000 0.000000 0.000654 0.000000 0.031350
#
#
# Mechanical properties :
#
#
# Convention : Reuss Voigt Hill
#
# Bulk Modulus (GPa) = 30.96465 34.98606 32.97535
# Shear Modulus (GPa) = 32.43254 33.99582 33.21418
#
# Velocity S-wave (km/s) = 3.72680 3.81556 3.77144
# Velocity P-wave (km/s) = 5.63730 5.86463 5.75209
#
# Compressibility (1/GPa) = 0.03229490
#
# Stress axis : x y z
#
# Youngs Moduli (GPa) = 68.71862 79.91820 72.41657
#
# Poissons Ratio (x) = -0.06593 0.26579
# Poissons Ratio (y) = -0.05669 0.10458
# Poissons Ratio (z) = 0.25222 0.11541
#
# Static dielectric constant tensor:
#      x y z
#    x 4.179690 0.000000 -0.052210 
#    y 0.000000 4.413840 0.000000 
#    z -0.052210 0.000000 4.314640 
# 
# 
# High freq. dielectric constant tensor:
#      x y z
#    x 1.912270 0.000000 0.003150 
#    y 0.000000 1.952550 0.000000 
#    z 0.003150 0.000000 1.929940 
# 
# From -- ./inp_files/109954.got.cif
#   From: 2010.06.25/outbox.cif.g09.slc.cpg/sg15_55_cif.got.tgz:109954.got - 2010.06.28 07:06:18.
