data_PCOD8154666
_publ_section_title
;
Structure prediction by ZEFSAII (Michael W. Deem and Ramdas Pophale) SiO2 
 PCOD8154666
Probable space group: C 2/C
;
_chemical_formula_sum "Si O2"
_cell_formula_units_Z 52
_cell_length_a 24.711467
_cell_length_b 9.699961
_cell_length_c 11.620347
_cell_angle_alpha 90.000000
_cell_angle_beta 127.375550
_cell_angle_gamma 90.000000
_cell_volume 2213.484436
_symmetry_space_group_name_H-M "C 2/C"
_symmetry_group_IT_number 15
_symmetry_cell_setting 'monoclinic'
loop_
_space_group_symop_operation_xyz
x,y,z
-x,y,1/2-z
-x,-y,-z
x,-y,1/2+z
1/2+x,1/2+y,z
1/2-x,1/2+y,1/2-z
1/2-x,1/2-y,-z
1/2+x,1/2-y,1/2+z
loop_
_atom_site_type_symbol
_atom_site_label
_atom_site_fract_x
_atom_site_fract_y
_atom_site_fract_z
Si Si1 0.000000 0.069938 0.250000
Si Si2 0.622806 0.725549 0.079659
Si Si3 0.746593 0.162607 0.881398
Si Si4 0.911071 0.033635 0.821865
Si Si5 0.392364 0.736580 0.987445
Si Si6 0.462221 0.984639 0.576168
Si Si7 0.791702 0.116679 0.515225
O O1 0.065776 0.166889 0.354522
O O2 0.023933 0.969239 0.178892
O O3 0.679442 0.804978 0.224957
O O4 0.585603 0.609055 0.104846
O O5 0.568934 0.833767 0.962350
O O6 0.654302 0.651674 0.011479
O O7 0.750000 0.250000 0.000000
O O8 0.812937 0.199086 0.891980
O O9 0.740550 0.000120 0.902478
O O10 0.835324 0.047524 0.672568
O O11 0.923833 0.169638 0.913466
O O12 0.402874 0.900131 0.000150
O O13 0.500000 0.002697 0.750000
O O14 0.500000 0.000000 0.500000
O O15 0.750000 0.250000 0.500000
#
# Coordination Sequence:
#
# PCOD8154666 Si02
#       7
#     4   8   8   8   8   8   8
#     4  12  22  46  76 108 150 198 262 320 386 476
#     4  12  28  50  78 116 156 204 267 330 403 478
#     4  12  26  48  80 110 154 207 260 329 403 475
#     4  12  25  49  74 115 148 204 261 324 394 475
#     4  12  26  48  77 110 156 203 263 322 398 474
#     4  12  32  55  82 118 163 216 270 331 409 483
#     4  12  28  47  74 114 154 197 258 324 401 475
#
# _framework density 23.492372
#
# number of rings (size 3 to 8) (size 9 to 14) (size 15 to 20)
#    0.000    0.000    5.385    2.308   10.769    1.231 
#    1.385    0.000    0.000    0.000    0.000    0.000 
#    0.000    0.000    0.000    0.000    0.000    0.000 
#
# Total GULP energy -322384.560417 kJ/mol
# GULP energy per Si atom -12399.406170 kJ/mol
# Density = 2.343890 g / cm^3
# Si number density = 23.492372 Si / 1000 Ang^3
#
#
#
# Elastic Constant Matrix: (Units=GPa)
#
#
# Indices 1 2 3 4 5 6 
#
# 1 108.7445 41.8734 18.8881 0.0000 -26.1872 0.0000
# 2 41.8734 162.8401 32.4635 0.0000 -15.3958 0.0000
# 3 18.8881 32.4635 94.5476 0.0000 -11.5750 0.0000
# 4 0.0000 0.0000 0.0000 43.2821 0.0000 7.7424
# 5 -26.1872 -15.3958 -11.5750 0.0000 39.7855 0.0000
# 6 0.0000 0.0000 0.0000 7.7424 0.0000 37.0716
#
#
#
# Elastic Compliance Matrix: (Units=1/GPa)
#
#
# Indices 1 2 3 4 5 6 
#
# 1 0.011803 -0.002251 -0.000768 0.000000 0.006675 0.000000
# 2 -0.002251 0.007173 -0.001923 0.000000 0.000734 0.000000
# 3 -0.000768 -0.001923 0.011652 0.000000 0.002140 0.000000
# 4 0.000000 0.000000 0.000000 0.024001 0.000000 -0.005013
# 5 0.006675 0.000734 0.002140 0.000000 0.030435 0.000000
# 6 0.000000 0.000000 0.000000 -0.005013 0.000000 0.028022
#
#
# Mechanical properties :
#
#
# Convention : Reuss Voigt Hill
#
# Bulk Modulus (GPa) = 48.20621 61.39800 54.80210
# Shear Modulus (GPa) = 38.49555 42.22166 40.35860
#
# Velocity S-wave (km/s) = 4.05240 4.24400 4.14931
# Velocity P-wave (km/s) = 6.51617 7.08572 6.80690
#
# Compressibility (1/GPa) = 0.02074422
#
# Stress axis : x y z
#
# Youngs Moduli (GPa) = 84.72155 139.41808 85.81867
#
# Poissons Ratio (x) = 0.31383 0.06591
# Poissons Ratio (y) = 0.19071 0.16504
# Poissons Ratio (z) = 0.06506 0.26813
#
# Static dielectric constant tensor:
#      x y z
#    x 4.210010 0.000000 -0.109630 
#    y 0.000000 4.148180 0.000000 
#    z -0.109630 0.000000 4.658140 
# 
# 
# High freq. dielectric constant tensor:
#      x y z
#    x 1.932810 0.000000 -0.005470 
#    y 0.000000 1.946160 0.000000 
#    z -0.005470 0.000000 1.946730 
# 
# From -- ./inp_files/122071.got.cif
#   From: 2010.06.25/outbox.cif.g09.slc.cpg/sg15_62_cif.got.tgz:122071.got - 2010.06.28 07:06:18.
