data_PCOD8154776
_publ_section_title
;
Structure prediction by ZEFSAII (Michael W. Deem and Ramdas Pophale) SiO2 
 PCOD8154776
Probable space group: C 2/C
;
_chemical_formula_sum "Si O2"
_cell_formula_units_Z 44
_cell_length_a 17.749000
_cell_length_b 6.734007
_cell_length_c 16.565293
_cell_angle_alpha 90.000000
_cell_angle_beta 106.049326
_cell_angle_gamma 90.000000
_cell_volume 1902.746045
_symmetry_space_group_name_H-M "C 2/C"
_symmetry_group_IT_number 15
_symmetry_cell_setting 'monoclinic'
loop_
_space_group_symop_operation_xyz
x,y,z
-x,y,1/2-z
-x,-y,-z
x,-y,1/2+z
1/2+x,1/2+y,z
1/2-x,1/2+y,1/2-z
1/2-x,1/2-y,-z
1/2+x,1/2-y,1/2+z
loop_
_atom_site_type_symbol
_atom_site_label
_atom_site_fract_x
_atom_site_fract_y
_atom_site_fract_z
Si Si1 0.500000 0.489540 0.250000
Si Si2 0.909899 0.538864 0.466659
Si Si3 0.634804 0.218693 0.213143
Si Si4 0.223269 0.608260 0.820276
Si Si5 0.883693 0.833768 0.599613
Si Si6 0.817688 0.156639 0.469084
O O1 0.571392 0.354332 0.239218
O O2 0.533902 0.633828 0.329515
O O3 0.893155 0.680293 0.386058
O O4 0.883724 0.642701 0.541801
O O5 0.867493 0.329215 0.441764
O O6 0.000000 0.500000 0.500000
O O7 0.722183 0.315507 0.237169
O O8 0.647673 0.015126 0.266749
O O9 0.188112 0.795197 0.859553
O O10 0.282813 0.482627 0.891095
O O11 0.872204 0.033781 0.545924
O O12 0.750000 0.250000 0.500000
#
# Coordination Sequence:
#
# PCOD8154776 Si02
#       6
#     4   8   8   8   8   8
#     4  12  30  46  74 106 154 194 244 302 362 440
#     4  12  28  45  77 107 148 192 241 301 367 435
#     4  12  27  48  73 111 145 194 245 301 368 429
#     4  12  25  47  76 106 147 190 246 303 359 438
#     4  12  27  49  74 109 147 193 245 300 365 430
#     4  12  23  46  75 109 139 187 241 299 361 431
#
# _framework density 23.124472999999998
#
# number of rings (size 3 to 8) (size 9 to 14) (size 15 to 20)
#    0.000    0.000    3.636    6.000    7.636    1.455 
#    0.000    0.000    0.000    0.000    0.000    0.000 
#    0.000    0.000    0.000    0.000    0.000    0.000 
#
# Total GULP energy -272915.898494 kJ/mol
# GULP energy per Si atom -12405.268113 kJ/mol
# Density = 2.307184 g / cm^3
# Si number density = 23.124473 Si / 1000 Ang^3
#
#
#
# Elastic Constant Matrix: (Units=GPa)
#
#
# Indices 1 2 3 4 5 6 
#
# 1 106.6659 22.7252 14.8292 0.0000 -1.4641 0.0000
# 2 22.7252 85.5009 26.4072 0.0000 4.2177 0.0000
# 3 14.8292 26.4072 112.5444 0.0000 16.3571 0.0000
# 4 0.0000 0.0000 0.0000 42.6166 0.0000 12.5675
# 5 -1.4641 4.2177 16.3571 0.0000 41.9814 0.0000
# 6 0.0000 0.0000 0.0000 12.5675 0.0000 47.1617
#
#
#
# Elastic Compliance Matrix: (Units=1/GPa)
#
#
# Indices 1 2 3 4 5 6 
#
# 1 0.010031 -0.002439 -0.000886 0.000000 0.000940 0.000000
# 2 -0.002439 0.013203 -0.002726 0.000000 -0.000349 0.000000
# 3 -0.000886 -0.002726 0.010183 0.000000 -0.003725 0.000000
# 4 0.000000 0.000000 0.000000 0.025466 0.000000 -0.006786
# 5 0.000940 -0.000349 -0.003725 0.000000 0.025339 0.000000
# 6 0.000000 0.000000 0.000000 -0.006786 0.000000 0.023012
#
#
# Mechanical properties :
#
#
# Convention : Reuss Voigt Hill
#
# Bulk Modulus (GPa) = 46.91408 48.07046 47.49227
# Shear Modulus (GPa) = 39.54420 42.40193 40.97307
#
# Velocity S-wave (km/s) = 4.13977 4.28675 4.21390
# Velocity P-wave (km/s) = 6.57130 6.73308 6.65268
#
# Compressibility (1/GPa) = 0.02131556
#
# Stress axis : x y z
#
# Youngs Moduli (GPa) = 99.69356 75.73985 98.20239
#
# Poissons Ratio (x) = 0.18471 0.08702
# Poissons Ratio (y) = 0.24313 0.26768
# Poissons Ratio (z) = 0.08834 0.20645
#
# Static dielectric constant tensor:
#      x y z
#    x 2.895760 0.000000 2.703320 
#    y 0.000000 3.460650 0.000000 
#    z 2.703320 0.000000 -1.433330 
# 
# 
# High freq. dielectric constant tensor:
#      x y z
#    x 1.918270 0.000000 0.003560 
#    y 0.000000 1.923870 0.000000 
#    z 0.003560 0.000000 1.928430 
# 
# From -- ./inp_files/212949.got.cif
#   From: 2010.06.25/outbox.cif.g09.slc.cpg/sg15_107_cif.got.tgz:212949.got - 2010.06.28 07:06:18.
