data_PCOD8154820
_publ_section_title
;
Structure prediction by ZEFSAII (Michael W. Deem and Ramdas Pophale) SiO2 
 PCOD8154820
Probable space group: C 2/C
;
_chemical_formula_sum "Si O2"
_cell_formula_units_Z 40
_cell_length_a 27.422768
_cell_length_b 4.913314
_cell_length_c 13.138668
_cell_angle_alpha 90.000000
_cell_angle_beta 76.793874
_cell_angle_gamma 90.000000
_cell_volume 1723.444922
_symmetry_space_group_name_H-M "C 2/C"
_symmetry_group_IT_number 15
_symmetry_cell_setting 'monoclinic'
loop_
_space_group_symop_operation_xyz
x,y,z
-x,y,1/2-z
-x,-y,-z
x,-y,1/2+z
1/2+x,1/2+y,z
1/2-x,1/2+y,1/2-z
1/2-x,1/2-y,-z
1/2+x,1/2-y,1/2+z
loop_
_atom_site_type_symbol
_atom_site_label
_atom_site_fract_x
_atom_site_fract_y
_atom_site_fract_z
Si Si1 0.853789 0.933432 0.374321
Si Si2 0.950680 0.100965 0.213942
Si Si3 0.149168 0.580690 0.489470
Si Si4 0.049713 0.597111 0.421679
Si Si5 0.216993 0.726301 0.270015
O O1 0.851863 0.724534 0.468582
O O2 0.820347 0.835089 0.297468
O O3 0.910094 0.976624 0.309398
O O4 0.833523 0.218345 0.428295
O O5 0.929802 0.369574 0.167178
O O6 0.000000 0.193035 0.250000
O O7 0.965610 0.873735 0.125864
O O8 0.093414 0.662672 0.480900
O O9 0.187701 0.599658 0.378793
O O10 0.000000 0.500000 0.500000
O O11 0.250070 0.481872 0.208021
#
# Coordination Sequence:
#
# PCOD8154820 Si02
#       5
#     8   8   8   8   8
#     4  12  26  46  74 106 144 188 238 299 359 427
#     4  12  24  43  70 105 147 189 235 292 354 428
#     4  12  26  46  74 106 144 187 240 297 360 428
#     4  12  24  43  70 105 147 188 237 294 353 428
#     4  12  28  48  74 105 144 192 243 305 361 425
#
# _framework density 23.209330999999999
#
# number of rings (size 3 to 8) (size 9 to 14) (size 15 to 20)
#    0.000    0.000    2.000    8.400    2.800    4.800 
#    0.000    0.000    0.000    0.000    0.000    0.000 
#    0.000    0.000    0.000    0.000    0.000    0.000 
#
# Total GULP energy -248177.049319 kJ/mol
# GULP energy per Si atom -12408.852466 kJ/mol
# Density = 2.315651 g / cm^3
# Si number density = 23.209331 Si / 1000 Ang^3
#
#
#
# Elastic Constant Matrix: (Units=GPa)
#
#
# Indices 1 2 3 4 5 6 
#
# 1 100.1604 20.0331 47.6573 0.0000 -12.7405 0.0000
# 2 20.0331 108.6214 17.4912 0.0000 5.9828 0.0000
# 3 47.6573 17.4912 96.4567 0.0000 0.8217 0.0000
# 4 0.0000 0.0000 0.0000 34.2864 0.0000 4.9929
# 5 -12.7405 5.9828 0.8217 0.0000 26.8087 0.0000
# 6 0.0000 0.0000 0.0000 4.9929 0.0000 34.7023
#
#
#
# Elastic Compliance Matrix: (Units=1/GPa)
#
#
# Indices 1 2 3 4 5 6 
#
# 1 0.014659 -0.002006 -0.006944 0.000000 0.007627 0.000000
# 2 -0.002006 0.009873 -0.000773 0.000000 -0.003133 0.000000
# 3 -0.006944 -0.000773 0.013969 0.000000 -0.003556 0.000000
# 4 0.000000 0.000000 0.000000 0.029790 0.000000 -0.004286
# 5 0.007627 -0.003133 -0.003556 0.000000 0.041734 0.000000
# 6 0.000000 0.000000 0.000000 -0.004286 0.000000 0.029433
#
#
# Mechanical properties :
#
#
# Convention : Reuss Voigt Hill
#
# Bulk Modulus (GPa) = 52.47615 52.84464 52.66039
# Shear Modulus (GPa) = 30.25607 33.82995 32.04301
#
# Velocity S-wave (km/s) = 3.61448 3.82200 3.71969
# Velocity P-wave (km/s) = 6.33074 6.50346 6.41768
#
# Compressibility (1/GPa) = 0.01905628
#
# Stress axis : x y z
#
# Youngs Moduli (GPa) = 68.21561 101.28470 71.58832
#
# Poissons Ratio (x) = 0.20313 0.49712
# Poissons Ratio (y) = 0.13681 0.05532
# Poissons Ratio (z) = 0.47370 0.07827
#
# Static dielectric constant tensor:
#      x y z
#    x 15.919660 0.000000 -4.211240 
#    y 0.000000 4.530590 0.000000 
#    z -4.211240 0.000000 5.803430 
# 
# 
# High freq. dielectric constant tensor:
#      x y z
#    x 1.920680 0.000000 -0.000030 
#    y 0.000000 1.938720 0.000000 
#    z -0.000030 0.000000 1.928370 
# 
# From -- ./inp_files/124909.got.cif
#   From: 2010.06.25/outbox.cif.g09.slc.cpg/sg15_63_cif.got.tgz:124909.got - 2010.06.28 07:06:18.
