data_PCOD8154231
_publ_section_title
;
Structure prediction by ZEFSAII (Michael W. Deem and Ramdas Pophale) SiO2 
 PCOD8154231
Probable space group: C 2/C
;
_chemical_formula_sum "Si O2"
_cell_formula_units_Z 36
_cell_length_a 12.678279
_cell_length_b 19.949757
_cell_length_c 10.789941
_cell_angle_alpha 90.000000
_cell_angle_beta 145.336002
_cell_angle_gamma 90.000000
_cell_volume 1552.201787
_symmetry_space_group_name_H-M "C 2/C"
_symmetry_group_IT_number 15
_symmetry_cell_setting 'monoclinic'
loop_
_space_group_symop_operation_xyz
x,y,z
-x,y,1/2-z
-x,-y,-z
x,-y,1/2+z
1/2+x,1/2+y,z
1/2-x,1/2+y,1/2-z
1/2-x,1/2-y,-z
1/2+x,1/2-y,1/2+z
loop_
_atom_site_type_symbol
_atom_site_label
_atom_site_fract_x
_atom_site_fract_y
_atom_site_fract_z
Si Si1 0.500000 0.621417 0.250000
Si Si2 0.452476 0.904243 0.543982
Si Si3 0.740125 0.199672 0.374246
Si Si4 0.358337 0.046834 0.515236
Si Si5 0.614377 0.318987 0.114497
O O1 0.653646 0.571861 0.345206
O O2 0.574487 0.668832 0.431513
O O3 0.589553 0.857714 0.760090
O O4 0.588456 0.931675 0.570178
O O5 0.280817 0.864787 0.321601
O O6 0.366996 0.966056 0.538233
O O7 0.750000 0.250000 0.500000
O O8 0.671862 0.241067 0.186788
O O9 0.937649 0.166684 0.532439
O O10 0.500000 0.079874 0.750000
#
# Coordination Sequence:
#
# PCOD8154231 Si02
#       5
#     4   8   8   8   8
#     4  12  26  48  74 110 144 188 256 298 370 438
#     4  11  26  47  72 106 148 190 245 300 372 444
#     4  12  27  48  71 109 149 193 244 301 375 439
#     4  11  25  47  72 104 146 193 241 305 370 437
#     4  12  26  45  74 107 144 191 245 305 365 441
#
# _framework density 23.19286
#
# number of rings (size 3 to 8) (size 9 to 14) (size 15 to 20)
#    0.000    0.444    6.667    0.667    3.111    3.556 
#    2.000    0.000    0.000    0.000    0.000    0.000 
#    0.000    0.000    0.000    0.000    0.000    0.000 
#
# Total GULP energy -223229.532285 kJ/mol
# GULP energy per Si atom -12401.640683 kJ/mol
# Density = 2.314007 g / cm^3
# Si number density = 23.192860 Si / 1000 Ang^3
#
#
#
# Elastic Constant Matrix: (Units=GPa)
#
#
# Indices 1 2 3 4 5 6 
#
# 1 114.0525 36.3759 33.4796 0.0000 21.0566 0.0000
# 2 36.3759 114.1353 33.4534 0.0000 17.3735 0.0000
# 3 33.4796 33.4534 114.1249 0.0000 18.6308 0.0000
# 4 0.0000 0.0000 0.0000 29.5913 0.0000 -2.4140
# 5 21.0566 17.3735 18.6308 0.0000 42.2216 0.0000
# 6 0.0000 0.0000 0.0000 -2.4140 0.0000 27.3377
#
#
#
# Elastic Compliance Matrix: (Units=1/GPa)
#
#
# Indices 1 2 3 4 5 6 
#
# 1 0.010718 -0.002322 -0.001883 0.000000 -0.003559 0.000000
# 2 -0.002322 0.010433 -0.002010 0.000000 -0.002248 0.000000
# 3 -0.001883 -0.002010 0.010362 0.000000 -0.002806 0.000000
# 4 0.000000 0.000000 0.000000 0.034039 0.000000 0.003006
# 5 -0.003559 -0.002248 -0.002806 0.000000 0.027623 0.000000
# 6 0.000000 0.000000 0.000000 0.003006 0.000000 0.036845
#
#
# Mechanical properties :
#
#
# Convention : Reuss Voigt Hill
#
# Bulk Modulus (GPa) = 52.40179 60.99228 56.69703
# Shear Modulus (GPa) = 33.59969 35.76371 34.68170
#
# Velocity S-wave (km/s) = 3.81032 3.93111 3.87118
# Velocity P-wave (km/s) = 6.48082 6.85272 6.66936
#
# Compressibility (1/GPa) = 0.01908332
#
# Stress axis : x y z
#
# Youngs Moduli (GPa) = 93.29828 95.84958 96.50743
#
# Poissons Ratio (x) = 0.22261 0.18168
# Poissons Ratio (y) = 0.21668 0.19398
# Poissons Ratio (z) = 0.17563 0.19265
#
# Static dielectric constant tensor:
#      x y z
#    x 4.359680 0.000000 -0.057100 
#    y 0.000000 4.457780 0.000000 
#    z -0.057100 0.000000 4.461010 
# 
# 
# High freq. dielectric constant tensor:
#      x y z
#    x 1.934810 0.000000 0.003820 
#    y 0.000000 1.914090 0.000000 
#    z 0.003820 0.000000 1.932570 
# 
# From -- ./inp_files/99925.got.cif
#   From: 2010.06.25/outbox.cif.g09.slc.cpg/sg15_50_cif.got.tgz:99925.got - 2010.06.28 07:06:18.
