data_PCOD8154036
_publ_section_title
;
Structure prediction by ZEFSAII (Michael W. Deem and Ramdas Pophale) SiO2 
 PCOD8154036
Probable space group: C 2/C
;
_chemical_formula_sum "Si O2"
_cell_formula_units_Z 44
_cell_length_a 12.514307
_cell_length_b 20.847482
_cell_length_c 8.384725
_cell_angle_alpha 90.000000
_cell_angle_beta 113.240320
_cell_angle_gamma 90.000000
_cell_volume 2010.007064
_symmetry_space_group_name_H-M "C 2/C"
_symmetry_group_IT_number 15
_symmetry_cell_setting 'monoclinic'
loop_
_space_group_symop_operation_xyz
x,y,z
-x,y,1/2-z
-x,-y,-z
x,-y,1/2+z
1/2+x,1/2+y,z
1/2-x,1/2+y,1/2-z
1/2-x,1/2-y,-z
1/2+x,1/2-y,1/2+z
loop_
_atom_site_type_symbol
_atom_site_label
_atom_site_fract_x
_atom_site_fract_y
_atom_site_fract_z
Si Si1 0.224885 0.913234 0.854212
Si Si2 0.874281 0.973122 0.386601
Si Si3 0.485483 0.071509 0.554062
Si Si4 0.651551 0.313520 0.584823
Si Si5 0.602925 0.819675 0.936861
Si Si6 0.000000 0.883895 0.250000
O O1 0.155380 0.848646 0.759870
O O2 0.208811 0.968818 0.712498
O O3 0.179104 0.934645 0.998270
O O4 0.360945 0.898659 0.938784
O O5 0.890432 0.925883 0.246094
O O6 0.000000 0.000000 0.500000
O O7 0.500000 0.072392 0.750000
O O8 0.580510 0.116031 0.524182
O O9 0.500000 0.000000 0.500000
O O10 0.621795 0.238062 0.576204
O O11 0.776749 0.328452 0.583732
O O12 0.546069 0.341811 0.421304
O O13 0.500000 0.804875 0.750000
#
# Coordination Sequence:
#
# PCOD8154036 Si02
#       6
#     8   8   8   8   8   4
#     4  12  24  43  68 102 141 186 233 295 355 417
#     4  12  23  39  64 103 142 178 238 289 351 420
#     4  12  28  46  72 105 139 188 237 299 358 422
#     4  11  25  44  74 101 138 192 232 290 356 435
#     4  11  24  50  71 103 141 184 241 290 359 429
#     4  12  24  40  68 100 140 190 232 292 352 420
#
# _framework density 21.890470000000001
#
# number of rings (size 3 to 8) (size 9 to 14) (size 15 to 20)
#    0.000    0.364    6.364    1.636    7.636    0.000 
#    3.273    0.909    0.000    0.000    0.000    0.000 
#    0.000    0.000    0.000    0.000    0.000    0.000 
#
# Total GULP energy -272834.273241 kJ/mol
# GULP energy per Si atom -12401.557875 kJ/mol
# Density = 2.184065 g / cm^3
# Si number density = 21.890470 Si / 1000 Ang^3
#
#
#
# Elastic Constant Matrix: (Units=GPa)
#
#
# Indices 1 2 3 4 5 6 
#
# 1 78.5314 33.2947 18.5278 0.0000 0.8669 0.0000
# 2 33.2947 146.5609 45.7621 0.0000 -14.8608 0.0000
# 3 18.5278 45.7621 103.8470 0.0000 -1.7954 0.0000
# 4 0.0000 0.0000 0.0000 10.6067 0.0000 4.9353
# 5 0.8669 -14.8608 -1.7954 0.0000 42.7103 0.0000
# 6 0.0000 0.0000 0.0000 4.9353 0.0000 34.8411
#
#
#
# Elastic Compliance Matrix: (Units=1/GPa)
#
#
# Indices 1 2 3 4 5 6 
#
# 1 0.014318 -0.003001 -0.001256 0.000000 -0.001388 0.000000
# 2 -0.003001 0.008842 -0.003309 0.000000 0.002998 0.000000
# 3 -0.001256 -0.003309 0.011301 0.000000 -0.000651 0.000000
# 4 0.000000 0.000000 0.000000 0.100932 0.000000 -0.014297
# 5 -0.001388 0.002998 -0.000651 0.000000 0.024458 0.000000
# 6 0.000000 0.000000 0.000000 -0.014297 0.000000 0.030727
#
#
# Mechanical properties :
#
#
# Convention : Reuss Voigt Hill
#
# Bulk Modulus (GPa) = 51.73849 58.23430 54.98639
# Shear Modulus (GPa) = 23.56793 33.05526 28.31159
#
# Velocity S-wave (km/s) = 3.28476 3.89013 3.60019
# Velocity P-wave (km/s) = 6.17031 6.84381 6.51577
#
# Compressibility (1/GPa) = 0.01932797
#
# Stress axis : x y z
#
# Youngs Moduli (GPa) = 69.84312 113.09444 88.49062
#
# Poissons Ratio (x) = 0.33941 0.11114
# Poissons Ratio (y) = 0.20961 0.29283
# Poissons Ratio (z) = 0.08772 0.37425
#
# Static dielectric constant tensor:
#      x y z
#    x 3.806570 0.000000 0.425360 
#    y 0.000000 4.255000 0.000000 
#    z 0.425360 0.000000 3.959110 
# 
# 
# High freq. dielectric constant tensor:
#      x y z
#    x 1.862140 0.000000 0.012680 
#    y 0.000000 1.865240 0.000000 
#    z 0.012680 0.000000 1.866890 
# 
# From -- ./inp_files/31046.got.cif
#   From: 2010.06.25/outbox.cif.g09.slc.cpg/sg15_16_cif.got.tgz:31046.got - 2010.06.28 07:06:18.
