data_PCOD8154924
_publ_section_title
;
Structure prediction by ZEFSAII (Michael W. Deem and Ramdas Pophale) SiO2 
 PCOD8154924
Probable space group: C 2/C
;
_chemical_formula_sum "Si O2"
_cell_formula_units_Z 44
_cell_length_a 12.514307
_cell_length_b 11.583659
_cell_length_c 15.555274
_cell_angle_alpha 90.000000
_cell_angle_beta 117.978329
_cell_angle_gamma 90.000000
_cell_volume 1991.372301
_symmetry_space_group_name_H-M "C 2/C"
_symmetry_group_IT_number 15
_symmetry_cell_setting 'monoclinic'
loop_
_space_group_symop_operation_xyz
x,y,z
-x,y,1/2-z
-x,-y,-z
x,-y,1/2+z
1/2+x,1/2+y,z
1/2-x,1/2+y,1/2-z
1/2-x,1/2-y,-z
1/2+x,1/2-y,1/2+z
loop_
_atom_site_type_symbol
_atom_site_label
_atom_site_fract_x
_atom_site_fract_y
_atom_site_fract_z
Si Si1 0.117432 0.768278 0.591543
Si Si2 0.307673 0.199113 0.290399
Si Si3 0.150018 0.190443 0.520979
Si Si4 0.500000 0.671897 0.750000
Si Si5 0.862585 0.486343 0.424386
Si Si6 0.647883 0.447590 0.454847
O O1 0.175079 0.823471 0.698949
O O2 0.178296 0.642436 0.615615
O O3 0.159079 0.838909 0.522758
O O4 0.974988 0.740856 0.540953
O O5 0.304159 0.294858 0.364264
O O6 0.402890 0.241385 0.255060
O O7 0.340074 0.073616 0.338384
O O8 0.250000 0.250000 0.500000
O O9 0.101057 0.059812 0.488793
O O10 0.438949 0.587461 0.656641
O O11 0.775476 0.505334 0.473437
O O12 0.000000 0.500000 0.500000
#
# Coordination Sequence:
#
# PCOD8154924 Si02
#       6
#     8   8   8   4   8   8
#     4  12  27  45  75 107 144 197 245 298 376 441
#     4  12  28  45  74 110 147 190 249 304 374 441
#     4  12  26  50  70 108 152 189 245 313 369 440
#     4  12  26  48  76 108 142 194 252 294 372 454
#     4  12  24  48  70 104 147 187 243 308 366 436
#     4  12  26  45  78 104 148 192 243 302 365 450
#
# _framework density 22.095314999999999
#
# number of rings (size 3 to 8) (size 9 to 14) (size 15 to 20)
#    0.000    0.000    7.273    1.091    7.636    0.727 
#    0.000    0.000    0.000    0.000    0.000    0.000 
#    0.000    0.000    0.000    0.000    0.000    0.000 
#
# Total GULP energy -272648.710261 kJ/mol
# GULP energy per Si atom -12393.123194 kJ/mol
# Density = 2.204503 g / cm^3
# Si number density = 22.095315 Si / 1000 Ang^3
#
#
#
# Elastic Constant Matrix: (Units=GPa)
#
#
# Indices 1 2 3 4 5 6 
#
# 1 92.9662 2.6542 48.3298 0.0000 3.7377 0.0000
# 2 2.6542 154.6690 59.8027 0.0000 -9.3467 0.0000
# 3 48.3298 59.8027 185.9263 0.0000 16.5081 0.0000
# 4 0.0000 0.0000 0.0000 47.9418 0.0000 -9.2283
# 5 3.7377 -9.3467 16.5081 0.0000 34.6007 0.0000
# 6 0.0000 0.0000 0.0000 -9.2283 0.0000 32.5205
#
#
#
# Elastic Compliance Matrix: (Units=1/GPa)
#
#
# Indices 1 2 3 4 5 6 
#
# 1 0.012649 0.001289 -0.003772 0.000000 0.000781 0.000000
# 2 0.001289 0.007886 -0.003183 0.000000 0.003510 0.000000
# 3 -0.003772 -0.003183 0.007751 0.000000 -0.004151 0.000000
# 4 0.000000 0.000000 0.000000 0.022064 0.000000 0.006261
# 5 0.000781 0.003510 -0.004151 0.000000 0.031745 0.000000
# 6 0.000000 0.000000 0.000000 0.006261 0.000000 0.032527
#
#
# Mechanical properties :
#
#
# Convention : Reuss Voigt Hill
#
# Bulk Modulus (GPa) = 58.98385 72.79276 65.88831
# Shear Modulus (GPa) = 37.99208 44.53093 41.26150
#
# Velocity S-wave (km/s) = 4.15114 4.49419 4.32607
# Velocity P-wave (km/s) = 7.05189 7.74253 7.40526
#
# Compressibility (1/GPa) = 0.01695379
#
# Stress axis : x y z
#
# Youngs Moduli (GPa) = 79.05599 126.80438 129.01052
#
# Poissons Ratio (x) = -0.16339 0.48661
# Poissons Ratio (y) = -0.10187 0.41066
# Poissons Ratio (z) = 0.29819 0.40364
#
# Static dielectric constant tensor:
#      x y z
#    x 4.091050 0.000000 0.030480 
#    y 0.000000 4.575400 0.000000 
#    z 0.030480 0.000000 4.355100 
# 
# 
# High freq. dielectric constant tensor:
#      x y z
#    x 1.881440 0.000000 0.005030 
#    y 0.000000 1.889820 0.000000 
#    z 0.005030 0.000000 1.868040 
# 
# From -- ./inp_files/142294.got.cif
#   From: 2010.06.25/outbox.cif.g09.slc.cpg/sg15_72_cif.got.tgz:142294.got - 2010.06.28 07:06:18.
