data_PCOD8154922
_publ_section_title
;
Structure prediction by ZEFSAII (Michael W. Deem and Ramdas Pophale) SiO2 
 PCOD8154922
Probable space group: C 2/C
;
_chemical_formula_sum "Si O2"
_cell_formula_units_Z 32
_cell_length_a 10.703071
_cell_length_b 13.922754
_cell_length_c 9.164921
_cell_angle_alpha 90.000000
_cell_angle_beta 66.251130
_cell_angle_gamma 90.000000
_cell_volume 1250.071804
_symmetry_space_group_name_H-M "C 2/C"
_symmetry_group_IT_number 15
_symmetry_cell_setting 'monoclinic'
loop_
_space_group_symop_operation_xyz
x,y,z
-x,y,1/2-z
-x,-y,-z
x,-y,1/2+z
1/2+x,1/2+y,z
1/2-x,1/2+y,1/2-z
1/2-x,1/2-y,-z
1/2+x,1/2-y,1/2+z
loop_
_atom_site_type_symbol
_atom_site_label
_atom_site_fract_x
_atom_site_fract_y
_atom_site_fract_z
Si Si1 0.580341 0.227049 0.855633
Si Si2 0.661648 0.569211 0.375234
Si Si3 0.646154 0.383990 0.208935
Si Si4 0.053502 0.413368 0.881427
O O1 0.500000 0.191934 0.750000
O O2 0.564721 0.341068 0.882356
O O3 0.738201 0.188391 0.783591
O O4 0.499477 0.186892 0.031738
O O5 0.603486 0.465484 0.350699
O O6 0.700873 0.571017 0.529248
O O7 0.784914 0.586147 0.205264
O O8 0.500000 0.330600 0.250000
O O9 0.000000 0.434754 0.750000
O O10 0.000000 0.500000 0.000000
#
# Coordination Sequence:
#
# PCOD8154922 Si02
#       4
#     8   8   8   8
#     4  12  29  48  79 117 154 203 260 317 386 463
#     4  12  27  50  79 113 154 206 257 322 387 460
#     4  12  28  51  77 112 158 200 254 320 393 456
#     4  12  24  47  80 111 157 204 259 314 385 461
#
# _framework density 25.598531000000001
#
# number of rings (size 3 to 8) (size 9 to 14) (size 15 to 20)
#    0.000    0.000    5.000    3.000    7.000    1.000 
#    0.000    0.000    0.000    0.000    0.000    0.000 
#    0.000    0.000    0.000    0.000    0.000    0.000 
#
# Total GULP energy -198346.276564 kJ/mol
# GULP energy per Si atom -12396.642285 kJ/mol
# Density = 2.554027 g / cm^3
# Si number density = 25.598531 Si / 1000 Ang^3
#
#
#
# Elastic Constant Matrix: (Units=GPa)
#
#
# Indices 1 2 3 4 5 6 
#
# 1 148.3905 25.7923 24.3452 0.0000 21.7054 0.0000
# 2 25.7923 113.7785 26.9956 0.0000 24.8872 0.0000
# 3 24.3452 26.9956 125.6092 0.0000 32.4761 0.0000
# 4 0.0000 0.0000 0.0000 0.9465 0.0000 20.3492
# 5 21.7054 24.8872 32.4761 0.0000 30.5401 0.0000
# 6 0.0000 0.0000 0.0000 20.3492 0.0000 25.3294
#
#
#
# Elastic Compliance Matrix: (Units=1/GPa)
#
#
# Indices 1 2 3 4 5 6 
#
# 1 0.007562 -0.000655 -0.000101 0.000000 -0.004733 0.000000
# 2 -0.000655 0.010752 -0.000054 0.000000 -0.008240 0.000000
# 3 -0.000101 -0.000054 0.010982 0.000000 -0.011562 0.000000
# 4 0.000000 0.000000 0.000000 -0.064928 0.000000 0.052162
# 5 -0.004733 -0.008240 -0.011562 0.000000 0.055118 0.000000
# 6 0.000000 0.000000 0.000000 0.052162 0.000000 -0.002426
#
#
# Mechanical properties :
#
#
# Convention : Reuss Voigt Hill
#
# Bulk Modulus (GPa) = 36.13134 60.22715 48.17924
# Shear Modulus (GPa) = 179.18806 32.07289 105.63047
#
# Velocity S-wave (km/s) = 8.37564 3.54350 6.43070
# Velocity P-wave (km/s) = 10.37691 6.34984 8.60235
#
# Compressibility (1/GPa) = 0.02767681
#
# Stress axis : x y z
#
# Youngs Moduli (GPa) = 132.24526 93.00164 91.06014
#
# Poissons Ratio (x) = 0.06091 0.00921
# Poissons Ratio (y) = 0.08661 0.00488
# Poissons Ratio (z) = 0.01337 0.00498
#
# Static dielectric constant tensor:
#      x y z
#    x 4.596630 0.000000 0.433180 
#    y 0.000000 4.311330 0.000000 
#    z 0.433180 0.000000 1.844710 
# 
# 
# High freq. dielectric constant tensor:
#      x y z
#    x 2.025690 0.000000 -0.009680 
#    y 0.000000 2.021990 0.000000 
#    z -0.009680 0.000000 2.046890 
# 
# From -- ./inp_files/27891.got.cif
#   From: 2010.06.25/outbox.cif.g09.slc.cpg/sg15_14_cif.got.tgz:27891.got - 2010.06.28 07:06:18.
