data_PCOD8154167
_publ_section_title
;
Structure prediction by ZEFSAII (Michael W. Deem and Ramdas Pophale) SiO2 
 PCOD8154167
Probable space group: C 2/C
;
_chemical_formula_sum "Si O2"
_cell_formula_units_Z 40
_cell_length_a 29.794149
_cell_length_b 8.623772
_cell_length_c 14.388236
_cell_angle_alpha 90.000000
_cell_angle_beta 27.079796
_cell_angle_gamma 90.000000
_cell_volume 1682.936000
_symmetry_space_group_name_H-M "C 2/C"
_symmetry_group_IT_number 15
_symmetry_cell_setting 'monoclinic'
loop_
_space_group_symop_operation_xyz
x,y,z
-x,y,1/2-z
-x,-y,-z
x,-y,1/2+z
1/2+x,1/2+y,z
1/2-x,1/2+y,1/2-z
1/2-x,1/2-y,-z
1/2+x,1/2-y,1/2+z
loop_
_atom_site_type_symbol
_atom_site_label
_atom_site_fract_x
_atom_site_fract_y
_atom_site_fract_z
Si Si1 0.298300 0.891471 0.576121
Si Si2 0.266991 0.932042 0.952441
Si Si3 0.500000 0.259730 0.750000
Si Si4 0.000000 0.742965 0.250000
Si Si5 0.677140 0.905448 0.319076
Si Si6 0.049729 0.996784 0.307712
O O1 0.401804 0.842246 0.430947
O O2 0.225271 0.750509 0.690754
O O3 0.314960 0.991444 0.453843
O O4 0.249028 0.003733 0.745608
O O5 0.343433 0.975670 0.728635
O O6 0.250000 0.750000 0.000000
O O7 0.165805 0.018012 0.110676
O O8 0.497428 0.361416 0.661199
O O9 0.917510 0.631099 0.443923
O O10 0.964282 0.841421 0.226806
O O11 0.000000 0.000000 0.500000
#
# Coordination Sequence:
#
# PCOD8154167 Si02
#       6
#     8   8   4   4   8   8
#     4  12  26  47  75 108 150 197 251 312 385 452
#     4  12  27  49  78 113 147 201 254 316 387 459
#     4  11  27  46  70 116 148 204 248 312 384 444
#     4  11  25  46  70 116 148 202 250 316 384 450
#     4  12  26  47  74 106 156 193 255 315 376 459
#     4  11  25  45  76 111 156 195 256 311 384 455
#
# _framework density 23.767987999999999
#
# number of rings (size 3 to 8) (size 9 to 14) (size 15 to 20)
#    0.000    0.400    2.000    6.000   11.200    0.000 
#    0.000    3.000    0.000    0.000    0.000    0.000 
#    0.000    0.000    0.000    0.000    0.000    0.000 
#
# Total GULP energy -247926.792955 kJ/mol
# GULP energy per Si atom -12396.339648 kJ/mol
# Density = 2.371389 g / cm^3
# Si number density = 23.767988 Si / 1000 Ang^3
#
#
#
# Elastic Constant Matrix: (Units=GPa)
#
#
# Indices 1 2 3 4 5 6 
#
# 1 166.0051 70.5564 52.2699 0.0000 34.2228 0.0000
# 2 70.5564 156.6494 58.0003 0.0000 26.3613 0.0000
# 3 52.2699 58.0003 106.6647 0.0000 24.2411 0.0000
# 4 0.0000 0.0000 0.0000 33.8171 0.0000 9.7156
# 5 34.2228 26.3613 24.2411 0.0000 59.5199 0.0000
# 6 0.0000 0.0000 0.0000 9.7156 0.0000 49.0633
#
#
#
# Elastic Compliance Matrix: (Units=1/GPa)
#
#
# Indices 1 2 3 4 5 6 
#
# 1 0.008326 -0.002505 -0.002074 0.000000 -0.002833 0.000000
# 2 -0.002505 0.008958 -0.003382 0.000000 -0.001149 0.000000
# 3 -0.002074 -0.003382 0.012804 0.000000 -0.002525 0.000000
# 4 0.000000 0.000000 0.000000 0.031355 0.000000 -0.006209
# 5 -0.002833 -0.001149 -0.002525 0.000000 0.019967 0.000000
# 6 0.000000 0.000000 0.000000 -0.006209 0.000000 0.021611
#
#
# Mechanical properties :
#
#
# Convention : Reuss Voigt Hill
#
# Bulk Modulus (GPa) = 70.59462 87.88583 79.24022
# Shear Modulus (GPa) = 40.43185 45.04623 42.73904
#
# Velocity S-wave (km/s) = 4.12892 4.35817 4.24509
# Velocity P-wave (km/s) = 7.24546 7.89821 7.57886
#
# Compressibility (1/GPa) = 0.01416539
#
# Stress axis : x y z
#
# Youngs Moduli (GPa) = 120.10891 111.63511 78.10004
#
# Poissons Ratio (x) = 0.27970 0.16196
# Poissons Ratio (y) = 0.30093 0.26413
# Poissons Ratio (z) = 0.24908 0.37754
#
# Static dielectric constant tensor:
#      x y z
#    x 4.474280 0.000000 0.155100 
#    y 0.000000 4.610430 0.000000 
#    z 0.155100 0.000000 4.353980 
# 
# 
# High freq. dielectric constant tensor:
#      x y z
#    x 1.956960 0.000000 0.019900 
#    y 0.000000 1.966500 0.000000 
#    z 0.019900 0.000000 1.931270 
# 
# From -- ./inp_files/181020.got.cif
#   From: 2010.06.25/outbox.cif.g09.slc.cpg/sg15_91_cif.got.tgz:181020.got - 2010.06.28 07:06:18.
