data_PCOD8154851
_publ_section_title
;
Structure prediction by ZEFSAII (Michael W. Deem and Ramdas Pophale) SiO2 
 PCOD8154851
Probable space group: C 2/C
;
_chemical_formula_sum "Si O2"
_cell_formula_units_Z 36
_cell_length_a 8.104703
_cell_length_b 16.718087
_cell_length_c 12.510544
_cell_angle_alpha 90.000000
_cell_angle_beta 95.157755
_cell_angle_gamma 90.000000
_cell_volume 1688.254172
_symmetry_space_group_name_H-M "C 2/C"
_symmetry_group_IT_number 15
_symmetry_cell_setting 'monoclinic'
loop_
_space_group_symop_operation_xyz
x,y,z
-x,y,1/2-z
-x,-y,-z
x,-y,1/2+z
1/2+x,1/2+y,z
1/2-x,1/2+y,1/2-z
1/2-x,1/2-y,-z
1/2+x,1/2-y,1/2+z
loop_
_atom_site_type_symbol
_atom_site_label
_atom_site_fract_x
_atom_site_fract_y
_atom_site_fract_z
Si Si1 0.000000 0.168061 0.250000
Si Si2 0.629626 0.444548 0.572400
Si Si3 0.687900 0.428734 0.226615
Si Si4 0.821153 0.292450 0.106950
Si Si5 0.588448 0.076838 0.559426
O O1 0.954966 0.116425 0.350949
O O2 0.858528 0.226040 0.198047
O O3 0.500000 0.500000 0.500000
O O4 0.744585 0.504668 0.645588
O O5 0.755090 0.395587 0.504128
O O6 0.500000 0.446410 0.250000
O O7 0.687887 0.344954 0.163621
O O8 0.826552 0.442836 0.323232
O O9 0.971239 0.347477 0.073026
O O10 0.750000 0.250000 0.000000
O O11 0.500000 0.000000 0.500000
#
# Coordination Sequence:
#
# PCOD8154851 Si02
#       5
#     4   8   8   8   8
#     4  12  26  46  72 106 146 180 234 302 356 416
#     4  12  24  44  77 107 141 192 245 286 360 439
#     4  12  24  47  74 105 143 192 241 293 356 443
#     4  12  28  48  70 107 151 183 236 308 367 417
#     4  12  26  45  75 105 144 191 243 295 357 438
#
# _framework density 21.323803000000002
#
# number of rings (size 3 to 8) (size 9 to 14) (size 15 to 20)
#    0.000    0.000    7.778    1.333    3.111    2.667 
#    0.000    0.000    0.000    0.000    0.000    0.000 
#    0.000    0.000    0.000    0.000    0.000    0.000 
#
# Total GULP energy -223002.609768 kJ/mol
# GULP energy per Si atom -12389.033876 kJ/mol
# Density = 2.127527 g / cm^3
# Si number density = 21.323803 Si / 1000 Ang^3
#
#
#
# Elastic Constant Matrix: (Units=GPa)
#
#
# Indices 1 2 3 4 5 6 
#
# 1 91.3750 28.2421 44.4163 0.0000 0.3778 0.0000
# 2 28.2421 109.7123 44.8881 0.0000 3.4754 0.0000
# 3 44.4163 44.8881 127.9941 0.0000 11.2448 0.0000
# 4 0.0000 0.0000 0.0000 62.5764 0.0000 -4.9460
# 5 0.3778 3.4754 11.2448 0.0000 48.9087 0.0000
# 6 0.0000 0.0000 0.0000 -4.9460 0.0000 40.7735
#
#
#
# Elastic Compliance Matrix: (Units=1/GPa)
#
#
# Indices 1 2 3 4 5 6 
#
# 1 0.013513 -0.001816 -0.004138 0.000000 0.000976 0.000000
# 2 -0.001816 0.010886 -0.003185 0.000000 -0.000027 0.000000
# 3 -0.004138 -0.003185 0.010556 0.000000 -0.002169 0.000000
# 4 0.000000 0.000000 0.000000 0.016135 0.000000 0.001957
# 5 0.000976 -0.000027 -0.002169 0.000000 0.020939 0.000000
# 6 0.000000 0.000000 0.000000 0.001957 0.000000 0.024763
#
#
# Mechanical properties :
#
#
# Convention : Reuss Voigt Hill
#
# Bulk Modulus (GPa) = 59.96451 62.68606 61.32529
# Shear Modulus (GPa) = 41.44880 44.55405 43.00143
#
# Velocity S-wave (km/s) = 4.41362 4.57596 4.49552
# Velocity P-wave (km/s) = 7.35903 7.57498 7.46778
#
# Compressibility (1/GPa) = 0.01667653
#
# Stress axis : x y z
#
# Youngs Moduli (GPa) = 74.00469 91.85790 94.72938
#
# Poissons Ratio (x) = 0.16685 0.39198
# Poissons Ratio (y) = 0.13442 0.30173
# Poissons Ratio (z) = 0.30622 0.29259
#
# Static dielectric constant tensor:
#      x y z
#    x 4.136380 0.000000 -0.142930 
#    y 0.000000 4.128190 0.000000 
#    z -0.142930 0.000000 4.211670 
# 
# 
# High freq. dielectric constant tensor:
#      x y z
#    x 1.834880 0.000000 -0.001680 
#    y 0.000000 1.839150 0.000000 
#    z -0.001680 0.000000 1.871550 
# 
# From -- ./inp_files/76439.got.cif
#   From: 2010.06.25/outbox.cif.g09.slc.cpg/sg15_39_cif.got.tgz:76439.got - 2010.06.28 07:06:18.
