data_PCOD8154655
_publ_section_title
;
Structure prediction by ZEFSAII (Michael W. Deem and Ramdas Pophale) SiO2 
 PCOD8154655
Probable space group: C 2/C
;
_chemical_formula_sum "Si O2"
_cell_formula_units_Z 32
_cell_length_a 13.842116
_cell_length_b 12.875266
_cell_length_c 20.154906
_cell_angle_alpha 90.000000
_cell_angle_beta 25.797692
_cell_angle_gamma 90.000000
_cell_volume 1563.231153
_symmetry_space_group_name_H-M "C 2/C"
_symmetry_group_IT_number 15
_symmetry_cell_setting 'monoclinic'
loop_
_space_group_symop_operation_xyz
x,y,z
-x,y,1/2-z
-x,-y,-z
x,-y,1/2+z
1/2+x,1/2+y,z
1/2-x,1/2+y,1/2-z
1/2-x,1/2-y,-z
1/2+x,1/2-y,1/2+z
loop_
_atom_site_type_symbol
_atom_site_label
_atom_site_fract_x
_atom_site_fract_y
_atom_site_fract_z
Si Si1 0.264867 0.636811 0.898081
Si Si2 0.491311 0.467288 0.147090
Si Si3 0.934786 0.797940 0.932655
Si Si4 0.380444 0.702149 0.618535
O O1 0.500000 0.703265 0.750000
O O2 0.280394 0.567697 0.956201
O O3 0.276644 0.560051 0.826450
O O4 0.051386 0.707495 0.031993
O O5 0.494039 0.589143 0.135263
O O6 0.471500 0.407533 0.089178
O O7 0.151304 0.725971 0.797449
O O8 0.750000 0.750000 0.000000
O O9 0.839435 0.803857 0.065714
#
# Coordination Sequence:
#
# PCOD8154655 Si02
#       4
#     8   8   8   8
#     4   8  20  40  69  95 123 158 223 264 326 374
#     4   9  22  42  66  98 126 168 214 271 325 377
#     4  12  27  41  64  94 140 171 220 261 323 387
#     4  12  22  45  66  96 129 173 217 268 322 385
#
# _framework density 20.470421000000002
#
# number of rings (size 3 to 8) (size 9 to 14) (size 15 to 20)
#    1.500    0.000    2.500    2.250    7.000    3.000 
#    0.000    5.000    0.000    0.000    0.000    0.000 
#    0.000    0.000    0.000    0.000    0.000    0.000 
#
# Total GULP energy -198238.261812 kJ/mol
# GULP energy per Si atom -12389.891363 kJ/mol
# Density = 2.042383 g / cm^3
# Si number density = 20.470421 Si / 1000 Ang^3
#
#
#
# Elastic Constant Matrix: (Units=GPa)
#
#
# Indices 1 2 3 4 5 6 
#
# 1 125.0404 42.5947 18.5769 0.0096 20.2078 -0.0192
# 2 42.5947 113.4251 22.6293 -0.0102 -1.3061 0.0028
# 3 18.5769 22.6293 62.1136 -0.0014 -0.8100 -0.0101
# 4 0.0096 -0.0102 -0.0014 16.8842 -0.0015 5.8659
# 5 20.2078 -1.3061 -0.8100 -0.0015 34.3807 0.0209
# 6 -0.0192 0.0028 -0.0101 5.8659 0.0209 24.1441
#
#
#
# Elastic Compliance Matrix: (Units=1/GPa)
#
#
# Indices 1 2 3 4 5 6 
#
# 1 0.010560 -0.003658 -0.001909 -0.000015 -0.006391 0.000017
# 2 -0.003658 0.010778 -0.002800 0.000012 0.002494 -0.000010
# 3 -0.001909 -0.002800 0.017709 -0.000001 0.001433 0.000005
# 4 -0.000015 0.000012 -0.000001 0.064687 0.000022 -0.015716
# 5 -0.006391 0.002494 0.001433 0.000022 0.032971 -0.000039
# 6 0.000017 -0.000010 0.000005 -0.015716 -0.000039 0.045236
#
#
# Mechanical properties :
#
#
# Convention : Reuss Voigt Hill
#
# Bulk Modulus (GPa) = 44.81755 52.02010 48.41883
# Shear Modulus (GPa) = 24.25860 29.53367 26.89613
#
# Velocity S-wave (km/s) = 3.44620 3.80247 3.62871
# Velocity P-wave (km/s) = 6.14625 6.68924 6.42348
#
# Compressibility (1/GPa) = 0.02231269
#
# Stress axis : x y z
#
# Youngs Moduli (GPa) = 94.69652 92.78558 56.46806
#
# Poissons Ratio (x) = 0.33945 0.10779
# Poissons Ratio (y) = 0.34644 0.15810
# Poissons Ratio (z) = 0.18076 0.25978
#
# Static dielectric constant tensor:
#      x y z
#    x 3.968430 0.000000 0.126780 
#    y 0.000000 3.442580 0.000020 
#    z 0.126780 0.000020 3.462480 
# 
# 
# High freq. dielectric constant tensor:
#      x y z
#    x 1.818990 0.000000 0.007590 
#    y 0.000000 1.785260 0.000000 
#    z 0.007590 0.000000 1.778820 
# 
# From -- ./inp_files/197556.got.cif
#   From: 2010.06.25/outbox.cif.g09.slc.cpg/sg15_99_cif.got.tgz:197556.got - 2010.06.28 07:06:18.
