data_PCOD8154070
_publ_section_title
;
Structure prediction by ZEFSAII (Michael W. Deem and Ramdas Pophale) SiO2 
 PCOD8154070
Probable space group: C 2/C
;
_chemical_formula_sum "Si O2"
_cell_formula_units_Z 32
_cell_length_a 13.117535
_cell_length_b 5.033581
_cell_length_c 23.756326
_cell_angle_alpha 90.000000
_cell_angle_beta 59.661777
_cell_angle_gamma 90.000000
_cell_volume 1353.782651
_symmetry_space_group_name_H-M "C 2/C"
_symmetry_group_IT_number 15
_symmetry_cell_setting 'monoclinic'
loop_
_space_group_symop_operation_xyz
x,y,z
-x,y,1/2-z
-x,-y,-z
x,-y,1/2+z
1/2+x,1/2+y,z
1/2-x,1/2+y,1/2-z
1/2-x,1/2-y,-z
1/2+x,1/2-y,1/2+z
loop_
_atom_site_type_symbol
_atom_site_label
_atom_site_fract_x
_atom_site_fract_y
_atom_site_fract_z
Si Si1 0.024098 0.749765 0.455388
Si Si2 0.096743 0.856705 0.790288
Si Si3 0.049659 0.651820 0.142625
Si Si4 0.241104 0.429276 0.162318
O O1 0.158713 0.754017 0.395719
O O2 0.000000 0.500000 0.500000
O O3 0.936846 0.748149 0.425767
O O4 0.000000 0.000000 0.500000
O O5 0.143424 0.770166 0.715824
O O6 0.013452 0.633270 0.840124
O O7 0.206362 0.888634 0.802602
O O8 0.028001 0.134074 0.801436
O O9 0.178514 0.622224 0.134540
#
# Coordination Sequence:
#
# PCOD8154070 Si02
#       4
#     8   8   8   8
#     4  11  25  45  67  98 136 180 236 277 319 399
#     4  11  25  43  68 105 136 168 223 280 345 417
#     4  11  26  45  70 102 135 176 225 278 343 410
#     4  11  25  45  71  98 141 181 216 284 348 392
#
# _framework density 23.637474000000001
#
# number of rings (size 3 to 8) (size 9 to 14) (size 15 to 20)
#    0.000    1.000    0.000    6.750    0.000   18.000 
#    0.000    0.000    0.000    0.000    0.000    0.000 
#    0.000    0.000    0.000    0.000    0.000    0.000 
#
# Total GULP energy -198499.810663 kJ/mol
# GULP energy per Si atom -12406.238166 kJ/mol
# Density = 2.358367 g / cm^3
# Si number density = 23.637474 Si / 1000 Ang^3
#
#
#
# Elastic Constant Matrix: (Units=GPa)
#
#
# Indices 1 2 3 4 5 6 
#
# 1 152.5363 49.7882 39.2552 -0.0067 33.8367 -0.0031
# 2 49.7882 127.3277 35.3412 -0.0240 13.2538 -0.0016
# 3 39.2552 35.3412 133.6557 -0.0076 25.4448 -0.0038
# 4 -0.0067 -0.0240 -0.0076 43.6852 -0.0024 0.4099
# 5 33.8367 13.2538 25.4448 -0.0024 32.0559 -0.0021
# 6 -0.0031 -0.0016 -0.0038 0.4099 -0.0021 39.8591
#
#
#
# Elastic Compliance Matrix: (Units=1/GPa)
#
#
# Indices 1 2 3 4 5 6 
#
# 1 0.009428 -0.002680 -0.000444 -0.000001 -0.008492 0.000000
# 2 -0.002680 0.009351 -0.001753 0.000004 0.000354 0.000000
# 3 -0.000444 -0.001753 0.009246 0.000000 -0.006146 0.000000
# 4 -0.000001 0.000004 0.000000 0.022893 0.000000 -0.000235
# 5 -0.008492 0.000354 -0.006146 0.000000 0.044891 0.000001
# 6 0.000000 0.000000 0.000000 -0.000235 0.000001 0.025091
#
#
# Mechanical properties :
#
#
# Convention : Reuss Voigt Hill
#
# Bulk Modulus (GPa) = 54.72711 73.58768 64.15739
# Shear Modulus (GPa) = 36.56451 42.39571 39.48011
#
# Velocity S-wave (km/s) = 3.93732 4.23966 4.09128
# Velocity P-wave (km/s) = 6.62366 7.42736 7.03699
#
# Compressibility (1/GPa) = 0.01827248
#
# Stress axis : x y z
#
# Youngs Moduli (GPa) = 106.06215 106.93711 108.15733
#
# Poissons Ratio (x) = 0.28655 0.04802
# Poissons Ratio (y) = 0.28420 0.18960
# Poissons Ratio (z) = 0.04709 0.18746
#
# Static dielectric constant tensor:
#      x y z
#    x 4.480140 -0.000010 0.155540 
#    y -0.000010 4.297040 -0.000010 
#    z 0.155540 -0.000010 4.327010 
# 
# 
# High freq. dielectric constant tensor:
#      x y z
#    x 1.946990 0.000000 0.014410 
#    y 0.000000 1.948540 0.000000 
#    z 0.014410 0.000000 1.928590 
# 
# From -- ./inp_files/241390.got.cif
#   From: 2010.06.25/outbox.cif.g09.slc.cpg/sg15_121_cif.got.tgz:241390.got - 2010.06.28 07:06:18.
