data_PCOD8154916
_publ_section_title
;
Structure prediction by ZEFSAII (Michael W. Deem and Ramdas Pophale) SiO2 
 PCOD8154916
Probable space group: C 2/C
;
_chemical_formula_sum "Si O2"
_cell_formula_units_Z 40
_cell_length_a 24.566449
_cell_length_b 14.826838
_cell_length_c 11.971872
_cell_angle_alpha 90.000000
_cell_angle_beta 24.748210
_cell_angle_gamma 90.000000
_cell_volume 1825.512272
_symmetry_space_group_name_H-M "C 2/C"
_symmetry_group_IT_number 15
_symmetry_cell_setting 'monoclinic'
loop_
_space_group_symop_operation_xyz
x,y,z
-x,y,1/2-z
-x,-y,-z
x,-y,1/2+z
1/2+x,1/2+y,z
1/2-x,1/2+y,1/2-z
1/2-x,1/2-y,-z
1/2+x,1/2-y,1/2+z
loop_
_atom_site_type_symbol
_atom_site_label
_atom_site_fract_x
_atom_site_fract_y
_atom_site_fract_z
Si Si1 0.856483 0.435787 0.983823
Si Si2 0.446529 0.600008 0.086134
Si Si3 0.235973 0.627473 0.302483
Si Si4 0.644516 0.671735 0.021502
Si Si5 0.223715 0.148802 0.530263
O O1 0.857039 0.543929 0.993504
O O2 0.750807 0.385178 0.256554
O O3 0.819914 0.414122 0.923607
O O4 0.000000 0.399999 0.750000
O O5 0.373948 0.612424 0.104333
O O6 0.348192 0.636121 0.364897
O O7 0.500000 0.500000 0.000000
O O8 0.576528 0.656357 0.845787
O O9 0.171063 0.721470 0.461169
O O10 0.261883 0.619589 0.123387
O O11 0.500000 0.648499 0.250000
O O12 0.250000 0.250000 0.500000
#
# Coordination Sequence:
#
# PCOD8154916 Si02
#       5
#     8   8   8   8   8
#     4  12  28  48  73 107 148 196 242 305 373 439
#     4  12  24  47  77 108 145 194 247 307 369 440
#     4  12  26  46  73 109 147 195 244 307 371 440
#     4  12  24  49  74 107 147 191 249 304 367 445
#     4  12  25  47  74 108 149 191 246 307 367 443
#
# _framework density 21.911657000000002
#
# number of rings (size 3 to 8) (size 9 to 14) (size 15 to 20)
#    0.000    0.000    6.000    3.000    2.800    0.800 
#    3.600    0.000    0.000    0.000    0.000    0.000 
#    0.000    0.000    0.000    0.000    0.000    0.000 
#
# Total GULP energy -247952.045576 kJ/mol
# GULP energy per Si atom -12397.602279 kJ/mol
# Density = 2.186179 g / cm^3
# Si number density = 21.911657 Si / 1000 Ang^3
#
#
#
# Elastic Constant Matrix: (Units=GPa)
#
#
# Indices 1 2 3 4 5 6 
#
# 1 186.5330 50.0820 73.1518 0.0000 2.1148 0.0000
# 2 50.0820 161.9790 63.0366 0.0000 14.6674 0.0000
# 3 73.1518 63.0366 135.9022 -0.0001 -13.4502 0.0000
# 4 0.0000 0.0000 -0.0001 41.0954 0.0000 1.4956
# 5 2.1148 14.6674 -13.4502 0.0000 49.3974 0.0000
# 6 0.0000 0.0000 0.0000 1.4956 0.0000 32.5961
#
#
#
# Elastic Compliance Matrix: (Units=1/GPa)
#
#
# Indices 1 2 3 4 5 6 
#
# 1 0.006937 -0.000678 -0.003524 0.000000 -0.001055 0.000000
# 2 -0.000678 0.008154 -0.003755 0.000000 -0.003415 0.000000
# 3 -0.003524 -0.003755 0.011430 0.000000 0.004378 0.000000
# 4 0.000000 0.000000 0.000000 0.024374 0.000000 -0.001118
# 5 -0.001055 -0.003415 0.004378 0.000000 0.022495 0.000000
# 6 0.000000 0.000000 0.000000 -0.001118 0.000000 0.030730
#
#
# Mechanical properties :
#
#
# Convention : Reuss Voigt Hill
#
# Bulk Modulus (GPa) = 94.27728 95.21724 94.74726
# Shear Modulus (GPa) = 40.46306 44.49403 42.47854
#
# Velocity S-wave (km/s) = 4.30192 4.51112 4.40776
# Velocity P-wave (km/s) = 8.23376 8.40732 8.32099
#
# Compressibility (1/GPa) = 0.01060701
#
# Stress axis : x y z
#
# Youngs Moduli (GPa) = 144.15638 122.64270 87.48823
#
# Poissons Ratio (x) = 0.08314 0.30830
# Poissons Ratio (y) = 0.09772 0.32853
# Poissons Ratio (z) = 0.50800 0.46053
#
# Static dielectric constant tensor:
#      x y z
#    x 4.329840 0.000000 0.677280 
#    y 0.000000 4.156300 0.000000 
#    z 0.677280 0.000000 8.072770 
# 
# 
# High freq. dielectric constant tensor:
#      x y z
#    x 1.881250 0.000000 -0.001640 
#    y 0.000000 1.880320 0.000000 
#    z -0.001640 0.000000 1.862630 
# 
# From -- ./inp_files/118691.got.cif
#   From: 2010.06.25/outbox.cif.g09.slc.cpg/sg15_60_cif.got.tgz:118691.got - 2010.06.28 07:06:18.
