data_PCOD8154751
_publ_section_title
;
Structure prediction by ZEFSAII (Michael W. Deem and Ramdas Pophale) SiO2 
 PCOD8154751
Probable space group: C 2/C
;
_chemical_formula_sum "Si O2"
_cell_formula_units_Z 40
_cell_length_a 12.545096
_cell_length_b 11.439811
_cell_length_c 27.406807
_cell_angle_alpha 90.000000
_cell_angle_beta 27.299908
_cell_angle_gamma 90.000000
_cell_volume 1803.976621
_symmetry_space_group_name_H-M "C 2/C"
_symmetry_group_IT_number 15
_symmetry_cell_setting 'monoclinic'
loop_
_space_group_symop_operation_xyz
x,y,z
-x,y,1/2-z
-x,-y,-z
x,-y,1/2+z
1/2+x,1/2+y,z
1/2-x,1/2+y,1/2-z
1/2-x,1/2-y,-z
1/2+x,1/2-y,1/2+z
loop_
_atom_site_type_symbol
_atom_site_label
_atom_site_fract_x
_atom_site_fract_y
_atom_site_fract_z
Si Si1 0.931683 0.169757 0.952354
Si Si2 0.195855 0.140543 0.210214
Si Si3 0.551366 0.416314 0.593152
Si Si4 0.739290 0.689804 0.371527
Si Si5 0.456202 0.067407 0.567584
O O1 0.173599 0.240045 0.857413
O O2 0.750000 0.250000 0.000000
O O3 0.822347 0.142033 0.049693
O O4 0.972154 0.056293 0.902375
O O5 0.102641 0.145015 0.302768
O O6 0.000000 0.119878 0.250000
O O7 0.354804 0.025516 0.146582
O O8 0.463949 0.364759 0.578210
O O9 0.814573 0.381255 0.499628
O O10 0.722597 0.829569 0.373056
O O11 0.000000 0.649740 0.250000
O O12 0.500000 0.000000 0.500000
#
# Coordination Sequence:
#
# PCOD8154751 Si02
#       5
#     8   8   8   8   8
#     4  12  25  49  69 102 145 185 235 296 357 428
#     4  12  25  43  72 103 134 185 238 289 350 425
#     4  12  27  45  73 103 144 188 233 296 367 423
#     4  12  27  46  71 106 143 187 237 294 365 426
#     4  12  23  45  71 101 140 184 241 295 340 426
#
# _framework density 22.173235999999999
#
# number of rings (size 3 to 8) (size 9 to 14) (size 15 to 20)
#    0.000    0.000    6.000    3.000    5.600    0.800 
#    0.000    0.000    0.000    0.000    0.000    0.000 
#    0.000    0.000    0.000    0.000    0.000    0.000 
#
# Total GULP energy -248032.505646 kJ/mol
# GULP energy per Si atom -12401.625282 kJ/mol
# Density = 2.212277 g / cm^3
# Si number density = 22.173236 Si / 1000 Ang^3
#
#
#
# Elastic Constant Matrix: (Units=GPa)
#
#
# Indices 1 2 3 4 5 6 
#
# 1 135.9956 1.3353 42.2290 -0.0024 3.5420 -0.0003
# 2 1.3353 70.2412 8.9939 0.0006 -1.6332 -0.0002
# 3 42.2290 8.9939 118.4419 -0.0200 2.7009 0.0009
# 4 -0.0024 0.0006 -0.0200 22.1823 0.0078 -6.1802
# 5 3.5420 -1.6332 2.7009 0.0078 40.8029 0.0006
# 6 -0.0003 -0.0002 0.0009 -6.1802 0.0006 45.8305
#
#
#
# Elastic Compliance Matrix: (Units=1/GPa)
#
#
# Indices 1 2 3 4 5 6 
#
# 1 0.008283 0.000209 -0.002957 -0.000002 -0.000515 0.000000
# 2 0.000209 0.014399 -0.001182 -0.000002 0.000636 0.000000
# 3 -0.002957 -0.001182 0.009597 0.000009 -0.000426 0.000001
# 4 -0.000002 -0.000002 0.000009 0.046841 -0.000010 0.006316
# 5 -0.000515 0.000636 -0.000426 -0.000010 0.024606 -0.000002
# 6 0.000000 0.000000 0.000001 0.006316 -0.000002 0.022671
#
#
# Mechanical properties :
#
#
# Convention : Reuss Voigt Hill
#
# Bulk Modulus (GPa) = 40.95429 47.75502 44.35465
# Shear Modulus (GPa) = 35.11301 39.90452 37.50877
#
# Velocity S-wave (km/s) = 3.98373 4.24685 4.11740
# Velocity P-wave (km/s) = 6.29845 6.75512 6.53078
#
# Compressibility (1/GPa) = 0.02441747
#
# Stress axis : x y z
#
# Youngs Moduli (GPa) = 120.73179 69.44977 104.20091
#
# Poissons Ratio (x) = -0.01453 0.30815
# Poissons Ratio (y) = -0.02526 0.12322
# Poissons Ratio (z) = 0.35704 0.08212
#
# Static dielectric constant tensor:
#      x y z
#    x 4.233390 0.000310 -0.187810 
#    y 0.000310 -0.385550 -0.001480 
#    z -0.187810 -0.001480 4.534530 
# 
# 
# High freq. dielectric constant tensor:
#      x y z
#    x 1.890350 0.000000 -0.003800 
#    y 0.000000 1.873680 0.000000 
#    z -0.003800 0.000000 1.876580 
# 
# From -- ./inp_files/122778.got.cif
#   From: 2010.06.25/outbox.cif.g09.slc.cpg/sg15_62_cif.got.tgz:122778.got - 2010.06.28 07:06:18.
