data_PCOD8154199
_publ_section_title
;
Structure prediction by ZEFSAII (Michael W. Deem and Ramdas Pophale) SiO2 
 PCOD8154199
Probable space group: C 2/C
;
_chemical_formula_sum "Si O2"
_cell_formula_units_Z 56
_cell_length_a 12.114201
_cell_length_b 14.028849
_cell_length_c 28.569178
_cell_angle_alpha 90.000000
_cell_angle_beta 29.831134
_cell_angle_gamma 90.000000
_cell_volume 2415.238375
_symmetry_space_group_name_H-M "C 2/C"
_symmetry_group_IT_number 15
_symmetry_cell_setting 'monoclinic'
loop_
_space_group_symop_operation_xyz
x,y,z
-x,y,1/2-z
-x,-y,-z
x,-y,1/2+z
1/2+x,1/2+y,z
1/2-x,1/2+y,1/2-z
1/2-x,1/2-y,-z
1/2+x,1/2-y,1/2+z
loop_
_atom_site_type_symbol
_atom_site_label
_atom_site_fract_x
_atom_site_fract_y
_atom_site_fract_z
Si Si1 0.980928 0.457174 0.366053
Si Si2 0.605628 0.507866 0.569922
Si Si3 0.237934 0.803723 0.672868
Si Si4 0.725978 0.089270 0.647605
Si Si5 0.761248 0.868981 0.726540
Si Si6 0.096717 0.602432 0.975963
Si Si7 0.240050 0.183529 0.676766
O O1 0.851929 0.491799 0.459090
O O2 0.790828 0.411803 0.402559
O O3 0.095314 0.541143 0.293581
O O4 0.162680 0.379557 0.316040
O O5 0.440532 0.536597 0.588862
O O6 0.509233 0.412063 0.629387
O O7 0.657191 0.588273 0.590638
O O8 0.236729 0.695399 0.660283
O O9 0.272029 0.806293 0.715521
O O10 0.435324 0.852258 0.573127
O O11 0.000000 0.853376 0.750000
O O12 0.500000 0.040767 0.750000
O O13 0.720653 0.795551 0.698322
O O14 0.110556 0.670358 0.925137
O O15 0.000000 0.500000 0.000000
O O16 0.000000 0.144207 0.750000
#
# Coordination Sequence:
#
# PCOD8154199 Si02
#       7
#     8   8   8   8   8   8   8
#     4  12  26  52  75 111 151 202 251 309 389 448
#     4  12  26  47  78 107 152 199 255 316 376 455
#     4  11  25  46  74 107 151 198 254 309 376 458
#     4  11  25  46  73 102 148 201 250 308 382 446
#     4  12  27  47  77 110 150 200 257 308 380 449
#     4  12  25  48  75 114 149 201 251 313 390 449
#     4  12  29  47  78 115 155 196 254 320 379 456
#
# _framework density 23.186118
#
# number of rings (size 3 to 8) (size 9 to 14) (size 15 to 20)
#    0.000    0.286    4.286    3.857    6.000    3.429 
#    0.000    0.000    0.000    0.000    0.000    0.000 
#    0.000    0.000    0.000    0.000    0.000    0.000 
#
# Total GULP energy -347004.727643 kJ/mol
# GULP energy per Si atom -12393.025987 kJ/mol
# Density = 2.313335 g / cm^3
# Si number density = 23.186118 Si / 1000 Ang^3
#
#
#
# Elastic Constant Matrix: (Units=GPa)
#
#
# Indices 1 2 3 4 5 6 
#
# 1 162.7392 74.1466 35.5464 0.1601 -5.2419 -0.0382
# 2 74.1466 131.9700 49.8204 0.0922 -0.0417 -0.0307
# 3 35.5464 49.8204 123.6101 0.2326 11.6273 -0.0279
# 4 0.1601 0.0922 0.2326 19.0421 -0.1438 -2.2011
# 5 -5.2419 -0.0417 11.6273 -0.1438 48.6090 0.0182
# 6 -0.0382 -0.0307 -0.0279 -2.2011 0.0182 38.1743
#
#
#
# Elastic Compliance Matrix: (Units=1/GPa)
#
#
# Indices 1 2 3 4 5 6 
#
# 1 0.008350 -0.004419 -0.000721 -0.000032 0.001069 0.000002
# 2 -0.004419 0.011314 -0.003320 0.000026 0.000327 0.000004
# 3 -0.000721 -0.003320 0.009865 -0.000117 -0.002441 -0.000002
# 4 -0.000032 0.000026 -0.000117 0.052870 0.000180 0.003048
# 5 0.001069 0.000327 -0.002441 0.000180 0.021272 0.000000
# 6 0.000002 0.000004 -0.000002 0.003048 0.000000 0.026371
#
#
# Mechanical properties :
#
#
# Convention : Reuss Voigt Hill
#
# Bulk Modulus (GPa) = 79.30508 81.92733 80.61620
# Shear Modulus (GPa) = 33.07635 38.41881 35.74758
#
# Velocity S-wave (km/s) = 3.78108 4.07501 3.93079
# Velocity P-wave (km/s) = 7.30342 7.58632 7.44622
#
# Compressibility (1/GPa) = 0.01260953
#
# Stress axis : x y z
#
# Youngs Moduli (GPa) = 119.75988 88.38837 101.36744
#
# Poissons Ratio (x) = 0.39059 0.07305
# Poissons Ratio (y) = 0.52922 0.33654
# Poissons Ratio (z) = 0.08630 0.29345
#
# Static dielectric constant tensor:
#      x y z
#    x 5.216910 -0.000080 0.147930 
#    y -0.000080 3.953090 -0.000250 
#    z 0.147930 -0.000250 4.112640 
# 
# 
# High freq. dielectric constant tensor:
#      x y z
#    x 1.938980 0.000000 0.007140 
#    y 0.000000 1.906330 0.000000 
#    z 0.007140 0.000000 1.921080 
# 
# From -- ./inp_files/311296.got.cif
#   From: 2010.06.25/outbox.cif.g09.slc.cpg/sg15_156_cif.got.tgz:311296.got - 2010.06.28 07:06:18.
