data_PCOD8154213
_publ_section_title
;
Structure prediction by ZEFSAII (Michael W. Deem and Ramdas Pophale) SiO2 
 PCOD8154213
Probable space group: C 2/C
;
_chemical_formula_sum "Si O2"
_cell_formula_units_Z 40
_cell_length_a 11.335746
_cell_length_b 27.402997
_cell_length_c 8.380687
_cell_angle_alpha 90.000000
_cell_angle_beta 137.207725
_cell_angle_gamma 90.000000
_cell_volume 1768.546542
_symmetry_space_group_name_H-M "C 2/C"
_symmetry_group_IT_number 15
_symmetry_cell_setting 'monoclinic'
loop_
_space_group_symop_operation_xyz
x,y,z
-x,y,1/2-z
-x,-y,-z
x,-y,1/2+z
1/2+x,1/2+y,z
1/2-x,1/2+y,1/2-z
1/2-x,1/2-y,-z
1/2+x,1/2-y,1/2+z
loop_
_atom_site_type_symbol
_atom_site_label
_atom_site_fract_x
_atom_site_fract_y
_atom_site_fract_z
Si Si1 0.685358 0.880563 0.727729
Si Si2 0.140138 0.782697 0.272907
Si Si3 0.491654 0.445630 0.929486
Si Si4 0.642656 0.786178 0.504879
Si Si5 0.207722 0.620686 0.627090
O O1 0.744172 0.830993 0.692290
O O2 0.482088 0.892653 0.492580
O O3 0.804025 0.924491 0.787027
O O4 0.712778 0.876412 0.942058
O O5 0.250000 0.750000 0.500000
O O6 0.053848 0.746832 0.055795
O O7 0.245010 0.823789 0.277246
O O8 0.000000 0.808529 0.250000
O O9 0.500000 0.444569 0.750000
O O10 0.500000 0.500000 0.000000
O O11 0.651530 0.416470 0.164905
O O12 0.750000 0.750000 0.500000
O O13 0.500000 0.810921 0.250000
#
# Coordination Sequence:
#
# PCOD8154213 Si02
#       5
#     8   8   8   8   8
#     4  11  25  48  73 107 150 194 245 308 369 443
#     4  12  23  41  66 102 146 205 251 292 357 441
#     4  12  29  51  80 111 145 188 244 310 378 445
#     4  12  27  40  63 105 153 195 250 302 363 433
#     4  11  25  46  77 107 146 197 248 303 372 443
#
# _framework density 22.617443000000002
#
# number of rings (size 3 to 8) (size 9 to 14) (size 15 to 20)
#    0.000    0.400    2.000    6.600    8.400    0.800 
#    0.000    0.000    0.000    0.000    0.000    0.000 
#    0.000    0.000    0.000    0.000    0.000    0.000 
#
# Total GULP energy -247917.146611 kJ/mol
# GULP energy per Si atom -12395.857331 kJ/mol
# Density = 2.256596 g / cm^3
# Si number density = 22.617443 Si / 1000 Ang^3
#
#
#
# Elastic Constant Matrix: (Units=GPa)
#
#
# Indices 1 2 3 4 5 6 
#
# 1 124.6685 63.9797 54.4537 0.0000 9.0272 0.0000
# 2 63.9797 179.7077 74.9313 0.0000 11.6452 0.0000
# 3 54.4537 74.9313 138.9551 0.0000 0.3171 0.0000
# 4 0.0000 0.0000 0.0000 49.2220 0.0000 -2.0028
# 5 9.0272 11.6452 0.3171 0.0000 45.2608 0.0000
# 6 0.0000 0.0000 0.0000 -2.0028 0.0000 38.9976
#
#
#
# Elastic Compliance Matrix: (Units=1/GPa)
#
#
# Indices 1 2 3 4 5 6 
#
# 1 0.010650 -0.002527 -0.002808 0.000000 -0.001454 0.000000
# 2 -0.002527 0.007931 -0.003283 0.000000 -0.001514 0.000000
# 3 -0.002808 -0.003283 0.010064 0.000000 0.001334 0.000000
# 4 0.000000 0.000000 0.000000 0.020359 0.000000 0.001046
# 5 -0.001454 -0.001514 0.001334 0.000000 0.022764 0.000000
# 6 0.000000 0.000000 0.000000 0.001046 0.000000 0.025696
#
#
# Mechanical properties :
#
#
# Convention : Reuss Voigt Hill
#
# Bulk Modulus (GPa) = 87.64170 92.22896 89.93533
# Shear Modulus (GPa) = 42.19317 43.36052 42.77684
#
# Velocity S-wave (km/s) = 4.32385 4.38325 4.35365
# Velocity P-wave (km/s) = 7.98506 8.15374 8.06984
#
# Compressibility (1/GPa) = 0.01141009
#
# Stress axis : x y z
#
# Youngs Moduli (GPa) = 93.90103 126.08413 99.36130
#
# Poissons Ratio (x) = 0.31856 0.27896
# Poissons Ratio (y) = 0.23725 0.32624
# Poissons Ratio (z) = 0.26363 0.41398
#
# Static dielectric constant tensor:
#      x y z
#    x 5.041300 0.000000 0.008720 
#    y 0.000000 4.312340 0.000000 
#    z 0.008720 0.000000 4.576320 
# 
# 
# High freq. dielectric constant tensor:
#      x y z
#    x 1.906640 0.000000 -0.010680 
#    y 0.000000 1.877320 0.000000 
#    z -0.010680 0.000000 1.909720 
# 
# From -- ./inp_files/35463.got.cif
#   From: 2010.06.25/outbox.cif.g09.slc.cpg/sg15_18_cif.got.tgz:35463.got - 2010.06.28 07:06:18.
