data_PCOD8154487
_publ_section_title
;
Structure prediction by ZEFSAII (Michael W. Deem and Ramdas Pophale) SiO2 
 PCOD8154487
Probable space group: C 2/C
;
_chemical_formula_sum "Si O2"
_cell_formula_units_Z 48
_cell_length_a 14.271853
_cell_length_b 21.780873
_cell_length_c 10.947196
_cell_angle_alpha 90.000000
_cell_angle_beta 44.079013
_cell_angle_gamma 90.000000
_cell_volume 2367.277368
_symmetry_space_group_name_H-M "C 2/C"
_symmetry_group_IT_number 15
_symmetry_cell_setting 'monoclinic'
loop_
_space_group_symop_operation_xyz
x,y,z
-x,y,1/2-z
-x,-y,-z
x,-y,1/2+z
1/2+x,1/2+y,z
1/2-x,1/2+y,1/2-z
1/2-x,1/2-y,-z
1/2+x,1/2-y,1/2+z
loop_
_atom_site_type_symbol
_atom_site_label
_atom_site_fract_x
_atom_site_fract_y
_atom_site_fract_z
Si Si1 0.128223 0.250617 0.422076
Si Si2 0.232943 0.627555 0.147713
Si Si3 0.377684 0.313976 0.080508
Si Si4 0.128636 0.911452 0.209565
Si Si5 0.130039 0.968404 0.817445
Si Si6 0.500000 0.818276 0.750000
Si Si7 0.500000 0.379202 0.750000
O O1 0.193119 0.183417 0.356031
O O2 0.222985 0.294893 0.251468
O O3 0.978455 0.243777 0.505221
O O4 0.109925 0.275339 0.577808
O O5 0.268909 0.563519 0.180596
O O6 0.072714 0.640790 0.287373
O O7 0.270419 0.625815 0.969458
O O8 0.421022 0.368866 0.132174
O O9 0.395482 0.337596 0.925526
O O10 0.000000 0.931569 0.250000
O O11 0.204047 0.973320 0.185926
O O12 0.092541 0.919238 0.750889
O O13 0.000000 0.000000 0.000000
#
# Coordination Sequence:
#
# PCOD8154487 Si02
#       7
#     8   8   8   8   8   4   4
#     4  12  22  40  64  98 129 167 211 268 323 390
#     4  12  23  39  64  97 126 162 215 269 329 378
#     4  12  25  38  64  98 131 170 214 260 327 390
#     4  12  20  36  63  97 122 152 209 276 321 362
#     4  12  21  38  66  95 124 163 218 273 320 375
#     4  12  24  38  67  94 135 170 208 278 328 378
#     4  12  22  40  61  94 135 168 208 266 324 376
#
# _framework density 20.276458000000002
#
# number of rings (size 3 to 8) (size 9 to 14) (size 15 to 20)
#    0.000    0.000   10.833    1.500    0.000    0.667 
#    0.000    0.833    0.000    0.000    0.000    0.000 
#    0.000    0.000    0.000    0.000    0.000    0.000 
#
# Total GULP energy -297524.793286 kJ/mol
# GULP energy per Si atom -12396.866387 kJ/mol
# Density = 2.023031 g / cm^3
# Si number density = 20.276458 Si / 1000 Ang^3
#
#
#
# Elastic Constant Matrix: (Units=GPa)
#
#
# Indices 1 2 3 4 5 6 
#
# 1 79.7396 41.6312 28.9365 0.0000 -0.8764 0.0000
# 2 41.6312 105.7425 43.9121 0.0000 4.1381 0.0000
# 3 28.9365 43.9121 106.3971 0.0000 15.8307 0.0000
# 4 0.0000 0.0000 0.0000 27.1033 0.0000 8.3611
# 5 -0.8764 4.1381 15.8307 0.0000 35.5311 0.0000
# 6 0.0000 0.0000 0.0000 8.3611 0.0000 42.0015
#
#
#
# Elastic Compliance Matrix: (Units=1/GPa)
#
#
# Indices 1 2 3 4 5 6 
#
# 1 0.016331 -0.005475 -0.002503 0.000000 0.002156 0.000000
# 2 -0.005475 0.013271 -0.004004 0.000000 0.000103 0.000000
# 3 -0.002503 -0.004004 0.012500 0.000000 -0.005165 0.000000
# 4 0.000000 0.000000 0.000000 0.039310 0.000000 -0.007825
# 5 0.002156 0.000103 -0.005165 0.000000 0.030487 0.000000
# 6 0.000000 0.000000 0.000000 -0.007825 0.000000 0.025366
#
#
# Mechanical properties :
#
#
# Convention : Reuss Voigt Hill
#
# Bulk Modulus (GPa) = 55.12600 57.87096 56.49848
# Shear Modulus (GPa) = 29.89117 32.75381 31.32249
#
# Velocity S-wave (km/s) = 3.84367 4.02352 3.93462
# Velocity P-wave (km/s) = 6.85162 7.08434 6.96895
#
# Compressibility (1/GPa) = 0.01814026
#
# Stress axis : x y z
#
# Youngs Moduli (GPa) = 61.23351 75.35320 79.99855
#
# Poissons Ratio (x) = 0.41253 0.20021
# Poissons Ratio (y) = 0.33523 0.32028
# Poissons Ratio (z) = 0.15325 0.30168
#
# Static dielectric constant tensor:
#      x y z
#    x 3.543310 0.000000 0.185180 
#    y 0.000000 3.948980 0.000000 
#    z 0.185180 0.000000 3.791300 
# 
# 
# High freq. dielectric constant tensor:
#      x y z
#    x 1.769250 0.000000 0.014040 
#    y 0.000000 1.798990 0.000000 
#    z 0.014040 0.000000 1.780600 
# 
# From -- ./inp_files/100020.got.cif
#   From: 2010.06.25/outbox.cif.g09.slc.cpg/sg15_51_cif.got.tgz:100020.got - 2010.06.28 07:06:18.
