data_PCOD8154755
_publ_section_title
;
Structure prediction by ZEFSAII (Michael W. Deem and Ramdas Pophale) SiO2 
 PCOD8154755
Probable space group: C 2/C
;
_chemical_formula_sum "Si O2"
_cell_formula_units_Z 44
_cell_length_a 20.092449
_cell_length_b 6.426093
_cell_length_c 15.140247
_cell_angle_alpha 90.000000
_cell_angle_beta 74.126292
_cell_angle_gamma 90.000000
_cell_volume 1880.302970
_symmetry_space_group_name_H-M "C 2/C"
_symmetry_group_IT_number 15
_symmetry_cell_setting 'monoclinic'
loop_
_space_group_symop_operation_xyz
x,y,z
-x,y,1/2-z
-x,-y,-z
x,-y,1/2+z
1/2+x,1/2+y,z
1/2-x,1/2+y,1/2-z
1/2-x,1/2-y,-z
1/2+x,1/2-y,1/2+z
loop_
_atom_site_type_symbol
_atom_site_label
_atom_site_fract_x
_atom_site_fract_y
_atom_site_fract_z
Si Si1 0.500000 0.689952 0.250000
Si Si2 0.648262 0.777278 0.511686
Si Si3 0.506902 0.395001 0.089550
Si Si4 0.386003 0.888362 0.618810
Si Si5 0.360155 0.048297 0.814189
Si Si6 0.725944 0.617854 0.926894
O O1 0.477845 0.546755 0.176088
O O2 0.568201 0.825129 0.200660
O O3 0.586857 0.645660 0.578619
O O4 0.663651 0.937323 0.584962
O O5 0.710924 0.622669 0.462769
O O6 0.623179 0.897712 0.431960
O O7 0.466318 0.175951 0.098649
O O8 0.500000 0.500000 0.000000
O O9 0.362837 0.903599 0.728496
O O10 0.345584 0.700255 0.587632
O O11 0.286265 0.165760 0.831139
O O12 0.750000 0.750000 0.000000
#
# Coordination Sequence:
#
# PCOD8154755 Si02
#       6
#     4   8   8   8   8   8
#     4  12  26  48  74 112 146 196 244 316 370 440
#     4  12  25  50  72 107 149 191 242 311 368 443
#     4  12  23  45  75 103 144 186 243 300 370 442
#     4  12  27  45  74 112 140 197 249 297 380 443
#     4  12  27  45  75 103 150 190 249 301 370 449
#     4  12  27  48  72 106 146 199 242 308 372 437
#
# _framework density 23.400483000000001
#
# number of rings (size 3 to 8) (size 9 to 14) (size 15 to 20)
#    0.000    0.000    3.636    6.545    2.545    0.000 
#    0.000    0.000    0.000    0.000    0.000    0.000 
#    0.000    0.000    0.000    0.000    0.000    0.000 
#
# Total GULP energy -272601.689216 kJ/mol
# GULP energy per Si atom -12390.985873 kJ/mol
# Density = 2.334722 g / cm^3
# Si number density = 23.400483 Si / 1000 Ang^3
#
#
#
# Elastic Constant Matrix: (Units=GPa)
#
#
# Indices 1 2 3 4 5 6 
#
# 1 101.5272 42.0376 48.4070 0.0000 -22.3606 0.0000
# 2 42.0376 114.9627 52.9105 0.0000 -4.1627 0.0000
# 3 48.4070 52.9105 140.1239 0.0000 -3.3198 0.0000
# 4 0.0000 0.0000 0.0000 50.3202 0.0000 0.3487
# 5 -22.3606 -4.1627 -3.3198 0.0000 53.7188 0.0000
# 6 0.0000 0.0000 0.0000 0.3487 0.0000 49.6398
#
#
#
# Elastic Compliance Matrix: (Units=1/GPa)
#
#
# Indices 1 2 3 4 5 6 
#
# 1 0.014080 -0.003357 -0.003469 0.000000 0.005386 0.000000
# 2 -0.003357 0.011346 -0.003141 0.000000 -0.000712 0.000000
# 3 -0.003469 -0.003141 0.009495 0.000000 -0.001101 0.000000
# 4 0.000000 0.000000 0.000000 0.019874 0.000000 -0.000140
# 5 0.005386 -0.000712 -0.001101 0.000000 0.020734 0.000000
# 6 0.000000 0.000000 0.000000 -0.000140 0.000000 0.020146
#
#
# Mechanical properties :
#
#
# Convention : Reuss Voigt Hill
#
# Bulk Modulus (GPa) = 66.72703 71.48042 69.10373
# Shear Modulus (GPa) = 41.45787 44.95301 43.20544
#
# Velocity S-wave (km/s) = 4.21368 4.38771 4.30158
# Velocity P-wave (km/s) = 7.22846 7.50215 7.36657
#
# Compressibility (1/GPa) = 0.01498643
#
# Stress axis : x y z
#
# Youngs Moduli (GPa) = 71.02451 88.13688 105.31889
#
# Poissons Ratio (x) = 0.29587 0.36533
# Poissons Ratio (y) = 0.23842 0.33085
# Poissons Ratio (z) = 0.24637 0.27688
#
# Static dielectric constant tensor:
#      x y z
#    x 3.766050 0.000000 0.304100 
#    y 0.000000 3.353570 0.000000 
#    z 0.304100 0.000000 4.145600 
# 
# 
# High freq. dielectric constant tensor:
#      x y z
#    x 1.953280 0.000000 -0.010240 
#    y 0.000000 1.919540 0.000000 
#    z -0.010240 0.000000 1.938490 
# 
# From -- ./inp_files/212823.got.cif
#   From: 2010.06.25/outbox.cif.g09.slc.cpg/sg15_107_cif.got.tgz:212823.got - 2010.06.28 07:06:18.
