data_PCOD8154919
_publ_section_title
;
Structure prediction by ZEFSAII (Michael W. Deem and Ramdas Pophale) SiO2 
 PCOD8154919
Probable space group: C 2/C
;
_chemical_formula_sum "Si O2"
_cell_formula_units_Z 24
_cell_length_a 11.443892
_cell_length_b 18.128162
_cell_length_c 5.131289
_cell_angle_alpha 90.000000
_cell_angle_beta 67.091872
_cell_angle_gamma 90.000000
_cell_volume 980.561908
_symmetry_space_group_name_H-M "C 2/C"
_symmetry_group_IT_number 15
_symmetry_cell_setting 'monoclinic'
loop_
_space_group_symop_operation_xyz
x,y,z
-x,y,1/2-z
-x,-y,-z
x,-y,1/2+z
1/2+x,1/2+y,z
1/2-x,1/2+y,1/2-z
1/2-x,1/2-y,-z
1/2+x,1/2-y,1/2+z
loop_
_atom_site_type_symbol
_atom_site_label
_atom_site_fract_x
_atom_site_fract_y
_atom_site_fract_z
Si Si1 0.500000 0.397100 0.250000
Si Si2 0.366635 0.205276 0.509782
Si Si3 0.272252 0.043518 0.508585
Si Si4 0.500000 0.703033 0.250000
O O1 0.379002 0.449162 0.388456
O O2 0.530559 0.348083 0.476794
O O3 0.500000 0.221623 0.250000
O O4 0.250000 0.250000 0.500000
O O5 0.339153 0.119117 0.530685
O O6 0.383509 0.240989 0.783963
O O7 0.316583 0.015338 0.187375
#
# Coordination Sequence:
#
# PCOD8154919 Si02
#       4
#     4   8   8   4
#     4  12  24  47  78 111 152 198 260 322 374 451
#     4  12  28  50  81 114 154 202 261 319 381 459
#     4  12  28  47  74 111 159 202 251 312 389 458
#     4  12  24  47  82 111 148 194 268 318 378 437
#
# _framework density 24.475763000000001
#
# number of rings (size 3 to 8) (size 9 to 14) (size 15 to 20)
#    0.000    0.000    5.000    3.000    4.667    4.000 
#    0.000    0.000    0.000    0.000    0.000    0.000 
#    0.000    0.000    0.000    0.000    0.000    0.000 
#
# Total GULP energy -148719.060314 kJ/mol
# GULP energy per Si atom -12393.255026 kJ/mol
# Density = 2.442005 g / cm^3
# Si number density = 24.475763 Si / 1000 Ang^3
#
#
#
# Elastic Constant Matrix: (Units=GPa)
#
#
# Indices 1 2 3 4 5 6 
#
# 1 132.7718 35.8833 46.5579 0.0000 19.3494 0.0000
# 2 35.8833 125.8395 29.2190 0.0000 23.9792 0.0000
# 3 46.5579 29.2190 100.5829 0.0000 27.8955 0.0000
# 4 0.0000 0.0000 0.0000 32.3416 0.0000 16.5481
# 5 19.3494 23.9792 27.8955 0.0000 56.9824 0.0000
# 6 0.0000 0.0000 0.0000 16.5481 0.0000 32.6602
#
#
#
# Elastic Compliance Matrix: (Units=1/GPa)
#
#
# Indices 1 2 3 4 5 6 
#
# 1 0.009371 -0.001694 -0.003657 0.000000 -0.000679 0.000000
# 2 -0.001694 0.009216 -0.001131 0.000000 -0.002750 0.000000
# 3 -0.003657 -0.001131 0.013292 0.000000 -0.004789 0.000000
# 4 0.000000 0.000000 0.000000 0.041741 0.000000 -0.021149
# 5 -0.000679 -0.002750 -0.004789 0.000000 0.021281 0.000000
# 6 0.000000 0.000000 0.000000 -0.021149 0.000000 0.041334
#
#
# Mechanical properties :
#
#
# Convention : Reuss Voigt Hill
#
# Bulk Modulus (GPa) = 52.86713 64.72384 58.79549
# Shear Modulus (GPa) = 32.15358 40.89910 36.52634
#
# Velocity S-wave (km/s) = 3.62842 4.09223 3.86728
# Velocity P-wave (km/s) = 6.26104 6.98784 6.63440
#
# Compressibility (1/GPa) = 0.01891534
#
# Stress axis : x y z
#
# Youngs Moduli (GPa) = 106.71399 108.50638 75.23527
#
# Poissons Ratio (x) = 0.18376 0.27516
# Poissons Ratio (y) = 0.18072 0.08507
# Poissons Ratio (z) = 0.39029 0.12269
#
# Static dielectric constant tensor:
#      x y z
#    x 4.547570 0.000000 0.073510 
#    y 0.000000 4.687710 0.000000 
#    z 0.073510 0.000000 4.645860 
# 
# 
# High freq. dielectric constant tensor:
#      x y z
#    x 1.986850 0.000000 0.020170 
#    y 0.000000 1.993330 0.000000 
#    z 0.020170 0.000000 1.966840 
# 
# From -- ./inp_files/3236.got.cif
#   From: 2010.06.25/outbox.cif.g09.slc.cpg/sg15_2_cif.got.tgz:3236.got - 2010.06.28 07:06:18.
