data_PCOD8154223
_publ_section_title
;
Structure prediction by ZEFSAII (Michael W. Deem and Ramdas Pophale) SiO2 
 PCOD8154223
Probable space group: C 2/C
;
_chemical_formula_sum "Si O2"
_cell_formula_units_Z 60
_cell_length_a 28.113797
_cell_length_b 11.485631
_cell_length_c 7.974822
_cell_angle_alpha 90.000000
_cell_angle_beta 106.327276
_cell_angle_gamma 90.000000
_cell_volume 2471.257450
_symmetry_space_group_name_H-M "C 2/C"
_symmetry_group_IT_number 15
_symmetry_cell_setting 'monoclinic'
loop_
_space_group_symop_operation_xyz
x,y,z
-x,y,1/2-z
-x,-y,-z
x,-y,1/2+z
1/2+x,1/2+y,z
1/2-x,1/2+y,1/2-z
1/2-x,1/2-y,-z
1/2+x,1/2-y,1/2+z
loop_
_atom_site_type_symbol
_atom_site_label
_atom_site_fract_x
_atom_site_fract_y
_atom_site_fract_z
Si Si1 0.479056 0.879629 0.914219
Si Si2 0.634435 0.862167 0.758264
Si Si3 0.904177 0.074992 0.251480
Si Si4 0.723124 0.441555 0.443309
Si Si5 0.839406 0.771142 0.900338
Si Si6 0.500000 0.287655 0.750000
Si Si7 0.860204 0.113325 0.870988
Si Si8 0.708793 0.925413 0.277356
O O1 0.500000 0.844615 0.750000
O O2 0.420540 0.900790 0.844426
O O3 0.491926 0.785503 0.071739
O O4 0.500000 0.000000 0.000000
O O5 0.648254 0.749157 0.660947
O O6 0.672528 0.963651 0.748269
O O7 0.636389 0.825660 0.953464
O O8 0.885049 0.148660 0.391302
O O9 0.954072 0.126167 0.227024
O O10 0.909365 0.940638 0.323315
O O11 0.861393 0.080230 0.066265
O O12 0.704563 0.343357 0.553920
O O13 0.682496 0.466593 0.258617
O O14 0.773092 0.402037 0.396482
O O15 0.742310 0.557937 0.558716
O O16 0.819528 0.697192 0.717851
#
# Coordination Sequence:
#
# PCOD8154223 Si02
#       8
#     8   8   8   8   8   4   8   8
#     4  12  27  47  79 115 163 205 250 321 387 468
#     4  11  26  47  74 108 147 199 246 312 377 445
#     4  12  26  49  78 108 144 198 243 325 376 464
#     4  11  25  47  69 108 144 196 249 300 368 451
#     4  11  26  47  75 104 155 192 252 307 387 449
#     4  12  28  50  78 122 144 196 278 302 398 462
#     4  11  25  49  73 101 151 192 249 303 382 441
#     4  12  25  42  75 105 147 190 250 306 361 448
#
# _framework density 24.279136000000001
#
# number of rings (size 3 to 8) (size 9 to 14) (size 15 to 20)
#    0.000    0.533    3.333    4.400    7.467    0.533 
#    1.200    2.000    0.000    0.000    0.000    0.000 
#    0.000    0.000    0.000    0.000    0.000    0.000 
#
# Total GULP energy -371715.049231 kJ/mol
# GULP energy per Si atom -12390.501641 kJ/mol
# Density = 2.422388 g / cm^3
# Si number density = 24.279136 Si / 1000 Ang^3
#
#
#
# Elastic Constant Matrix: (Units=GPa)
#
#
# Indices 1 2 3 4 5 6 
#
# 1 102.3261 29.5580 47.2203 0.0000 -2.0703 0.0000
# 2 29.5580 62.9254 22.3820 0.0000 -0.8269 0.0000
# 3 47.2203 22.3820 105.9243 0.0000 5.8092 0.0000
# 4 0.0000 0.0000 0.0000 31.0138 0.0000 -0.4638
# 5 -2.0703 -0.8269 5.8092 0.0000 42.4326 0.0000
# 6 0.0000 0.0000 0.0000 -0.4638 0.0000 31.9985
#
#
#
# Elastic Compliance Matrix: (Units=1/GPa)
#
#
# Indices 1 2 3 4 5 6 
#
# 1 0.013457 -0.004483 -0.005121 0.000000 0.001270 0.000000
# 2 -0.004483 0.018706 -0.001977 0.000000 0.000416 0.000000
# 3 -0.005121 -0.001977 0.012249 0.000000 -0.001965 0.000000
# 4 0.000000 0.000000 0.000000 0.032251 0.000000 0.000467
# 5 0.001270 0.000416 -0.001965 0.000000 0.023906 0.000000
# 6 0.000000 0.000000 0.000000 0.000467 0.000000 0.031258
#
#
# Mechanical properties :
#
#
# Convention : Reuss Voigt Hill
#
# Bulk Modulus (GPa) = 47.05922 52.16626 49.61274
# Shear Modulus (GPa) = 30.85038 32.55667 31.70352
#
# Velocity S-wave (km/s) = 3.56849 3.66585 3.61750
# Velocity P-wave (km/s) = 6.03353 6.28097 6.15849
#
# Compressibility (1/GPa) = 0.02124982
#
# Stress axis : x y z
#
# Youngs Moduli (GPa) = 74.31312 53.45813 81.63721
#
# Poissons Ratio (x) = 0.23964 0.41809
# Poissons Ratio (y) = 0.33312 0.16141
# Poissons Ratio (z) = 0.38058 0.10570
#
# Static dielectric constant tensor:
#      x y z
#    x 4.406190 0.000000 0.001910 
#    y 0.000000 4.331300 0.000000 
#    z 0.001910 0.000000 4.753560 
# 
# 
# High freq. dielectric constant tensor:
#      x y z
#    x 1.964750 0.000000 -0.001990 
#    y 0.000000 1.965700 0.000000 
#    z -0.001990 0.000000 1.980770 
# 
# From -- ./inp_files/69408.got.cif
#   From: 2010.06.25/outbox.cif.g09.slc.cpg/sg15_35_cif.got.tgz:69408.got - 2010.06.28 07:06:18.
