data_PCOD8154196
_publ_section_title
;
Structure prediction by ZEFSAII (Michael W. Deem and Ramdas Pophale) SiO2 
 PCOD8154196
Probable space group: C 2/C
;
_chemical_formula_sum "Si O2"
_cell_formula_units_Z 32
_cell_length_a 5.012393
_cell_length_b 24.964913
_cell_length_c 11.207988
_cell_angle_alpha 90.000000
_cell_angle_beta 98.349872
_cell_angle_gamma 90.000000
_cell_volume 1387.633036
_symmetry_space_group_name_H-M "C 2/C"
_symmetry_group_IT_number 15
_symmetry_cell_setting 'monoclinic'
loop_
_space_group_symop_operation_xyz
x,y,z
-x,y,1/2-z
-x,-y,-z
x,-y,1/2+z
1/2+x,1/2+y,z
1/2-x,1/2+y,1/2-z
1/2-x,1/2-y,-z
1/2+x,1/2-y,1/2+z
loop_
_atom_site_type_symbol
_atom_site_label
_atom_site_fract_x
_atom_site_fract_y
_atom_site_fract_z
Si Si1 0.728248 0.124939 0.174103
Si Si2 0.000000 0.351914 0.250000
Si Si3 0.343545 0.991001 0.868166
Si Si4 0.500000 0.423026 0.250000
Si Si5 0.498760 0.212538 0.984223
O O1 0.500000 0.108602 0.250000
O O2 0.803317 0.066879 0.124024
O O3 0.000000 0.150684 0.250000
O O4 0.571663 0.165403 0.078952
O O5 0.734808 0.387090 0.205193
O O6 0.929262 0.313816 0.354644
O O7 0.500000 0.997317 0.750000
O O8 0.120940 0.038194 0.859511
O O9 0.500000 0.000000 0.000000
O O10 0.250000 0.250000 0.000000
O O11 0.750000 0.250000 0.000000
#
# Coordination Sequence:
#
# PCOD8154196 Si02
#       5
#     8   4   8   4   8
#     4  11  25  46  72 108 145 192 243 296 362 443
#     4  12  28  48  75 112 149 190 252 306 372 444
#     4  11  25  46  75 111 155 200 243 302 372 453
#     4  12  24  48  75 114 153 194 234 312 376 458
#     4  12  28  49  77 103 144 197 250 314 367 429
#
# _framework density 23.060853000000002
#
# number of rings (size 3 to 8) (size 9 to 14) (size 15 to 20)
#    0.000    0.500    2.500    4.500    5.250    5.000 
#    0.000    0.000    0.000    0.000    0.000    0.000 
#    0.000    0.000    0.000    0.000    0.000    0.000 
#
# Total GULP energy -198254.689739 kJ/mol
# GULP energy per Si atom -12390.918109 kJ/mol
# Density = 2.300837 g / cm^3
# Si number density = 23.060853 Si / 1000 Ang^3
#
#
#
# Elastic Constant Matrix: (Units=GPa)
#
#
# Indices 1 2 3 4 5 6 
#
# 1 157.8459 74.0033 57.3298 0.0000 20.2220 0.0000
# 2 74.0033 183.0790 76.4308 0.0000 4.9656 0.0000
# 3 57.3298 76.4308 173.2619 0.0000 23.6465 0.0000
# 4 0.0000 0.0000 0.0000 -38.0234 0.0000 -5.4033
# 5 20.2220 4.9656 23.6465 0.0000 31.5607 0.0000
# 6 0.0000 0.0000 0.0000 -5.4033 0.0000 94.7750
#
#
#
# Elastic Compliance Matrix: (Units=1/GPa)
#
#
# Indices 1 2 3 4 5 6 
#
# 1 0.008632 -0.002975 -0.000950 0.000000 -0.004351 0.000000
# 2 -0.002975 0.007768 -0.002824 0.000000 0.002800 0.000000
# 3 -0.000950 -0.002824 0.008007 0.000000 -0.004946 0.000000
# 4 0.000000 0.000000 0.000000 -0.026088 0.000000 -0.001487
# 5 -0.004351 0.002800 -0.004946 0.000000 0.037738 0.000000
# 6 0.000000 0.000000 0.000000 -0.001487 0.000000 0.010467
#
#
# Mechanical properties :
#
#
# Convention : Reuss Voigt Hill
#
# Bulk Modulus (GPa) = 91.67256 103.30162 97.48709
# Shear Modulus (GPa) = 78.54423 38.09064 58.31743
#
# Velocity S-wave (km/s) = 5.84239 4.06858 5.03422
# Velocity P-wave (km/s) = 9.23851 8.18313 8.72679
#
# Compressibility (1/GPa) = 0.01090839
#
# Stress axis : x y z
#
# Youngs Moduli (GPa) = 115.84157 128.73825 124.89063
#
# Poissons Ratio (x) = 0.38295 0.11869
# Poissons Ratio (y) = 0.34459 0.35275
# Poissons Ratio (z) = 0.11009 0.36361
#
# Static dielectric constant tensor:
#      x y z
#    x 4.088400 0.000000 0.074270 
#    y 0.000000 4.505300 0.000000 
#    z 0.074270 0.000000 4.063790 
# 
# 
# High freq. dielectric constant tensor:
#      x y z
#    x 1.915960 0.000000 0.017130 
#    y 0.000000 1.942590 0.000000 
#    z 0.017130 0.000000 1.907890 
# 
# From -- ./inp_files/72152.got.cif
#   From: 2010.06.25/outbox.cif.g09.slc.cpg/sg15_37_cif.got.tgz:72152.got - 2010.06.28 07:06:18.
