data_PCOD8154594
_publ_section_title
;
Structure prediction by ZEFSAII (Michael W. Deem and Ramdas Pophale) SiO2 
 PCOD8154594
Probable space group: C 2/C
;
_chemical_formula_sum "Si O2"
_cell_formula_units_Z 56
_cell_length_a 17.975147
_cell_length_b 22.888431
_cell_length_c 8.205488
_cell_angle_alpha 90.000000
_cell_angle_beta 48.158657
_cell_angle_gamma 90.000000
_cell_volume 2515.047326
_symmetry_space_group_name_H-M "C 2/C"
_symmetry_group_IT_number 15
_symmetry_cell_setting 'monoclinic'
loop_
_space_group_symop_operation_xyz
x,y,z
-x,y,1/2-z
-x,-y,-z
x,-y,1/2+z
1/2+x,1/2+y,z
1/2-x,1/2+y,1/2-z
1/2-x,1/2-y,-z
1/2+x,1/2-y,1/2+z
loop_
_atom_site_type_symbol
_atom_site_label
_atom_site_fract_x
_atom_site_fract_y
_atom_site_fract_z
Si Si1 0.815523 0.583612 0.226492
Si Si2 0.820529 0.377824 0.249177
Si Si3 0.879954 0.479068 0.944322
Si Si4 0.017191 0.783700 0.542831
Si Si5 0.315049 0.337888 0.759881
Si Si6 0.739237 0.724689 0.693907
Si Si7 0.983644 0.662511 0.089544
O O1 0.820117 0.539861 0.371075
O O2 0.706841 0.612306 0.345974
O O3 0.880770 0.641052 0.163332
O O4 0.855787 0.547333 0.010318
O O5 0.734491 0.364094 0.503940
O O6 0.811806 0.330676 0.111478
O O7 0.827624 0.443431 0.168791
O O8 0.931112 0.363852 0.154576
O O9 0.000000 0.469845 0.750000
O O10 0.130756 0.805812 0.374453
O O11 0.000000 0.760151 0.750000
O O12 0.934510 0.832255 0.612348
O O13 0.011916 0.732224 0.418816
O O14 0.265781 0.275124 0.787965
O O15 0.750000 0.750000 0.500000
O O16 0.000000 0.638576 0.250000
#
# Coordination Sequence:
#
# PCOD8154594 Si02
#       7
#     8   8   8   8   8   8   8
#     4  12  25  43  64 101 135 182 227 289 348 418
#     4  12  22  41  60  93 139 177 228 273 344 415
#     4  12  25  43  67 100 139 180 231 288 356 415
#     4  12  25  44  64 101 140 183 229 278 342 415
#     4  12  26  40  67  97 134 186 225 280 349 408
#     4  12  24  41  69  99 137 182 230 284 343 409
#     4  12  23  39  65  97 142 182 221 276 339 420
#
# _framework density 22.265982999999999
#
# number of rings (size 3 to 8) (size 9 to 14) (size 15 to 20)
#    0.000    0.000    7.143    4.286    2.000    0.000 
#    0.000    0.000    0.000    0.857    0.000    0.000 
#    0.000    0.000    0.000    0.000    0.000    0.000 
#
# Total GULP energy -346945.663486 kJ/mol
# GULP energy per Si atom -12390.916553 kJ/mol
# Density = 2.221530 g / cm^3
# Si number density = 22.265983 Si / 1000 Ang^3
#
#
#
# Elastic Constant Matrix: (Units=GPa)
#
#
# Indices 1 2 3 4 5 6 
#
# 1 104.6615 33.1465 30.3679 0.0000 -8.5499 0.0000
# 2 33.1465 92.0137 23.0277 0.0000 -6.2630 0.0000
# 3 30.3679 23.0277 81.0658 0.0000 -12.1710 0.0000
# 4 0.0000 0.0000 0.0000 34.9442 0.0000 0.5658
# 5 -8.5499 -6.2630 -12.1710 0.0000 29.1456 0.0000
# 6 0.0000 0.0000 0.0000 0.5658 0.0000 32.0636
#
#
#
# Elastic Compliance Matrix: (Units=1/GPa)
#
#
# Indices 1 2 3 4 5 6 
#
# 1 0.011644 -0.003296 -0.003221 0.000000 0.001362 0.000000
# 2 -0.003296 0.012672 -0.002242 0.000000 0.000820 0.000000
# 3 -0.003221 -0.002242 0.014899 0.000000 0.004795 0.000000
# 4 0.000000 0.000000 0.000000 0.028625 0.000000 -0.000505
# 5 0.001362 0.000820 0.004795 0.000000 0.036889 0.000000
# 6 0.000000 0.000000 0.000000 -0.000505 0.000000 0.031197
#
#
# Mechanical properties :
#
#
# Convention : Reuss Voigt Hill
#
# Bulk Modulus (GPa) = 46.08808 50.09168 48.08988
# Shear Modulus (GPa) = 31.11832 31.97728 31.54780
#
# Velocity S-wave (km/s) = 3.74247 3.79377 3.76820
# Velocity P-wave (km/s) = 6.27842 6.46034 6.37003
#
# Compressibility (1/GPa) = 0.02169758
#
# Stress axis : x y z
#
# Youngs Moduli (GPa) = 85.87845 78.91363 67.11802
#
# Poissons Ratio (x) = 0.26008 0.21621
# Poissons Ratio (y) = 0.28304 0.15047
# Poissons Ratio (z) = 0.27664 0.17692
#
# Static dielectric constant tensor:
#      x y z
#    x 4.376520 0.000000 0.095860 
#    y 0.000000 4.081780 0.000000 
#    z 0.095860 0.000000 4.196250 
# 
# 
# High freq. dielectric constant tensor:
#      x y z
#    x 1.884070 0.000000 0.016030 
#    y 0.000000 1.867170 0.000000 
#    z 0.016030 0.000000 1.864890 
# 
# From -- ./inp_files/52007.got.cif
#   From: 2010.06.25/outbox.cif.g09.slc.cpg/sg15_27_cif.got.tgz:52007.got - 2010.06.28 07:06:18.
