data_PCOD8154279
_publ_section_title
;
Structure prediction by ZEFSAII (Michael W. Deem and Ramdas Pophale) SiO2 
 PCOD8154279
Probable space group: C 2/C
;
_chemical_formula_sum "Si O2"
_cell_formula_units_Z 56
_cell_length_a 20.760639
_cell_length_b 7.236284
_cell_length_c 14.456254
_cell_angle_alpha 90.000000
_cell_angle_beta 83.371501
_cell_angle_gamma 90.000000
_cell_volume 2157.244104
_symmetry_space_group_name_H-M "C 2/C"
_symmetry_group_IT_number 15
_symmetry_cell_setting 'monoclinic'
loop_
_space_group_symop_operation_xyz
x,y,z
-x,y,1/2-z
-x,-y,-z
x,-y,1/2+z
1/2+x,1/2+y,z
1/2-x,1/2+y,1/2-z
1/2-x,1/2-y,-z
1/2+x,1/2-y,1/2+z
loop_
_atom_site_type_symbol
_atom_site_label
_atom_site_fract_x
_atom_site_fract_y
_atom_site_fract_z
Si Si1 0.404880 0.275344 0.119525
Si Si2 0.908220 0.197513 0.825896
Si Si3 0.543490 0.620795 0.078097
Si Si4 0.178772 0.181439 0.501885
Si Si5 0.729066 0.336721 0.408132
Si Si6 0.370735 0.115179 0.817484
Si Si7 0.582285 0.866683 0.389929
O O1 0.414800 0.367419 0.218724
O O2 0.327099 0.214908 0.131646
O O3 0.442014 0.079115 0.103170
O O4 0.433558 0.408171 0.032929
O O5 0.907798 0.421011 0.831664
O O6 0.843674 0.126034 0.890198
O O7 0.964868 0.086151 0.874003
O O8 0.601030 0.731436 0.119006
O O9 0.478312 0.732842 0.095607
O O10 0.250000 0.250000 0.500000
O O11 0.130058 0.334436 0.468892
O O12 0.181743 0.011307 0.432033
O O13 0.750000 0.250000 0.500000
O O14 0.792517 0.393883 0.340334
O O15 0.381427 0.178373 0.711307
#
# Coordination Sequence:
#
# PCOD8154279 Si02
#       7
#     8   8   8   8   8   8   8
#     4  11  25  48  76 116 153 208 263 330 397 482
#     4  11  26  47  76 114 151 205 262 322 395 471
#     4  12  25  53  77 109 159 205 265 322 396 473
#     4  12  24  46  74 109 154 201 256 321 393 476
#     4  12  23  45  76 111 154 202 259 320 397 472
#     4  11  25  48  76 115 156 205 259 329 391 477
#     4  11  28  47  76 110 154 211 260 325 401 472
#
# _framework density 25.959049
#
# number of rings (size 3 to 8) (size 9 to 14) (size 15 to 20)
#    0.000    0.571    4.286    2.571    4.000    0.571 
#    2.571    5.000    0.000    0.000    0.000    0.000 
#    0.000    0.000    0.000    0.000    0.000    0.000 
#
# Total GULP energy -347005.983223 kJ/mol
# GULP energy per Si atom -12393.070829 kJ/mol
# Density = 2.589997 g / cm^3
# Si number density = 25.959049 Si / 1000 Ang^3
#
#
#
# Elastic Constant Matrix: (Units=GPa)
#
#
# Indices 1 2 3 4 5 6 
#
# 1 120.3448 38.6397 62.9975 0.0000 -20.0353 0.0000
# 2 38.6397 104.8309 41.8862 0.0000 -0.0942 0.0000
# 3 62.9975 41.8862 207.0285 0.0000 -20.8563 0.0000
# 4 0.0000 0.0000 0.0000 32.0952 0.0000 -3.6001
# 5 -20.0353 -0.0942 -20.8563 0.0000 43.5974 0.0000
# 6 0.0000 0.0000 0.0000 -3.6001 0.0000 40.1033
#
#
#
# Elastic Compliance Matrix: (Units=1/GPa)
#
#
# Indices 1 2 3 4 5 6 
#
# 1 0.011246 -0.003195 -0.002370 0.000000 0.004028 0.000000
# 2 -0.003195 0.011330 -0.001540 0.000000 -0.002180 0.000000
# 3 -0.002370 -0.001540 0.006044 0.000000 0.001799 0.000000
# 4 0.000000 0.000000 0.000000 0.031474 0.000000 0.002825
# 5 0.004028 -0.002180 0.001799 0.000000 0.025644 0.000000
# 6 0.000000 0.000000 0.000000 0.002825 0.000000 0.025189
#
#
# Mechanical properties :
#
#
# Convention : Reuss Voigt Hill
#
# Bulk Modulus (GPa) = 69.38958 79.91678 74.65318
# Shear Modulus (GPa) = 38.47898 42.40457 40.44178
#
# Velocity S-wave (km/s) = 3.85424 4.04606 3.95131
# Velocity P-wave (km/s) = 6.82607 7.25810 7.04540
#
# Compressibility (1/GPa) = 0.01441139
#
# Stress axis : x y z
#
# Youngs Moduli (GPa) = 88.91725 88.26134 165.44710
#
# Poissons Ratio (x) = 0.28197 0.39213
# Poissons Ratio (y) = 0.28406 0.25476
# Poissons Ratio (z) = 0.21074 0.13591
#
# Static dielectric constant tensor:
#      x y z
#    x 4.911220 0.000000 -0.100490 
#    y 0.000000 4.541310 0.000000 
#    z -0.100490 0.000000 4.987620 
# 
# 
# High freq. dielectric constant tensor:
#      x y z
#    x 2.053740 0.000000 -0.009910 
#    y 0.000000 2.046500 0.000000 
#    z -0.009910 0.000000 2.047150 
# 
# From -- ./inp_files/166640.got.cif
#   From: 2010.06.25/outbox.cif.g09.slc.cpg/sg15_84_cif.got.tgz:166640.got - 2010.06.28 07:06:18.
