data_PCOD8154339
_publ_section_title
;
Structure prediction by ZEFSAII (Michael W. Deem and Ramdas Pophale) SiO2 
 PCOD8154339
Probable space group: C 2/C
;
_chemical_formula_sum "Si O2"
_cell_formula_units_Z 40
_cell_length_a 9.400666
_cell_length_b 18.331210
_cell_length_c 12.105652
_cell_angle_alpha 90.000000
_cell_angle_beta 62.961921
_cell_angle_gamma 90.000000
_cell_volume 1858.110928
_symmetry_space_group_name_H-M "C 2/C"
_symmetry_group_IT_number 15
_symmetry_cell_setting 'monoclinic'
loop_
_space_group_symop_operation_xyz
x,y,z
-x,y,1/2-z
-x,-y,-z
x,-y,1/2+z
1/2+x,1/2+y,z
1/2-x,1/2+y,1/2-z
1/2-x,1/2-y,-z
1/2+x,1/2-y,1/2+z
loop_
_atom_site_type_symbol
_atom_site_label
_atom_site_fract_x
_atom_site_fract_y
_atom_site_fract_z
Si Si1 0.315137 0.353495 0.150020
Si Si2 0.167132 0.410909 0.986363
Si Si3 0.677132 0.323092 0.977278
Si Si4 0.299693 0.932120 0.103709
Si Si5 0.323009 0.698915 0.275761
O O1 0.316395 0.402485 0.259751
O O2 0.196061 0.285581 0.206909
O O3 0.259058 0.403665 0.069164
O O4 0.490117 0.322377 0.068082
O O5 0.232788 0.482299 0.900683
O O6 0.196906 0.340503 0.900027
O O7 0.980396 0.417396 0.077427
O O8 0.710775 0.327730 0.835750
O O9 0.750000 0.250000 0.000000
O O10 0.763167 0.392414 0.001160
O O11 0.500000 0.676560 0.250000
#
# Coordination Sequence:
#
# PCOD8154339 Si02
#       5
#     8   8   8   8   8
#     4  12  25  46  72 100 141 180 228 288 342 411
#     4  11  26  46  70  98 138 186 230 277 346 415
#     4  12  26  45  69 104 136 177 228 285 344 404
#     4  11  26  45  69 101 138 182 228 285 343 403
#     4  12  25  44  73 100 135 179 231 281 343 409
#
# _framework density 21.527242000000001
#
# number of rings (size 3 to 8) (size 9 to 14) (size 15 to 20)
#    0.000    0.400    4.000    4.200    2.800    4.800 
#    0.000    0.000    0.000    0.000    0.000    0.000 
#    0.000    0.000    0.000    0.000    0.000    0.000 
#
# Total GULP energy -248201.847079 kJ/mol
# GULP energy per Si atom -12410.092354 kJ/mol
# Density = 2.147825 g / cm^3
# Si number density = 21.527242 Si / 1000 Ang^3
#
#
#
# Elastic Constant Matrix: (Units=GPa)
#
#
# Indices 1 2 3 4 5 6 
#
# 1 105.5651 25.3693 23.9973 0.0000 15.1186 0.0000
# 2 25.3693 101.8506 36.3859 0.0000 10.4840 0.0000
# 3 23.9973 36.3859 113.0315 0.0000 19.7141 0.0000
# 4 0.0000 0.0000 0.0000 37.7283 0.0000 4.0299
# 5 15.1186 10.4840 19.7141 0.0000 38.1192 0.0000
# 6 0.0000 0.0000 0.0000 4.0299 0.0000 32.8438
#
#
#
# Elastic Compliance Matrix: (Units=1/GPa)
#
#
# Indices 1 2 3 4 5 6 
#
# 1 0.010633 -0.001938 -0.001089 0.000000 -0.003121 0.000000
# 2 -0.001938 0.011509 -0.003160 0.000000 -0.000762 0.000000
# 3 -0.001089 -0.003160 0.010847 0.000000 -0.004309 0.000000
# 4 0.000000 0.000000 0.000000 0.026857 0.000000 -0.003295
# 5 -0.003121 -0.000762 -0.004309 0.000000 0.029909 0.000000
# 6 0.000000 0.000000 0.000000 -0.003295 0.000000 0.030851
#
#
# Mechanical properties :
#
#
# Convention : Reuss Voigt Hill
#
# Bulk Modulus (GPa) = 48.51210 54.66135 51.58673
# Shear Modulus (GPa) = 35.75176 37.38461 36.56818
#
# Velocity S-wave (km/s) = 4.07967 4.17180 4.12599
# Velocity P-wave (km/s) = 6.69147 6.97510 6.83476
#
# Compressibility (1/GPa) = 0.02061341
#
# Stress axis : x y z
#
# Youngs Moduli (GPa) = 94.04536 86.89216 92.19006
#
# Poissons Ratio (x) = 0.16841 0.10042
# Poissons Ratio (y) = 0.18228 0.29135
# Poissons Ratio (z) = 0.10244 0.27460
#
# Static dielectric constant tensor:
#      x y z
#    x 3.922380 0.000000 0.086180 
#    y 0.000000 4.161360 0.000000 
#    z 0.086180 0.000000 3.805860 
# 
# 
# High freq. dielectric constant tensor:
#      x y z
#    x 1.856360 0.000000 0.007070 
#    y 0.000000 1.850030 0.000000 
#    z 0.007070 0.000000 1.855220 
# 
# From -- ./inp_files/76711.got.cif
#   From: 2010.06.25/outbox.cif.g09.slc.cpg/sg15_39_cif.got.tgz:76711.got - 2010.06.28 07:06:18.
