data_PCOD8154803
_publ_section_title
;
Structure prediction by ZEFSAII (Michael W. Deem and Ramdas Pophale) SiO2 
 PCOD8154803
Probable space group: C 2/C
;
_chemical_formula_sum "Si O2"
_cell_formula_units_Z 44
_cell_length_a 23.187901
_cell_length_b 12.656214
_cell_length_c 8.108101
_cell_angle_alpha 90.000000
_cell_angle_beta 127.250236
_cell_angle_gamma 90.000000
_cell_volume 1894.075110
_symmetry_space_group_name_H-M "C 2/C"
_symmetry_group_IT_number 15
_symmetry_cell_setting 'monoclinic'
loop_
_space_group_symop_operation_xyz
x,y,z
-x,y,1/2-z
-x,-y,-z
x,-y,1/2+z
1/2+x,1/2+y,z
1/2-x,1/2+y,1/2-z
1/2-x,1/2-y,-z
1/2+x,1/2-y,1/2+z
loop_
_atom_site_type_symbol
_atom_site_label
_atom_site_fract_x
_atom_site_fract_y
_atom_site_fract_z
Si Si1 0.000000 0.365929 0.750000
Si Si2 0.706379 0.477323 0.765407
Si Si3 0.635879 0.977499 0.856599
Si Si4 0.220660 0.322345 0.806829
Si Si5 0.652944 0.652857 0.477099
Si Si6 0.950683 0.317315 0.317259
O O1 0.071932 0.436318 0.862788
O O2 0.993179 0.300749 0.565517
O O3 0.710136 0.394927 0.619830
O O4 0.648280 0.570644 0.624306
O O5 0.787659 0.524789 0.915481
O O6 0.690524 0.415363 0.902837
O O7 0.649652 0.894085 0.729605
O O8 0.612397 0.095345 0.759172
O O9 0.200281 0.253597 0.612162
O O10 0.250000 0.250000 0.000000
O O11 0.577673 0.700180 0.281305
O O12 0.000000 0.356811 0.250000
#
# Coordination Sequence:
#
# PCOD8154803 Si02
#       6
#     4   8   8   8   8   8
#     4  12  28  44  74 108 152 200 246 308 376 448
#     4  12  25  45  71 112 145 191 242 309 378 443
#     4  12  24  44  73 111 152 182 242 311 379 448
#     4  12  24  40  70 110 153 183 236 302 376 453
#     4  12  26  47  74 108 149 194 246 309 379 443
#     4  12  28  50  75 109 150 203 252 306 375 451
#
# _framework density 23.230335
#
# number of rings (size 3 to 8) (size 9 to 14) (size 15 to 20)
#    0.000    0.000    6.364    3.273    2.545    0.000 
#    3.273    0.909    0.000    0.000    0.000    0.000 
#    0.000    0.000    0.000    0.000    0.000    0.000 
#
# Total GULP energy -272574.050071 kJ/mol
# GULP energy per Si atom -12389.729549 kJ/mol
# Density = 2.317746 g / cm^3
# Si number density = 23.230335 Si / 1000 Ang^3
#
#
#
# Elastic Constant Matrix: (Units=GPa)
#
#
# Indices 1 2 3 4 5 6 
#
# 1 79.7350 51.2687 40.7173 0.0000 -13.3577 0.0000
# 2 51.2687 148.0377 72.3761 0.0000 -7.3235 0.0000
# 3 40.7173 72.3761 150.7617 0.0000 -12.8869 0.0000
# 4 0.0000 0.0000 0.0000 42.0587 0.0000 -3.9238
# 5 -13.3577 -7.3235 -12.8869 0.0000 28.6440 0.0000
# 6 0.0000 0.0000 0.0000 -3.9238 0.0000 27.2303
#
#
#
# Elastic Compliance Matrix: (Units=1/GPa)
#
#
# Indices 1 2 3 4 5 6 
#
# 1 0.017687 -0.004891 -0.001904 0.000000 0.006141 0.000000
# 2 -0.004891 0.010183 -0.003682 0.000000 -0.001334 0.000000
# 3 -0.001904 -0.003682 0.009109 0.000000 0.002269 0.000000
# 4 0.000000 0.000000 0.000000 0.024100 0.000000 0.003473
# 5 0.006141 -0.001334 0.002269 0.000000 0.038455 0.000000
# 6 0.000000 0.000000 0.000000 0.003473 0.000000 0.037224
#
#
# Mechanical properties :
#
#
# Convention : Reuss Voigt Hill
#
# Bulk Modulus (GPa) = 62.39917 78.58427 70.49172
# Shear Modulus (GPa) = 30.66490 33.86478 32.26484
#
# Velocity S-wave (km/s) = 3.63717 3.82223 3.73085
# Velocity P-wave (km/s) = 6.67518 7.30623 6.99783
#
# Compressibility (1/GPa) = 0.01602585
#
# Stress axis : x y z
#
# Youngs Moduli (GPa) = 56.53733 98.20509 109.78682
#
# Poissons Ratio (x) = 0.48030 0.20905
# Poissons Ratio (y) = 0.27651 0.40418
# Poissons Ratio (z) = 0.10765 0.36155
#
# Static dielectric constant tensor:
#      x y z
#    x 4.115080 0.000000 -0.187240 
#    y 0.000000 4.658010 0.000000 
#    z -0.187240 0.000000 4.428110 
# 
# 
# High freq. dielectric constant tensor:
#      x y z
#    x 1.893350 0.000000 -0.028430 
#    y 0.000000 1.920920 0.000000 
#    z -0.028430 0.000000 1.926510 
# 
# From -- ./inp_files/65648.got.cif
#   From: 2010.06.25/outbox.cif.g09.slc.cpg/sg15_33_cif.got.tgz:65648.got - 2010.06.28 07:06:18.
