data_PCOD8154230
_publ_section_title
;
Structure prediction by ZEFSAII (Michael W. Deem and Ramdas Pophale) SiO2 
 PCOD8154230
Probable space group: C 2/C
;
_chemical_formula_sum "Si O2"
_cell_formula_units_Z 40
_cell_length_a 15.416811
_cell_length_b 14.723158
_cell_length_c 8.475270
_cell_angle_alpha 90.000000
_cell_angle_beta 68.185568
_cell_angle_gamma 90.000000
_cell_volume 1785.996372
_symmetry_space_group_name_H-M "C 2/C"
_symmetry_group_IT_number 15
_symmetry_cell_setting 'monoclinic'
loop_
_space_group_symop_operation_xyz
x,y,z
-x,y,1/2-z
-x,-y,-z
x,-y,1/2+z
1/2+x,1/2+y,z
1/2-x,1/2+y,1/2-z
1/2-x,1/2-y,-z
1/2+x,1/2-y,1/2+z
loop_
_atom_site_type_symbol
_atom_site_label
_atom_site_fract_x
_atom_site_fract_y
_atom_site_fract_z
Si Si1 0.758656 0.053364 0.627378
Si Si2 0.935395 0.763804 0.511299
Si Si3 0.285245 0.372571 0.760126
Si Si4 0.141021 0.216625 0.779985
Si Si5 0.444431 0.926290 0.135308
O O1 0.772351 0.085633 0.440748
O O2 0.796997 0.130168 0.718318
O O3 0.651614 0.031901 0.739194
O O4 0.804803 0.955005 0.624754
O O5 0.880066 0.812622 0.691579
O O6 0.881948 0.790791 0.388248
O O7 0.925463 0.656341 0.531381
O O8 0.044401 0.789471 0.442690
O O9 0.195600 0.310011 0.780862
O O10 0.500000 0.891094 0.250000
O O11 0.500000 0.000000 0.000000
#
# Coordination Sequence:
#
# PCOD8154230 Si02
#       5
#     8   8   8   8   8
#     4  12  26  45  73 103 143 191 235 296 355 425
#     4  11  26  44  73 101 146 189 234 298 352 424
#     4  12  26  46  72 104 146 188 241 294 355 426
#     4  11  25  47  71 105 142 187 240 292 360 421
#     4  12  27  44  71 107 144 186 238 290 359 421
#
# _framework density 22.396462
#
# number of rings (size 3 to 8) (size 9 to 14) (size 15 to 20)
#    0.000    0.400    2.000    6.000   11.200    0.800 
#    0.000    0.000    0.000    0.000    0.000    0.000 
#    0.000    0.000    0.000    0.000    0.000    0.000 
#
# Total GULP energy -248072.222831 kJ/mol
# GULP energy per Si atom -12403.611142 kJ/mol
# Density = 2.234549 g / cm^3
# Si number density = 22.396462 Si / 1000 Ang^3
#
#
#
# Elastic Constant Matrix: (Units=GPa)
#
#
# Indices 1 2 3 4 5 6 
#
# 1 96.3229 59.8557 58.6204 0.0000 -10.3417 0.0000
# 2 59.8557 166.0937 57.2088 0.0000 -8.6289 0.0000
# 3 58.6204 57.2088 133.0219 0.0000 -27.1316 0.0000
# 4 0.0000 0.0000 0.0000 36.5330 0.0000 -7.7143
# 5 -10.3417 -8.6289 -27.1316 0.0000 38.4056 0.0000
# 6 0.0000 0.0000 0.0000 -7.7143 0.0000 37.5190
#
#
#
# Elastic Compliance Matrix: (Units=1/GPa)
#
#
# Indices 1 2 3 4 5 6 
#
# 1 0.016133 -0.003941 -0.005502 0.000000 -0.000428 0.000000
# 2 -0.003941 0.008044 -0.001835 0.000000 -0.000550 0.000000
# 3 -0.005502 -0.001835 0.012087 0.000000 0.006645 0.000000
# 4 0.000000 0.000000 0.000000 0.028615 0.000000 0.005884
# 5 -0.000428 -0.000550 0.006645 0.000000 0.030493 0.000000
# 6 0.000000 0.000000 0.000000 0.005884 0.000000 0.027863
#
#
# Mechanical properties :
#
#
# Convention : Reuss Voigt Hill
#
# Bulk Modulus (GPa) = 72.95048 82.97869 77.96458
# Shear Modulus (GPa) = 33.25327 37.14176 35.19752
#
# Velocity S-wave (km/s) = 3.85743 4.07673 3.96860
# Velocity P-wave (km/s) = 7.24450 7.70000 7.47572
#
# Compressibility (1/GPa) = 0.01370793
#
# Stress axis : x y z
#
# Youngs Moduli (GPa) = 61.98382 124.30881 82.73550
#
# Poissons Ratio (x) = 0.48992 0.45521
# Poissons Ratio (y) = 0.24429 0.15183
# Poissons Ratio (z) = 0.34103 0.22812
#
# Static dielectric constant tensor:
#      x y z
#    x 4.256520 0.000000 -0.084090 
#    y 0.000000 4.093840 0.000000 
#    z -0.084090 0.000000 4.132100 
# 
# 
# High freq. dielectric constant tensor:
#      x y z
#    x 1.889290 0.000000 -0.006610 
#    y 0.000000 1.894720 0.000000 
#    z -0.006610 0.000000 1.893970 
# 
# From -- ./inp_files/37805.got.cif
#   From: 2010.06.25/outbox.cif.g09.slc.cpg/sg15_19_cif.got.tgz:37805.got - 2010.06.28 07:06:18.
