data_PCOD8154005
_publ_section_title
;
Structure prediction by ZEFSAII (Michael W. Deem and Ramdas Pophale) SiO2 
 PCOD8154005
Probable space group: C 2/C
;
_chemical_formula_sum "Si O2"
_cell_formula_units_Z 64
_cell_length_a 14.070358
_cell_length_b 11.319713
_cell_length_c 24.871771
_cell_angle_alpha 90.000000
_cell_angle_beta 47.367727
_cell_angle_gamma 90.000000
_cell_volume 2914.454647
_symmetry_space_group_name_H-M "C 2/C"
_symmetry_group_IT_number 15
_symmetry_cell_setting 'monoclinic'
loop_
_space_group_symop_operation_xyz
x,y,z
-x,y,1/2-z
-x,-y,-z
x,-y,1/2+z
1/2+x,1/2+y,z
1/2-x,1/2+y,1/2-z
1/2-x,1/2-y,-z
1/2+x,1/2-y,1/2+z
loop_
_atom_site_type_symbol
_atom_site_label
_atom_site_fract_x
_atom_site_fract_y
_atom_site_fract_z
Si Si1 0.318767 0.587239 0.063697
Si Si2 0.180210 0.580873 0.402241
Si Si3 0.928302 0.674388 0.554718
Si Si4 0.146337 0.736742 0.317102
Si Si5 0.083777 0.318472 0.321420
Si Si6 0.533288 0.467319 0.401562
Si Si7 0.460587 0.600837 0.323456
Si Si8 0.980570 0.559608 0.319702
O O1 0.350641 0.726620 0.051474
O O2 0.352417 0.530578 0.108753
O O3 0.169368 0.568919 0.107526
O O4 0.399644 0.521391 0.985923
O O5 0.159844 0.441144 0.406727
O O6 0.201609 0.633918 0.334594
O O7 0.306646 0.602114 0.389505
O O8 0.062029 0.647805 0.474673
O O9 0.958383 0.722091 0.602826
O O10 0.262454 0.804301 0.243208
O O11 0.052392 0.680191 0.308507
O O12 0.066613 0.829846 0.382920
O O13 0.009625 0.235542 0.307700
O O14 0.043149 0.453257 0.328861
O O15 0.524607 0.524108 0.346007
O O16 0.500000 0.547706 0.250000
O O17 0.000000 0.535530 0.250000
#
# Coordination Sequence:
#
# PCOD8154005 Si02
#       8
#     8   8   8   8   8   8   8   8
#     4  11  25  48  73 104 141 187 239 288 355 415
#     4  11  26  46  72 106 142 182 236 288 356 416
#     4  11  24  48  73 101 143 187 228 297 352 415
#     4  12  26  47  69 102 143 184 230 292 350 418
#     4  12  26  45  72 100 143 182 233 292 348 420
#     4  11  27  45  72 103 146 185 233 296 347 418
#     4  12  27  43  71 105 139 189 234 292 350 420
#     4  12  28  45  71 105 136 188 235 287 352 426
#
# _framework density 21.959510000000002
#
# number of rings (size 3 to 8) (size 9 to 14) (size 15 to 20)
#    0.000    0.500    5.000    1.875    8.750    1.500 
#    0.000    0.000    0.000    0.000    0.000    0.000 
#    0.000    0.000    0.000    0.000    0.000    0.000 
#
# Total GULP energy -397048.600559 kJ/mol
# GULP energy per Si atom -12407.768767 kJ/mol
# Density = 2.190953 g / cm^3
# Si number density = 21.959510 Si / 1000 Ang^3
#
#
#
# Elastic Constant Matrix: (Units=GPa)
#
#
# Indices 1 2 3 4 5 6 
#
# 1 114.1737 43.0317 44.8112 0.0000 -14.6548 0.0000
# 2 43.0317 108.3432 39.8060 0.0000 -13.2240 0.0000
# 3 44.8112 39.8060 81.5170 0.0000 -5.5915 0.0000
# 4 0.0000 0.0000 0.0000 33.8177 0.0000 -1.2560
# 5 -14.6548 -13.2240 -5.5915 0.0000 49.5533 0.0000
# 6 0.0000 0.0000 0.0000 -1.2560 0.0000 37.2105
#
#
#
# Elastic Compliance Matrix: (Units=1/GPa)
#
#
# Indices 1 2 3 4 5 6 
#
# 1 0.012079 -0.002603 -0.005212 0.000000 0.002289 0.000000
# 2 -0.002603 0.012100 -0.004342 0.000000 0.001969 0.000000
# 3 -0.005212 -0.004342 0.017201 0.000000 -0.000759 0.000000
# 4 0.000000 0.000000 0.000000 0.029607 0.000000 0.000999
# 5 0.002289 0.001969 -0.000759 0.000000 0.021297 0.000000
# 6 0.000000 0.000000 0.000000 0.000999 0.000000 0.026908
#
#
# Mechanical properties :
#
#
# Convention : Reuss Voigt Hill
#
# Bulk Modulus (GPa) = 58.60057 62.14796 60.37427
# Shear Modulus (GPa) = 33.51315 35.87529 34.69422
#
# Velocity S-wave (km/s) = 3.91081 4.04629 3.97913
# Velocity P-wave (km/s) = 6.86559 7.08467 6.97599
#
# Compressibility (1/GPa) = 0.01706468
#
# Stress axis : x y z
#
# Youngs Moduli (GPa) = 82.78710 82.64713 58.13700
#
# Poissons Ratio (x) = 0.21515 0.30300
# Poissons Ratio (y) = 0.21552 0.25245
# Poissons Ratio (z) = 0.43147 0.35888
#
# Static dielectric constant tensor:
#      x y z
#    x 3.875720 0.000000 0.006400 
#    y 0.000000 3.966500 0.000000 
#    z 0.006400 0.000000 3.919220 
# 
# 
# High freq. dielectric constant tensor:
#      x y z
#    x 1.862720 0.000000 0.001860 
#    y 0.000000 1.872550 0.000000 
#    z 0.001860 0.000000 1.873630 
# 
# From -- ./inp_files/296116.got.cif
#   From: 2010.06.25/outbox.cif.g09.slc.cpg/sg15_149_cif.got.tgz:296116.got - 2010.06.28 07:06:18.
