data_PCOD8154927
_publ_section_title
;
Structure prediction by ZEFSAII (Michael W. Deem and Ramdas Pophale) SiO2 
 PCOD8154927
Probable space group: C 2/C
;
_chemical_formula_sum "Si O2"
_cell_formula_units_Z 60
_cell_length_a 16.542779
_cell_length_b 11.601542
_cell_length_c 13.640554
_cell_angle_alpha 90.000000
_cell_angle_beta 103.102200
_cell_angle_gamma 90.000000
_cell_volume 2549.767338
_symmetry_space_group_name_H-M "C 2/C"
_symmetry_group_IT_number 15
_symmetry_cell_setting 'monoclinic'
loop_
_space_group_symop_operation_xyz
x,y,z
-x,y,1/2-z
-x,-y,-z
x,-y,1/2+z
1/2+x,1/2+y,z
1/2-x,1/2+y,1/2-z
1/2-x,1/2-y,-z
1/2+x,1/2-y,1/2+z
loop_
_atom_site_type_symbol
_atom_site_label
_atom_site_fract_x
_atom_site_fract_y
_atom_site_fract_z
Si Si1 0.785615 0.213699 0.276567
Si Si2 0.528752 0.222103 0.658251
Si Si3 0.461634 0.019174 0.093959
Si Si4 0.500000 0.192926 0.250000
Si Si5 0.629070 0.359049 0.236581
Si Si6 0.176868 0.947972 0.880722
Si Si7 0.549879 0.616598 0.505397
Si Si8 0.274542 0.121774 0.043795
O O1 0.871714 0.282001 0.314354
O O2 0.723519 0.320645 0.256966
O O3 0.764773 0.119679 0.357062
O O4 0.775646 0.148955 0.169357
O O5 0.500000 0.289975 0.750000
O O6 0.510782 0.284085 0.549873
O O7 0.474963 0.103779 0.650659
O O8 0.520342 0.112098 0.163037
O O9 0.369588 0.075926 0.072211
O O10 0.500000 0.000000 0.000000
O O11 0.580680 0.270579 0.294187
O O12 0.622056 0.483875 0.284557
O O13 0.585363 0.353272 0.120236
O O14 0.121359 0.885023 0.944739
O O15 0.234917 0.033741 0.956472
O O16 0.500000 0.500000 0.500000
O O17 0.250000 0.250000 0.000000
#
# Coordination Sequence:
#
# PCOD8154927 Si02
#       8
#     8   8   8   4   8   8   8   8
#     4  12  27  49  76 110 158 208 258 320 409 483
#     4  12  26  49  75 112 158 200 255 331 395 466
#     4  12  27  44  75 112 157 203 256 324 404 476
#     4  12  24  48  72 110 148 204 256 318 396 482
#     4  12  27  47  78 108 152 202 262 322 397 487
#     4  12  26  46  77 109 147 198 257 323 388 474
#     4  12  27  49  79 110 147 199 264 328 391 473
#     4  12  25  50  76 111 154 206 262 326 399 487
#
# _framework density 23.531558
#
# number of rings (size 3 to 8) (size 9 to 14) (size 15 to 20)
#    0.000    0.000    4.667    4.800    3.733    2.667 
#    0.000    0.000    0.000    0.000    0.000    0.000 
#    0.000    0.000    0.000    0.000    0.000    0.000 
#
# Total GULP energy -371780.561089 kJ/mol
# GULP energy per Si atom -12392.685370 kJ/mol
# Density = 2.347800 g / cm^3
# Si number density = 23.531558 Si / 1000 Ang^3
#
#
#
# Elastic Constant Matrix: (Units=GPa)
#
#
# Indices 1 2 3 4 5 6 
#
# 1 128.8016 35.0756 21.3858 0.0000 4.3246 0.0000
# 2 35.0756 92.4664 13.7786 0.0000 9.3136 0.0000
# 3 21.3858 13.7786 103.8579 0.0000 -5.1800 0.0000
# 4 0.0000 0.0000 0.0000 37.9694 0.0000 2.5175
# 5 4.3246 9.3136 -5.1800 0.0000 48.0483 0.0000
# 6 0.0000 0.0000 0.0000 2.5175 0.0000 42.8398
#
#
#
# Elastic Compliance Matrix: (Units=1/GPa)
#
#
# Indices 1 2 3 4 5 6 
#
# 1 0.008861 -0.003113 -0.001429 0.000000 -0.000348 0.000000
# 2 -0.003113 0.012387 -0.001114 0.000000 -0.002241 0.000000
# 3 -0.001429 -0.001114 0.010142 0.000000 0.001438 0.000000
# 4 0.000000 0.000000 0.000000 0.026440 0.000000 -0.001554
# 5 -0.000348 -0.002241 0.001438 0.000000 0.021433 0.000000
# 6 0.000000 0.000000 0.000000 -0.001554 0.000000 0.023434
#
#
# Mechanical properties :
#
#
# Convention : Reuss Voigt Hill
#
# Bulk Modulus (GPa) = 49.80580 51.73400 50.76990
# Shear Modulus (GPa) = 41.42413 42.76387 42.09400
#
# Velocity S-wave (km/s) = 4.20022 4.26760 4.23405
# Velocity P-wave (km/s) = 6.68835 6.80558 6.74722
#
# Compressibility (1/GPa) = 0.02007798
#
# Stress axis : x y z
#
# Youngs Moduli (GPa) = 112.85934 80.72715 98.59694
#
# Poissons Ratio (x) = 0.25131 0.14088
# Poissons Ratio (y) = 0.35135 0.10985
# Poissons Ratio (z) = 0.16126 0.08994
#
# Static dielectric constant tensor:
#      x y z
#    x 4.381130 0.000000 0.005420 
#    y 0.000000 4.573010 0.000000 
#    z 0.005420 0.000000 4.858410 
# 
# 
# High freq. dielectric constant tensor:
#      x y z
#    x 1.931220 0.000000 -0.005390 
#    y 0.000000 1.935960 0.000000 
#    z -0.005390 0.000000 1.960560 
# 
# From -- ./inp_files/161387.got.cif
#   From: 2010.06.25/outbox.cif.g09.slc.cpg/sg15_81_cif.got.tgz:161387.got - 2010.06.28 07:06:18.
