data_PCOD8154554
_publ_section_title
;
Structure prediction by ZEFSAII (Michael W. Deem and Ramdas Pophale) SiO2 
 PCOD8154554
Probable space group: C 2/C
;
_chemical_formula_sum "Si O2"
_cell_formula_units_Z 52
_cell_length_a 13.240255
_cell_length_b 5.849166
_cell_length_c 32.902420
_cell_angle_alpha 90.000000
_cell_angle_beta 113.722971
_cell_angle_gamma 90.000000
_cell_volume 2332.798015
_symmetry_space_group_name_H-M "C 2/C"
_symmetry_group_IT_number 15
_symmetry_cell_setting 'monoclinic'
loop_
_space_group_symop_operation_xyz
x,y,z
-x,y,1/2-z
-x,-y,-z
x,-y,1/2+z
1/2+x,1/2+y,z
1/2-x,1/2+y,1/2-z
1/2-x,1/2-y,-z
1/2+x,1/2-y,1/2+z
loop_
_atom_site_type_symbol
_atom_site_label
_atom_site_fract_x
_atom_site_fract_y
_atom_site_fract_z
Si Si1 0.274615 0.999993 0.524584
Si Si2 0.299161 0.635279 0.906404
Si Si3 0.000000 0.499556 0.750000
Si Si4 0.287526 0.806595 0.676397
Si Si5 0.013398 0.364923 0.906470
Si Si6 0.065503 0.692915 0.676492
Si Si7 0.626245 0.500188 0.376555
O O1 0.250000 0.750000 0.500000
O O2 0.408567 0.025737 0.553483
O O3 0.250000 0.250000 0.500000
O O4 0.198575 0.974186 0.553542
O O5 0.252626 0.515292 0.858342
O O6 0.416870 0.751002 0.917236
O O7 0.207049 0.811618 0.907401
O O8 0.102089 0.349225 0.780807
O O9 0.041015 0.649878 0.719353
O O10 0.193990 0.749225 0.693833
O O11 0.310339 0.587176 0.652890
O O12 0.964515 0.484790 0.858391
O O13 0.106946 0.186881 0.907556
O O14 0.995973 0.913160 0.653232
#
# Coordination Sequence:
#
# PCOD8154554 Si02
#       7
#     8   8   4   8   8   8   8
#     4  12  28  48  76 116 156 189 241 314 385 447
#     4  12  25  46  77 105 141 195 249 292 366 454
#     4  12  26  46  60 112 154 180 242 318 382 420
#     4  12  26  43  74 103 138 195 250 298 368 445
#     4  12  25  46  77 105 141 195 249 292 366 454
#     4  12  26  43  74 103 138 195 250 298 368 445
#     4  12  21  45  74 100 136 190 248 300 350 442
#
# _framework density 22.290828999999999
#
# number of rings (size 3 to 8) (size 9 to 14) (size 15 to 20)
#    0.000    0.000    9.231    0.923    0.000    5.538 
#    0.000    0.000    0.000    0.000    0.000    0.000 
#    0.000    0.000    0.000    0.000    0.000    0.000 
#
# Total GULP energy -322189.292049 kJ/mol
# GULP energy per Si atom -12391.895848 kJ/mol
# Density = 2.224009 g / cm^3
# Si number density = 22.290829 Si / 1000 Ang^3
#
#
#
# Elastic Constant Matrix: (Units=GPa)
#
#
# Indices 1 2 3 4 5 6 
#
# 1 190.3416 48.4852 65.0107 0.0000 -5.6158 0.0000
# 2 48.4852 107.6222 41.8513 0.0000 -0.1875 0.0000
# 3 65.0107 41.8513 123.0327 0.0000 1.2935 0.0000
# 4 0.0000 0.0000 0.0000 -8.8648 0.0000 -4.2836
# 5 -5.6158 -0.1875 1.2935 0.0000 22.4268 0.0000
# 6 0.0000 0.0000 0.0000 -4.2836 0.0000 53.0506
#
#
#
# Elastic Compliance Matrix: (Units=1/GPa)
#
#
# Indices 1 2 3 4 5 6 
#
# 1 0.006809 -0.001910 -0.002968 0.000000 0.001860 0.000000
# 2 -0.001910 0.011246 -0.002814 0.000000 -0.000222 0.000000
# 3 -0.002968 -0.002814 0.010668 0.000000 -0.001382 0.000000
# 4 0.000000 0.000000 0.000000 -0.108569 0.000000 -0.008767
# 5 0.001860 -0.000222 -0.001382 0.000000 0.045133 0.000000
# 6 0.000000 0.000000 0.000000 -0.008767 0.000000 0.018142
#
#
# Mechanical properties :
#
#
# Convention : Reuss Voigt Hill
#
# Bulk Modulus (GPa) = 74.96579 81.29900 78.13239
# Shear Modulus (GPa) = 1534.60233 31.03247 782.81740
#
# Velocity S-wave (km/s) = 26.26671 3.73522 18.76022
# Velocity P-wave (km/s) = 30.88080 7.42655 22.45860
#
# Compressibility (1/GPa) = 0.01333942
#
# Stress axis : x y z
#
# Youngs Moduli (GPa) = 146.87052 88.91906 93.74116
#
# Poissons Ratio (x) = 0.16985 0.27818
# Poissons Ratio (y) = 0.28055 0.26378
# Poissons Ratio (z) = 0.43584 0.25021
#
# Static dielectric constant tensor:
#      x y z
#    x 4.510700 0.000000 -0.024500 
#    y 0.000000 4.279150 0.000000 
#    z -0.024500 0.000000 4.218220 
# 
# 
# High freq. dielectric constant tensor:
#      x y z
#    x 1.895650 0.000000 -0.001410 
#    y 0.000000 1.884290 0.000000 
#    z -0.001410 0.000000 1.876970 
# 
# From -- ./inp_files/312428.got.cif
#   From: 2010.06.25/outbox.cif.g09.slc.cpg/sg15_157_cif.got.tgz:312428.got - 2010.06.28 07:06:18.
