data_PCOD8154414
_publ_section_title
;
Structure prediction by ZEFSAII (Michael W. Deem and Ramdas Pophale) SiO2 
 PCOD8154414
Probable space group: C 2/C
;
_chemical_formula_sum "Si O2"
_cell_formula_units_Z 48
_cell_length_a 10.670966
_cell_length_b 8.655780
_cell_length_c 23.559315
_cell_angle_alpha 90.000000
_cell_angle_beta 83.792355
_cell_angle_gamma 90.000000
_cell_volume 2163.309431
_symmetry_space_group_name_H-M "C 2/C"
_symmetry_group_IT_number 15
_symmetry_cell_setting 'monoclinic'
loop_
_space_group_symop_operation_xyz
x,y,z
-x,y,1/2-z
-x,-y,-z
x,-y,1/2+z
1/2+x,1/2+y,z
1/2-x,1/2+y,1/2-z
1/2-x,1/2-y,-z
1/2+x,1/2-y,1/2+z
loop_
_atom_site_type_symbol
_atom_site_label
_atom_site_fract_x
_atom_site_fract_y
_atom_site_fract_z
Si Si1 0.788930 0.120094 0.454057
Si Si2 0.111052 0.810327 0.009784
Si Si3 0.377360 0.269475 0.219757
Si Si4 0.120511 0.865132 0.781846
Si Si5 0.550264 0.887569 0.898722
Si Si6 0.498621 0.226767 0.605720
O O1 0.750000 0.250000 0.500000
O O2 0.661246 0.049592 0.434575
O O3 0.864005 0.193748 0.396513
O O4 0.877837 0.994318 0.480673
O O5 0.039142 0.767286 0.956553
O O6 0.250000 0.750000 0.000000
O O7 0.042761 0.731420 0.066522
O O8 0.500000 0.220920 0.250000
O O9 0.366086 0.452399 0.215940
O O10 0.390635 0.197947 0.157411
O O11 0.249938 0.206350 0.253547
O O12 0.000000 0.814697 0.750000
O O13 0.100682 0.797843 0.845719
O O14 0.479864 0.044704 0.884321
#
# Coordination Sequence:
#
# PCOD8154414 Si02
#       6
#     8   8   8   8   8   8
#     4  12  25  43  67 100 140 177 226 272 338 411
#     4  12  25  44  68 102 142 180 222 278 344 406
#     4  11  27  47  73 100 137 182 233 290 347 407
#     4  11  26  49  70 102 137 179 236 288 344 411
#     4  12  26  46  68 102 139 179 227 282 340 412
#     4  12  25  44  72 100 139 181 226 283 340 409
#
# _framework density 22.188227000000001
#
# number of rings (size 3 to 8) (size 9 to 14) (size 15 to 20)
#    0.000    0.333    3.333    5.000    4.667    6.667 
#    0.000    0.000    0.000    0.000    0.000    0.000 
#    0.000    0.000    0.000    0.000    0.000    0.000 
#
# Total GULP energy -297666.183388 kJ/mol
# GULP energy per Si atom -12402.757641 kJ/mol
# Density = 2.213773 g / cm^3
# Si number density = 22.188227 Si / 1000 Ang^3
#
#
#
# Elastic Constant Matrix: (Units=GPa)
#
#
# Indices 1 2 3 4 5 6 
#
# 1 115.2690 51.5519 41.4944 0.0000 -29.0249 0.0000
# 2 51.5519 150.5631 53.2170 0.0000 -20.6512 0.0000
# 3 41.4944 53.2170 127.6440 0.0000 -40.7785 0.0000
# 4 0.0000 0.0000 0.0000 34.4953 0.0000 -9.3284
# 5 -29.0249 -20.6512 -40.7785 0.0000 46.7148 0.0000
# 6 0.0000 0.0000 0.0000 -9.3284 0.0000 42.5484
#
#
#
# Elastic Compliance Matrix: (Units=1/GPa)
#
#
# Indices 1 2 3 4 5 6 
#
# 1 0.011611 -0.002953 -0.000909 0.000000 0.005115 0.000000
# 2 -0.002953 0.008564 -0.002756 0.000000 -0.000454 0.000000
# 3 -0.000909 -0.002756 0.012077 0.000000 0.008759 0.000000
# 4 0.000000 0.000000 0.000000 0.030817 0.000000 0.006756
# 5 0.005115 -0.000454 0.008759 0.000000 0.032030 0.000000
# 6 0.000000 0.000000 0.000000 0.006756 0.000000 0.024984
#
#
# Mechanical properties :
#
#
# Convention : Reuss Voigt Hill
#
# Bulk Modulus (GPa) = 52.58443 76.22251 64.40347
# Shear Modulus (GPa) = 35.80165 41.23253 38.51709
#
# Velocity S-wave (km/s) = 4.02125 4.31549 4.17096
# Velocity P-wave (km/s) = 6.73137 7.69795 7.23083
#
# Compressibility (1/GPa) = 0.01901704
#
# Stress axis : x y z
#
# Youngs Moduli (GPa) = 86.12349 116.76120 82.80050
#
# Poissons Ratio (x) = 0.34475 0.07530
# Poissons Ratio (y) = 0.25429 0.22819
# Poissons Ratio (z) = 0.07832 0.32179
#
# Static dielectric constant tensor:
#      x y z
#    x 6.140530 0.000000 -0.239670 
#    y 0.000000 4.188390 0.000000 
#    z -0.239670 0.000000 4.038420 
# 
# 
# High freq. dielectric constant tensor:
#      x y z
#    x 1.892850 0.000000 -0.014420 
#    y 0.000000 1.891440 0.000000 
#    z -0.014420 0.000000 1.876460 
# 
# From -- ./inp_files/267663.got.cif
#   From: 2010.06.25/outbox.cif.g09.slc.cpg/sg15_134_cif.got.tgz:267663.got - 2010.06.28 07:06:18.
