data_PCOD8154545
_publ_section_title
;
Structure prediction by ZEFSAII (Michael W. Deem and Ramdas Pophale) SiO2 
 PCOD8154545
Probable space group: C 2/C
;
_chemical_formula_sum "Si O2"
_cell_formula_units_Z 60
_cell_length_a 11.309103
_cell_length_b 21.904870
_cell_length_c 15.891227
_cell_angle_alpha 90.000000
_cell_angle_beta 42.150715
_cell_angle_gamma 90.000000
_cell_volume 2641.816088
_symmetry_space_group_name_H-M "C 2/C"
_symmetry_group_IT_number 15
_symmetry_cell_setting 'monoclinic'
loop_
_space_group_symop_operation_xyz
x,y,z
-x,y,1/2-z
-x,-y,-z
x,-y,1/2+z
1/2+x,1/2+y,z
1/2-x,1/2+y,1/2-z
1/2-x,1/2-y,-z
1/2+x,1/2-y,1/2+z
loop_
_atom_site_type_symbol
_atom_site_label
_atom_site_fract_x
_atom_site_fract_y
_atom_site_fract_z
Si Si1 0.000000 0.922219 0.750000
Si Si2 0.181934 0.472011 0.025285
Si Si3 0.302706 0.505039 0.134181
Si Si4 0.344334 0.633710 0.171380
Si Si5 0.728459 0.891495 0.476886
Si Si6 0.021950 0.284630 0.832901
Si Si7 0.324167 0.909322 0.183003
Si Si8 0.958469 0.839978 0.089745
O O1 0.862261 0.961754 0.877959
O O2 0.899149 0.879651 0.737563
O O3 0.131812 0.542928 0.037611
O O4 0.194049 0.468370 0.120297
O O5 0.034356 0.422753 0.074420
O O6 0.249654 0.575646 0.175936
O O7 0.270382 0.472955 0.241321
O O8 0.500000 0.500000 0.000000
O O9 0.216930 0.690809 0.243268
O O10 0.511121 0.652531 0.026086
O O11 0.615832 0.837974 0.577618
O O12 0.741214 0.882463 0.370647
O O13 0.919252 0.887967 0.421361
O O14 0.991132 0.228646 0.911796
O O15 0.000000 0.259963 0.750000
O O16 0.247456 0.857215 0.286590
#
# Coordination Sequence:
#
# PCOD8154545 Si02
#       8
#     4   8   8   8   8   8   8   8
#     4  12  26  46  72 104 142 198 234 294 368 436
#     4  12  24  41  70 103 147 183 233 293 362 441
#     4  12  21  43  70 101 138 188 231 289 361 428
#     4  12  25  46  71 102 142 187 242 293 360 429
#     4  12  24  43  69 107 143 189 235 291 361 428
#     4  12  25  46  73 105 143 186 244 303 354 420
#     4  12  25  40  64 108 144 181 235 289 356 432
#     4  12  26  44  73 102 143 191 236 297 363 423
#
# _framework density 22.711649000000001
#
# number of rings (size 3 to 8) (size 9 to 14) (size 15 to 20)
#    0.000    0.000    5.333    4.800    3.733    0.000 
#    0.000    0.667    2.933    0.000    0.000    0.000 
#    0.000    0.000    0.000    0.000    0.000    0.000 
#
# Total GULP energy -371866.416043 kJ/mol
# GULP energy per Si atom -12395.547201 kJ/mol
# Density = 2.265996 g / cm^3
# Si number density = 22.711649 Si / 1000 Ang^3
#
#
#
# Elastic Constant Matrix: (Units=GPa)
#
#
# Indices 1 2 3 4 5 6 
#
# 1 90.4208 23.9817 25.8398 -0.0001 15.7290 0.0004
# 2 23.9817 89.6652 17.3197 0.0001 1.6828 0.0000
# 3 25.8398 17.3197 99.9645 -0.0007 0.4285 0.0003
# 4 -0.0001 0.0001 -0.0007 39.5953 0.0000 1.9018
# 5 15.7290 1.6828 0.4285 0.0000 43.0434 -0.0002
# 6 0.0004 0.0000 0.0003 1.9018 -0.0002 25.3037
#
#
#
# Elastic Compliance Matrix: (Units=1/GPa)
#
#
# Indices 1 2 3 4 5 6 
#
# 1 0.013524 -0.002955 -0.002963 0.000000 -0.004797 0.000000
# 2 -0.002955 0.012192 -0.001351 0.000000 0.000617 0.000000
# 3 -0.002963 -0.001351 0.010999 0.000000 0.001026 0.000000
# 4 0.000000 0.000000 0.000000 0.025347 0.000000 -0.001905
# 5 -0.004797 0.000617 0.001026 0.000000 0.024951 0.000000
# 6 0.000000 0.000000 0.000000 -0.001905 0.000000 0.039663
#
#
# Mechanical properties :
#
#
# Convention : Reuss Voigt Hill
#
# Bulk Modulus (GPa) = 45.09165 46.03701 45.56433
# Shear Modulus (GPa) = 33.64546 35.78243 34.71395
#
# Velocity S-wave (km/s) = 3.85310 3.97358 3.91380
# Velocity P-wave (km/s) = 6.30018 6.43169 6.36627
#
# Compressibility (1/GPa) = 0.02217705
#
# Stress axis : x y z
#
# Youngs Moduli (GPa) = 73.94030 82.01878 90.91498
#
# Poissons Ratio (x) = 0.24235 0.26942
# Poissons Ratio (y) = 0.21848 0.12285
# Poissons Ratio (z) = 0.21912 0.11083
#
# Static dielectric constant tensor:
#      x y z
#    x 4.647890 0.000000 0.410840 
#    y 0.000000 4.012500 0.000000 
#    z 0.410840 0.000000 4.469680 
# 
# 
# High freq. dielectric constant tensor:
#      x y z
#    x 1.880610 0.000000 0.015440 
#    y 0.000000 1.882480 0.000000 
#    z 0.015440 0.000000 1.919030 
# 
# From -- ./inp_files/200490.got.cif
#   From: 2010.06.25/outbox.cif.g09.slc.cpg/sg15_101_cif.got.tgz:200490.got - 2010.06.28 07:06:18.
