data_PCOD8154907
_publ_section_title
;
Structure prediction by ZEFSAII (Michael W. Deem and Ramdas Pophale) SiO2 
 PCOD8154907
Probable space group: C 2/C
;
_chemical_formula_sum "Si O2"
_cell_formula_units_Z 36
_cell_length_a 15.753491
_cell_length_b 11.227651
_cell_length_c 17.063305
_cell_angle_alpha 90.000000
_cell_angle_beta 147.229325
_cell_angle_gamma 90.000000
_cell_volume 1633.613000
_symmetry_space_group_name_H-M "C 2/C"
_symmetry_group_IT_number 15
_symmetry_cell_setting 'monoclinic'
loop_
_space_group_symop_operation_xyz
x,y,z
-x,y,1/2-z
-x,-y,-z
x,-y,1/2+z
1/2+x,1/2+y,z
1/2-x,1/2+y,1/2-z
1/2-x,1/2-y,-z
1/2+x,1/2-y,1/2+z
loop_
_atom_site_type_symbol
_atom_site_label
_atom_site_fract_x
_atom_site_fract_y
_atom_site_fract_z
Si Si1 0.144573 0.632973 0.231168
Si Si2 0.626347 0.319964 0.455989
Si Si3 0.041505 0.376690 0.193398
Si Si4 0.738809 0.174205 0.133800
Si Si5 0.500000 0.520946 0.250000
O O1 0.301476 0.652037 0.403251
O O2 0.051985 0.516540 0.186598
O O3 0.191262 0.611336 0.177779
O O4 0.031844 0.745609 0.155323
O O5 0.750000 0.250000 0.500000
O O6 0.589021 0.442617 0.383590
O O7 0.204491 0.308504 0.302432
O O8 0.000000 0.352099 0.250000
O O9 0.910193 0.316915 0.037633
O O10 0.875435 0.101243 0.198095
#
# Coordination Sequence:
#
# PCOD8154907 Si02
#       5
#     8   8   8   8   4
#     4  12  27  45  75 103 143 178 240 288 346 413
#     4  12  24  47  74 106 135 188 233 290 351 415
#     4  12  26  48  71 100 143 184 233 280 355 417
#     4  12  28  46  69 106 140 187 229 294 346 412
#     4  12  26  44  74  96 148 180 240 280 354 418
#
# _framework density 22.037043000000001
#
# number of rings (size 3 to 8) (size 9 to 14) (size 15 to 20)
#    0.000    0.000    3.333    6.667    6.222    0.889 
#    0.000    0.000    0.000    0.000    0.000    0.000 
#    0.000    0.000    0.000    0.000    0.000    0.000 
#
# Total GULP energy -223360.570372 kJ/mol
# GULP energy per Si atom -12408.920576 kJ/mol
# Density = 2.198689 g / cm^3
# Si number density = 22.037043 Si / 1000 Ang^3
#
#
#
# Elastic Constant Matrix: (Units=GPa)
#
#
# Indices 1 2 3 4 5 6 
#
# 1 87.9636 31.6278 60.7537 0.0003 -17.9503 0.0001
# 2 31.6278 72.9348 16.0405 -0.0005 -0.4089 -0.0001
# 3 60.7537 16.0405 157.3438 -0.0006 -27.7545 0.0001
# 4 0.0003 -0.0005 -0.0006 37.7653 -0.0001 -11.3372
# 5 -17.9503 -0.4089 -27.7545 -0.0001 35.4357 0.0001
# 6 0.0001 -0.0001 0.0001 -11.3372 0.0001 25.8066
#
#
#
# Elastic Compliance Matrix: (Units=1/GPa)
#
#
# Indices 1 2 3 4 5 6 
#
# 1 0.018769 -0.006865 -0.005667 0.000000 0.004990 0.000000
# 2 -0.006865 0.016574 0.000442 0.000000 -0.002940 0.000000
# 3 -0.005667 0.000442 0.009274 0.000000 0.004398 0.000000
# 4 0.000000 0.000000 0.000000 0.030502 0.000000 0.013400
# 5 0.004990 -0.002940 0.004398 0.000000 0.034159 0.000000
# 6 0.000000 0.000000 0.000000 0.013400 0.000000 0.044636
#
#
# Mechanical properties :
#
#
# Convention : Reuss Voigt Hill
#
# Bulk Modulus (GPa) = 48.92710 59.45404 54.19057
# Shear Modulus (GPa) = 27.04077 33.78954 30.41515
#
# Velocity S-wave (km/s) = 3.50674 3.91999 3.71911
# Velocity P-wave (km/s) = 6.21665 6.89392 6.56403
#
# Compressibility (1/GPa) = 0.02043857
#
# Stress axis : x y z
#
# Youngs Moduli (GPa) = 53.27977 60.33567 107.82318
#
# Poissons Ratio (x) = 0.41419 0.61104
# Poissons Ratio (y) = 0.36575 -0.04770
# Poissons Ratio (z) = 0.30194 -0.02669
#
# Static dielectric constant tensor:
#      x y z
#    x 3.940550 0.000000 0.018470 
#    y 0.000000 4.132680 0.000000 
#    z 0.018470 0.000000 4.339860 
# 
# 
# High freq. dielectric constant tensor:
#      x y z
#    x 1.873850 0.000000 -0.006450 
#    y 0.000000 1.877470 0.000000 
#    z -0.006450 0.000000 1.890010 
# 
# From -- ./inp_files/45875.got.cif
#   From: 2010.06.25/outbox.cif.g09.slc.cpg/sg15_23_cif.got.tgz:45875.got - 2010.06.28 07:06:18.
