data_PCOD8154917
_publ_section_title
;
Structure prediction by ZEFSAII (Michael W. Deem and Ramdas Pophale) SiO2 
 PCOD8154917
Probable space group: C 2/C
;
_chemical_formula_sum "Si O2"
_cell_formula_units_Z 48
_cell_length_a 9.977486
_cell_length_b 16.023492
_cell_length_c 14.591873
_cell_angle_alpha 90.000000
_cell_angle_beta 61.623352
_cell_angle_gamma 90.000000
_cell_volume 2052.552140
_symmetry_space_group_name_H-M "C 2/C"
_symmetry_group_IT_number 15
_symmetry_cell_setting 'monoclinic'
loop_
_space_group_symop_operation_xyz
x,y,z
-x,y,1/2-z
-x,-y,-z
x,-y,1/2+z
1/2+x,1/2+y,z
1/2-x,1/2+y,1/2-z
1/2-x,1/2-y,-z
1/2+x,1/2-y,1/2+z
loop_
_atom_site_type_symbol
_atom_site_label
_atom_site_fract_x
_atom_site_fract_y
_atom_site_fract_z
Si Si1 0.366220 0.604484 0.471833
Si Si2 0.059184 0.258555 0.398904
Si Si3 0.340367 0.852705 0.760121
Si Si4 0.061564 0.594643 0.471514
Si Si5 0.000000 0.354183 0.250000
Si Si6 0.279743 0.473035 0.176662
Si Si7 0.000000 0.982746 0.750000
O O1 0.446100 0.689836 0.477326
O O2 0.185973 0.608647 0.511028
O O3 0.388091 0.548409 0.555614
O O4 0.449403 0.572577 0.353242
O O5 0.224162 0.223729 0.314048
O O6 0.072298 0.336348 0.467160
O O7 0.964904 0.292413 0.343701
O O8 0.500000 0.823374 0.750000
O O9 0.357812 0.883886 0.650203
O O10 0.276540 0.934194 0.831692
O O11 0.000000 0.500000 0.500000
O O12 0.858723 0.410493 0.267232
O O13 0.364242 0.463676 0.248683
#
# Coordination Sequence:
#
# PCOD8154917 Si02
#       7
#     8   8   8   8   4   8   4
#     4  12  24  47  77 110 147 202 255 315 379 459
#     4  12  27  46  76 111 147 199 263 316 374 461
#     4  12  26  49  74 111 157 199 253 325 383 454
#     4  12  25  48  76 110 152 202 258 314 383 465
#     4  12  25  48  74 109 146 210 256 301 390 464
#     4  12  25  46  79 111 151 201 254 312 388 464
#     4  12  25  44  74 115 154 190 252 325 376 448
#
# _framework density 23.385518999999999
#
# number of rings (size 3 to 8) (size 9 to 14) (size 15 to 20)
#    0.000    0.000    5.833    4.500    2.333    0.667 
#    1.500    0.000    0.000    0.000    0.000    0.000 
#    0.000    0.000    0.000    0.000    0.000    0.000 
#
# Total GULP energy -297429.391895 kJ/mol
# GULP energy per Si atom -12392.891329 kJ/mol
# Density = 2.333229 g / cm^3
# Si number density = 23.385519 Si / 1000 Ang^3
#
#
#
# Elastic Constant Matrix: (Units=GPa)
#
#
# Indices 1 2 3 4 5 6 
#
# 1 135.3058 55.6002 11.7117 0.0000 -10.1628 0.0000
# 2 55.6002 163.7691 81.3028 0.0000 -16.9224 0.0000
# 3 11.7117 81.3028 122.8196 0.0000 -6.0181 0.0000
# 4 0.0000 0.0000 0.0000 43.0626 0.0000 -7.3096
# 5 -10.1628 -16.9224 -6.0181 0.0000 34.4006 0.0000
# 6 0.0000 0.0000 0.0000 -7.3096 0.0000 32.5182
#
#
#
# Elastic Compliance Matrix: (Units=1/GPa)
#
#
# Indices 1 2 3 4 5 6 
#
# 1 0.008858 -0.003728 0.001676 0.000000 0.001076 0.000000
# 2 -0.003728 0.011089 -0.006830 0.000000 0.003159 0.000000
# 3 0.001676 -0.006830 0.012470 0.000000 -0.000683 0.000000
# 4 0.000000 0.000000 0.000000 0.024143 0.000000 0.005427
# 5 0.001076 0.003159 -0.000683 0.000000 0.030821 0.000000
# 6 0.000000 0.000000 0.000000 0.005427 0.000000 0.031972
#
#
# Mechanical properties :
#
#
# Convention : Reuss Voigt Hill
#
# Bulk Modulus (GPa) = 68.24755 79.90264 74.07510
# Shear Modulus (GPa) = 35.21015 40.21493 37.71254
#
# Velocity S-wave (km/s) = 3.88447 4.15137 4.02013
# Velocity P-wave (km/s) = 7.02608 7.56440 7.30021
#
# Compressibility (1/GPa) = 0.01465254
#
# Stress axis : x y z
#
# Youngs Moduli (GPa) = 112.88606 90.17682 80.19058
#
# Poissons Ratio (x) = 0.33621 -0.13441
# Poissons Ratio (y) = 0.42088 0.54774
# Poissons Ratio (z) = -0.18921 0.61595
#
# Static dielectric constant tensor:
#      x y z
#    x 4.547270 0.000000 -0.051630 
#    y 0.000000 4.349510 0.000000 
#    z -0.051630 0.000000 4.453820 
# 
# 
# High freq. dielectric constant tensor:
#      x y z
#    x 1.918870 0.000000 -0.009420 
#    y 0.000000 1.928240 0.000000 
#    z -0.009420 0.000000 1.945020 
# 
# From -- ./inp_files/144104.got.cif
#   From: 2010.06.25/outbox.cif.g09.slc.cpg/sg15_73_cif.got.tgz:144104.got - 2010.06.28 07:06:18.
