data_PCOD8154543
_publ_section_title
;
Structure prediction by ZEFSAII (Michael W. Deem and Ramdas Pophale) SiO2 
 PCOD8154543
Probable space group: C 2/C
;
_chemical_formula_sum "Si O2"
_cell_formula_units_Z 48
_cell_length_a 29.759204
_cell_length_b 7.420147
_cell_length_c 17.832294
_cell_angle_alpha 90.000000
_cell_angle_beta 140.763159
_cell_angle_gamma 90.000000
_cell_volume 2490.694254
_symmetry_space_group_name_H-M "C 2/C"
_symmetry_group_IT_number 15
_symmetry_cell_setting 'monoclinic'
loop_
_space_group_symop_operation_xyz
x,y,z
-x,y,1/2-z
-x,-y,-z
x,-y,1/2+z
1/2+x,1/2+y,z
1/2-x,1/2+y,1/2-z
1/2-x,1/2-y,-z
1/2+x,1/2-y,1/2+z
loop_
_atom_site_type_symbol
_atom_site_label
_atom_site_fract_x
_atom_site_fract_y
_atom_site_fract_z
Si Si1 0.939986 0.054845 0.479870
Si Si2 0.940214 0.468179 0.484335
Si Si3 0.438534 0.733837 0.108273
Si Si4 0.278967 0.269794 0.455663
Si Si5 0.709589 0.528134 0.766929
Si Si6 0.211426 0.560702 0.277124
O O1 0.943262 0.260124 0.512658
O O2 0.943064 0.935358 0.558453
O O3 0.872095 0.025736 0.339393
O O4 0.000000 0.000000 0.500000
O O5 0.947915 0.586118 0.569973
O O6 0.868018 0.518646 0.349740
O O7 0.000000 0.500000 0.500000
O O8 0.500000 0.727008 0.250000
O O9 0.364114 0.721276 0.056923
O O10 0.250000 0.250000 0.500000
O O11 0.237085 0.451592 0.381737
O O12 0.255608 0.098708 0.378052
O O13 0.734778 0.510934 0.715098
O O14 0.720399 0.730981 0.808709
#
# Coordination Sequence:
#
# PCOD8154543 Si02
#       6
#     8   8   8   8   8   8
#     4  12  23  42  72 101 130 178 228 275 330 403
#     4  12  23  42  72 101 130 178 228 275 330 403
#     4  12  28  46  64 104 145 174 219 283 344 394
#     4  12  28  44  68 102 141 178 220 286 339 387
#     4  12  21  42  72  99 126 175 234 279 324 396
#     4  12  21  42  72  99 126 175 234 279 324 396
#
# _framework density 19.271735
#
# number of rings (size 3 to 8) (size 9 to 14) (size 15 to 20)
#    0.000    0.000   10.000    0.000    4.667    1.333 
#    0.000    0.000    0.000    0.000    0.000    0.000 
#    0.000    0.000    0.000    0.000    0.000    0.000 
#
# Total GULP energy -297563.081623 kJ/mol
# GULP energy per Si atom -12398.461734 kJ/mol
# Density = 1.922787 g / cm^3
# Si number density = 19.271735 Si / 1000 Ang^3
#
#
#
# Elastic Constant Matrix: (Units=GPa)
#
#
# Indices 1 2 3 4 5 6 
#
# 1 123.4059 24.4151 41.5276 -0.0001 10.4596 0.0000
# 2 24.4151 178.7659 43.1994 -0.0002 -2.6505 -0.0001
# 3 41.5276 43.1994 128.0436 -0.0001 14.1353 0.0000
# 4 -0.0001 -0.0002 -0.0001 -6.3288 0.0000 -5.3750
# 5 10.4596 -2.6505 14.1353 0.0000 37.9618 0.0000
# 6 0.0000 -0.0001 0.0000 -5.3750 0.0000 26.2095
#
#
#
# Elastic Compliance Matrix: (Units=1/GPa)
#
#
# Indices 1 2 3 4 5 6 
#
# 1 0.009245 -0.000659 -0.002596 0.000000 -0.001627 0.000000
# 2 -0.000659 0.006194 -0.002027 0.000000 0.001369 0.000000
# 3 -0.002596 -0.002027 0.009670 0.000000 -0.003027 0.000000
# 4 0.000000 0.000000 0.000000 -0.134569 0.000000 -0.027597
# 5 -0.001627 0.001369 -0.003027 0.000000 0.028013 0.000000
# 6 0.000000 0.000000 0.000000 -0.027597 0.000000 0.032495
#
#
# Mechanical properties :
#
#
# Convention : Reuss Voigt Hill
#
# Bulk Modulus (GPa) = 68.75833 72.05551 70.40692
# Shear Modulus (GPa) = -149.08205 32.97339 -58.05433
#
# Velocity S-wave (km/s) = -8.80487 4.14088 -5.49450
# Velocity P-wave (km/s) = 8.22265 7.76742 1.90776
#
# Compressibility (1/GPa) = 0.01454369
#
# Stress axis : x y z
#
# Youngs Moduli (GPa) = 108.16182 161.44398 103.41305
#
# Poissons Ratio (x) = 0.10645 0.26851
# Poissons Ratio (y) = 0.07132 0.20962
# Poissons Ratio (z) = 0.28084 0.32725
#
# Static dielectric constant tensor:
#      x y z
#    x 3.768640 0.000000 0.166560 
#    y 0.000000 3.815530 0.000000 
#    z 0.166560 0.000000 3.475170 
# 
# 
# High freq. dielectric constant tensor:
#      x y z
#    x 1.764470 0.000000 0.018600 
#    y 0.000000 1.772650 0.000000 
#    z 0.018600 0.000000 1.747080 
# 
# From -- ./inp_files/176987.got.cif
#   From: 2010.06.25/outbox.cif.g09.slc.cpg/sg15_89_cif.got.tgz:176987.got - 2010.06.28 07:06:18.
