data_PCOD8154884
_publ_section_title
;
Structure prediction by ZEFSAII (Michael W. Deem and Ramdas Pophale) SiO2 
 PCOD8154884
Probable space group: C 2/C
;
_chemical_formula_sum "Si O2"
_cell_formula_units_Z 36
_cell_length_a 12.986273
_cell_length_b 15.909989
_cell_length_c 10.342765
_cell_angle_alpha 90.000000
_cell_angle_beta 131.090683
_cell_angle_gamma 90.000000
_cell_volume 1610.543482
_symmetry_space_group_name_H-M "C 2/C"
_symmetry_group_IT_number 15
_symmetry_cell_setting 'monoclinic'
loop_
_space_group_symop_operation_xyz
x,y,z
-x,y,1/2-z
-x,-y,-z
x,-y,1/2+z
1/2+x,1/2+y,z
1/2-x,1/2+y,1/2-z
1/2-x,1/2-y,-z
1/2+x,1/2-y,1/2+z
loop_
_atom_site_type_symbol
_atom_site_label
_atom_site_fract_x
_atom_site_fract_y
_atom_site_fract_z
Si Si1 0.500000 0.907951 0.750000
Si Si2 0.481996 0.178324 0.503877
Si Si3 0.277375 0.673739 0.833540
Si Si4 0.816816 0.554101 0.520104
Si Si5 0.587157 0.530495 0.693119
O O1 0.527095 0.846627 0.652670
O O2 0.365997 0.965889 0.621320
O O3 0.371983 0.248592 0.451671
O O4 0.633187 0.209994 0.664299
O O5 0.449953 0.097834 0.567518
O O6 0.259258 0.612004 0.939395
O O7 0.351275 0.622665 0.780813
O O8 0.709492 0.535592 0.316897
O O9 0.500000 0.537684 0.750000
O O10 0.500000 0.500000 0.500000
#
# Coordination Sequence:
#
# PCOD8154884 Si02
#       5
#     4   8   8   8   8
#     4  12  24  46  76 104 136 200 248 308 360 442
#     4  12  28  44  74 107 154 190 247 306 381 440
#     4  12  27  47  71 110 149 196 241 312 376 443
#     4  12  24  48  77 103 143 195 256 297 370 446
#     4  12  27  46  75 108 147 195 253 309 366 442
#
# _framework density 22.352702000000001
#
# number of rings (size 3 to 8) (size 9 to 14) (size 15 to 20)
#    0.000    0.000    6.667    2.667    4.667    0.889 
#    0.000    0.000    0.000    0.000    0.000    0.000 
#    0.000    0.000    0.000    0.000    0.000    0.000 
#
# Total GULP energy -223341.336119 kJ/mol
# GULP energy per Si atom -12407.852007 kJ/mol
# Density = 2.230183 g / cm^3
# Si number density = 22.352702 Si / 1000 Ang^3
#
#
#
# Elastic Constant Matrix: (Units=GPa)
#
#
# Indices 1 2 3 4 5 6 
#
# 1 81.2997 10.6660 30.5454 0.0000 4.0137 0.0000
# 2 10.6660 68.0579 39.1459 0.0000 14.6525 0.0000
# 3 30.5454 39.1459 161.9437 0.0000 20.9163 0.0000
# 4 0.0000 0.0000 0.0000 37.3733 0.0000 5.2542
# 5 4.0137 14.6525 20.9163 0.0000 47.5041 0.0000
# 6 0.0000 0.0000 0.0000 5.2542 0.0000 54.7831
#
#
#
# Elastic Compliance Matrix: (Units=1/GPa)
#
#
# Indices 1 2 3 4 5 6 
#
# 1 0.013272 -0.000767 -0.002336 0.000000 0.000144 0.000000
# 2 -0.000767 0.017731 -0.003651 0.000000 -0.003797 0.000000
# 3 -0.002336 -0.003651 0.007769 0.000000 -0.002097 0.000000
# 4 0.000000 0.000000 0.000000 0.027123 0.000000 -0.002601
# 5 0.000144 -0.003797 -0.002097 0.000000 0.023133 0.000000
# 6 0.000000 0.000000 0.000000 -0.002601 0.000000 0.018503
#
#
# Mechanical properties :
#
#
# Convention : Reuss Voigt Hill
#
# Bulk Modulus (GPa) = 39.58402 52.44621 46.01511
# Shear Modulus (GPa) = 38.62181 43.32839 40.97510
#
# Velocity S-wave (km/s) = 4.16123 4.40750 4.28614
# Velocity P-wave (km/s) = 6.39023 7.02961 6.71753
#
# Compressibility (1/GPa) = 0.02526272
#
# Stress axis : x y z
#
# Youngs Moduli (GPa) = 75.34937 56.39844 128.71524
#
# Poissons Ratio (x) = 0.04326 0.30073
# Poissons Ratio (y) = 0.05779 0.46994
# Poissons Ratio (z) = 0.17605 0.20591
#
# Static dielectric constant tensor:
#      x y z
#    x 3.731240 0.000000 0.548070 
#    y 0.000000 3.948000 0.000000 
#    z 0.548070 0.000000 3.635490 
# 
# 
# High freq. dielectric constant tensor:
#      x y z
#    x 1.894790 0.000000 0.002750 
#    y 0.000000 1.871750 0.000000 
#    z 0.002750 0.000000 1.897200 
# 
# From -- ./inp_files/39471.got.cif
#   From: 2010.06.25/outbox.cif.g09.slc.cpg/sg15_20_cif.got.tgz:39471.got - 2010.06.28 07:06:18.
