data_PCOD8154429
_publ_section_title
;
Structure prediction by ZEFSAII (Michael W. Deem and Ramdas Pophale) SiO2 
 PCOD8154429
Probable space group: C 2/C
;
_chemical_formula_sum "Si O2"
_cell_formula_units_Z 40
_cell_length_a 11.844396
_cell_length_b 8.333294
_cell_length_c 17.790139
_cell_angle_alpha 90.000000
_cell_angle_beta 75.210099
_cell_angle_gamma 90.000000
_cell_volume 1697.760129
_symmetry_space_group_name_H-M "C 2/C"
_symmetry_group_IT_number 15
_symmetry_cell_setting 'monoclinic'
loop_
_space_group_symop_operation_xyz
x,y,z
-x,y,1/2-z
-x,-y,-z
x,-y,1/2+z
1/2+x,1/2+y,z
1/2-x,1/2+y,1/2-z
1/2-x,1/2-y,-z
1/2+x,1/2-y,1/2+z
loop_
_atom_site_type_symbol
_atom_site_label
_atom_site_fract_x
_atom_site_fract_y
_atom_site_fract_z
Si Si1 0.795659 0.905037 0.305509
Si Si2 0.406900 0.305966 0.708157
Si Si3 0.526765 0.169539 0.161795
Si Si4 0.090126 0.663834 0.583552
Si Si5 0.179859 0.311324 0.901840
O O1 0.714870 0.789462 0.268847
O O2 0.873054 0.802697 0.350273
O O3 0.877596 0.010777 0.235965
O O4 0.712776 0.008212 0.373146
O O5 0.500000 0.227750 0.750000
O O6 0.478559 0.282566 0.617918
O O7 0.500000 0.105804 0.250000
O O8 0.411636 0.253645 0.145189
O O9 0.562231 0.021948 0.102998
O O10 0.117939 0.689192 0.492354
O O11 0.201435 0.707869 0.616980
#
# Coordination Sequence:
#
# PCOD8154429 Si02
#       5
#     8   8   8   8   8
#     4  12  28  43  76 106 146 190 254 299 370 427
#     4  12  26  47  71 108 146 194 238 312 353 443
#     4  12  27  44  75 109 144 196 241 305 359 441
#     4  11  26  50  75 103 155 193 242 301 375 426
#     4  11  26  51  72 109 149 193 243 305 362 451
#
# _framework density 23.560452999999999
#
# number of rings (size 3 to 8) (size 9 to 14) (size 15 to 20)
#    0.000    0.400    4.000    3.000    2.800    2.400 
#    0.000    2.000    0.000    0.000    0.000    0.000 
#    0.000    0.000    0.000    0.000    0.000    0.000 
#
# Total GULP energy -247983.158409 kJ/mol
# GULP energy per Si atom -12399.157920 kJ/mol
# Density = 2.350683 g / cm^3
# Si number density = 23.560453 Si / 1000 Ang^3
#
#
#
# Elastic Constant Matrix: (Units=GPa)
#
#
# Indices 1 2 3 4 5 6 
#
# 1 202.4131 58.8852 53.5245 0.0000 16.3240 0.0000
# 2 58.8852 81.9791 28.2887 0.0000 1.7115 0.0000
# 3 53.5245 28.2887 76.4115 0.0000 -6.5576 0.0000
# 4 0.0000 0.0000 0.0000 5.1357 0.0000 13.1015
# 5 16.3240 1.7115 -6.5576 0.0000 41.7765 0.0000
# 6 0.0000 0.0000 0.0000 13.1015 0.0000 31.7512
#
#
#
# Elastic Compliance Matrix: (Units=1/GPa)
#
#
# Indices 1 2 3 4 5 6 
#
# 1 0.007403 -0.003850 -0.004050 0.000000 -0.003371 0.000000
# 2 -0.003850 0.016069 -0.003223 0.000000 0.000340 0.000000
# 3 -0.004050 -0.003223 0.017500 0.000000 0.004461 0.000000
# 4 0.000000 0.000000 0.000000 -3.697912 0.000000 1.525871
# 5 -0.003371 0.000340 0.004461 0.000000 0.025940 0.000000
# 6 0.000000 0.000000 0.000000 1.525871 0.000000 -0.598125
#
#
# Mechanical properties :
#
#
# Convention : Reuss Voigt Hill
#
# Bulk Modulus (GPa) = 53.40007 71.35564 62.37786
# Shear Modulus (GPa) = -1.19030 30.40637 14.60804
#
# Velocity S-wave (km/s) = -0.71155 3.59635 2.49273
# Velocity P-wave (km/s) = 4.69460 6.89905 5.90068
#
# Compressibility (1/GPa) = 0.01872657
#
# Stress axis : x y z
#
# Youngs Moduli (GPa) = 135.07935 62.23330 57.14347
#
# Poissons Ratio (x) = 0.23958 0.23141
# Poissons Ratio (y) = 0.52003 0.18417
# Poissons Ratio (z) = 0.54703 0.20058
#
# Static dielectric constant tensor:
#      x y z
#    x 4.838710 0.000000 -0.016760 
#    y 0.000000 4.024190 0.000000 
#    z -0.016760 0.000000 4.222920 
# 
# 
# High freq. dielectric constant tensor:
#      x y z
#    x 1.963370 0.000000 -0.008490 
#    y 0.000000 1.923420 0.000000 
#    z -0.008490 0.000000 1.929220 
# 
# From -- ./inp_files/195096.got.cif
#   From: 2010.06.25/outbox.cif.g09.slc.cpg/sg15_98_cif.got.tgz:195096.got - 2010.06.28 07:06:18.
