data_PCOD8154521
_publ_section_title
;
Structure prediction by ZEFSAII (Michael W. Deem and Ramdas Pophale) SiO2 
 PCOD8154521
Probable space group: C 2/C
;
_chemical_formula_sum "Si O2"
_cell_formula_units_Z 36
_cell_length_a 12.720613
_cell_length_b 26.650851
_cell_length_c 5.107889
_cell_angle_alpha 90.000000
_cell_angle_beta 104.896041
_cell_angle_gamma 90.000000
_cell_volume 1673.457655
_symmetry_space_group_name_H-M "C 2/C"
_symmetry_group_IT_number 15
_symmetry_cell_setting 'monoclinic'
loop_
_space_group_symop_operation_xyz
x,y,z
-x,y,1/2-z
-x,-y,-z
x,-y,1/2+z
1/2+x,1/2+y,z
1/2-x,1/2+y,1/2-z
1/2-x,1/2-y,-z
1/2+x,1/2-y,1/2+z
loop_
_atom_site_type_symbol
_atom_site_label
_atom_site_fract_x
_atom_site_fract_y
_atom_site_fract_z
Si Si1 0.000000 0.534489 0.750000
Si Si2 0.571402 0.634095 0.555573
Si Si3 0.696992 0.889335 0.380105
Si Si4 0.616368 0.842589 0.826171
Si Si5 0.824100 0.758070 0.298126
O O1 0.888265 0.565835 0.704112
O O2 0.000000 0.500000 0.500000
O O3 0.500000 0.613531 0.750000
O O4 0.676370 0.597152 0.592420
O O5 0.610351 0.690445 0.645302
O O6 0.500000 0.633963 0.250000
O O7 0.697243 0.870247 0.678049
O O8 0.666623 0.845033 0.150995
O O9 0.500000 0.871208 0.750000
O O10 0.591419 0.787756 0.687462
O O11 0.750000 0.750000 0.500000
O O12 0.750000 0.750000 0.000000
#
# Coordination Sequence:
#
# PCOD8154521 Si02
#       5
#     4   8   8   8   8
#     4  12  26  48  78 108 132 158 214 302 374 426
#     4  12  25  42  64  94 142 193 232 273 325 397
#     4  12  24  44  69  99 134 174 222 275 360 416
#     4  12  21  38  63  92 133 179 224 279 334 389
#     4  12  22  38  58  90 136 190 240 284 309 362
#
# _framework density 21.512347999999999
#
# number of rings (size 3 to 8) (size 9 to 14) (size 15 to 20)
#    0.000    0.000    6.667    4.667    0.000    1.778 
#    0.000    0.000    0.000    4.000    0.000    0.000 
#    0.000    0.000    0.000    0.000    0.000    0.000 
#
# Total GULP energy -223064.901069 kJ/mol
# GULP energy per Si atom -12392.494504 kJ/mol
# Density = 2.146338 g / cm^3
# Si number density = 21.512348 Si / 1000 Ang^3
#
#
#
# Elastic Constant Matrix: (Units=GPa)
#
#
# Indices 1 2 3 4 5 6 
#
# 1 193.8000 44.4096 63.9020 0.0000 -2.6878 0.0000
# 2 44.4096 82.0526 24.4993 0.0000 -1.2007 0.0000
# 3 63.9020 24.4993 156.7870 0.0000 -9.0952 0.0000
# 4 0.0000 0.0000 0.0000 20.6551 0.0000 -2.6164
# 5 -2.6878 -1.2007 -9.0952 0.0000 47.3013 0.0000
# 6 0.0000 0.0000 0.0000 -2.6164 0.0000 21.8951
#
#
#
# Elastic Compliance Matrix: (Units=1/GPa)
#
#
# Indices 1 2 3 4 5 6 
#
# 1 0.006554 -0.002884 -0.002228 0.000000 -0.000129 0.000000
# 2 -0.002884 0.014053 -0.001021 0.000000 -0.000003 0.000000
# 3 -0.002228 -0.001021 0.007521 0.000000 0.001294 0.000000
# 4 0.000000 0.000000 0.000000 0.049158 0.000000 0.005874
# 5 -0.000129 -0.000003 0.001294 0.000000 0.021382 0.000000
# 6 0.000000 0.000000 0.000000 0.005874 0.000000 0.046374
#
#
# Mechanical properties :
#
#
# Convention : Reuss Voigt Hill
#
# Bulk Modulus (GPa) = 63.04275 77.58460 70.31368
# Shear Modulus (GPa) = 30.75141 37.95887 34.35514
#
# Velocity S-wave (km/s) = 3.78494 4.20517 4.00058
# Velocity P-wave (km/s) = 6.96205 7.72796 7.35498
#
# Compressibility (1/GPa) = 0.01586225
#
# Stress axis : x y z
#
# Youngs Moduli (GPa) = 152.58782 71.16031 132.96672
#
# Poissons Ratio (x) = 0.20520 0.29624
# Poissons Ratio (y) = 0.44002 0.13573
# Poissons Ratio (z) = 0.33996 0.07264
#
# Static dielectric constant tensor:
#      x y z
#    x -0.995280 0.000000 3.098920 
#    y 0.000000 3.116460 0.000000 
#    z 3.098920 0.000000 2.238190 
# 
# 
# High freq. dielectric constant tensor:
#      x y z
#    x 1.869150 0.000000 -0.011430 
#    y 0.000000 1.794470 0.000000 
#    z -0.011430 0.000000 1.867380 
# 
# From -- ./inp_files/5133.got.cif
#   From: 2010.06.25/outbox.cif.g09.slc.cpg/sg15_3_cif.got.tgz:5133.got - 2010.06.28 07:06:18.
