data_PCOD8154948
_publ_section_title
;
Structure prediction by ZEFSAII (Michael W. Deem and Ramdas Pophale) SiO2 
 PCOD8154948
Probable space group: C 2/C
;
_chemical_formula_sum "Si O2"
_cell_formula_units_Z 28
_cell_length_a 9.903504
_cell_length_b 16.412388
_cell_length_c 7.927306
_cell_angle_alpha 90.000000
_cell_angle_beta 115.915769
_cell_angle_gamma 90.000000
_cell_volume 1158.930209
_symmetry_space_group_name_H-M "C 2/C"
_symmetry_group_IT_number 15
_symmetry_cell_setting 'monoclinic'
loop_
_space_group_symop_operation_xyz
x,y,z
-x,y,1/2-z
-x,-y,-z
x,-y,1/2+z
1/2+x,1/2+y,z
1/2-x,1/2+y,1/2-z
1/2-x,1/2-y,-z
1/2+x,1/2-y,1/2+z
loop_
_atom_site_type_symbol
_atom_site_label
_atom_site_fract_x
_atom_site_fract_y
_atom_site_fract_z
Si Si1 0.000000 0.847238 0.250000
Si Si2 0.125956 0.568206 0.049540
Si Si3 0.664717 0.531587 0.041158
Si Si4 0.419383 0.246148 0.539937
O O1 0.957934 0.795272 0.391603
O O2 0.142774 0.904582 0.374615
O O3 0.241341 0.579205 0.266859
O O4 0.234181 0.545638 0.953300
O O5 0.037624 0.652036 0.970179
O O6 0.000000 0.500000 0.000000
O O7 0.500000 0.500000 0.000000
O O8 0.500000 0.282065 0.750000
O O9 0.250000 0.250000 0.500000
#
# Coordination Sequence:
#
# PCOD8154948 Si02
#       4
#     4   8   8   8
#     4  12  28  48  84 112 154 208 260 314 394 464
#     4  12  27  46  76 112 150 193 257 328 380 449
#     4  12  24  49  78 108 149 203 264 311 379 476
#     4  12  29  51  75 112 160 201 257 322 390 463
#
# _framework density 24.160212999999999
#
# number of rings (size 3 to 8) (size 9 to 14) (size 15 to 20)
#    0.000    0.000    2.857    6.000    8.000    2.286 
#    0.000    0.000    0.000    0.000    0.000    0.000 
#    0.000    0.000    0.000    0.000    0.000    0.000 
#
# Total GULP energy -173549.107573 kJ/mol
# GULP energy per Si atom -12396.364827 kJ/mol
# Density = 2.410522 g / cm^3
# Si number density = 24.160213 Si / 1000 Ang^3
#
#
#
# Elastic Constant Matrix: (Units=GPa)
#
#
# Indices 1 2 3 4 5 6 
#
# 1 120.9588 23.2136 46.2142 0.0000 -2.1661 0.0000
# 2 23.2136 109.8350 26.9181 0.0000 -12.2935 0.0000
# 3 46.2142 26.9181 177.2354 0.0000 -8.7022 0.0000
# 4 0.0000 0.0000 0.0000 44.9987 0.0000 -4.5986
# 5 -2.1661 -12.2935 -8.7022 0.0000 46.1537 0.0000
# 6 0.0000 0.0000 0.0000 -4.5986 0.0000 40.2632
#
#
#
# Elastic Compliance Matrix: (Units=1/GPa)
#
#
# Indices 1 2 3 4 5 6 
#
# 1 0.009402 -0.001479 -0.002246 0.000000 -0.000376 0.000000
# 2 -0.001479 0.009931 -0.001005 0.000000 0.002386 0.000000
# 3 -0.002246 -0.001005 0.006422 0.000000 0.000838 0.000000
# 4 0.000000 0.000000 0.000000 0.022485 0.000000 0.002568
# 5 -0.000376 0.002386 0.000838 0.000000 0.022443 0.000000
# 6 0.000000 0.000000 0.000000 0.002568 0.000000 0.025130
#
#
# Mechanical properties :
#
#
# Convention : Reuss Voigt Hill
#
# Bulk Modulus (GPa) = 61.36962 66.74679 64.05821
# Shear Modulus (GPa) = 45.16563 47.06199 46.11381
#
# Velocity S-wave (km/s) = 4.32837 4.41830 4.37357
# Velocity P-wave (km/s) = 7.10183 7.32907 7.21634
#
# Compressibility (1/GPa) = 0.01629471
#
# Stress axis : x y z
#
# Youngs Moduli (GPa) = 106.35697 100.69851 155.72538
#
# Poissons Ratio (x) = 0.14893 0.34968
# Poissons Ratio (y) = 0.15730 0.15657
# Poissons Ratio (z) = 0.23882 0.10125
#
# Static dielectric constant tensor:
#      x y z
#    x 5.529070 0.000000 1.748310 
#    y 0.000000 5.135830 0.000000 
#    z 1.748310 0.000000 6.767680 
# 
# 
# High freq. dielectric constant tensor:
#      x y z
#    x 1.960770 0.000000 0.003290 
#    y 0.000000 1.965440 0.000000 
#    z 0.003290 0.000000 1.987970 
# 
# From -- ./inp_files/27764.got.cif
#   From: 2010.06.25/outbox.cif.g09.slc.cpg/sg15_14_cif.got.tgz:27764.got - 2010.06.28 07:06:18.
