data_PCOD8154561
_publ_section_title
;
Structure prediction by ZEFSAII (Michael W. Deem and Ramdas Pophale) SiO2 
 PCOD8154561
Probable space group: C 2/C
;
_chemical_formula_sum "Si O2"
_cell_formula_units_Z 40
_cell_length_a 17.784017
_cell_length_b 14.131446
_cell_length_c 14.914215
_cell_angle_alpha 90.000000
_cell_angle_beta 32.420686
_cell_angle_gamma 90.000000
_cell_volume 2009.501198
_symmetry_space_group_name_H-M "C 2/C"
_symmetry_group_IT_number 15
_symmetry_cell_setting 'monoclinic'
loop_
_space_group_symop_operation_xyz
x,y,z
-x,y,1/2-z
-x,-y,-z
x,-y,1/2+z
1/2+x,1/2+y,z
1/2-x,1/2+y,1/2-z
1/2-x,1/2-y,-z
1/2+x,1/2-y,1/2+z
loop_
_atom_site_type_symbol
_atom_site_label
_atom_site_fract_x
_atom_site_fract_y
_atom_site_fract_z
Si Si1 0.225117 0.956552 0.368529
Si Si2 0.996740 0.365040 0.155706
Si Si3 0.768835 0.959470 0.824029
Si Si4 0.997523 0.815253 0.539184
Si Si5 0.496840 0.600837 0.654578
O O1 0.358289 0.929408 0.293580
O O2 0.141981 0.861754 0.425590
O O3 0.279777 0.008315 0.224965
O O4 0.124232 0.026377 0.524632
O O5 0.000000 0.313434 0.250000
O O6 0.997086 0.292749 0.072139
O O7 0.131026 0.433246 0.017609
O O8 0.867777 0.867895 0.715824
O O9 0.851583 0.044321 0.788885
O O10 0.986889 0.821301 0.440974
O O11 0.500000 0.649910 0.750000
#
# Coordination Sequence:
#
# PCOD8154561 Si02
#       5
#     8   8   8   8   8
#     4   9  19  35  53  74 103 137 171 209 253 303
#     4  12  22  31  51  82 110 133 163 213 266 301
#     4   9  19  35  53  74 103 137 171 209 253 303
#     4   9  20  34  50  76 107 139 168 204 256 306
#     4   9  17  35  59  76  96 134 180 211 241 301
#
# _framework density 19.905438
#
# number of rings (size 3 to 8) (size 9 to 14) (size 15 to 20)
#    0.000    2.400    0.000    5.400    0.000    6.400 
#    0.000    0.000    0.000   24.000    0.000    0.000 
#    0.000    0.000    0.000    0.000    0.000    0.000 
#
# Total GULP energy -247943.379861 kJ/mol
# GULP energy per Si atom -12397.168993 kJ/mol
# Density = 1.986013 g / cm^3
# Si number density = 19.905438 Si / 1000 Ang^3
#
#
#
# Elastic Constant Matrix: (Units=GPa)
#
#
# Indices 1 2 3 4 5 6 
#
# 1 115.0242 30.1963 59.0375 0.0000 13.8735 0.0000
# 2 30.1963 58.6319 21.7176 0.0000 -1.5420 0.0000
# 3 59.0375 21.7176 81.8620 0.0001 -15.2159 0.0000
# 4 0.0000 0.0000 0.0001 15.1496 0.0000 5.7674
# 5 13.8735 -1.5420 -15.2159 0.0000 37.5627 0.0000
# 6 0.0000 0.0000 0.0000 5.7674 0.0000 20.6867
#
#
#
# Elastic Compliance Matrix: (Units=1/GPa)
#
#
# Indices 1 2 3 4 5 6 
#
# 1 0.019384 -0.004690 -0.015250 0.000000 -0.013529 0.000000
# 2 -0.004690 0.020113 -0.001598 0.000000 0.001911 0.000000
# 3 -0.015250 -0.001598 0.026681 0.000000 0.016375 0.000000
# 4 0.000000 0.000000 0.000000 0.073846 0.000000 -0.020588
# 5 -0.013529 0.001911 0.016375 0.000000 0.038331 0.000000
# 6 0.000000 0.000000 0.000000 -0.020588 0.000000 0.054080
#
#
# Mechanical properties :
#
#
# Convention : Reuss Voigt Hill
#
# Bulk Modulus (GPa) = 43.28665 53.04678 48.16672
# Shear Modulus (GPa) = 17.65448 24.31757 20.98603
#
# Velocity S-wave (km/s) = 2.98135 3.49901 3.25050
# Velocity P-wave (km/s) = 5.80040 6.55983 6.19177
#
# Compressibility (1/GPa) = 0.02310181
#
# Stress axis : x y z
#
# Youngs Moduli (GPa) = 51.58838 49.71813 37.47925
#
# Poissons Ratio (x) = 0.23319 0.57156
# Poissons Ratio (y) = 0.24196 0.05990
# Poissons Ratio (z) = 0.78672 0.07946
#
# Static dielectric constant tensor:
#      x y z
#    x 3.619340 0.000000 -0.009560 
#    y 0.000000 3.152240 0.000000 
#    z -0.009560 0.000000 3.597160 
# 
# 
# High freq. dielectric constant tensor:
#      x y z
#    x 1.782650 0.000000 -0.002000 
#    y 0.000000 1.735440 0.000000 
#    z -0.002000 0.000000 1.782020 
# 
# From -- ./inp_files/38074.got.cif
#   From: 2010.06.25/outbox.cif.g09.slc.cpg/sg15_20_cif.got.tgz:38074.got - 2010.06.28 07:06:18.
