data_PCOD8154697
_publ_section_title
;
Structure prediction by ZEFSAII (Michael W. Deem and Ramdas Pophale) SiO2 
 PCOD8154697
Probable space group: C 2/C
;
_chemical_formula_sum "Si O2"
_cell_formula_units_Z 32
_cell_length_a 18.341122
_cell_length_b 8.420194
_cell_length_c 17.762667
_cell_angle_alpha 90.000000
_cell_angle_beta 32.103559
_cell_angle_gamma 90.000000
_cell_volume 1457.872562
_symmetry_space_group_name_H-M "C 2/C"
_symmetry_group_IT_number 15
_symmetry_cell_setting 'monoclinic'
loop_
_space_group_symop_operation_xyz
x,y,z
-x,y,1/2-z
-x,-y,-z
x,-y,1/2+z
1/2+x,1/2+y,z
1/2-x,1/2+y,1/2-z
1/2-x,1/2-y,-z
1/2+x,1/2-y,1/2+z
loop_
_atom_site_type_symbol
_atom_site_label
_atom_site_fract_x
_atom_site_fract_y
_atom_site_fract_z
Si Si1 0.629583 0.567422 0.429646
Si Si2 0.068418 0.437236 0.018286
Si Si3 0.896803 0.736360 0.407381
Si Si4 0.309231 0.767753 0.254984
O O1 0.500000 0.500000 0.500000
O O2 0.583633 0.617141 0.552686
O O3 0.692488 0.722283 0.332362
O O4 0.746929 0.437676 0.327021
O O5 0.970913 0.292316 0.135011
O O6 0.076538 0.571207 0.074037
O O7 0.000000 0.500000 0.000000
O O8 0.223595 0.369509 0.872688
O O9 0.750000 0.750000 0.500000
O O10 0.000000 0.759476 0.250000
#
# Coordination Sequence:
#
# PCOD8154697 Si02
#       4
#     8   8   8   8
#     4  12  24  43  76 109 137 192 247 297 349 434
#     4  12  24  44  73 109 143 190 249 294 351 442
#     4  12  29  48  72 106 152 189 233 302 381 426
#     4  12  23  40  77 106 142 179 263 293 343 413
#
# _framework density 21.949793
#
# number of rings (size 3 to 8) (size 9 to 14) (size 15 to 20)
#    0.000    0.000    7.500    1.500    7.000    0.000 
#    0.000    6.250    0.000    0.000    0.000    0.000 
#    0.000    0.000    0.000    0.000    0.000    0.000 
#
# Total GULP energy -198297.336526 kJ/mol
# GULP energy per Si atom -12393.583533 kJ/mol
# Density = 2.189983 g / cm^3
# Si number density = 21.949793 Si / 1000 Ang^3
#
#
#
# Elastic Constant Matrix: (Units=GPa)
#
#
# Indices 1 2 3 4 5 6 
#
# 1 115.3705 48.5144 67.2776 0.0000 9.6693 0.0000
# 2 48.5144 108.7955 63.0041 0.0000 23.9003 0.0000
# 3 67.2776 63.0041 187.6966 0.0000 14.2659 0.0000
# 4 0.0000 0.0000 0.0000 53.3547 0.0000 -2.9310
# 5 9.6693 23.9003 14.2659 0.0000 41.0954 0.0000
# 6 0.0000 0.0000 0.0000 -2.9310 0.0000 45.3475
#
#
#
# Elastic Compliance Matrix: (Units=1/GPa)
#
#
# Indices 1 2 3 4 5 6 
#
# 1 0.011969 -0.003621 -0.003102 0.000000 0.000367 0.000000
# 2 -0.003621 0.013831 -0.002874 0.000000 -0.006194 0.000000
# 3 -0.003102 -0.002874 0.007418 0.000000 -0.000174 0.000000
# 4 0.000000 0.000000 0.000000 0.018809 0.000000 0.001216
# 5 0.000367 -0.006194 -0.000174 0.000000 0.027910 0.000000
# 6 0.000000 0.000000 0.000000 0.001216 0.000000 0.022130
#
#
# Mechanical properties :
#
#
# Convention : Reuss Voigt Hill
#
# Bulk Modulus (GPa) = 71.31265 85.49497 78.40381
# Shear Modulus (GPa) = 39.70223 43.49730 41.59977
#
# Velocity S-wave (km/s) = 4.25758 4.45643 4.35814
# Velocity P-wave (km/s) = 7.53186 8.09410 7.81803
#
# Compressibility (1/GPa) = 0.01402276
#
# Stress axis : x y z
#
# Youngs Moduli (GPa) = 83.54994 72.29887 134.81234
#
# Poissons Ratio (x) = 0.26180 0.41825
# Poissons Ratio (y) = 0.30254 0.38746
# Poissons Ratio (z) = 0.25921 0.20779
#
# Static dielectric constant tensor:
#      x y z
#    x 3.861470 0.000000 -0.125340 
#    y 0.000000 4.257260 0.000000 
#    z -0.125340 0.000000 4.550680 
# 
# 
# High freq. dielectric constant tensor:
#      x y z
#    x 1.827140 0.000000 -0.015210 
#    y 0.000000 1.876920 0.000000 
#    z -0.015210 0.000000 1.895350 
# 
# From -- ./inp_files/213638.got.cif
#   From: 2010.06.25/outbox.cif.g09.slc.cpg/sg15_107_cif.got.tgz:213638.got - 2010.06.28 07:06:18.
