data_PCOD8154028
_publ_section_title
;
Structure prediction by ZEFSAII (Michael W. Deem and Ramdas Pophale) SiO2 
 PCOD8154028
Probable space group: C 2/C
;
_chemical_formula_sum "Si O2"
_cell_formula_units_Z 24
_cell_length_a 5.113729
_cell_length_b 16.285296
_cell_length_c 14.078621
_cell_angle_alpha 90.000000
_cell_angle_beta 58.758301
_cell_angle_gamma 90.000000
_cell_volume 1002.427577
_symmetry_space_group_name_H-M "C 2/C"
_symmetry_group_IT_number 15
_symmetry_cell_setting 'monoclinic'
loop_
_space_group_symop_operation_xyz
x,y,z
-x,y,1/2-z
-x,-y,-z
x,-y,1/2+z
1/2+x,1/2+y,z
1/2-x,1/2+y,1/2-z
1/2-x,1/2-y,-z
1/2+x,1/2-y,1/2+z
loop_
_atom_site_type_symbol
_atom_site_label
_atom_site_fract_x
_atom_site_fract_y
_atom_site_fract_z
Si Si1 0.325033 0.408905 0.140318
Si Si2 0.000000 0.213897 0.750000
Si Si3 0.784999 0.939476 0.939028
Si Si4 0.500000 0.321277 0.750000
O O1 0.560665 0.345649 0.147178
O O2 0.419306 0.503637 0.136156
O O3 0.000000 0.394619 0.250000
O O4 0.319350 0.388157 0.029773
O O5 0.700601 0.268353 0.785724
O O6 0.763504 0.875854 0.856326
O O7 0.500000 0.000000 0.000000
#
# Coordination Sequence:
#
# PCOD8154028 Si02
#       4
#     8   4   8   4
#     4  11  24  49  74 106 146 195 240 305 361 428
#     4  12  27  48  71 108 158 186 236 306 367 442
#     4  11  26  46  80 104 144 194 252 298 352 440
#     4  12  29  46  75 110 146 194 242 298 375 428
#
# _framework density 23.941877000000002
#
# number of rings (size 3 to 8) (size 9 to 14) (size 15 to 20)
#    0.000    0.667    1.667    5.000   11.667    2.667 
#    0.000    0.000    0.000    0.000    0.000    0.000 
#    0.000    0.000    0.000    0.000    0.000    0.000 
#
# Total GULP energy -148802.366153 kJ/mol
# GULP energy per Si atom -12400.197179 kJ/mol
# Density = 2.388738 g / cm^3
# Si number density = 23.941877 Si / 1000 Ang^3
#
#
#
# Elastic Constant Matrix: (Units=GPa)
#
#
# Indices 1 2 3 4 5 6 
#
# 1 137.7984 60.8573 62.3609 0.0000 22.5184 0.0000
# 2 60.8573 120.7828 92.3512 0.0000 20.8997 0.0000
# 3 62.3609 92.3512 143.0549 0.0000 29.1117 0.0000
# 4 0.0000 0.0000 0.0000 13.2871 0.0000 22.1009
# 5 22.5184 20.8997 29.1117 0.0000 40.5595 0.0000
# 6 0.0000 0.0000 0.0000 22.1009 0.0000 47.3531
#
#
#
# Elastic Compliance Matrix: (Units=1/GPa)
#
#
# Indices 1 2 3 4 5 6 
#
# 1 0.009875 -0.003236 -0.001685 0.000000 -0.002605 0.000000
# 2 -0.003236 0.017444 -0.009822 0.000000 -0.000143 0.000000
# 3 -0.001685 -0.009822 0.015042 0.000000 -0.004800 0.000000
# 4 0.000000 0.000000 0.000000 0.336470 0.000000 -0.157039
# 5 -0.002605 -0.000143 -0.004800 0.000000 0.029620 0.000000
# 6 0.000000 0.000000 0.000000 -0.157039 0.000000 0.094412
#
#
# Mechanical properties :
#
#
# Convention : Reuss Voigt Hill
#
# Bulk Modulus (GPa) = 77.66961 92.53054 85.10008
# Shear Modulus (GPa) = 9.31722 32.64436 20.98079
#
# Velocity S-wave (km/s) = 1.97485 3.69654 2.96348
# Velocity P-wave (km/s) = 6.14096 7.54660 6.87977
#
# Compressibility (1/GPa) = 0.01287505
#
# Stress axis : x y z
#
# Youngs Moduli (GPa) = 101.27050 57.32570 66.47880
#
# Poissons Ratio (x) = 0.18550 0.11204
# Poissons Ratio (y) = 0.32770 0.65294
# Poissons Ratio (z) = 0.17068 0.56304
#
# Static dielectric constant tensor:
#      x y z
#    x 4.509820 0.000000 0.342890 
#    y 0.000000 4.704240 0.000000 
#    z 0.342890 0.000000 4.286750 
# 
# 
# High freq. dielectric constant tensor:
#      x y z
#    x 1.955630 0.000000 0.017820 
#    y 0.000000 1.954820 0.000000 
#    z 0.017820 0.000000 1.942990 
# 
# From -- ./inp_files/71294.got.cif
#   From: 2010.06.25/outbox.cif.g09.slc.cpg/sg15_36_cif.got.tgz:71294.got - 2010.06.28 07:06:18.
