data_PCOD8154801
_publ_section_title
;
Structure prediction by ZEFSAII (Michael W. Deem and Ramdas Pophale) SiO2 
 PCOD8154801
Probable space group: C 2/C
;
_chemical_formula_sum "Si O2"
_cell_formula_units_Z 52
_cell_length_a 5.834363
_cell_length_b 14.320956
_cell_length_c 26.922045
_cell_angle_alpha 90.000000
_cell_angle_beta 70.301369
_cell_angle_gamma 90.000000
_cell_volume 2117.795177
_symmetry_space_group_name_H-M "C 2/C"
_symmetry_group_IT_number 15
_symmetry_cell_setting 'monoclinic'
loop_
_space_group_symop_operation_xyz
x,y,z
-x,y,1/2-z
-x,-y,-z
x,-y,1/2+z
1/2+x,1/2+y,z
1/2-x,1/2+y,1/2-z
1/2-x,1/2-y,-z
1/2+x,1/2-y,1/2+z
loop_
_atom_site_type_symbol
_atom_site_label
_atom_site_fract_x
_atom_site_fract_y
_atom_site_fract_z
Si Si1 0.455318 0.751159 0.029046
Si Si2 0.685722 0.744414 0.857953
Si Si3 0.083380 0.884275 0.188599
Si Si4 0.957514 0.396734 0.400675
Si Si5 0.158473 0.398276 0.601938
Si Si6 0.000000 0.816631 0.750000
Si Si7 0.276565 0.955400 0.793176
O O1 0.407011 0.848247 0.062506
O O2 0.394736 0.658007 0.065256
O O3 0.250000 0.750000 0.000000
O O4 0.750000 0.750000 0.000000
O O5 0.461123 0.705152 0.842490
O O6 0.590991 0.839787 0.890967
O O7 0.745931 0.673147 0.898017
O O8 0.910763 0.755839 0.803486
O O9 0.000000 0.859563 0.250000
O O10 0.365176 0.911413 0.160141
O O11 0.933969 0.972040 0.179260
O O12 0.853887 0.499098 0.422653
O O13 0.168895 0.403248 0.660238
O O14 0.214353 0.880750 0.755025
O O15 0.500000 0.009301 0.750000
#
# Coordination Sequence:
#
# PCOD8154801 Si02
#       7
#     8   8   8   8   8   4   8
#     4  12  30  56  86 120 155 198 275 353 420 494
#     4  12  25  44  69 109 162 212 264 321 379 468
#     4  12  25  41  70 113 160 208 265 315 374 473
#     4  12  27  52  79 113 157 205 261 329 408 482
#     4  12  26  51  80 112 157 210 260 326 407 483
#     4  12  24  36  66 100 162 220 264 308 372 454
#     4  12  24  43  66 113 158 208 265 307 379 476
#
# _framework density 24.553837000000001
#
# number of rings (size 3 to 8) (size 9 to 14) (size 15 to 20)
#    0.000    0.000    5.385    4.615    3.231    2.462 
#    0.000    0.000    0.000    0.000    0.000    0.000 
#    0.000    0.000    0.000    0.000    0.000    0.000 
#
# Total GULP energy -322218.589322 kJ/mol
# GULP energy per Si atom -12393.022666 kJ/mol
# Density = 2.449795 g / cm^3
# Si number density = 24.553837 Si / 1000 Ang^3
#
#
#
# Elastic Constant Matrix: (Units=GPa)
#
#
# Indices 1 2 3 4 5 6 
#
# 1 112.6221 51.6238 52.0621 0.0000 -2.9356 0.0000
# 2 51.6238 181.4476 49.0055 0.0000 5.8206 0.0000
# 3 52.0621 49.0055 102.5692 0.0000 -7.9154 0.0000
# 4 0.0000 0.0000 0.0000 29.9367 0.0000 -6.0706
# 5 -2.9356 5.8206 -7.9154 0.0000 44.3074 0.0000
# 6 0.0000 0.0000 0.0000 -6.0706 0.0000 39.7050
#
#
#
# Elastic Compliance Matrix: (Units=1/GPa)
#
#
# Indices 1 2 3 4 5 6 
#
# 1 0.012246 -0.002082 -0.005209 0.000000 0.000154 0.000000
# 2 -0.002082 0.006767 -0.002287 0.000000 -0.001436 0.000000
# 3 -0.005209 -0.002287 0.013671 0.000000 0.002398 0.000000
# 4 0.000000 0.000000 0.000000 0.034473 0.000000 0.005271
# 5 0.000154 -0.001436 0.002398 0.000000 0.023197 0.000000
# 6 0.000000 0.000000 0.000000 0.005271 0.000000 0.025992
#
#
# Mechanical properties :
#
#
# Convention : Reuss Voigt Hill
#
# Bulk Modulus (GPa) = 73.92245 78.00239 75.96242
# Shear Modulus (GPa) = 35.71143 39.05299 37.38221
#
# Velocity S-wave (km/s) = 3.81781 3.99244 3.90610
# Velocity P-wave (km/s) = 7.04315 7.28626 7.16574
#
# Compressibility (1/GPa) = 0.01352769
#
# Stress axis : x y z
#
# Youngs Moduli (GPa) = 81.66178 147.76673 73.14587
#
# Poissons Ratio (x) = 0.30767 0.38101
# Poissons Ratio (y) = 0.17003 0.16730
# Poissons Ratio (z) = 0.42537 0.33798
#
# Static dielectric constant tensor:
#      x y z
#    x 4.531080 0.000000 -0.014860 
#    y 0.000000 4.582620 0.000000 
#    z -0.014860 0.000000 4.496240 
# 
# 
# High freq. dielectric constant tensor:
#      x y z
#    x 1.980360 0.000000 -0.003450 
#    y 0.000000 1.983260 0.000000 
#    z -0.003450 0.000000 1.970830 
# 
# From -- ./inp_files/305343.got.cif
#   From: 2010.06.25/outbox.cif.g09.slc.cpg/sg15_153_cif.got.tgz:305343.got - 2010.06.28 07:06:18.
