data_PCOD8154159
_publ_section_title
;
Structure prediction by ZEFSAII (Michael W. Deem and Ramdas Pophale) SiO2 
 PCOD8154159
Probable space group: C 2/C
;
_chemical_formula_sum "Si O2"
_cell_formula_units_Z 40
_cell_length_a 8.927181
_cell_length_b 14.437842
_cell_length_c 13.954128
_cell_angle_alpha 90.000000
_cell_angle_beta 74.075711
_cell_angle_gamma 90.000000
_cell_volume 1729.518101
_symmetry_space_group_name_H-M "C 2/C"
_symmetry_group_IT_number 15
_symmetry_cell_setting 'monoclinic'
loop_
_space_group_symop_operation_xyz
x,y,z
-x,y,1/2-z
-x,-y,-z
x,-y,1/2+z
1/2+x,1/2+y,z
1/2-x,1/2+y,1/2-z
1/2-x,1/2-y,-z
1/2+x,1/2-y,1/2+z
loop_
_atom_site_type_symbol
_atom_site_label
_atom_site_fract_x
_atom_site_fract_y
_atom_site_fract_z
Si Si1 0.862047 0.827031 0.562898
Si Si2 0.301589 0.353638 0.968067
Si Si3 0.360820 0.677948 0.849657
Si Si4 0.176948 0.499851 0.119660
Si Si5 0.321781 0.994425 0.658313
O O1 0.781853 0.749080 0.644076
O O2 0.917766 0.793745 0.446944
O O3 0.742076 0.908880 0.557568
O O4 0.016369 0.858084 0.592290
O O5 0.209920 0.400572 0.895666
O O6 0.250000 0.250000 0.000000
O O7 0.276524 0.411087 0.070631
O O8 0.500000 0.694619 0.750000
O O9 0.295291 0.574061 0.855289
O O10 0.203869 0.522122 0.225558
O O11 0.002585 0.479104 0.114152
#
# Coordination Sequence:
#
# PCOD8154159 Si02
#       5
#     8   8   8   8   8
#     4  11  26  44  71 107 143 185 239 296 364 425
#     4  12  26  45  74 107 145 191 245 303 357 432
#     4  11  25  45  74 102 143 189 239 297 365 434
#     4  11  25  46  72 105 146 191 239 296 365 433
#     4  11  26  44  72 104 146 192 240 297 361 429
#
# _framework density 23.127828999999998
#
# number of rings (size 3 to 8) (size 9 to 14) (size 15 to 20)
#    0.000    0.800    2.000    3.600   11.200    1.600 
#    0.000    0.000    0.000    0.000    0.000    0.000 
#    0.000    0.000    0.000    0.000    0.000    0.000 
#
# Total GULP energy -247957.164316 kJ/mol
# GULP energy per Si atom -12397.858216 kJ/mol
# Density = 2.307519 g / cm^3
# Si number density = 23.127829 Si / 1000 Ang^3
#
#
#
# Elastic Constant Matrix: (Units=GPa)
#
#
# Indices 1 2 3 4 5 6 
#
# 1 109.7343 41.9663 50.5187 0.0000 -14.9090 0.0000
# 2 41.9663 150.2525 60.9376 0.0000 -11.9743 0.0000
# 3 50.5187 60.9376 141.3995 0.0000 -7.3872 0.0000
# 4 0.0000 0.0000 0.0000 33.7792 0.0000 -9.0440
# 5 -14.9090 -11.9743 -7.3872 0.0000 34.8865 0.0000
# 6 0.0000 0.0000 0.0000 -9.0440 0.0000 40.8975
#
#
#
# Elastic Compliance Matrix: (Units=1/GPa)
#
#
# Indices 1 2 3 4 5 6 
#
# 1 0.011775 -0.001651 -0.003299 0.000000 0.003767 0.000000
# 2 -0.001651 0.008445 -0.002968 0.000000 0.001565 0.000000
# 3 -0.003299 -0.002968 0.009508 0.000000 -0.000415 0.000000
# 4 0.000000 0.000000 0.000000 0.031467 0.000000 0.006959
# 5 0.003767 0.001565 -0.000415 0.000000 0.030723 0.000000
# 6 0.000000 0.000000 0.000000 0.006959 0.000000 0.025990
#
#
# Mechanical properties :
#
#
# Convention : Reuss Voigt Hill
#
# Bulk Modulus (GPa) = 71.97817 78.69239 75.33528
# Shear Modulus (GPa) = 36.13407 38.44357 37.28882
#
# Velocity S-wave (km/s) = 3.95696 4.08146 4.01969
# Velocity P-wave (km/s) = 7.21569 7.50399 7.36125
#
# Compressibility (1/GPa) = 0.01389310
#
# Stress axis : x y z
#
# Youngs Moduli (GPa) = 84.92872 118.41464 105.17413
#
# Poissons Ratio (x) = 0.19547 0.34693
# Poissons Ratio (y) = 0.14019 0.31215
# Poissons Ratio (z) = 0.28015 0.35145
#
# Static dielectric constant tensor:
#      x y z
#    x 4.265430 0.000000 -0.160310 
#    y 0.000000 4.069400 0.000000 
#    z -0.160310 0.000000 4.329870 
# 
# 
# High freq. dielectric constant tensor:
#      x y z
#    x 1.918430 0.000000 -0.010490 
#    y 0.000000 1.916000 0.000000 
#    z -0.010490 0.000000 1.923630 
# 
# From -- ./inp_files/133085.got.cif
#   From: 2010.06.25/outbox.cif.g09.slc.cpg/sg15_67_cif.got.tgz:133085.got - 2010.06.28 07:06:18.
