data_PCOD8154255
_publ_section_title
;
Structure prediction by ZEFSAII (Michael W. Deem and Ramdas Pophale) SiO2 
 PCOD8154255
Probable space group: C 2/C
;
_chemical_formula_sum "Si O2"
_cell_formula_units_Z 40
_cell_length_a 16.938839
_cell_length_b 7.126157
_cell_length_c 13.115278
_cell_angle_alpha 90.000000
_cell_angle_beta 110.856083
_cell_angle_gamma 90.000000
_cell_volume 1479.399407
_symmetry_space_group_name_H-M "C 2/C"
_symmetry_group_IT_number 15
_symmetry_cell_setting 'monoclinic'
loop_
_space_group_symop_operation_xyz
x,y,z
-x,y,1/2-z
-x,-y,-z
x,-y,1/2+z
1/2+x,1/2+y,z
1/2-x,1/2+y,1/2-z
1/2-x,1/2-y,-z
1/2+x,1/2-y,1/2+z
loop_
_atom_site_type_symbol
_atom_site_label
_atom_site_fract_x
_atom_site_fract_y
_atom_site_fract_z
Si Si1 0.985298 0.000669 0.629183
Si Si2 0.352769 0.303293 0.365489
Si Si3 0.655456 0.765339 0.998826
Si Si4 0.111905 0.341900 0.411259
Si Si5 0.677826 0.910464 0.227957
O O1 0.977570 0.771554 0.620974
O O2 0.000000 0.072166 0.750000
O O3 0.893547 0.075759 0.550837
O O4 0.059449 0.080210 0.591662
O O5 0.279203 0.435251 0.287299
O O6 0.362133 0.117692 0.299334
O O7 0.328756 0.234736 0.469120
O O8 0.656592 0.783516 0.121128
O O9 0.750000 0.750000 0.000000
O O10 0.602547 0.935556 0.923228
O O11 0.146433 0.300257 0.314029
#
# Coordination Sequence:
#
# PCOD8154255 Si02
#       5
#     8   8   8   8   8
#     4  12  28  48  76 113 160 202 264 327 399 466
#     4  11  27  48  75 115 159 204 265 331 396 473
#     4  11  27  51  77 114 160 206 263 332 395 474
#     4  11  27  46  78 112 152 205 261 320 394 470
#     4  11  25  47  82 110 155 211 266 321 402 475
#
# _framework density 27.037998999999999
#
# number of rings (size 3 to 8) (size 9 to 14) (size 15 to 20)
#    0.000    0.800    0.000    4.800   14.000    7.200 
#    0.000    0.000    0.000    0.000    0.000    0.000 
#    0.000    0.000    0.000    0.000    0.000    0.000 
#
# Total GULP energy -248025.224315 kJ/mol
# GULP energy per Si atom -12401.261216 kJ/mol
# Density = 2.697646 g / cm^3
# Si number density = 27.037999 Si / 1000 Ang^3
#
#
#
# Elastic Constant Matrix: (Units=GPa)
#
#
# Indices 1 2 3 4 5 6 
#
# 1 121.2361 55.6117 38.2107 0.0000 1.9540 0.0000
# 2 55.6117 145.9532 41.6428 0.0000 -8.5483 0.0000
# 3 38.2107 41.6428 195.6181 0.0000 -13.4174 0.0000
# 4 0.0000 0.0000 0.0000 36.0278 0.0000 4.9081
# 5 1.9540 -8.5483 -13.4174 0.0000 35.8365 0.0000
# 6 0.0000 0.0000 0.0000 4.9081 0.0000 52.1672
#
#
#
# Elastic Compliance Matrix: (Units=1/GPa)
#
#
# Indices 1 2 3 4 5 6 
#
# 1 0.010406 -0.003686 -0.001383 0.000000 -0.001964 0.000000
# 2 -0.003686 0.008650 -0.000992 0.000000 0.001893 0.000000
# 3 -0.001383 -0.000992 0.005729 0.000000 0.001984 0.000000
# 4 0.000000 0.000000 0.000000 0.028117 0.000000 -0.002645
# 5 -0.001964 0.001893 0.001984 0.000000 0.029206 0.000000
# 6 0.000000 0.000000 0.000000 -0.002645 0.000000 0.019418
#
#
# Mechanical properties :
#
#
# Convention : Reuss Voigt Hill
#
# Bulk Modulus (GPa) = 78.95599 81.52641 80.24120
# Shear Modulus (GPa) = 42.42035 46.62911 44.52473
#
# Velocity S-wave (km/s) = 3.96525 4.15731 4.06241
# Velocity P-wave (km/s) = 7.08728 7.29810 7.19346
#
# Compressibility (1/GPa) = 0.01266528
#
# Stress axis : x y z
#
# Youngs Moduli (GPa) = 96.09384 115.61240 174.54199
#
# Poissons Ratio (x) = 0.42610 0.24137
# Poissons Ratio (y) = 0.35416 0.17307
# Poissons Ratio (z) = 0.13289 0.11463
#
# Static dielectric constant tensor:
#      x y z
#    x 4.553320 0.000000 0.282280 
#    y 0.000000 4.892460 0.000000 
#    z 0.282280 0.000000 5.263060 
# 
# 
# High freq. dielectric constant tensor:
#      x y z
#    x 2.063100 0.000000 0.017980 
#    y 0.000000 2.097630 0.000000 
#    z 0.017980 0.000000 2.122010 
# 
# From -- ./inp_files/170719.got.cif
#   From: 2010.06.25/outbox.cif.g09.slc.cpg/sg15_86_cif.got.tgz:170719.got - 2010.06.28 07:06:18.
