data_PCOD8154379
_publ_section_title
;
Structure prediction by ZEFSAII (Michael W. Deem and Ramdas Pophale) SiO2 
 PCOD8154379
Probable space group: C 2/C
;
_chemical_formula_sum "Si O2"
_cell_formula_units_Z 52
_cell_length_a 18.358187
_cell_length_b 18.915060
_cell_length_c 12.350997
_cell_angle_alpha 90.000000
_cell_angle_beta 147.586015
_cell_angle_gamma 90.000000
_cell_volume 2298.957526
_symmetry_space_group_name_H-M "C 2/C"
_symmetry_group_IT_number 15
_symmetry_cell_setting 'monoclinic'
loop_
_space_group_symop_operation_xyz
x,y,z
-x,y,1/2-z
-x,-y,-z
x,-y,1/2+z
1/2+x,1/2+y,z
1/2-x,1/2+y,1/2-z
1/2-x,1/2-y,-z
1/2+x,1/2-y,1/2+z
loop_
_atom_site_type_symbol
_atom_site_label
_atom_site_fract_x
_atom_site_fract_y
_atom_site_fract_z
Si Si1 0.311874 0.605259 0.431283
Si Si2 0.802823 0.514716 0.856911
Si Si3 0.894512 0.631917 0.831134
Si Si4 0.844546 0.216228 0.026541
Si Si5 0.376492 0.231089 0.340177
Si Si6 0.000000 0.436478 0.250000
Si Si7 0.102898 0.886786 0.221432
O O1 0.220040 0.545332 0.261824
O O2 0.232343 0.678289 0.346530
O O3 0.352208 0.587023 0.603964
O O4 0.440182 0.612577 0.512086
O O5 0.909147 0.567961 0.933754
O O6 0.665404 0.556544 0.716412
O O7 0.873427 0.484760 0.053659
O O8 0.733817 0.646079 0.611711
O O9 0.959321 0.614110 0.796999
O O10 0.970383 0.699745 0.980247
O O11 0.000000 0.195545 0.250000
O O12 0.750000 0.250000 0.000000
O O13 0.848595 0.270231 0.933072
O O14 0.354476 0.306777 0.255910
#
# Coordination Sequence:
#
# PCOD8154379 Si02
#       7
#     8   8   8   8   8   4   8
#     4  11  26  48  71 103 151 187 244 307 361 441
#     4  12  26  47  74 103 144 190 244 298 365 445
#     4  12  25  45  70 107 142 188 243 295 368 429
#     4  12  25  43  69 107 145 189 240 299 367 431
#     4  12  24  46  73 103 150 189 242 304 364 437
#     4  12  26  46  74 102 144 190 240 306 364 442
#     4  11  26  47  72 109 138 196 245 295 376 434
#
# _framework density 22.618949000000001
#
# number of rings (size 3 to 8) (size 9 to 14) (size 15 to 20)
#    0.000    0.308    4.615    4.154    2.154    0.000 
#    5.538    0.000    0.000    0.000    0.000    0.000 
#    0.000    0.000    0.000    0.000    0.000    0.000 
#
# Total GULP energy -322354.736906 kJ/mol
# GULP energy per Si atom -12398.259112 kJ/mol
# Density = 2.256747 g / cm^3
# Si number density = 22.618949 Si / 1000 Ang^3
#
#
#
# Elastic Constant Matrix: (Units=GPa)
#
#
# Indices 1 2 3 4 5 6 
#
# 1 79.8389 20.0407 22.9819 0.0000 0.6795 0.0000
# 2 20.0407 108.6716 33.8679 0.0000 -1.4235 0.0000
# 3 22.9819 33.8679 113.9450 0.0000 12.2554 0.0000
# 4 0.0000 0.0000 0.0000 41.7603 0.0000 5.7228
# 5 0.6795 -1.4235 12.2554 0.0000 35.7943 0.0000
# 6 0.0000 0.0000 0.0000 5.7228 0.0000 34.9653
#
#
#
# Elastic Compliance Matrix: (Units=1/GPa)
#
#
# Indices 1 2 3 4 5 6 
#
# 1 0.013624 -0.001802 -0.002260 0.000000 0.000443 0.000000
# 2 -0.001802 0.010457 -0.002900 0.000000 0.001443 0.000000
# 3 -0.002260 -0.002900 0.010488 0.000000 -0.003663 0.000000
# 4 0.000000 0.000000 0.000000 0.024496 0.000000 -0.004009
# 5 0.000443 0.001443 -0.003663 0.000000 0.029241 0.000000
# 6 0.000000 0.000000 0.000000 -0.004009 0.000000 0.029256
#
#
# Mechanical properties :
#
#
# Convention : Reuss Voigt Hill
#
# Bulk Modulus (GPa) = 48.43773 50.69296 49.56534
# Shear Modulus (GPa) = 36.13563 37.54165 36.83864
#
# Velocity S-wave (km/s) = 4.00131 4.07841 4.04005
# Velocity P-wave (km/s) = 6.54282 6.68119 6.61237
#
# Compressibility (1/GPa) = 0.02064506
#
# Stress axis : x y z
#
# Youngs Moduli (GPa) = 73.39764 95.62900 95.34799
#
# Poissons Ratio (x) = 0.17236 0.21548
# Poissons Ratio (y) = 0.13229 0.27649
# Poissons Ratio (z) = 0.16587 0.27731
#
# Static dielectric constant tensor:
#      x y z
#    x 4.134140 0.000000 0.108310 
#    y 0.000000 4.054250 0.000000 
#    z 0.108310 0.000000 4.199150 
# 
# 
# High freq. dielectric constant tensor:
#      x y z
#    x 1.902070 0.000000 0.005860 
#    y 0.000000 1.893820 0.000000 
#    z 0.005860 0.000000 1.896240 
# 
# From -- ./inp_files/169029.got.cif
#   From: 2010.06.25/outbox.cif.g09.slc.cpg/sg15_85_cif.got.tgz:169029.got - 2010.06.28 07:06:18.
