data_PCOD8154267
_publ_section_title
;
Structure prediction by ZEFSAII (Michael W. Deem and Ramdas Pophale) SiO2 
 PCOD8154267
Probable space group: C 2/C
;
_chemical_formula_sum "Si O2"
_cell_formula_units_Z 40
_cell_length_a 18.276598
_cell_length_b 5.417567
_cell_length_c 18.621510
_cell_angle_alpha 90.000000
_cell_angle_beta 53.920311
_cell_angle_gamma 90.000000
_cell_volume 1490.159282
_symmetry_space_group_name_H-M "C 2/C"
_symmetry_group_IT_number 15
_symmetry_cell_setting 'monoclinic'
loop_
_space_group_symop_operation_xyz
x,y,z
-x,y,1/2-z
-x,-y,-z
x,-y,1/2+z
1/2+x,1/2+y,z
1/2-x,1/2+y,1/2-z
1/2-x,1/2-y,-z
1/2+x,1/2-y,1/2+z
loop_
_atom_site_type_symbol
_atom_site_label
_atom_site_fract_x
_atom_site_fract_y
_atom_site_fract_z
Si Si1 0.450691 0.404287 0.845884
Si Si2 0.036247 0.255108 0.901965
Si Si3 0.621804 0.883061 0.988803
Si Si4 0.207784 0.543813 0.243018
Si Si5 0.214298 0.192247 0.599080
O O1 0.500000 0.269642 0.750000
O O2 0.524416 0.513525 0.859394
O O3 0.382735 0.225348 0.928007
O O4 0.390717 0.618527 0.844100
O O5 0.100546 0.454915 0.824064
O O6 0.939353 0.371248 0.975649
O O7 0.084708 0.188242 0.950438
O O8 0.723090 0.965622 0.908504
O O9 0.251169 0.288545 0.242396
O O10 0.221858 0.575278 0.148819
O O11 0.250000 0.250000 0.500000
#
# Coordination Sequence:
#
# PCOD8154267 Si02
#       5
#     8   8   8   8   8
#     4  12  26  44  71 108 148 193 251 321 389 455
#     4  11  25  48  72 106 146 195 258 309 380 459
#     4  11  26  47  74 103 145 205 252 314 380 468
#     4  12  29  50  80 114 155 205 258 314 388 467
#     4  12  26  47  72 113 151 197 256 325 386 451
#
# _framework density 26.842769000000001
#
# number of rings (size 3 to 8) (size 9 to 14) (size 15 to 20)
#    0.000    0.400    6.000    1.200    5.600    4.000 
#    0.000    0.000    0.000    0.000    0.000    0.000 
#    0.000    0.000    0.000    0.000    0.000    0.000 
#
# Total GULP energy -247986.527909 kJ/mol
# GULP energy per Si atom -12399.326395 kJ/mol
# Density = 2.678167 g / cm^3
# Si number density = 26.842769 Si / 1000 Ang^3
#
#
#
# Elastic Constant Matrix: (Units=GPa)
#
#
# Indices 1 2 3 4 5 6 
#
# 1 104.4289 13.9805 24.1267 0.0206 13.7575 0.2498
# 2 13.9805 52.6070 -8.1498 0.1093 9.7315 0.2013
# 3 24.1267 -8.1498 132.1767 0.0128 26.9048 0.0432
# 4 0.0206 0.1093 0.0128 42.9529 -0.0385 10.7487
# 5 13.7575 9.7315 26.9048 -0.0385 51.3669 0.0373
# 6 0.2498 0.2013 0.0432 10.7487 0.0373 15.8375
#
#
#
# Elastic Compliance Matrix: (Units=1/GPa)
#
#
# Indices 1 2 3 4 5 6 
#
# 1 0.010555 -0.002842 -0.001831 0.000039 -0.001329 -0.000148
# 2 -0.002842 0.021060 0.002770 -0.000003 -0.004679 -0.000218
# 3 -0.001831 0.002770 0.009042 -0.000010 -0.004770 -0.000013
# 4 0.000039 -0.000003 -0.000010 0.028045 0.000030 -0.019034
# 5 -0.001329 -0.004679 -0.004770 0.000030 0.023209 0.000018
# 6 -0.000148 -0.000218 -0.000013 -0.019034 0.000018 0.076065
#
#
# Mechanical properties :
#
#
# Convention : Reuss Voigt Hill
#
# Bulk Modulus (GPa) = 27.13797 38.79193 32.96495
# Shear Modulus (GPa) = 27.16434 39.31512 33.23973
#
# Velocity S-wave (km/s) = 3.18461 3.83122 3.52278
# Velocity P-wave (km/s) = 4.86357 5.83557 5.37160
#
# Compressibility (1/GPa) = 0.03684874
#
# Stress axis : x y z
#
# Youngs Moduli (GPa) = 94.74219 47.48389 110.59928
#
# Poissons Ratio (x) = 0.13497 0.20254
# Poissons Ratio (y) = 0.26929 -0.30634
# Poissons Ratio (z) = 0.17350 -0.13152
#
# Static dielectric constant tensor:
#      x y z
#    x 5.452430 -0.000460 0.008500 
#    y -0.000460 4.286910 0.000090 
#    z 0.008500 0.000090 5.425110 
# 
# 
# High freq. dielectric constant tensor:
#      x y z
#    x 2.091130 -0.000030 0.008830 
#    y -0.000030 2.041280 -0.000010 
#    z 0.008830 -0.000010 2.103100 
# 
# From -- ./inp_files/223736.got.cif
#   From: 2010.06.25/outbox.cif.g09.slc.cpg/sg15_112_cif.got.tgz:223736.got - 2010.06.28 07:06:18.
