data_PCOD8154354
_publ_section_title
;
Structure prediction by ZEFSAII (Michael W. Deem and Ramdas Pophale) SiO2 
 PCOD8154354
Probable space group: C 2/C
;
_chemical_formula_sum "Si O2"
_cell_formula_units_Z 36
_cell_length_a 18.254479
_cell_length_b 17.537643
_cell_length_c 8.952129
_cell_angle_alpha 90.000000
_cell_angle_beta 151.386697
_cell_angle_gamma 90.000000
_cell_volume 1372.486032
_symmetry_space_group_name_H-M "C 2/C"
_symmetry_group_IT_number 15
_symmetry_cell_setting 'monoclinic'
loop_
_space_group_symop_operation_xyz
x,y,z
-x,y,1/2-z
-x,-y,-z
x,-y,1/2+z
1/2+x,1/2+y,z
1/2-x,1/2+y,1/2-z
1/2-x,1/2-y,-z
1/2+x,1/2-y,1/2+z
loop_
_atom_site_type_symbol
_atom_site_label
_atom_site_fract_x
_atom_site_fract_y
_atom_site_fract_z
Si Si1 0.603613 0.665995 0.232602
Si Si2 0.292954 0.465347 0.415329
Si Si3 0.500000 0.602146 0.750000
Si Si4 0.888760 0.449545 0.683433
Si Si5 0.963173 0.328997 0.346234
O O1 0.575800 0.589090 0.278889
O O2 0.787310 0.671020 0.582633
O O3 0.503352 0.737863 0.107952
O O4 0.557301 0.657790 0.979486
O O5 0.356591 0.550834 0.541275
O O6 0.138487 0.477685 0.248603
O O7 0.263950 0.437689 0.192956
O O8 0.000000 0.477044 0.750000
O O9 0.932348 0.369665 0.840755
O O10 0.000000 0.365700 0.250000
#
# Coordination Sequence:
#
# PCOD8154354 Si02
#       5
#     8   8   4   8   8
#     4  11  26  46  71 106 151 188 236 304 366 437
#     4  12  26  46  78 108 145 192 243 311 362 427
#     4  12  26  46  72 110 146 190 248 298 374 436
#     4  12  26  46  77 111 141 189 253 304 358 432
#     4  11  27  48  74 105 147 194 244 298 368 437
#
# _framework density 26.229773999999999
#
# number of rings (size 3 to 8) (size 9 to 14) (size 15 to 20)
#    0.000    0.444    4.444    2.667    3.111    0.000 
#    0.000    3.333    0.000    0.000    0.000    0.000 
#    0.000    0.000    0.000    0.000    0.000    0.000 
#
# Total GULP energy -223084.214225 kJ/mol
# GULP energy per Si atom -12393.567457 kJ/mol
# Density = 2.617007 g / cm^3
# Si number density = 26.229774 Si / 1000 Ang^3
#
#
#
# Elastic Constant Matrix: (Units=GPa)
#
#
# Indices 1 2 3 4 5 6 
#
# 1 105.7438 22.0922 38.4286 0.0000 -33.7368 0.0000
# 2 22.0922 128.8840 68.0191 0.0000 -28.0924 0.0000
# 3 38.4286 68.0191 146.8633 0.0000 -50.6479 0.0000
# 4 0.0000 0.0000 0.0000 39.3881 0.0000 -11.3574
# 5 -33.7368 -28.0924 -50.6479 0.0000 56.9760 0.0000
# 6 0.0000 0.0000 0.0000 -11.3574 0.0000 28.6490
#
#
#
# Elastic Compliance Matrix: (Units=1/GPa)
#
#
# Indices 1 2 3 4 5 6 
#
# 1 0.011760 -0.000230 -0.000877 0.000000 0.006070 0.000000
# 2 -0.000230 0.010331 -0.004348 0.000000 0.001093 0.000000
# 3 -0.000877 -0.004348 0.011730 0.000000 0.007764 0.000000
# 4 0.000000 0.000000 0.000000 0.028665 0.000000 0.011364
# 5 0.006070 0.001093 0.007764 0.000000 0.028586 0.000000
# 6 0.000000 0.000000 0.000000 0.011364 0.000000 0.039410
#
#
# Mechanical properties :
#
#
# Convention : Reuss Voigt Hill
#
# Bulk Modulus (GPa) = 43.64640 70.95235 57.29937
# Shear Modulus (GPa) = 33.55045 41.86604 37.70825
#
# Velocity S-wave (km/s) = 3.58033 3.99949 3.79570
# Velocity P-wave (km/s) = 5.81101 6.95966 6.41111
#
# Compressibility (1/GPa) = 0.02291140
#
# Stress axis : x y z
#
# Youngs Moduli (GPa) = 85.03127 96.79545 85.25346
#
# Poissons Ratio (x) = 0.02223 0.07480
# Poissons Ratio (y) = 0.01953 0.37066
# Poissons Ratio (z) = 0.07461 0.42085
#
# Static dielectric constant tensor:
#      x y z
#    x 4.947970 0.000000 -0.158540 
#    y 0.000000 5.152910 0.000000 
#    z -0.158540 0.000000 5.327760 
# 
# 
# High freq. dielectric constant tensor:
#      x y z
#    x 2.064840 0.000000 -0.006860 
#    y 0.000000 2.046260 0.000000 
#    z -0.006860 0.000000 2.066530 
# 
# From -- ./inp_files/57114.got.cif
#   From: 2010.06.25/outbox.cif.g09.slc.cpg/sg15_29_cif.got.tgz:57114.got - 2010.06.28 07:06:18.
