data_PCOD8154110
_publ_section_title
;
Structure prediction by ZEFSAII (Michael W. Deem and Ramdas Pophale) SiO2 
 PCOD8154110
Probable space group: C 2/C
;
_chemical_formula_sum "Si O2"
_cell_formula_units_Z 40
_cell_length_a 8.644786
_cell_length_b 18.694661
_cell_length_c 11.465722
_cell_angle_alpha 90.000000
_cell_angle_beta 107.049931
_cell_angle_gamma 90.000000
_cell_volume 1771.551059
_symmetry_space_group_name_H-M "C 2/C"
_symmetry_group_IT_number 15
_symmetry_cell_setting 'monoclinic'
loop_
_space_group_symop_operation_xyz
x,y,z
-x,y,1/2-z
-x,-y,-z
x,-y,1/2+z
1/2+x,1/2+y,z
1/2-x,1/2+y,1/2-z
1/2-x,1/2-y,-z
1/2+x,1/2-y,1/2+z
loop_
_atom_site_type_symbol
_atom_site_label
_atom_site_fract_x
_atom_site_fract_y
_atom_site_fract_z
Si Si1 0.075279 0.262659 0.516610
Si Si2 0.981695 0.411772 0.112230
Si Si3 0.000000 0.061333 0.250000
Si Si4 0.000000 0.288034 0.750000
Si Si5 0.321400 0.644610 0.387975
Si Si6 0.263003 0.481247 0.040766
O O1 0.250000 0.250000 0.500000
O O2 0.027176 0.343820 0.475317
O O3 0.081933 0.246170 0.658674
O O4 0.940354 0.210840 0.434365
O O5 0.000000 0.386865 0.250000
O O6 0.138005 0.458343 0.113503
O O7 0.822222 0.461371 0.063942
O O8 0.859931 0.111107 0.271222
O O9 0.922305 0.014876 0.131443
O O10 0.135242 0.333712 0.844925
O O11 0.337357 0.586601 0.492247
#
# Coordination Sequence:
#
# PCOD8154110 Si02
#       6
#     8   8   4   4   8   8
#     4  12  28  47  73 111 148 199 249 308 385 446
#     4  11  25  44  73 106 148 191 249 307 373 456
#     4  12  26  45  74 105 148 186 244 318 358 456
#     4  12  26  47  74 101 158 190 244 320 362 466
#     4  12  26  46  73 108 145 196 250 301 385 443
#     4  11  25  46  71 107 143 199 250 304 380 439
#
# _framework density 22.579083000000001
#
# number of rings (size 3 to 8) (size 9 to 14) (size 15 to 20)
#    0.000    0.400    2.000    6.000    8.400    2.400 
#    0.000    0.000    0.000    0.000    0.000    0.000 
#    0.000    0.000    0.000    0.000    0.000    0.000 
#
# Total GULP energy -248046.482108 kJ/mol
# GULP energy per Si atom -12402.324105 kJ/mol
# Density = 2.252769 g / cm^3
# Si number density = 22.579083 Si / 1000 Ang^3
#
#
#
# Elastic Constant Matrix: (Units=GPa)
#
#
# Indices 1 2 3 4 5 6 
#
# 1 128.4435 39.8501 46.2512 0.0000 1.1954 0.0000
# 2 39.8501 104.4924 26.2507 0.0000 9.1715 0.0000
# 3 46.2512 26.2507 125.7803 0.0000 -13.2261 0.0000
# 4 0.0000 0.0000 0.0000 33.0117 0.0000 -7.2612
# 5 1.1954 9.1715 -13.2261 0.0000 39.3449 0.0000
# 6 0.0000 0.0000 0.0000 -7.2612 0.0000 24.7808
#
#
#
# Elastic Compliance Matrix: (Units=1/GPa)
#
#
# Indices 1 2 3 4 5 6 
#
# 1 0.009798 -0.002910 -0.003064 0.000000 -0.000649 0.000000
# 2 -0.002910 0.011361 -0.001628 0.000000 -0.003107 0.000000
# 3 -0.003064 -0.001628 0.009813 0.000000 0.003771 0.000000
# 4 0.000000 0.000000 0.000000 0.032379 0.000000 0.009488
# 5 -0.000649 -0.003107 0.003771 0.000000 0.027428 0.000000
# 6 0.000000 0.000000 0.000000 0.009488 0.000000 0.043134
#
#
# Mechanical properties :
#
#
# Convention : Reuss Voigt Hill
#
# Bulk Modulus (GPa) = 63.41385 64.82446 64.11915
# Shear Modulus (GPa) = 32.38913 35.85175 34.12044
#
# Velocity S-wave (km/s) = 3.79156 3.98908 3.89157
# Velocity P-wave (km/s) = 6.87852 7.07031 6.97508
#
# Compressibility (1/GPa) = 0.01576943
#
# Stress axis : x y z
#
# Youngs Moduli (GPa) = 102.06631 88.01663 101.90307
#
# Poissons Ratio (x) = 0.25611 0.31220
# Poissons Ratio (y) = 0.29700 0.16589
# Poissons Ratio (z) = 0.31270 0.14328
#
# Static dielectric constant tensor:
#      x y z
#    x 4.210570 0.000000 -0.148820 
#    y 0.000000 4.064080 0.000000 
#    z -0.148820 0.000000 3.865920 
# 
# 
# High freq. dielectric constant tensor:
#      x y z
#    x 1.910880 0.000000 -0.009820 
#    y 0.000000 1.888440 0.000000 
#    z -0.009820 0.000000 1.897280 
# 
# From -- ./inp_files/76955.got.cif
#   From: 2010.06.25/outbox.cif.g09.slc.cpg/sg15_39_cif.got.tgz:76955.got - 2010.06.28 07:06:18.
