data_PCOD8154909
_publ_section_title
;
Structure prediction by ZEFSAII (Michael W. Deem and Ramdas Pophale) SiO2 
 PCOD8154909
Probable space group: C 2/C
;
_chemical_formula_sum "Si O2"
_cell_formula_units_Z 44
_cell_length_a 14.060858
_cell_length_b 11.329473
_cell_length_c 11.823600
_cell_angle_alpha 90.000000
_cell_angle_beta 98.810640
_cell_angle_gamma 90.000000
_cell_volume 1861.298766
_symmetry_space_group_name_H-M "C 2/C"
_symmetry_group_IT_number 15
_symmetry_cell_setting 'monoclinic'
loop_
_space_group_symop_operation_xyz
x,y,z
-x,y,1/2-z
-x,-y,-z
x,-y,1/2+z
1/2+x,1/2+y,z
1/2-x,1/2+y,1/2-z
1/2-x,1/2-y,-z
1/2+x,1/2-y,1/2+z
loop_
_atom_site_type_symbol
_atom_site_label
_atom_site_fract_x
_atom_site_fract_y
_atom_site_fract_z
Si Si1 0.000000 0.574341 0.750000
Si Si2 0.079324 0.199461 0.679298
Si Si3 0.868337 0.008480 0.166757
Si Si4 0.314459 0.351038 0.957852
Si Si5 0.511587 0.716366 0.410905
Si Si6 0.313591 0.920312 0.754134
O O1 0.967428 0.655228 0.638429
O O2 0.088482 0.493418 0.727057
O O3 0.171724 0.280768 0.720134
O O4 0.000000 0.252620 0.750000
O O5 0.051602 0.211882 0.544308
O O6 0.096618 0.061603 0.713713
O O7 0.755652 0.037970 0.157308
O O8 0.935067 0.121484 0.158824
O O9 0.876340 0.920608 0.062366
O O10 0.395849 0.301127 0.887233
O O11 0.243079 0.435784 0.874693
O O12 0.250000 0.250000 0.000000
#
# Coordination Sequence:
#
# PCOD8154909 Si02
#       6
#     4   8   8   8   8   8
#     4  12  30  50  72 110 154 204 254 308 388 446
#     4  12  26  50  76 109 151 200 253 312 383 445
#     4  12  27  46  78 110 148 198 258 312 379 450
#     4  12  24  47  74 109 147 195 247 314 377 447
#     4  12  28  48  78 110 155 196 257 318 374 456
#     4  12  28  47  73 108 152 200 250 313 378 456
#
# _framework density 23.639409000000001
#
# number of rings (size 3 to 8) (size 9 to 14) (size 15 to 20)
#    0.000    0.000    4.545    3.818    8.909    1.455 
#    0.000    0.000    0.000    0.000    0.000    0.000 
#    0.000    0.000    0.000    0.000    0.000    0.000 
#
# Total GULP energy -272869.913591 kJ/mol
# GULP energy per Si atom -12403.177890 kJ/mol
# Density = 2.358560 g / cm^3
# Si number density = 23.639409 Si / 1000 Ang^3
#
#
#
# Elastic Constant Matrix: (Units=GPa)
#
#
# Indices 1 2 3 4 5 6 
#
# 1 156.0603 55.0620 28.2984 0.0000 -22.9329 0.0000
# 2 55.0620 111.5823 32.0511 0.0000 -9.9146 0.0000
# 3 28.2984 32.0511 135.3546 0.0000 2.5962 0.0000
# 4 0.0000 0.0000 0.0000 37.4407 0.0000 7.7099
# 5 -22.9329 -9.9146 2.5962 0.0000 41.3117 0.0000
# 6 0.0000 0.0000 0.0000 7.7099 0.0000 45.8745
#
#
#
# Elastic Compliance Matrix: (Units=1/GPa)
#
#
# Indices 1 2 3 4 5 6 
#
# 1 0.008399 -0.003513 -0.000999 0.000000 0.003882 0.000000
# 2 -0.003513 0.011340 -0.001968 0.000000 0.000895 0.000000
# 3 -0.000999 -0.001968 0.008092 0.000000 -0.001535 0.000000
# 4 0.000000 0.000000 0.000000 0.027666 0.000000 -0.004650
# 5 0.003882 0.000895 -0.001535 0.000000 0.026673 0.000000
# 6 0.000000 0.000000 0.000000 -0.004650 0.000000 0.022580
#
#
# Mechanical properties :
#
#
# Convention : Reuss Voigt Hill
#
# Bulk Modulus (GPa) = 67.23828 70.42447 68.83138
# Shear Modulus (GPa) = 40.76098 44.09776 42.42937
#
# Velocity S-wave (km/s) = 4.15695 4.32375 4.24117
# Velocity P-wave (km/s) = 7.17951 7.40150 7.29135
#
# Compressibility (1/GPa) = 0.01487248
#
# Stress axis : x y z
#
# Youngs Moduli (GPa) = 119.06644 88.18142 123.57503
#
# Poissons Ratio (x) = 0.30975 0.12340
# Poissons Ratio (y) = 0.41824 0.24321
# Poissons Ratio (z) = 0.11890 0.17355
#
# Static dielectric constant tensor:
#      x y z
#    x 4.472450 0.000000 -0.199480 
#    y 0.000000 4.281930 0.000000 
#    z -0.199480 0.000000 4.363600 
# 
# 
# High freq. dielectric constant tensor:
#      x y z
#    x 1.953720 0.000000 -0.003680 
#    y 0.000000 1.936770 0.000000 
#    z -0.003680 0.000000 1.944800 
# 
# From -- ./inp_files/94983.got.cif
#   From: 2010.06.25/outbox.cif.g09.slc.cpg/sg15_48_cif.got.tgz:94983.got - 2010.06.28 07:06:18.
