data_PCOD8154539
_publ_section_title
;
Structure prediction by ZEFSAII (Michael W. Deem and Ramdas Pophale) SiO2 
 PCOD8154539
Probable space group: C 2/C
;
_chemical_formula_sum "Si O2"
_cell_formula_units_Z 52
_cell_length_a 25.999662
_cell_length_b 11.047172
_cell_length_c 9.588325
_cell_angle_alpha 90.000000
_cell_angle_beta 55.058491
_cell_angle_gamma 90.000000
_cell_volume 2257.543807
_symmetry_space_group_name_H-M "C 2/C"
_symmetry_group_IT_number 15
_symmetry_cell_setting 'monoclinic'
loop_
_space_group_symop_operation_xyz
x,y,z
-x,y,1/2-z
-x,-y,-z
x,-y,1/2+z
1/2+x,1/2+y,z
1/2-x,1/2+y,1/2-z
1/2-x,1/2-y,-z
1/2+x,1/2-y,1/2+z
loop_
_atom_site_type_symbol
_atom_site_label
_atom_site_fract_x
_atom_site_fract_y
_atom_site_fract_z
Si Si1 0.201448 0.886080 0.857784
Si Si2 0.337866 0.074590 0.191443
Si Si3 0.636680 0.138173 0.031735
Si Si4 0.350972 0.429241 0.864988
Si Si5 0.000000 0.711262 0.250000
Si Si6 0.047728 0.099933 0.884773
Si Si7 0.572550 0.246927 0.597768
O O1 0.274926 0.850662 0.751456
O O2 0.183146 0.909969 0.727557
O O3 0.161433 0.776250 0.987286
O O4 0.196869 0.015387 0.946964
O O5 0.348411 0.079170 0.340872
O O6 0.396984 0.126733 0.012995
O O7 0.331727 0.937200 0.143247
O O8 0.561527 0.131451 0.127146
O O9 0.400920 0.538378 0.791314
O O10 0.385263 0.300837 0.842261
O O11 0.011078 0.792313 0.368288
O O12 0.080129 0.147782 0.972991
O O13 0.000000 0.000000 0.000000
O O14 0.500000 0.221522 0.750000
#
# Coordination Sequence:
#
# PCOD8154539 Si02
#       7
#     8   8   8   8   4   8   8
#     4  12  27  49  78 109 150 194 254 309 371 441
#     4  12  30  51  74 103 153 203 252 304 368 445
#     4  12  29  50  76 107 150 201 250 307 371 449
#     4  12  24  43  77 113 146 192 244 307 378 433
#     4  12  24  44  72 104 148 192 242 300 372 440
#     4  12  21  41  67 114 147 185 236 311 374 434
#     4  12  26  42  72 108 149 187 244 308 373 438
#
# _framework density 23.033881999999998
#
# number of rings (size 3 to 8) (size 9 to 14) (size 15 to 20)
#    0.000    0.000    6.154    3.231    5.385    1.231 
#    0.000    0.000    0.000    0.000    0.000    0.000 
#    0.000    0.000    0.000    0.000    0.000    0.000 
#
# Total GULP energy -322391.926313 kJ/mol
# GULP energy per Si atom -12399.689474 kJ/mol
# Density = 2.298146 g / cm^3
# Si number density = 23.033882 Si / 1000 Ang^3
#
#
#
# Elastic Constant Matrix: (Units=GPa)
#
#
# Indices 1 2 3 4 5 6 
#
# 1 136.3659 27.9945 50.7107 0.0000 8.8377 0.0000
# 2 27.9945 67.4009 23.2584 0.0000 0.3537 0.0000
# 3 50.7107 23.2584 89.1377 0.0000 8.3524 0.0000
# 4 0.0000 0.0000 0.0000 49.0675 0.0000 3.8884
# 5 8.8377 0.3537 8.3524 0.0000 51.6183 0.0000
# 6 0.0000 0.0000 0.0000 3.8884 0.0000 22.2482
#
#
#
# Elastic Compliance Matrix: (Units=1/GPa)
#
#
# Indices 1 2 3 4 5 6 
#
# 1 0.009656 -0.002350 -0.004800 0.000000 -0.000861 0.000000
# 2 -0.002350 0.016894 -0.003146 0.000000 0.000796 0.000000
# 3 -0.004800 -0.003146 0.014917 0.000000 -0.001570 0.000000
# 4 0.000000 0.000000 0.000000 0.020666 0.000000 -0.003612
# 5 -0.000861 0.000796 -0.001570 0.000000 0.019769 0.000000
# 6 0.000000 0.000000 0.000000 -0.003612 0.000000 0.045579
#
#
# Mechanical properties :
#
#
# Convention : Reuss Voigt Hill
#
# Bulk Modulus (GPa) = 47.90043 55.20353 51.55198
# Shear Modulus (GPa) = 32.25164 37.31620 34.78392
#
# Velocity S-wave (km/s) = 3.74596 4.02936 3.89024
# Velocity P-wave (km/s) = 6.28891 6.75766 6.52749
#
# Compressibility (1/GPa) = 0.02087664
#
# Stress axis : x y z
#
# Youngs Moduli (GPa) = 103.55978 59.19269 67.03707
#
# Poissons Ratio (x) = 0.13910 0.32176
# Poissons Ratio (y) = 0.24335 0.21088
# Poissons Ratio (z) = 0.49705 0.18621
#
# Static dielectric constant tensor:
#      x y z
#    x 4.323150 0.000000 0.016120 
#    y 0.000000 3.960190 0.000000 
#    z 0.016120 0.000000 4.064070 
# 
# 
# High freq. dielectric constant tensor:
#      x y z
#    x 1.924090 0.000000 0.000080 
#    y 0.000000 1.902190 0.000000 
#    z 0.000080 0.000000 1.918690 
# 
# From -- ./inp_files/65357.got.cif
#   From: 2010.06.25/outbox.cif.g09.slc.cpg/sg15_33_cif.got.tgz:65357.got - 2010.06.28 07:06:18.
