data_PCOD8154091
_publ_section_title
;
Structure prediction by ZEFSAII (Michael W. Deem and Ramdas Pophale) SiO2 
 PCOD8154091
Probable space group: C 2/C
;
_chemical_formula_sum "Si O2"
_cell_formula_units_Z 36
_cell_length_a 15.523562
_cell_length_b 11.648742
_cell_length_c 13.656449
_cell_angle_alpha 90.000000
_cell_angle_beta 135.815363
_cell_angle_gamma 90.000000
_cell_volume 1721.171136
_symmetry_space_group_name_H-M "C 2/C"
_symmetry_group_IT_number 15
_symmetry_cell_setting 'monoclinic'
loop_
_space_group_symop_operation_xyz
x,y,z
-x,y,1/2-z
-x,-y,-z
x,-y,1/2+z
1/2+x,1/2+y,z
1/2-x,1/2+y,1/2-z
1/2-x,1/2-y,-z
1/2+x,1/2-y,1/2+z
loop_
_atom_site_type_symbol
_atom_site_label
_atom_site_fract_x
_atom_site_fract_y
_atom_site_fract_z
Si Si1 0.253460 0.615270 0.488349
Si Si2 0.849794 0.038521 0.770135
Si Si3 0.412787 0.909996 0.376884
Si Si4 0.500000 0.013300 0.750000
Si Si5 0.070780 0.153985 0.039269
O O1 0.250000 0.750000 0.500000
O O2 0.326732 0.551753 0.635719
O O3 0.114233 0.568045 0.372004
O O4 0.326946 0.596134 0.448016
O O5 0.724685 0.042673 0.730146
O O6 0.916406 0.916329 0.848090
O O7 0.936743 0.140717 0.880524
O O8 0.458828 0.900991 0.302846
O O9 0.413046 0.788165 0.430690
O O10 0.500000 0.000000 0.500000
#
# Coordination Sequence:
#
# PCOD8154091 Si02
#       5
#     8   8   8   4   8
#     4  12  24  40  73 100 134 177 232 285 337 412
#     4  11  25  44  69 101 136 182 233 287 346 404
#     4  12  25  45  72  99 143 184 231 284 350 418
#     4  12  26  44  66 108 134 182 230 280 356 410
#     4  11  26  46  69 101 140 182 232 291 344 411
#
# _framework density 20.915991999999999
#
# number of rings (size 3 to 8) (size 9 to 14) (size 15 to 20)
#    0.000    0.444    6.667    0.667    9.333    0.000 
#    8.000    2.222    0.000    0.000    0.000    0.000 
#    0.000    0.000    0.000    0.000    0.000    0.000 
#
# Total GULP energy -223206.080695 kJ/mol
# GULP energy per Si atom -12400.337816 kJ/mol
# Density = 2.086839 g / cm^3
# Si number density = 20.915992 Si / 1000 Ang^3
#
#
#
# Elastic Constant Matrix: (Units=GPa)
#
#
# Indices 1 2 3 4 5 6 
#
# 1 112.6167 36.6314 34.4456 0.0000 -9.5991 0.0000
# 2 36.6314 93.9797 61.2102 0.0000 -7.2675 0.0000
# 3 34.4456 61.2102 148.8717 0.0000 0.2230 0.0000
# 4 0.0000 0.0000 0.0000 29.3824 0.0000 -1.6439
# 5 -9.5991 -7.2675 0.2230 0.0000 45.4536 0.0000
# 6 0.0000 0.0000 0.0000 -1.6439 0.0000 33.5141
#
#
#
# Elastic Compliance Matrix: (Units=1/GPa)
#
#
# Indices 1 2 3 4 5 6 
#
# 1 0.010402 -0.003216 -0.001087 0.000000 0.001688 0.000000
# 2 -0.003216 0.015783 -0.005748 0.000000 0.001872 0.000000
# 3 -0.001087 -0.005748 0.009334 0.000000 -0.001194 0.000000
# 4 0.000000 0.000000 0.000000 0.034128 0.000000 0.001674
# 5 0.001688 0.001872 -0.001194 0.000000 0.022662 0.000000
# 6 0.000000 0.000000 0.000000 0.001674 0.000000 0.029920
#
#
# Mechanical properties :
#
#
# Convention : Reuss Voigt Hill
#
# Bulk Modulus (GPa) = 64.86488 68.89361 66.87925
# Shear Modulus (GPa) = 33.90534 36.54874 35.22704
#
# Velocity S-wave (km/s) = 4.03056 4.18473 4.10837
# Velocity P-wave (km/s) = 7.26223 7.50727 7.38577
#
# Compressibility (1/GPa) = 0.01541666
#
# Stress axis : x y z
#
# Youngs Moduli (GPa) = 96.13419 63.36092 107.13741
#
# Poissons Ratio (x) = 0.20377 0.11646
# Poissons Ratio (y) = 0.30917 0.61581
# Poissons Ratio (z) = 0.10450 0.36419
#
# Static dielectric constant tensor:
#      x y z
#    x 3.063750 0.000000 0.298860 
#    y 0.000000 3.507000 0.000000 
#    z 0.298860 0.000000 3.934670 
# 
# 
# High freq. dielectric constant tensor:
#      x y z
#    x 1.831710 0.000000 0.004280 
#    y 0.000000 1.807080 0.000000 
#    z 0.004280 0.000000 1.838820 
# 
# From -- ./inp_files/94324.got.cif
#   From: 2010.06.25/outbox.cif.g09.slc.cpg/sg15_48_cif.got.tgz:94324.got - 2010.06.28 07:06:18.
