data_PCOD8154436
_publ_section_title
;
Structure prediction by ZEFSAII (Michael W. Deem and Ramdas Pophale) SiO2 
 PCOD8154436
Probable space group: C 2/C
;
_chemical_formula_sum "Si O2"
_cell_formula_units_Z 56
_cell_length_a 11.756027
_cell_length_b 8.062311
_cell_length_c 30.204824
_cell_angle_alpha 90.000000
_cell_angle_beta 118.762333
_cell_angle_gamma 90.000000
_cell_volume 2509.628238
_symmetry_space_group_name_H-M "C 2/C"
_symmetry_group_IT_number 15
_symmetry_cell_setting 'monoclinic'
loop_
_space_group_symop_operation_xyz
x,y,z
-x,y,1/2-z
-x,-y,-z
x,-y,1/2+z
1/2+x,1/2+y,z
1/2-x,1/2+y,1/2-z
1/2-x,1/2-y,-z
1/2+x,1/2-y,1/2+z
loop_
_atom_site_type_symbol
_atom_site_label
_atom_site_fract_x
_atom_site_fract_y
_atom_site_fract_z
Si Si1 0.683475 0.845075 0.609670
Si Si2 0.954593 0.698889 0.690883
Si Si3 0.243980 0.150156 0.938169
Si Si4 0.958924 0.146254 0.525224
Si Si5 0.123288 0.331954 0.840350
Si Si6 0.637659 0.252489 0.190846
Si Si7 0.306117 0.374442 0.798536
O O1 0.815198 0.769532 0.653419
O O2 0.598501 0.719601 0.564477
O O3 0.606192 0.862982 0.641687
O O4 0.713102 0.009637 0.588210
O O5 0.949053 0.506421 0.678400
O O6 0.000000 0.727508 0.750000
O O7 0.053025 0.792505 0.676369
O O8 0.130667 0.082519 0.950235
O O9 0.190434 0.307963 0.900792
O O10 0.373940 0.207890 0.987251
O O11 0.000000 0.000000 0.500000
O O12 0.226316 0.284414 0.822268
O O13 0.001124 0.206556 0.812326
O O14 0.697467 0.431320 0.189921
O O15 0.735056 0.148081 0.238851
#
# Coordination Sequence:
#
# PCOD8154436 Si02
#       7
#     8   8   8   8   8   8   8
#     4  12  25  48  72 106 147 184 236 295 353 427
#     4  12  25  45  69 103 151 195 238 289 349 420
#     4  11  27  46  77 109 136 186 237 297 370 426
#     4  11  26  52  76 102 141 177 240 306 366 436
#     4  12  25  45  70 106 142 188 242 290 352 423
#     4  12  25  45  69 102 150 192 242 290 347 426
#     4  12  26  44  67 101 148 196 239 290 347 417
#
# _framework density 22.314060999999999
#
# number of rings (size 3 to 8) (size 9 to 14) (size 15 to 20)
#    0.000    0.286    4.286    4.286    4.000    1.714 
#    0.000    0.000    0.000    0.000    0.000    0.000 
#    0.000    0.000    0.000    0.000    0.000    0.000 
#
# Total GULP energy -347052.021786 kJ/mol
# GULP energy per Si atom -12394.715064 kJ/mol
# Density = 2.226327 g / cm^3
# Si number density = 22.314061 Si / 1000 Ang^3
#
#
#
# Elastic Constant Matrix: (Units=GPa)
#
#
# Indices 1 2 3 4 5 6 
#
# 1 148.5426 64.0863 60.9891 0.0000 -4.6393 0.0000
# 2 64.0863 78.6936 56.2739 0.0000 -7.6936 0.0000
# 3 60.9891 56.2739 137.2148 0.0000 9.9077 0.0000
# 4 0.0000 0.0000 0.0000 42.8707 0.0000 -1.8365
# 5 -4.6393 -7.6936 9.9077 0.0000 41.5984 0.0000
# 6 0.0000 0.0000 0.0000 -1.8365 0.0000 35.8603
#
#
#
# Elastic Compliance Matrix: (Units=1/GPa)
#
#
# Indices 1 2 3 4 5 6 
#
# 1 0.010642 -0.007431 -0.001698 0.000000 0.000217 0.000000
# 2 -0.007431 0.024334 -0.007063 0.000000 0.005354 0.000000
# 3 -0.001698 -0.007063 0.011241 0.000000 -0.004173 0.000000
# 4 0.000000 0.000000 0.000000 0.023377 0.000000 0.001197
# 5 0.000217 0.005354 -0.004173 0.000000 0.026048 0.000000
# 6 0.000000 0.000000 0.000000 0.001197 0.000000 0.027947
#
#
# Mechanical properties :
#
#
# Convention : Reuss Voigt Hill
#
# Bulk Modulus (GPa) = 72.29961 80.79441 76.54701
# Shear Modulus (GPa) = 31.13628 36.27264 33.70446
#
# Velocity S-wave (km/s) = 3.73951 4.03619 3.89068
# Velocity P-wave (km/s) = 7.14958 7.61627 7.38661
#
# Compressibility (1/GPa) = 0.01383133
#
# Stress axis : x y z
#
# Youngs Moduli (GPa) = 93.96591 41.09549 88.96207
#
# Poissons Ratio (x) = 0.30538 0.15108
# Poissons Ratio (y) = 0.69827 0.62836
# Poissons Ratio (z) = 0.15958 0.29027
#
# Static dielectric constant tensor:
#      x y z
#    x 4.542050 0.000000 -0.019160 
#    y 0.000000 3.834290 0.000000 
#    z -0.019160 0.000000 4.308530 
# 
# 
# High freq. dielectric constant tensor:
#      x y z
#    x 1.910810 0.000000 0.006590 
#    y 0.000000 1.862070 0.000000 
#    z 0.006590 0.000000 1.888760 
# 
# From -- ./inp_files/310372.got.cif
#   From: 2010.06.25/outbox.cif.g09.slc.cpg/sg15_156_cif.got.tgz:310372.got - 2010.06.28 07:06:18.
