data_PCOD8154754
_publ_section_title
;
Structure prediction by ZEFSAII (Michael W. Deem and Ramdas Pophale) SiO2 
 PCOD8154754
Probable space group: C 2/C
;
_chemical_formula_sum "Si O2"
_cell_formula_units_Z 48
_cell_length_a 10.592600
_cell_length_b 12.456227
_cell_length_c 17.349890
_cell_angle_alpha 90.000000
_cell_angle_beta 107.795326
_cell_angle_gamma 90.000000
_cell_volume 2179.682101
_symmetry_space_group_name_H-M "C 2/C"
_symmetry_group_IT_number 15
_symmetry_cell_setting 'monoclinic'
loop_
_space_group_symop_operation_xyz
x,y,z
-x,y,1/2-z
-x,-y,-z
x,-y,1/2+z
1/2+x,1/2+y,z
1/2-x,1/2+y,1/2-z
1/2-x,1/2-y,-z
1/2+x,1/2-y,1/2+z
loop_
_atom_site_type_symbol
_atom_site_label
_atom_site_fract_x
_atom_site_fract_y
_atom_site_fract_z
Si Si1 0.000000 0.569031 0.750000
Si Si2 0.500000 0.308279 0.250000
Si Si3 0.272028 0.023743 0.603130
Si Si4 0.707303 0.877673 0.170445
Si Si5 0.915210 0.214931 0.898655
Si Si6 0.656233 0.303141 0.545180
Si Si7 0.137259 0.555776 0.046409
O O1 0.918898 0.505112 0.668190
O O2 0.882457 0.634292 0.769819
O O3 0.363844 0.373235 0.215406
O O4 0.522674 0.246499 0.172765
O O5 0.193934 0.120626 0.631571
O O6 0.273847 0.050756 0.513224
O O7 0.204865 0.908137 0.599439
O O8 0.639382 0.786664 0.106341
O O9 0.700386 0.993262 0.129363
O O10 0.862227 0.320947 0.929291
O O11 0.023316 0.164634 0.976074
O O12 0.750000 0.250000 0.500000
O O13 0.000000 0.500000 0.000000
#
# Coordination Sequence:
#
# PCOD8154754 Si02
#       7
#     4   4   8   8   8   8   8
#     4  12  26  47  69 108 146 182 233 287 358 414
#     4  12  26  47  69 108 146 182 233 287 358 414
#     4  12  25  45  72 105 143 185 231 295 352 414
#     4  12  26  46  72 105 140 182 234 289 348 418
#     4  12  25  45  72 105 143 185 231 295 352 414
#     4  12  23  45  75 101 135 188 242 283 340 424
#     4  12  23  45  75 101 135 188 242 283 340 424
#
# _framework density 22.021561999999999
#
# number of rings (size 3 to 8) (size 9 to 14) (size 15 to 20)
#    0.000    0.000    8.333    1.000    0.000    2.667 
#    0.000    1.667    0.000    0.000    0.000    0.000 
#    0.000    0.000    0.000    0.000    0.000    0.000 
#
# Total GULP energy -297326.763414 kJ/mol
# GULP energy per Si atom -12388.615142 kJ/mol
# Density = 2.197144 g / cm^3
# Si number density = 22.021562 Si / 1000 Ang^3
#
#
#
# Elastic Constant Matrix: (Units=GPa)
#
#
# Indices 1 2 3 4 5 6 
#
# 1 100.7785 12.6426 40.2938 0.0000 0.7774 0.0000
# 2 12.6426 108.7495 14.5423 0.0000 1.4879 0.0000
# 3 40.2938 14.5423 106.5363 0.0000 4.7973 0.0000
# 4 0.0000 0.0000 0.0000 5.1614 0.0000 -6.4254
# 5 0.7774 1.4879 4.7973 0.0000 61.5559 0.0000
# 6 0.0000 0.0000 0.0000 -6.4254 0.0000 22.6219
#
#
#
# Elastic Compliance Matrix: (Units=1/GPa)
#
#
# Indices 1 2 3 4 5 6 
#
# 1 0.011759 -0.000788 -0.004349 0.000000 0.000210 0.000000
# 2 -0.000788 0.009420 -0.000981 0.000000 -0.000141 0.000000
# 3 -0.004349 -0.000981 0.011201 0.000000 -0.000794 0.000000
# 4 0.000000 0.000000 0.000000 0.299728 0.000000 0.085133
# 5 0.000210 -0.000141 -0.000794 0.000000 0.016308 0.000000
# 6 0.000000 0.000000 0.000000 0.085133 0.000000 0.068386
#
#
# Mechanical properties :
#
#
# Convention : Reuss Voigt Hill
#
# Bulk Modulus (GPa) = 49.64623 50.11353 49.87988
# Shear Modulus (GPa) = 11.47437 34.44020 22.95729
#
# Velocity S-wave (km/s) = 2.28513 3.95895 3.23227
# Velocity P-wave (km/s) = 5.43652 6.61087 6.05225
#
# Compressibility (1/GPa) = 0.02014252
#
# Stress axis : x y z
#
# Youngs Moduli (GPa) = 85.04140 106.15426 89.27649
#
# Poissons Ratio (x) = 0.08368 0.38829
# Poissons Ratio (y) = 0.06704 0.08761
# Poissons Ratio (z) = 0.36987 0.10418
#
# Static dielectric constant tensor:
#      x y z
#    x 4.103570 0.000000 -0.209880 
#    y 0.000000 -1.150260 0.000000 
#    z -0.209880 0.000000 3.906040 
# 
# 
# High freq. dielectric constant tensor:
#      x y z
#    x 1.870750 0.000000 0.001260 
#    y 0.000000 1.845090 0.000000 
#    z 0.001260 0.000000 1.898100 
# 
# From -- ./inp_files/196634.got.cif
#   From: 2010.06.25/outbox.cif.g09.slc.cpg/sg15_99_cif.got.tgz:196634.got - 2010.06.28 07:06:18.
