data_PCOD8154494
_publ_section_title
;
Structure prediction by ZEFSAII (Michael W. Deem and Ramdas Pophale) SiO2 
 PCOD8154494
Probable space group: C 2/C
;
_chemical_formula_sum "Si O2"
_cell_formula_units_Z 60
_cell_length_a 8.684121
_cell_length_b 24.162903
_cell_length_c 13.855612
_cell_angle_alpha 90.000000
_cell_angle_beta 88.683829
_cell_angle_gamma 90.000000
_cell_volume 2906.605514
_symmetry_space_group_name_H-M "C 2/C"
_symmetry_group_IT_number 15
_symmetry_cell_setting 'monoclinic'
loop_
_space_group_symop_operation_xyz
x,y,z
-x,y,1/2-z
-x,-y,-z
x,-y,1/2+z
1/2+x,1/2+y,z
1/2-x,1/2+y,1/2-z
1/2-x,1/2-y,-z
1/2+x,1/2-y,1/2+z
loop_
_atom_site_type_symbol
_atom_site_label
_atom_site_fract_x
_atom_site_fract_y
_atom_site_fract_z
Si Si1 0.942404 0.754381 0.145982
Si Si2 0.116776 0.295303 0.166867
Si Si3 0.116537 0.857848 0.076113
Si Si4 0.575052 0.051001 0.445742
Si Si5 0.091643 0.945435 0.472827
Si Si6 0.000000 0.499520 0.750000
Si Si7 0.761411 0.910376 0.226609
Si Si8 0.058616 0.667358 0.008108
O O1 0.996932 0.808143 0.088092
O O2 0.000000 0.765666 0.250000
O O3 0.756712 0.752249 0.151283
O O4 0.019426 0.697381 0.109076
O O5 0.170157 0.357381 0.189671
O O6 0.000000 0.273103 0.250000
O O7 0.029104 0.295436 0.067865
O O8 0.031600 0.897682 0.000286
O O9 0.155677 0.891018 0.175454
O O10 0.263249 0.832161 0.021306
O O11 0.529413 0.043453 0.335717
O O12 0.496932 0.104786 0.490719
O O13 0.757281 0.055670 0.462522
O O14 0.500000 0.000000 0.500000
O O15 0.125220 0.934203 0.358015
O O16 0.000000 0.000000 0.500000
O O17 0.147939 0.538596 0.745028
#
# Coordination Sequence:
#
# PCOD8154494 Si02
#       8
#     8   8   8   8   8   4   8   8
#     4  12  24  43  65  99 139 180 230 286 357 420
#     4  12  21  41  69  99 129 174 234 296 341 411
#     4  12  23  42  70 100 135 181 235 295 347 410
#     4  12  24  45  64  97 137 178 231 282 343 426
#     4  12  24  39  65 101 140 174 223 297 350 404
#     4  12  24  38  68  96 130 180 226 274 354 412
#     4  12  20  39  68  96 131 171 232 288 339 406
#     4  12  25  41  68  97 136 183 231 284 357 421
#
# _framework density 20.642637000000001
#
# number of rings (size 3 to 8) (size 9 to 14) (size 15 to 20)
#    0.000    0.000    7.333    3.600    0.933    0.000 
#    0.000    0.000    0.000    0.000    0.000    0.000 
#    0.000    0.000    0.000    0.000    0.000    0.000 
#
# Total GULP energy -371871.228032 kJ/mol
# GULP energy per Si atom -12395.707601 kJ/mol
# Density = 2.059565 g / cm^3
# Si number density = 20.642637 Si / 1000 Ang^3
#
#
#
# Elastic Constant Matrix: (Units=GPa)
#
#
# Indices 1 2 3 4 5 6 
#
# 1 139.8332 35.8916 41.0446 0.0000 -10.6310 0.0000
# 2 35.8916 84.2597 30.5479 0.0000 -6.6668 0.0000
# 3 41.0446 30.5479 69.3343 0.0000 -14.5150 0.0000
# 4 0.0000 0.0000 0.0000 55.7739 0.0000 6.6478
# 5 -10.6310 -6.6668 -14.5150 0.0000 35.0641 0.0000
# 6 0.0000 0.0000 0.0000 6.6478 0.0000 32.0295
#
#
#
# Elastic Compliance Matrix: (Units=1/GPa)
#
#
# Indices 1 2 3 4 5 6 
#
# 1 0.009014 -0.002265 -0.004222 0.000000 0.000555 0.000000
# 2 -0.002265 0.014694 -0.005137 0.000000 -0.000020 0.000000
# 3 -0.004222 -0.005137 0.020489 0.000000 0.006225 0.000000
# 4 0.000000 0.000000 0.000000 0.018384 0.000000 -0.003816
# 5 0.000555 -0.000020 0.006225 0.000000 0.031260 0.000000
# 6 0.000000 0.000000 0.000000 -0.003816 0.000000 0.032013
#
#
# Mechanical properties :
#
#
# Convention : Reuss Voigt Hill
#
# Bulk Modulus (GPa) = 47.73721 56.48837 52.11279
# Shear Modulus (GPa) = 32.03357 36.96971 34.50164
#
# Velocity S-wave (km/s) = 3.94358 4.23654 4.09268
# Velocity P-wave (km/s) = 6.62658 7.16626 6.90170
#
# Compressibility (1/GPa) = 0.02094802
#
# Stress axis : x y z
#
# Youngs Moduli (GPa) = 110.93534 68.05587 48.80715
#
# Poissons Ratio (x) = 0.15416 0.20607
# Poissons Ratio (y) = 0.25128 0.25073
# Poissons Ratio (z) = 0.46839 0.34961
#
# Static dielectric constant tensor:
#      x y z
#    x 4.095300 0.000000 -0.254170 
#    y 0.000000 3.719500 0.000000 
#    z -0.254170 0.000000 3.925030 
# 
# 
# High freq. dielectric constant tensor:
#      x y z
#    x 1.831140 0.000000 -0.003980 
#    y 0.000000 1.801550 0.000000 
#    z -0.003980 0.000000 1.800680 
# 
# From -- ./inp_files/137344.got.cif
#   From: 2010.06.25/outbox.cif.g09.slc.cpg/sg15_69_cif.got.tgz:137344.got - 2010.06.28 07:06:18.
