data_PCOD8154707
_publ_section_title
;
Structure prediction by ZEFSAII (Michael W. Deem and Ramdas Pophale) SiO2 
 PCOD8154707
Probable space group: C 2/C
;
_chemical_formula_sum "Si O2"
_cell_formula_units_Z 48
_cell_length_a 4.935869
_cell_length_b 25.856217
_cell_length_c 18.216328
_cell_angle_alpha 90.000000
_cell_angle_beta 68.419741
_cell_angle_gamma 90.000000
_cell_volume 2161.858275
_symmetry_space_group_name_H-M "C 2/C"
_symmetry_group_IT_number 15
_symmetry_cell_setting 'monoclinic'
loop_
_space_group_symop_operation_xyz
x,y,z
-x,y,1/2-z
-x,-y,-z
x,-y,1/2+z
1/2+x,1/2+y,z
1/2-x,1/2+y,1/2-z
1/2-x,1/2-y,-z
1/2+x,1/2-y,1/2+z
loop_
_atom_site_type_symbol
_atom_site_label
_atom_site_fract_x
_atom_site_fract_y
_atom_site_fract_z
Si Si1 0.244042 0.245651 0.912806
Si Si2 0.174129 0.297485 0.657702
Si Si3 0.097060 0.474132 0.914868
Si Si4 0.750276 0.578629 0.665942
Si Si5 0.925652 0.096799 0.079983
Si Si6 0.345141 0.628552 0.594224
O O1 0.575330 0.254814 0.855038
O O2 0.134571 0.189857 0.897793
O O3 0.024288 0.285854 0.894554
O O4 0.250000 0.250000 0.000000
O O5 0.327301 0.352639 0.633189
O O6 0.000000 0.297714 0.750000
O O7 0.157346 0.518937 0.849809
O O8 0.391079 0.441216 0.887344
O O9 0.851883 0.435237 0.915032
O O10 0.000000 0.500000 0.000000
O O11 0.500000 0.586926 0.750000
O O12 0.624678 0.601790 0.603061
O O13 0.041659 0.609322 0.659321
O O14 0.137814 0.113223 0.992568
#
# Coordination Sequence:
#
# PCOD8154707 Si02
#       6
#     8   8   8   8   8   8
#     4  12  26  45  75 103 136 188 237 279 341 422
#     4  12  28  47  70 107 145 177 229 297 350 404
#     4  12  23  42  70  98 131 178 230 278 338 411
#     4  12  27  43  65 101 139 173 225 289 342 399
#     4  12  24  42  73 100 131 181 230 276 338 415
#     4  12  24  43  71  98 132 180 229 276 338 412
#
# _framework density 22.203119000000001
#
# number of rings (size 3 to 8) (size 9 to 14) (size 15 to 20)
#    0.000    0.000    5.000    5.000    2.333    5.333 
#    0.000    0.000    0.000    0.000    0.000    0.000 
#    0.000    0.000    0.000    0.000    0.000    0.000 
#
# Total GULP energy -297705.879776 kJ/mol
# GULP energy per Si atom -12404.411657 kJ/mol
# Density = 2.215258 g / cm^3
# Si number density = 22.203119 Si / 1000 Ang^3
#
#
#
# Elastic Constant Matrix: (Units=GPa)
#
#
# Indices 1 2 3 4 5 6 
#
# 1 142.7129 49.7815 20.4283 0.0000 -18.7733 0.0000
# 2 49.7815 136.9939 42.9039 0.0000 -11.1040 0.0000
# 3 20.4283 42.9039 90.1991 0.0000 -19.3175 0.0000
# 4 0.0000 0.0000 0.0000 23.7585 0.0000 -4.8933
# 5 -18.7733 -11.1040 -19.3175 0.0000 35.9272 0.0000
# 6 0.0000 0.0000 0.0000 -4.8933 0.0000 48.8265
#
#
#
# Elastic Compliance Matrix: (Units=1/GPa)
#
#
# Indices 1 2 3 4 5 6 
#
# 1 0.008448 -0.002843 0.000222 0.000000 0.003655 0.000000
# 2 -0.002843 0.009543 -0.004048 0.000000 -0.000713 0.000000
# 3 0.000222 -0.004048 0.014374 0.000000 0.006593 0.000000
# 4 0.000000 0.000000 0.000000 0.042977 0.000000 0.004307
# 5 0.003655 -0.000713 0.006593 0.000000 0.033069 0.000000
# 6 0.000000 0.000000 0.000000 0.004307 0.000000 0.020912
#
#
# Mechanical properties :
#
#
# Convention : Reuss Voigt Hill
#
# Bulk Modulus (GPa) = 52.55898 66.23704 59.39801
# Shear Modulus (GPa) = 33.55642 38.82191 36.18916
#
# Velocity S-wave (km/s) = 3.89181 4.18603 4.04160
# Velocity P-wave (km/s) = 6.62708 7.29800 6.97062
#
# Compressibility (1/GPa) = 0.01902624
#
# Stress axis : x y z
#
# Youngs Moduli (GPa) = 118.37364 104.79297 69.57107
#
# Poissons Ratio (x) = 0.29793 -0.01543
# Poissons Ratio (y) = 0.33654 0.28161
# Poissons Ratio (z) = -0.02626 0.42418
#
# Static dielectric constant tensor:
#      x y z
#    x 6.170470 0.000000 0.087040 
#    y 0.000000 4.536520 0.000000 
#    z 0.087040 0.000000 3.932810 
# 
# 
# High freq. dielectric constant tensor:
#      x y z
#    x 1.891740 0.000000 -0.014560 
#    y 0.000000 1.891150 0.000000 
#    z -0.014560 0.000000 1.865440 
# 
# From -- ./inp_files/227802.got.cif
#   From: 2010.06.25/outbox.cif.g09.slc.cpg/sg15_114_cif.got.tgz:227802.got - 2010.06.28 07:06:18.
