data_PCOD8154635
_publ_section_title
;
Structure prediction by ZEFSAII (Michael W. Deem and Ramdas Pophale) SiO2 
 PCOD8154635
Probable space group: C 2/C
;
_chemical_formula_sum "Si O2"
_cell_formula_units_Z 44
_cell_length_a 6.826327
_cell_length_b 13.428247
_cell_length_c 24.836306
_cell_angle_alpha 90.000000
_cell_angle_beta 122.015057
_cell_angle_gamma 90.000000
_cell_volume 1930.378882
_symmetry_space_group_name_H-M "C 2/C"
_symmetry_group_IT_number 15
_symmetry_cell_setting 'monoclinic'
loop_
_space_group_symop_operation_xyz
x,y,z
-x,y,1/2-z
-x,-y,-z
x,-y,1/2+z
1/2+x,1/2+y,z
1/2-x,1/2+y,1/2-z
1/2-x,1/2-y,-z
1/2+x,1/2-y,1/2+z
loop_
_atom_site_type_symbol
_atom_site_label
_atom_site_fract_x
_atom_site_fract_y
_atom_site_fract_z
Si Si1 0.951568 0.987229 0.430804
Si Si2 0.000000 0.376901 0.750000
Si Si3 0.263927 0.376763 0.594147
Si Si4 0.874301 0.270553 0.352680
Si Si5 0.822086 0.672637 0.966136
Si Si6 0.918377 0.489776 0.335642
O O1 0.112643 0.903138 0.428141
O O2 0.011559 0.084676 0.405411
O O3 0.000000 0.000000 0.500000
O O4 0.684134 0.965966 0.385392
O O5 0.812698 0.307827 0.694860
O O6 0.875129 0.449969 0.774552
O O7 0.364706 0.267755 0.626398
O O8 0.196009 0.444586 0.634417
O O9 0.054989 0.378625 0.521297
O O10 0.867287 0.274957 0.416284
O O11 0.811829 0.378433 0.317856
O O12 0.750000 0.750000 0.000000
#
# Coordination Sequence:
#
# PCOD8154635 Si02
#       6
#     8   4   8   8   8   8
#     4  12  22  43  75 112 153 189 237 307 382 452
#     4  12  30  52  72 106 148 198 266 314 360 452
#     4  12  24  47  74 112 155 192 243 316 380 457
#     4  12  27  48  76 109 147 202 259 302 383 451
#     4  12  23  42  75 115 158 193 242 307 385 460
#     4  12  27  50  76 107 150 202 250 315 382 446
#
# _framework density 22.793453
#
# number of rings (size 3 to 8) (size 9 to 14) (size 15 to 20)
#    0.000    0.000    5.455    5.455    0.000    5.091 
#    0.000    0.000    0.000    0.000    0.000    0.000 
#    0.000    0.000    0.000    0.000    0.000    0.000 
#
# Total GULP energy -272777.541522 kJ/mol
# GULP energy per Si atom -12398.979160 kJ/mol
# Density = 2.274157 g / cm^3
# Si number density = 22.793453 Si / 1000 Ang^3
#
#
#
# Elastic Constant Matrix: (Units=GPa)
#
#
# Indices 1 2 3 4 5 6 
#
# 1 109.6843 59.8994 29.4166 0.0000 -16.8229 0.0000
# 2 59.8994 155.5073 53.2771 0.0000 -21.9091 0.0000
# 3 29.4166 53.2771 68.1383 0.0000 -28.0297 0.0000
# 4 0.0000 0.0000 0.0000 25.5889 0.0000 -5.4721
# 5 -16.8229 -21.9091 -28.0297 0.0000 35.3728 0.0000
# 6 0.0000 0.0000 0.0000 -5.4721 0.0000 51.8117
#
#
#
# Elastic Compliance Matrix: (Units=1/GPa)
#
#
# Indices 1 2 3 4 5 6 
#
# 1 0.011892 -0.003854 -0.001151 0.000000 0.002356 0.000000
# 2 -0.003854 0.010033 -0.006496 0.000000 -0.000766 0.000000
# 3 -0.001151 -0.006496 0.027257 0.000000 0.017028 0.000000
# 4 0.000000 0.000000 0.000000 0.039983 0.000000 0.004223
# 5 0.002356 -0.000766 0.017028 0.000000 0.042409 0.000000
# 6 0.000000 0.000000 0.000000 0.004223 0.000000 0.019747
#
#
# Mechanical properties :
#
#
# Convention : Reuss Voigt Hill
#
# Bulk Modulus (GPa) = 38.19856 68.72402 53.46129
# Shear Modulus (GPa) = 27.31520 35.27047 31.29283
#
# Velocity S-wave (km/s) = 3.46552 3.93796 3.70927
# Velocity P-wave (km/s) = 5.72783 7.13393 6.46920
#
# Compressibility (1/GPa) = 0.02617899
#
# Stress axis : x y z
#
# Youngs Moduli (GPa) = 84.08972 99.67391 36.68841
#
# Poissons Ratio (x) = 0.38418 0.04223
# Poissons Ratio (y) = 0.32411 0.23832
# Poissons Ratio (z) = 0.09679 0.64746
#
# Static dielectric constant tensor:
#      x y z
#    x 4.445280 0.000000 0.124050 
#    y 0.000000 2.642160 0.000000 
#    z 0.124050 0.000000 3.823040 
# 
# 
# High freq. dielectric constant tensor:
#      x y z
#    x 1.912030 0.000000 0.000530 
#    y 0.000000 1.923590 0.000000 
#    z 0.000530 0.000000 1.893520 
# 
# From -- ./inp_files/260350.got.cif
#   From: 2010.06.25/outbox.cif.g09.slc.cpg/sg15_131_cif.got.tgz:260350.got - 2010.06.28 07:06:18.
