data_PCOD8154464
_publ_section_title
;
Structure prediction by ZEFSAII (Michael W. Deem and Ramdas Pophale) SiO2 
 PCOD8154464
Probable space group: C 2/C
;
_chemical_formula_sum "Si O2"
_cell_formula_units_Z 20
_cell_length_a 10.508705
_cell_length_b 11.677085
_cell_length_c 7.253285
_cell_angle_alpha 90.000000
_cell_angle_beta 49.537929
_cell_angle_gamma 90.000000
_cell_volume 677.188043
_symmetry_space_group_name_H-M "C 2/C"
_symmetry_group_IT_number 15
_symmetry_cell_setting 'monoclinic'
loop_
_space_group_symop_operation_xyz
x,y,z
-x,y,1/2-z
-x,-y,-z
x,-y,1/2+z
1/2+x,1/2+y,z
1/2-x,1/2+y,1/2-z
1/2-x,1/2-y,-z
1/2+x,1/2-y,1/2+z
loop_
_atom_site_type_symbol
_atom_site_label
_atom_site_fract_x
_atom_site_fract_y
_atom_site_fract_z
Si Si1 0.500000 0.413482 0.750000
Si Si2 0.820809 0.429329 0.933144
Si Si3 0.299656 0.742603 0.239224
O O1 0.666036 0.486206 0.559345
O O2 0.525636 0.332606 0.909596
O O3 0.824149 0.333607 0.769540
O O4 0.000000 0.495000 0.750000
O O5 0.819263 0.367694 0.134220
O O6 0.250000 0.750000 0.500000
#
# Coordination Sequence:
#
# PCOD8154464 Si02
#       3
#     4   8   8
#     4  12  28  54  86 116 164 216 268 334 410 476
#     4  11  28  52  79 119 165 209 270 337 399 482
#     4  11  27  49  83 119 162 213 269 334 403 480
#
# _framework density 29.533892999999999
#
# number of rings (size 3 to 8) (size 9 to 14) (size 15 to 20)
#    0.000    0.800    0.000    3.600   22.400    1.600 
#    3.600    4.000    0.000    0.000    0.000    0.000 
#    0.000    0.000    0.000    0.000    0.000    0.000 
#
# Total GULP energy -123920.496754 kJ/mol
# GULP energy per Si atom -12392.049675 kJ/mol
# Density = 2.946667 g / cm^3
# Si number density = 29.533893 Si / 1000 Ang^3
#
#
#
# Elastic Constant Matrix: (Units=GPa)
#
#
# Indices 1 2 3 4 5 6 
#
# 1 165.3554 57.2913 97.7652 -0.0001 -9.7285 0.0001
# 2 57.2913 122.7688 63.2798 0.0000 -12.4820 0.0000
# 3 97.7652 63.2798 159.0538 0.0000 4.8653 0.0000
# 4 -0.0001 0.0000 0.0000 27.2441 0.0000 18.1857
# 5 -9.7285 -12.4820 4.8653 0.0000 82.1580 0.0000
# 6 0.0001 0.0000 0.0000 18.1857 0.0000 80.1082
#
#
#
# Elastic Compliance Matrix: (Units=1/GPa)
#
#
# Indices 1 2 3 4 5 6 
#
# 1 0.009946 -0.001691 -0.005479 0.000000 0.001245 0.000000
# 2 -0.001691 0.010807 -0.003311 0.000000 0.001638 0.000000
# 3 -0.005479 -0.003311 0.011027 0.000000 -0.001805 0.000000
# 4 0.000000 0.000000 0.000000 0.043261 0.000000 -0.009821
# 5 0.001245 0.001638 -0.001805 0.000000 0.012675 0.000000
# 6 0.000000 0.000000 0.000000 -0.009821 0.000000 0.014713
#
#
# Mechanical properties :
#
#
# Convention : Reuss Voigt Hill
#
# Bulk Modulus (GPa) = 92.42073 98.20564 95.31319
# Shear Modulus (GPa) = 39.37139 53.15816 46.26478
#
# Velocity S-wave (km/s) = 3.65511 4.24713 3.96219
# Velocity P-wave (km/s) = 7.01243 7.57462 7.29894
#
# Compressibility (1/GPa) = 0.01082008
#
# Stress axis : x y z
#
# Youngs Moduli (GPa) = 100.54269 92.53011 90.68477
#
# Poissons Ratio (x) = 0.15645 0.49685
# Poissons Ratio (y) = 0.16999 0.30022
# Poissons Ratio (z) = 0.55087 0.30633
#
# Static dielectric constant tensor:
#      x y z
#    x 6.979660 0.000000 -0.151050 
#    y 0.000000 6.338250 0.000000 
#    z -0.151050 0.000000 5.253430 
# 
# 
# High freq. dielectric constant tensor:
#      x y z
#    x 2.247180 0.000000 -0.001630 
#    y 0.000000 2.209860 0.000000 
#    z -0.001630 0.000000 2.199720 
# 
# From -- ./inp_files/27138.got.cif
#   From: 2010.06.25/outbox.cif.g09.slc.cpg/sg15_14_cif.got.tgz:27138.got - 2010.06.28 07:06:18.
