data_PCOD8154748
_publ_section_title
;
Structure prediction by ZEFSAII (Michael W. Deem and Ramdas Pophale) SiO2 
 PCOD8154748
Probable space group: C 2/C
;
_chemical_formula_sum "Si O2"
_cell_formula_units_Z 44
_cell_length_a 9.851167
_cell_length_b 20.246351
_cell_length_c 9.450928
_cell_angle_alpha 90.000000
_cell_angle_beta 103.595212
_cell_angle_gamma 90.000000
_cell_volume 1832.173155
_symmetry_space_group_name_H-M "C 2/C"
_symmetry_group_IT_number 15
_symmetry_cell_setting 'monoclinic'
loop_
_space_group_symop_operation_xyz
x,y,z
-x,y,1/2-z
-x,-y,-z
x,-y,1/2+z
1/2+x,1/2+y,z
1/2-x,1/2+y,1/2-z
1/2-x,1/2-y,-z
1/2+x,1/2-y,1/2+z
loop_
_atom_site_type_symbol
_atom_site_label
_atom_site_fract_x
_atom_site_fract_y
_atom_site_fract_z
Si Si1 0.456682 0.308778 0.588180
Si Si2 0.294588 0.626961 0.505278
Si Si3 0.000000 0.941959 0.250000
Si Si4 0.989002 0.686881 0.079644
Si Si5 0.236245 0.006788 0.184824
Si Si6 0.203552 0.412986 0.530644
O O1 0.500000 0.278568 0.750000
O O2 0.591730 0.348063 0.575084
O O3 0.432254 0.248772 0.473077
O O4 0.325761 0.358083 0.564337
O O5 0.372299 0.604227 0.666887
O O6 0.174291 0.681273 0.506833
O O7 0.222736 0.566792 0.405994
O O8 0.930410 0.988111 0.354213
O O9 0.000000 0.696035 0.250000
O O10 0.060581 0.620357 0.043036
O O11 0.273185 0.025044 0.355991
O O12 0.313310 0.943327 0.131875
#
# Coordination Sequence:
#
# PCOD8154748 Si02
#       6
#     8   8   4   8   8   8
#     4  12  25  47  77 107 150 196 255 308 365 452
#     4  12  25  45  73 108 148 188 250 311 368 444
#     4  12  24  42  74 116 138 196 254 302 372 444
#     4  12  28  50  73 110 156 200 246 307 382 442
#     4  12  23  44  78 105 149 189 246 309 372 440
#     4  12  26  48  76 112 153 195 246 314 378 448
#
# _framework density 24.015198000000002
#
# number of rings (size 3 to 8) (size 9 to 14) (size 15 to 20)
#    0.000    0.000    7.273    2.727    1.273    2.182 
#    3.273    0.000    0.000    0.000    0.000    0.000 
#    0.000    0.000    0.000    0.000    0.000    0.000 
#
# Total GULP energy -272665.720691 kJ/mol
# GULP energy per Si atom -12393.896395 kJ/mol
# Density = 2.396054 g / cm^3
# Si number density = 24.015198 Si / 1000 Ang^3
#
#
#
# Elastic Constant Matrix: (Units=GPa)
#
#
# Indices 1 2 3 4 5 6 
#
# 1 87.3356 21.2070 35.1715 0.0000 -2.9366 0.0000
# 2 21.2070 90.1100 48.6407 0.0000 -10.8378 0.0000
# 3 35.1715 48.6407 84.2285 0.0000 -19.4272 0.0000
# 4 0.0000 0.0000 0.0000 51.0815 0.0000 59.6987
# 5 -2.9366 -10.8378 -19.4272 0.0000 37.0719 0.0000
# 6 0.0000 0.0000 0.0000 59.6987 0.0000 956.8583
#
#
#
# Elastic Compliance Matrix: (Units=1/GPa)
#
#
# Indices 1 2 3 4 5 6 
#
# 1 0.013925 -0.000188 -0.006216 0.000000 -0.002209 0.000000
# 2 -0.000188 0.016127 -0.009272 0.000000 -0.000159 0.000000
# 3 -0.006216 -0.009272 0.021707 0.000000 0.008173 0.000000
# 4 0.000000 0.000000 0.000000 0.021116 0.000000 -0.001317
# 5 -0.002209 -0.000159 0.008173 0.000000 0.031036 0.000000
# 6 0.000000 0.000000 0.000000 -0.001317 0.000000 0.001127
#
#
# Mechanical properties :
#
#
# Convention : Reuss Voigt Hill
#
# Bulk Modulus (GPa) = 48.99734 52.41250 50.70492
# Shear Modulus (GPa) = 34.91832 219.44603 127.18217
#
# Velocity S-wave (km/s) = 3.81728 9.56955 7.28519
# Velocity P-wave (km/s) = 6.31473 11.99891 9.58774
#
# Compressibility (1/GPa) = 0.02040927
#
# Stress axis : x y z
#
# Youngs Moduli (GPa) = 71.81583 62.00651 46.06773
#
# Poissons Ratio (x) = 0.01163 0.28634
# Poissons Ratio (y) = 0.01347 0.42712
# Poissons Ratio (z) = 0.44638 0.57490
#
# Static dielectric constant tensor:
#      x y z
#    x 4.315760 0.000000 -0.241800 
#    y 0.000000 4.475120 0.000000 
#    z -0.241800 0.000000 4.276090 
# 
# 
# High freq. dielectric constant tensor:
#      x y z
#    x 1.956000 0.000000 -0.026150 
#    y 0.000000 1.957080 0.000000 
#    z -0.026150 0.000000 1.946850 
# 
# From -- ./inp_files/78293.got.cif
#   From: 2010.06.25/outbox.cif.g09.slc.cpg/sg15_40_cif.got.tgz:78293.got - 2010.06.28 07:06:18.
