data_PCOD8154782
_publ_section_title
;
Structure prediction by ZEFSAII (Michael W. Deem and Ramdas Pophale) SiO2 
 PCOD8154782
Probable space group: C 2/C
;
_chemical_formula_sum "Si O2"
_cell_formula_units_Z 36
_cell_length_a 12.919574
_cell_length_b 20.281098
_cell_length_c 5.443682
_cell_angle_alpha 90.000000
_cell_angle_beta 93.107072
_cell_angle_gamma 90.000000
_cell_volume 1424.273903
_symmetry_space_group_name_H-M "C 2/C"
_symmetry_group_IT_number 15
_symmetry_cell_setting 'monoclinic'
loop_
_space_group_symop_operation_xyz
x,y,z
-x,y,1/2-z
-x,-y,-z
x,-y,1/2+z
1/2+x,1/2+y,z
1/2-x,1/2+y,1/2-z
1/2-x,1/2-y,-z
1/2+x,1/2-y,1/2+z
loop_
_atom_site_type_symbol
_atom_site_label
_atom_site_fract_x
_atom_site_fract_y
_atom_site_fract_z
Si Si1 0.000000 0.461028 0.750000
Si Si2 0.664162 0.125467 0.441858
Si Si3 0.000000 0.673166 0.750000
Si Si4 0.366552 0.541866 0.483656
Si Si5 0.000000 0.862460 0.250000
Si Si6 0.142937 0.252627 0.630387
O O1 0.000000 0.500000 0.500000
O O2 0.897552 0.416134 0.770743
O O3 0.593068 0.125428 0.676716
O O4 0.771812 0.091506 0.509348
O O5 0.672889 0.202023 0.366214
O O6 0.955552 0.718970 0.528556
O O7 0.364090 0.491775 0.716550
O O8 0.469235 0.587986 0.521201
O O9 0.103012 0.819928 0.201191
O O10 0.250000 0.250000 0.500000
#
# Coordination Sequence:
#
# PCOD8154782 Si02
#       6
#     4   8   4   8   4   8
#     4  12  24  42  74 106 155 209 256 320 396 466
#     4  12  26  49  75 118 159 204 273 332 404 488
#     4  12  23  46  79 115 162 203 266 330 428 486
#     4  12  31  54  83 117 164 223 277 332 399 488
#     4  12  27  56  81 119 163 212 276 342 408 492
#     4  12  28  48  82 121 156 213 263 348 419 481
#
# _framework density 25.276039999999998
#
# number of rings (size 3 to 8) (size 9 to 14) (size 15 to 20)
#    0.000    0.000    4.444    4.000    9.333    1.778 
#    0.000    0.000    0.000    0.000    0.000    0.000 
#    0.000    0.000    0.000    0.000    0.000    0.000 
#
# Total GULP energy -223093.543638 kJ/mol
# GULP energy per Si atom -12394.085758 kJ/mol
# Density = 2.521851 g / cm^3
# Si number density = 25.276040 Si / 1000 Ang^3
#
#
#
# Elastic Constant Matrix: (Units=GPa)
#
#
# Indices 1 2 3 4 5 6 
#
# 1 117.5983 47.3815 9.0885 0.0000 -0.2821 0.0000
# 2 47.3815 128.0876 57.5989 0.0000 10.4958 0.0000
# 3 9.0885 57.5989 108.0782 0.0000 -3.4914 0.0000
# 4 0.0000 0.0000 0.0000 61.0828 0.0000 18.0434
# 5 -0.2821 10.4958 -3.4914 0.0000 45.1457 0.0000
# 6 0.0000 0.0000 0.0000 18.0434 0.0000 63.1698
#
#
#
# Elastic Compliance Matrix: (Units=1/GPa)
#
#
# Indices 1 2 3 4 5 6 
#
# 1 0.010247 -0.004637 0.001650 0.000000 0.001270 0.000000
# 2 -0.004637 0.012736 -0.006511 0.000000 -0.003494 0.000000
# 3 0.001650 -0.006511 0.012664 0.000000 0.002503 0.000000
# 4 0.000000 0.000000 0.000000 0.017880 0.000000 -0.005107
# 5 0.001270 -0.003494 0.002503 0.000000 0.023164 0.000000
# 6 0.000000 0.000000 0.000000 -0.005107 0.000000 0.017289
#
#
# Mechanical properties :
#
#
# Convention : Reuss Voigt Hill
#
# Bulk Modulus (GPa) = 60.04565 64.65576 62.35070
# Shear Modulus (GPa) = 42.18468 49.85935 46.02201
#
# Velocity S-wave (km/s) = 4.08972 4.44621 4.27168
# Velocity P-wave (km/s) = 6.79033 7.21067 7.00365
#
# Compressibility (1/GPa) = 0.01665400
#
# Stress axis : x y z
#
# Youngs Moduli (GPa) = 97.58728 78.51531 78.96157
#
# Poissons Ratio (x) = 0.36406 -0.13032
# Poissons Ratio (y) = 0.45249 0.51409
# Poissons Ratio (z) = -0.16106 0.51118
#
# Static dielectric constant tensor:
#      x y z
#    x 5.305610 0.000000 -0.626870 
#    y 0.000000 5.087050 0.000000 
#    z -0.626870 0.000000 5.831730 
# 
# 
# High freq. dielectric constant tensor:
#      x y z
#    x 2.024100 0.000000 0.011800 
#    y 0.000000 2.028520 0.000000 
#    z 0.011800 0.000000 2.006900 
# 
# From -- ./inp_files/6929.got.cif
#   From: 2010.06.25/outbox.cif.g09.slc.cpg/sg15_4_cif.got.tgz:6929.got - 2010.06.28 07:06:18.
