data_PCOD8154256
_publ_section_title
;
Structure prediction by ZEFSAII (Michael W. Deem and Ramdas Pophale) SiO2 
 PCOD8154256
Probable space group: C 2/C
;
_chemical_formula_sum "Si O2"
_cell_formula_units_Z 48
_cell_length_a 11.029591
_cell_length_b 15.761757
_cell_length_c 21.326930
_cell_angle_alpha 90.000000
_cell_angle_beta 141.673792
_cell_angle_gamma 90.000000
_cell_volume 2299.220796
_symmetry_space_group_name_H-M "C 2/C"
_symmetry_group_IT_number 15
_symmetry_cell_setting 'monoclinic'
loop_
_space_group_symop_operation_xyz
x,y,z
-x,y,1/2-z
-x,-y,-z
x,-y,1/2+z
1/2+x,1/2+y,z
1/2-x,1/2+y,1/2-z
1/2-x,1/2-y,-z
1/2+x,1/2-y,1/2+z
loop_
_atom_site_type_symbol
_atom_site_label
_atom_site_fract_x
_atom_site_fract_y
_atom_site_fract_z
Si Si1 0.123367 0.032329 0.994359
Si Si2 0.745146 0.745343 0.421877
Si Si3 0.326997 0.724823 0.462208
Si Si4 0.500000 0.307475 0.250000
Si Si5 0.358677 0.456608 0.271342
Si Si6 0.456373 0.921396 0.165146
Si Si7 0.000000 0.105172 0.250000
O O1 0.180096 0.125619 0.035683
O O2 0.315496 0.976388 0.064635
O O3 0.994891 0.014858 0.882307
O O4 0.000000 0.000000 0.000000
O O5 0.750000 0.750000 0.500000
O O6 0.631065 0.829151 0.354254
O O7 0.622482 0.663188 0.348504
O O8 0.957150 0.742312 0.472555
O O9 0.250000 0.750000 0.500000
O O10 0.179373 0.750498 0.346702
O O11 0.452813 0.369830 0.287034
O O12 0.348511 0.539470 0.222221
O O13 0.148901 0.420978 0.202750
O O14 0.500000 0.965270 0.250000
#
# Coordination Sequence:
#
# PCOD8154256 Si02
#       7
#     8   8   8   4   8   8   4
#     4  12  24  45  69 104 144 184 239 292 360 428
#     4  12  26  47  72 106 142 187 241 299 359 426
#     4  12  27  46  74 106 144 189 242 300 359 433
#     4  11  26  46  69 100 140 188 233 300 356 427
#     4  11  25  48  68 103 146 183 237 296 360 426
#     4  12  24  43  70  99 140 186 231 293 350 424
#     4  11  28  44  77 106 144 192 243 294 364 435
#
# _framework density 20.876636999999999
#
# number of rings (size 3 to 8) (size 9 to 14) (size 15 to 20)
#    0.000    0.333    5.833    2.000    3.500    1.333 
#    0.000    4.167    0.000    0.000    0.000    0.000 
#    0.000    0.000    0.000    0.000    0.000    0.000 
#
# Total GULP energy -297329.397898 kJ/mol
# GULP energy per Si atom -12388.724912 kJ/mol
# Density = 2.082912 g / cm^3
# Si number density = 20.876637 Si / 1000 Ang^3
#
#
#
# Elastic Constant Matrix: (Units=GPa)
#
#
# Indices 1 2 3 4 5 6 
#
# 1 138.4257 29.6304 40.9225 0.0000 9.7729 0.0000
# 2 29.6304 130.3029 36.5614 0.0000 5.6086 0.0000
# 3 40.9225 36.5614 118.9466 0.0000 2.5194 0.0000
# 4 0.0000 0.0000 0.0000 53.7402 0.0000 -8.6971
# 5 9.7729 5.6086 2.5194 0.0000 43.1362 0.0000
# 6 0.0000 0.0000 0.0000 -8.6971 0.0000 15.8831
#
#
#
# Elastic Compliance Matrix: (Units=1/GPa)
#
#
# Indices 1 2 3 4 5 6 
#
# 1 0.008310 -0.001126 -0.002479 0.000000 -0.001592 0.000000
# 2 -0.001126 0.008590 -0.002238 0.000000 -0.000731 0.000000
# 3 -0.002479 -0.002238 0.009942 0.000000 0.000272 0.000000
# 4 0.000000 0.000000 0.000000 0.020417 0.000000 0.011180
# 5 -0.001592 -0.000731 0.000272 0.000000 0.023622 0.000000
# 6 0.000000 0.000000 0.000000 0.011180 0.000000 0.069082
#
#
# Mechanical properties :
#
#
# Convention : Reuss Voigt Hill
#
# Bulk Modulus (GPa) = 65.97535 66.87820 66.42678
# Shear Modulus (GPa) = 31.90796 41.25597 36.58197
#
# Velocity S-wave (km/s) = 3.91372 4.45025 4.19058
# Velocity P-wave (km/s) = 7.21762 7.64923 7.43656
#
# Compressibility (1/GPa) = 0.01515718
#
# Stress axis : x y z
#
# Youngs Moduli (GPa) = 120.33148 116.41897 100.58174
#
# Poissons Ratio (x) = 0.13103 0.24939
# Poissons Ratio (y) = 0.13544 0.22506
# Poissons Ratio (z) = 0.29835 0.26049
#
# Static dielectric constant tensor:
#      x y z
#    x 3.977640 0.000000 -0.049620 
#    y 0.000000 3.935500 0.000000 
#    z -0.049620 0.000000 3.781380 
# 
# 
# High freq. dielectric constant tensor:
#      x y z
#    x 1.830330 0.000000 -0.001800 
#    y 0.000000 1.831630 0.000000 
#    z -0.001800 0.000000 1.831640 
# 
# From -- ./inp_files/144123.got.cif
#   From: 2010.06.25/outbox.cif.g09.slc.cpg/sg15_73_cif.got.tgz:144123.got - 2010.06.28 07:06:18.
