data_PCOD8154880
_publ_section_title
;
Structure prediction by ZEFSAII (Michael W. Deem and Ramdas Pophale) SiO2 
 PCOD8154880
Probable space group: C 2/C
;
_chemical_formula_sum "Si O2"
_cell_formula_units_Z 52
_cell_length_a 17.894277
_cell_length_b 9.399119
_cell_length_c 14.290297
_cell_angle_alpha 90.000000
_cell_angle_beta 80.666709
_cell_angle_gamma 90.000000
_cell_volume 2371.673070
_symmetry_space_group_name_H-M "C 2/C"
_symmetry_group_IT_number 15
_symmetry_cell_setting 'monoclinic'
loop_
_space_group_symop_operation_xyz
x,y,z
-x,y,1/2-z
-x,-y,-z
x,-y,1/2+z
1/2+x,1/2+y,z
1/2-x,1/2+y,1/2-z
1/2-x,1/2-y,-z
1/2+x,1/2-y,1/2+z
loop_
_atom_site_type_symbol
_atom_site_label
_atom_site_fract_x
_atom_site_fract_y
_atom_site_fract_z
Si Si1 0.931235 0.386801 0.004527
Si Si2 0.126452 0.232765 0.659479
Si Si3 0.500000 0.525651 0.750000
Si Si4 0.228756 0.298475 0.790078
Si Si5 0.767628 0.539405 0.565689
Si Si6 0.554001 0.584467 0.423616
Si Si7 0.717188 0.493866 0.873780
O O1 0.907419 0.352924 0.901950
O O2 0.854194 0.425168 0.075979
O O3 0.959604 0.246353 0.048561
O O4 0.000000 0.500000 0.000000
O O5 0.144886 0.303831 0.757539
O O6 0.204750 0.158011 0.605785
O O7 0.062209 0.116285 0.683062
O O8 0.460118 0.425652 0.683482
O O9 0.244601 0.389025 0.879805
O O10 0.281722 0.358805 0.696377
O O11 0.243804 0.133567 0.811391
O O12 0.770624 0.520562 0.452922
O O13 0.500000 0.500000 0.500000
O O14 0.633196 0.507963 0.431916
#
# Coordination Sequence:
#
# PCOD8154880 Si02
#       7
#     8   8   4   8   8   8   8
#     4  12  28  48  73 106 144 195 247 308 379 441
#     4  12  24  47  77 102 149 198 238 308 386 434
#     4  12  24  46  74 104 146 190 244 302 370 444
#     4  12  25  44  72 112 140 188 252 303 367 451
#     4  12  25  48  75 104 150 191 243 313 373 449
#     4  12  25  46  75 102 146 196 248 294 377 455
#     4  12  25  46  75 108 143 194 250 306 372 455
#
# _framework density 21.925450000000001
#
# number of rings (size 3 to 8) (size 9 to 14) (size 15 to 20)
#    0.000    0.000    7.692    1.846    4.308    0.000 
#    8.308    0.000    0.000    0.000    0.000    0.000 
#    0.000    0.000    0.000    0.000    0.000    0.000 
#
# Total GULP energy -322133.898980 kJ/mol
# GULP energy per Si atom -12389.765345 kJ/mol
# Density = 2.187555 g / cm^3
# Si number density = 21.925450 Si / 1000 Ang^3
#
#
#
# Elastic Constant Matrix: (Units=GPa)
#
#
# Indices 1 2 3 4 5 6 
#
# 1 134.0417 64.7497 36.5537 0.0000 -7.7151 0.0000
# 2 64.7497 137.2965 56.4062 0.0000 -1.5486 0.0000
# 3 36.5537 56.4062 100.2341 0.0000 10.0743 0.0000
# 4 0.0000 0.0000 0.0000 39.7100 0.0000 11.7957
# 5 -7.7151 -1.5486 10.0743 0.0000 44.0655 0.0000
# 6 0.0000 0.0000 0.0000 11.7957 0.0000 38.1266
#
#
#
# Elastic Compliance Matrix: (Units=1/GPa)
#
#
# Indices 1 2 3 4 5 6 
#
# 1 0.009943 -0.004028 -0.001556 0.000000 0.001955 0.000000
# 2 -0.004028 0.011215 -0.004924 0.000000 0.000815 0.000000
# 3 -0.001556 -0.004924 0.013674 0.000000 -0.003572 0.000000
# 4 0.000000 0.000000 0.000000 0.027731 0.000000 -0.008579
# 5 0.001955 0.000815 -0.003572 0.000000 0.023881 0.000000
# 6 0.000000 0.000000 0.000000 -0.008579 0.000000 0.028883
#
#
# Mechanical properties :
#
#
# Convention : Reuss Voigt Hill
#
# Bulk Modulus (GPa) = 72.37850 76.33240 74.35545
# Shear Modulus (GPa) = 35.47390 38.63793 37.05591
#
# Velocity S-wave (km/s) = 4.02672 4.20246 4.11553
# Velocity P-wave (km/s) = 7.39609 7.64445 7.52130
#
# Compressibility (1/GPa) = 0.01381626
#
# Stress axis : x y z
#
# Youngs Moduli (GPa) = 100.57477 89.16348 73.13055
#
# Poissons Ratio (x) = 0.35914 0.11378
# Poissons Ratio (y) = 0.40510 0.36012
# Poissons Ratio (z) = 0.15648 0.43907
#
# Static dielectric constant tensor:
#      x y z
#    x 3.995210 0.000000 0.138310 
#    y 0.000000 3.703450 0.000000 
#    z 0.138310 0.000000 4.241670 
# 
# 
# High freq. dielectric constant tensor:
#      x y z
#    x 1.866640 0.000000 0.009060 
#    y 0.000000 1.858940 0.000000 
#    z 0.009060 0.000000 1.876530 
# 
# From -- ./inp_files/166224.got.cif
#   From: 2010.06.25/outbox.cif.g09.slc.cpg/sg15_84_cif.got.tgz:166224.got - 2010.06.28 07:06:18.
