data_PCOD8154725
_publ_section_title
;
Structure prediction by ZEFSAII (Michael W. Deem and Ramdas Pophale) SiO2 
 PCOD8154725
Probable space group: C 2/C
;
_chemical_formula_sum "Si O2"
_cell_formula_units_Z 44
_cell_length_a 15.802721
_cell_length_b 12.938538
_cell_length_c 26.225080
_cell_angle_alpha 90.000000
_cell_angle_beta 157.915017
_cell_angle_gamma 90.000000
_cell_volume 2016.045238
_symmetry_space_group_name_H-M "C 2/C"
_symmetry_group_IT_number 15
_symmetry_cell_setting 'monoclinic'
loop_
_space_group_symop_operation_xyz
x,y,z
-x,y,1/2-z
-x,-y,-z
x,-y,1/2+z
1/2+x,1/2+y,z
1/2-x,1/2+y,1/2-z
1/2-x,1/2-y,-z
1/2+x,1/2-y,1/2+z
loop_
_atom_site_type_symbol
_atom_site_label
_atom_site_fract_x
_atom_site_fract_y
_atom_site_fract_z
Si Si1 0.993918 0.216597 0.617594
Si Si2 0.399282 0.490195 0.589229
Si Si3 0.129529 0.135755 0.137662
Si Si4 0.304134 0.730072 0.875428
Si Si5 0.000000 0.097224 0.250000
Si Si6 0.446991 0.967123 0.277910
O O1 0.750000 0.250000 0.500000
O O2 0.183176 0.275767 0.755499
O O3 0.021172 0.247353 0.573327
O O4 0.029931 0.095227 0.647603
O O5 0.527848 0.391947 0.636384
O O6 0.394123 0.475574 0.647213
O O7 0.145701 0.498412 0.427057
O O8 0.225016 0.030476 0.167908
O O9 0.923767 0.173278 0.988829
O O10 0.102130 0.655150 0.743848
O O11 0.201797 0.836616 0.838379
O O12 0.500000 0.999016 0.250000
#
# Coordination Sequence:
#
# PCOD8154725 Si02
#       6
#     8   8   8   8   4   8
#     4  12  27  47  68 104 145 189 235 288 362 435
#     4  12  26  47  71 104 145 186 239 292 362 425
#     4  12  25  44  73 102 142 184 238 300 352 423
#     4  12  25  43  74 107 138 186 242 292 359 419
#     4  12  28  46  72 108 148 192 232 294 360 432
#     4  12  23  43  76 106 135 180 240 304 347 409
#
# _framework density 21.824907
#
# number of rings (size 3 to 8) (size 9 to 14) (size 15 to 20)
#    0.000    0.000    8.182    1.636    2.545    2.909 
#    0.000    2.727    0.000    0.000    0.000    0.000 
#    0.000    0.000    0.000    0.000    0.000    0.000 
#
# Total GULP energy -272964.700804 kJ/mol
# GULP energy per Si atom -12407.486400 kJ/mol
# Density = 2.177523 g / cm^3
# Si number density = 21.824907 Si / 1000 Ang^3
#
#
#
# Elastic Constant Matrix: (Units=GPa)
#
#
# Indices 1 2 3 4 5 6 
#
# 1 157.2242 31.7848 38.4193 0.0088 -11.2394 0.0008
# 2 31.7848 86.0976 32.3974 0.0192 -2.2110 -0.0023
# 3 38.4193 32.3974 96.6763 0.0849 -7.4589 -0.0100
# 4 0.0088 0.0192 0.0849 28.5498 -0.0116 5.6021
# 5 -11.2394 -2.2110 -7.4589 -0.0116 37.5559 -0.0012
# 6 0.0008 -0.0023 -0.0100 5.6021 -0.0012 40.3453
#
#
#
# Elastic Compliance Matrix: (Units=1/GPa)
#
#
# Indices 1 2 3 4 5 6 
#
# 1 0.007390 -0.001864 -0.002184 0.000006 0.001668 -0.000002
# 2 -0.001864 0.013761 -0.003911 0.000003 -0.000524 -0.000001
# 3 -0.002184 -0.003911 0.012648 -0.000035 0.001628 0.000008
# 4 0.000006 0.000003 -0.000035 0.036008 0.000006 -0.005000
# 5 0.001668 -0.000524 0.001628 0.000006 0.027419 0.000000
# 6 -0.000002 -0.000001 0.000008 -0.005000 0.000000 0.025480
#
#
# Mechanical properties :
#
#
# Convention : Reuss Voigt Hill
#
# Bulk Modulus (GPa) = 55.92268 60.57793 58.25030
# Shear Modulus (GPa) = 34.58213 37.11664 35.84938
#
# Velocity S-wave (km/s) = 3.98493 4.12837 4.05729
# Velocity P-wave (km/s) = 6.84484 7.10923 6.97829
#
# Compressibility (1/GPa) = 0.01788183
#
# Stress axis : x y z
#
# Youngs Moduli (GPa) = 135.31927 72.66876 79.06436
#
# Poissons Ratio (x) = 0.13543 0.17264
# Poissons Ratio (y) = 0.25219 0.30925
# Poissons Ratio (z) = 0.29547 0.28423
#
# Static dielectric constant tensor:
#      x y z
#    x 4.077840 -0.000010 0.052520 
#    y -0.000010 4.082470 -0.000040 
#    z 0.052520 -0.000040 3.815550 
# 
# 
# High freq. dielectric constant tensor:
#      x y z
#    x 1.870610 0.000000 0.004920 
#    y 0.000000 1.859870 0.000000 
#    z 0.004920 0.000000 1.856770 
# 
# From -- ./inp_files/316265.got.cif
#   From: 2010.06.25/outbox.cif.g09.slc.cpg/sg15_159_cif.got.tgz:316265.got - 2010.06.28 07:06:18.
