data_PCOD8154330
_publ_section_title
;
Structure prediction by ZEFSAII (Michael W. Deem and Ramdas Pophale) SiO2 
 PCOD8154330
Probable space group: C 2/C
;
_chemical_formula_sum "Si O2"
_cell_formula_units_Z 44
_cell_length_a 19.045597
_cell_length_b 6.649805
_cell_length_c 15.736243
_cell_angle_alpha 90.000000
_cell_angle_beta 74.835277
_cell_angle_gamma 90.000000
_cell_volume 1923.587082
_symmetry_space_group_name_H-M "C 2/C"
_symmetry_group_IT_number 15
_symmetry_cell_setting 'monoclinic'
loop_
_space_group_symop_operation_xyz
x,y,z
-x,y,1/2-z
-x,-y,-z
x,-y,1/2+z
1/2+x,1/2+y,z
1/2-x,1/2+y,1/2-z
1/2-x,1/2-y,-z
1/2+x,1/2-y,1/2+z
loop_
_atom_site_type_symbol
_atom_site_label
_atom_site_fract_x
_atom_site_fract_y
_atom_site_fract_z
Si Si1 0.108898 0.483792 0.473767
Si Si2 0.765632 0.737213 0.135467
Si Si3 0.500000 0.460743 0.750000
Si Si4 0.502517 0.308426 0.938010
Si Si5 0.796544 0.620738 0.421536
Si Si6 0.160253 0.085358 0.731550
O O1 0.188132 0.555237 0.417814
O O2 0.079776 0.307835 0.420635
O O3 0.122456 0.394800 0.563696
O O4 0.055776 0.669976 0.497194
O O5 0.819478 0.862545 0.179002
O O6 0.693999 0.633196 0.198925
O O7 0.738071 0.898670 0.075804
O O8 0.486351 0.338386 0.842617
O O9 0.572976 0.588543 0.745066
O O10 0.500000 0.500000 0.000000
O O11 0.750000 0.750000 0.500000
O O12 0.803919 0.730469 0.330055
#
# Coordination Sequence:
#
# PCOD8154330 Si02
#       6
#     8   8   4   8   8   8
#     4  11  26  44  74 108 143 198 249 312 376 458
#     4  12  26  46  74 107 146 197 257 310 377 450
#     4  12  28  44  78 106 150 200 242 308 384 462
#     4  11  26  49  73 106 155 197 250 311 387 453
#     4  12  26  43  73 106 143 188 250 310 378 440
#     4  12  27  47  72 109 149 197 248 315 375 458
#
# _framework density 22.873932
#
# number of rings (size 3 to 8) (size 9 to 14) (size 15 to 20)
#    0.000    0.364    3.636    3.818   10.182    2.909 
#    0.000    4.545    0.000    0.000    0.000    0.000 
#    0.000    0.000    0.000    0.000    0.000    0.000 
#
# Total GULP energy -272693.667866 kJ/mol
# GULP energy per Si atom -12395.166721 kJ/mol
# Density = 2.282187 g / cm^3
# Si number density = 22.873932 Si / 1000 Ang^3
#
#
#
# Elastic Constant Matrix: (Units=GPa)
#
#
# Indices 1 2 3 4 5 6 
#
# 1 140.8276 44.6094 21.9619 0.0000 9.4116 0.0000
# 2 44.6094 116.1447 27.8414 0.0000 3.0817 0.0000
# 3 21.9619 27.8414 79.6331 0.0000 12.6168 0.0000
# 4 0.0000 0.0000 0.0000 35.0254 0.0000 11.7713
# 5 9.4116 3.0817 12.6168 0.0000 44.7084 0.0000
# 6 0.0000 0.0000 0.0000 11.7713 0.0000 42.9612
#
#
#
# Elastic Compliance Matrix: (Units=1/GPa)
#
#
# Indices 1 2 3 4 5 6 
#
# 1 0.008265 -0.002884 -0.001075 0.000000 -0.001238 0.000000
# 2 -0.002884 0.010407 -0.002958 0.000000 0.000725 0.000000
# 3 -0.001075 -0.002958 0.014467 0.000000 -0.003652 0.000000
# 4 0.000000 0.000000 0.000000 0.031447 0.000000 -0.008616
# 5 -0.001238 0.000725 -0.003652 0.000000 0.023608 0.000000
# 6 0.000000 0.000000 0.000000 -0.008616 0.000000 0.025638
#
#
# Mechanical properties :
#
#
# Convention : Reuss Voigt Hill
#
# Bulk Modulus (GPa) = 51.79927 58.38119 55.09023
# Shear Modulus (GPa) = 37.28540 40.68519 38.98529
#
# Velocity S-wave (km/s) = 4.04175 4.22200 4.13286
# Velocity P-wave (km/s) = 6.66901 7.02464 6.84913
#
# Compressibility (1/GPa) = 0.01930529
#
# Stress axis : x y z
#
# Youngs Moduli (GPa) = 120.99600 96.08495 69.12301
#
# Poissons Ratio (x) = 0.27709 0.07431
# Poissons Ratio (y) = 0.34893 0.20447
# Poissons Ratio (z) = 0.13007 0.28423
#
# Static dielectric constant tensor:
#      x y z
#    x -1.550420 0.000000 -2.762340 
#    y 0.000000 4.694500 0.000000 
#    z -2.762340 0.000000 2.713200 
# 
# 
# High freq. dielectric constant tensor:
#      x y z
#    x 1.922080 0.000000 0.015940 
#    y 0.000000 1.910770 0.000000 
#    z 0.015940 0.000000 1.901180 
# 
# From -- ./inp_files/212821.got.cif
#   From: 2010.06.25/outbox.cif.g09.slc.cpg/sg15_107_cif.got.tgz:212821.got - 2010.06.28 07:06:18.
