data_PCOD8154742
_publ_section_title
;
Structure prediction by ZEFSAII (Michael W. Deem and Ramdas Pophale) SiO2 
 PCOD8154742
Probable space group: C 2/C
;
_chemical_formula_sum "Si O2"
_cell_formula_units_Z 40
_cell_length_a 32.086193
_cell_length_b 9.931184
_cell_length_c 9.189258
_cell_angle_alpha 90.000000
_cell_angle_beta 146.090870
_cell_angle_gamma 90.000000
_cell_volume 1633.572465
_symmetry_space_group_name_H-M "C 2/C"
_symmetry_group_IT_number 15
_symmetry_cell_setting 'monoclinic'
loop_
_space_group_symop_operation_xyz
x,y,z
-x,y,1/2-z
-x,-y,-z
x,-y,1/2+z
1/2+x,1/2+y,z
1/2-x,1/2+y,1/2-z
1/2-x,1/2-y,-z
1/2+x,1/2-y,1/2+z
loop_
_atom_site_type_symbol
_atom_site_label
_atom_site_fract_x
_atom_site_fract_y
_atom_site_fract_z
Si Si1 0.154797 0.408948 0.258847
Si Si2 0.817370 0.238659 0.905733
Si Si3 0.922190 0.833272 0.463018
Si Si4 0.428502 0.093383 0.277555
Si Si5 0.713449 0.484617 0.536262
O O1 0.151283 0.271429 0.342209
O O2 0.139191 0.527413 0.329343
O O3 0.237296 0.434342 0.437267
O O4 0.093215 0.397275 0.954468
O O5 0.880314 0.257709 0.964596
O O6 0.748314 0.338545 0.673207
O O7 0.792081 0.081820 0.837456
O O8 0.942892 0.740821 0.384526
O O9 0.000000 0.892190 0.750000
O O10 0.869914 0.957440 0.264783
O O11 0.500000 0.000000 0.500000
#
# Coordination Sequence:
#
# PCOD8154742 Si02
#       5
#     8   8   8   8   8
#     4  12  23  44  74 110 148 195 255 306 375 445
#     4  12  26  49  77 112 150 197 258 312 378 450
#     4  12  27  48  73 107 153 201 250 312 383 448
#     4  12  24  44  73 110 152 196 247 311 376 450
#     4  12  26  47  79 108 151 197 255 317 370 448
#
# _framework density 24.486211999999998
#
# number of rings (size 3 to 8) (size 9 to 14) (size 15 to 20)
#    0.000    0.000    4.000    6.600    0.000    2.400 
#    0.000    2.000    0.000    0.000    0.000    0.000 
#    0.000    0.000    0.000    0.000    0.000    0.000 
#
# Total GULP energy -248038.593957 kJ/mol
# GULP energy per Si atom -12401.929698 kJ/mol
# Density = 2.443048 g / cm^3
# Si number density = 24.486212 Si / 1000 Ang^3
#
#
#
# Elastic Constant Matrix: (Units=GPa)
#
#
# Indices 1 2 3 4 5 6 
#
# 1 80.9048 23.4412 34.1956 0.0000 -11.1108 0.0000
# 2 23.4412 98.9531 39.4163 0.0000 1.7462 0.0000
# 3 34.1956 39.4163 144.8996 0.0000 -0.6026 0.0000
# 4 0.0000 0.0000 0.0000 43.5345 0.0000 -8.6673
# 5 -11.1108 1.7462 -0.6026 0.0000 44.8198 0.0000
# 6 0.0000 0.0000 0.0000 -8.6673 0.0000 39.0814
#
#
#
# Elastic Compliance Matrix: (Units=1/GPa)
#
#
# Indices 1 2 3 4 5 6 
#
# 1 0.014765 -0.002447 -0.002803 0.000000 0.003718 0.000000
# 2 -0.002447 0.011750 -0.002623 0.000000 -0.001100 0.000000
# 3 -0.002803 -0.002623 0.008275 0.000000 -0.000481 0.000000
# 4 0.000000 0.000000 0.000000 0.024031 0.000000 0.005330
# 5 0.003718 -0.001100 -0.000481 0.000000 0.023270 0.000000
# 6 0.000000 0.000000 0.000000 0.005330 0.000000 0.026770
#
#
# Mechanical properties :
#
#
# Convention : Reuss Voigt Hill
#
# Bulk Modulus (GPa) = 52.51506 57.65153 55.08330
# Shear Modulus (GPa) = 38.18153 40.66743 39.42448
#
# Velocity S-wave (km/s) = 3.95309 4.07975 4.01692
# Velocity P-wave (km/s) = 6.50609 6.76669 6.63767
#
# Compressibility (1/GPa) = 0.01904216
#
# Stress axis : x y z
#
# Youngs Moduli (GPa) = 67.72995 85.10813 120.85254
#
# Poissons Ratio (x) = 0.20822 0.33880
# Poissons Ratio (y) = 0.16570 0.31705
# Poissons Ratio (z) = 0.18987 0.22328
#
# Static dielectric constant tensor:
#      x y z
#    x 4.650290 0.000000 -0.175460 
#    y 0.000000 4.299080 0.000000 
#    z -0.175460 0.000000 4.483270 
# 
# 
# High freq. dielectric constant tensor:
#      x y z
#    x 1.982790 0.000000 -0.007980 
#    y 0.000000 1.959530 0.000000 
#    z -0.007980 0.000000 1.979520 
# 
# From -- ./inp_files/69242.got.cif
#   From: 2010.06.25/outbox.cif.g09.slc.cpg/sg15_35_cif.got.tgz:69242.got - 2010.06.28 07:06:18.
