data_PCOD8154268
_publ_section_title
;
Structure prediction by ZEFSAII (Michael W. Deem and Ramdas Pophale) SiO2 
 PCOD8154268
Probable space group: C 2/C
;
_chemical_formula_sum "Si O2"
_cell_formula_units_Z 56
_cell_length_a 27.089091
_cell_length_b 11.699504
_cell_length_c 22.408531
_cell_angle_alpha 90.000000
_cell_angle_beta 159.117618
_cell_angle_gamma 90.000000
_cell_volume 2531.481560
_symmetry_space_group_name_H-M "C 2/C"
_symmetry_group_IT_number 15
_symmetry_cell_setting 'monoclinic'
loop_
_space_group_symop_operation_xyz
x,y,z
-x,y,1/2-z
-x,-y,-z
x,-y,1/2+z
1/2+x,1/2+y,z
1/2-x,1/2+y,1/2-z
1/2-x,1/2-y,-z
1/2+x,1/2-y,1/2+z
loop_
_atom_site_type_symbol
_atom_site_label
_atom_site_fract_x
_atom_site_fract_y
_atom_site_fract_z
Si Si1 0.405742 0.653416 0.844276
Si Si2 0.933255 0.379764 0.942421
Si Si3 0.000000 0.968153 0.250000
Si Si4 0.000000 0.500244 0.250000
Si Si5 0.777978 0.146569 0.575062
Si Si6 0.334733 0.497858 0.371298
Si Si7 0.336199 0.634040 0.991775
Si Si8 0.457745 0.176850 0.805723
O O1 0.471221 0.773617 0.941487
O O2 0.305159 0.680667 0.674805
O O3 0.321726 0.591789 0.802304
O O4 0.518447 0.558288 0.953206
O O5 0.768830 0.396841 0.754652
O O6 0.000000 0.500000 0.000000
O O7 0.970745 0.349619 0.051547
O O8 0.074299 0.901191 0.280502
O O9 0.129179 0.036506 0.422304
O O10 0.979368 0.427682 0.286087
O O11 0.140496 0.570502 0.418065
O O12 0.750000 0.250000 0.500000
O O13 0.293040 0.421795 0.380772
O O14 0.204616 0.704614 0.867888
O O15 0.472659 0.711206 0.142837
#
# Coordination Sequence:
#
# PCOD8154268 Si02
#       8
#     8   8   4   4   8   8   8   8
#     4  11  27  47  78 104 144 197 244 303 371 439
#     4  12  27  43  73 107 149 188 245 305 365 439
#     4  12  26  50  72 104 148 192 242 302 374 436
#     4  12  28  50  74 110 150 194 250 308 374 446
#     4  12  28  48  74 109 148 198 249 302 365 448
#     4  11  25  48  72 108 142 192 244 304 371 439
#     4  12  26  48  76 107 145 191 246 308 377 442
#     4  12  28  47  75 111 146 192 248 308 378 443
#
# _framework density 22.121433
#
# number of rings (size 3 to 8) (size 9 to 14) (size 15 to 20)
#    0.000    0.286    5.714    1.714   10.000    2.286 
#    0.000    0.000    0.000    0.000    0.000    0.000 
#    0.000    0.000    0.000    0.000    0.000    0.000 
#
# Total GULP energy -347181.152705 kJ/mol
# GULP energy per Si atom -12399.326882 kJ/mol
# Density = 2.207108 g / cm^3
# Si number density = 22.121433 Si / 1000 Ang^3
#
#
#
# Elastic Constant Matrix: (Units=GPa)
#
#
# Indices 1 2 3 4 5 6 
#
# 1 114.5259 45.1123 54.4715 0.0011 -14.2046 0.0005
# 2 45.1123 111.4353 34.5541 0.0021 -8.4661 0.0017
# 3 54.4715 34.5541 111.6856 0.0038 -7.5870 0.0030
# 4 0.0011 0.0021 0.0038 39.3573 0.0027 -4.3329
# 5 -14.2046 -8.4661 -7.5870 0.0027 54.4656 0.0017
# 6 0.0005 0.0017 0.0030 -4.3329 0.0017 15.8634
#
#
#
# Elastic Compliance Matrix: (Units=1/GPa)
#
#
# Indices 1 2 3 4 5 6 
#
# 1 0.012724 -0.003442 -0.004999 0.000000 0.002087 0.000001
# 2 -0.003442 0.010926 -0.001663 0.000000 0.000569 -0.000001
# 3 -0.004999 -0.001663 0.011913 -0.000001 0.000097 -0.000002
# 4 0.000000 0.000000 -0.000001 0.026196 -0.000002 0.007155
# 5 0.002087 0.000569 0.000097 -0.000002 0.019006 -0.000003
# 6 0.000001 -0.000001 -0.000002 0.007155 -0.000003 0.064992
#
#
# Mechanical properties :
#
#
# Convention : Reuss Voigt Hill
#
# Bulk Modulus (GPa) = 65.12665 67.32475 66.22570
# Shear Modulus (GPa) = 29.22523 35.50451 32.36487
#
# Velocity S-wave (km/s) = 3.63867 4.01057 3.82914
# Velocity P-wave (km/s) = 6.86715 7.20739 7.03932
#
# Compressibility (1/GPa) = 0.01535470
#
# Stress axis : x y z
#
# Youngs Moduli (GPa) = 78.59052 91.52251 83.94251
#
# Poissons Ratio (x) = 0.31506 0.41963
# Poissons Ratio (y) = 0.27054 0.13958
# Poissons Ratio (z) = 0.39288 0.15219
#
# Static dielectric constant tensor:
#      x y z
#    x 3.933310 -0.000010 0.162980 
#    y -0.000010 3.908080 0.000000 
#    z 0.162980 0.000000 3.635430 
# 
# 
# High freq. dielectric constant tensor:
#      x y z
#    x 1.887950 0.000000 -0.005130 
#    y 0.000000 1.872120 0.000000 
#    z -0.005130 0.000000 1.884710 
# 
# From -- ./inp_files/284670.got.cif
#   From: 2010.06.25/outbox.cif.g09.slc.cpg/sg15_143_cif.got.tgz:284670.got - 2010.06.28 07:06:18.
