data_PCOD8154000
_publ_section_title
;
Structure prediction by ZEFSAII (Michael W. Deem and Ramdas Pophale) SiO2 
 PCOD8154000
Probable space group: C 2/C
;
_chemical_formula_sum "Si O2"
_cell_formula_units_Z 40
_cell_length_a 15.283369
_cell_length_b 8.665627
_cell_length_c 14.473711
_cell_angle_alpha 90.000000
_cell_angle_beta 116.157099
_cell_angle_gamma 90.000000
_cell_volume 1720.585919
_symmetry_space_group_name_H-M "C 2/C"
_symmetry_group_IT_number 15
_symmetry_cell_setting 'monoclinic'
loop_
_space_group_symop_operation_xyz
x,y,z
-x,y,1/2-z
-x,-y,-z
x,-y,1/2+z
1/2+x,1/2+y,z
1/2-x,1/2+y,1/2-z
1/2-x,1/2-y,-z
1/2+x,1/2-y,1/2+z
loop_
_atom_site_type_symbol
_atom_site_label
_atom_site_fract_x
_atom_site_fract_y
_atom_site_fract_z
Si Si1 0.777921 0.591946 0.465986
Si Si2 0.882429 0.950614 0.850866
Si Si3 0.596250 0.896102 0.837895
Si Si4 0.290304 0.780422 0.782056
Si Si5 0.413466 0.429043 0.080984
O O1 0.750000 0.750000 0.500000
O O2 0.856682 0.506276 0.564686
O O3 0.827781 0.628732 0.390690
O O4 0.679293 0.492135 0.405477
O O5 0.827767 0.804163 0.778738
O O6 0.817854 0.102541 0.800577
O O7 0.887652 0.923390 0.961956
O O8 0.990131 0.967117 0.857210
O O9 0.500000 0.975285 0.750000
O O10 0.671910 0.862663 0.792235
O O11 0.560871 0.740854 0.872199
#
# Coordination Sequence:
#
# PCOD8154000 Si02
#       5
#     8   8   8   8   8
#     4  12  26  47  70 107 150 185 240 306 359 422
#     4  11  25  45  74 106 140 190 244 297 365 436
#     4  12  26  48  75 103 144 196 243 292 363 437
#     4  12  24  46  71 106 142 188 242 295 363 431
#     4  11  24  48  72 103 142 191 243 294 362 435
#
# _framework density 23.247896000000001
#
# number of rings (size 3 to 8) (size 9 to 14) (size 15 to 20)
#    0.000    0.400    6.000    1.800    2.800    0.800 
#    7.200    0.000    0.000    0.000    0.000    0.000 
#    0.000    0.000    0.000    0.000    0.000    0.000 
#
# Total GULP energy -248045.458536 kJ/mol
# GULP energy per Si atom -12402.272927 kJ/mol
# Density = 2.319498 g / cm^3
# Si number density = 23.247896 Si / 1000 Ang^3
#
#
#
# Elastic Constant Matrix: (Units=GPa)
#
#
# Indices 1 2 3 4 5 6 
#
# 1 70.6281 16.0417 31.7650 0.0000 25.8880 0.0000
# 2 16.0417 53.0885 34.4492 0.0000 12.6521 0.0000
# 3 31.7650 34.4492 103.5720 0.0000 16.1331 0.0000
# 4 0.0000 0.0000 0.0000 40.8694 0.0000 -2.2510
# 5 25.8880 12.6521 16.1331 0.0000 55.0568 0.0000
# 6 0.0000 0.0000 0.0000 -2.2510 0.0000 32.4803
#
#
#
# Elastic Compliance Matrix: (Units=1/GPa)
#
#
# Indices 1 2 3 4 5 6 
#
# 1 0.019092 -0.001209 -0.004294 0.000000 -0.007441 0.000000
# 2 -0.001209 0.024695 -0.007385 0.000000 -0.002942 0.000000
# 3 -0.004294 -0.007385 0.013464 0.000000 -0.000229 0.000000
# 4 0.000000 0.000000 0.000000 0.024562 0.000000 0.001702
# 5 -0.007441 -0.002942 -0.000229 0.000000 0.022405 0.000000
# 6 0.000000 0.000000 0.000000 0.001702 0.000000 0.030906
#
#
# Mechanical properties :
#
#
# Convention : Reuss Voigt Hill
#
# Bulk Modulus (GPa) = 31.77114 43.53336 37.65225
# Shear Modulus (GPa) = 29.17292 35.35014 32.26153
#
# Velocity S-wave (km/s) = 3.54625 3.90368 3.72925
# Velocity P-wave (km/s) = 5.51940 6.25178 5.89697
#
# Compressibility (1/GPa) = 0.03147510
#
# Stress axis : x y z
#
# Youngs Moduli (GPa) = 52.37780 40.49400 74.27191
#
# Poissons Ratio (x) = 0.04896 0.31894
# Poissons Ratio (y) = 0.06333 0.54847
# Poissons Ratio (z) = 0.22492 0.29903
#
# Static dielectric constant tensor:
#      x y z
#    x 5.182450 0.000000 1.645590 
#    y 0.000000 4.316920 0.000000 
#    z 1.645590 0.000000 7.940990 
# 
# 
# High freq. dielectric constant tensor:
#      x y z
#    x 1.919410 0.000000 -0.000600 
#    y 0.000000 1.904170 0.000000 
#    z -0.000600 0.000000 1.949500 
# 
# From -- ./inp_files/150758.got.cif
#   From: 2010.06.25/outbox.cif.g09.slc.cpg/sg15_76_cif.got.tgz:150758.got - 2010.06.28 07:06:18.
