data_PCOD8154149
_publ_section_title
;
Structure prediction by ZEFSAII (Michael W. Deem and Ramdas Pophale) SiO2 
 PCOD8154149
Probable space group: C 2/C
;
_chemical_formula_sum "Si O2"
_cell_formula_units_Z 32
_cell_length_a 8.895805
_cell_length_b 18.356810
_cell_length_c 14.722113
_cell_angle_alpha 90.000000
_cell_angle_beta 32.783364
_cell_angle_gamma 90.000000
_cell_volume 1301.734163
_symmetry_space_group_name_H-M "C 2/C"
_symmetry_group_IT_number 15
_symmetry_cell_setting 'monoclinic'
loop_
_space_group_symop_operation_xyz
x,y,z
-x,y,1/2-z
-x,-y,-z
x,-y,1/2+z
1/2+x,1/2+y,z
1/2-x,1/2+y,1/2-z
1/2-x,1/2-y,-z
1/2+x,1/2-y,1/2+z
loop_
_atom_site_type_symbol
_atom_site_label
_atom_site_fract_x
_atom_site_fract_y
_atom_site_fract_z
Si Si1 0.322367 0.197601 0.593775
Si Si2 0.983178 0.981188 0.863586
Si Si3 0.435634 0.084832 0.685558
Si Si4 0.323839 0.846100 0.756728
O O1 0.468898 0.145024 0.591701
O O2 0.467075 0.188004 0.423292
O O3 0.360301 0.280480 0.608021
O O4 0.000000 0.176620 0.750000
O O5 0.119736 0.903366 0.814739
O O6 0.000000 0.001132 0.750000
O O7 0.133744 0.046314 0.841825
O O8 0.659375 0.979765 0.054217
O O9 0.500000 0.121566 0.750000
O O10 0.500000 0.881433 0.750000
#
# Coordination Sequence:
#
# PCOD8154149 Si02
#       4
#     8   8   8   8
#     4  11  25  45  72 103 141 183 230 283 347 414
#     4  12  26  48  70 104 140 182 231 290 342 412
#     4  12  28  45  74 102 141 183 233 284 348 407
#     4  11  25  45  73 102 141 182 230 284 347 413
#
# _framework density 24.582592000000002
#
# number of rings (size 3 to 8) (size 9 to 14) (size 15 to 20)
#    0.000    0.500    2.500    6.000   10.500    2.000 
#    0.000    0.000    0.000    0.000    0.000    0.000 
#    0.000    0.000    0.000    0.000    0.000    0.000 
#
# Total GULP energy -198510.318490 kJ/mol
# GULP energy per Si atom -12406.894906 kJ/mol
# Density = 2.452664 g / cm^3
# Si number density = 24.582592 Si / 1000 Ang^3
#
#
#
# Elastic Constant Matrix: (Units=GPa)
#
#
# Indices 1 2 3 4 5 6 
#
# 1 135.3761 29.7898 6.5342 -0.0102 12.6009 0.0005
# 2 29.7898 62.5488 -17.5142 -0.0134 -7.1197 -0.0022
# 3 6.5342 -17.5142 52.5172 -0.0752 7.8821 -0.0112
# 4 -0.0102 -0.0134 -0.0752 28.9561 0.0157 6.6279
# 5 12.6009 -7.1197 7.8821 0.0157 45.7692 -0.0105
# 6 0.0005 -0.0022 -0.0112 6.6279 -0.0105 22.7704
#
#
#
# Elastic Compliance Matrix: (Units=1/GPa)
#
#
# Indices 1 2 3 4 5 6 
#
# 1 0.008928 -0.005259 -0.002436 -0.000004 -0.002856 -0.000002
# 2 -0.005259 0.020874 0.007095 0.000024 0.003473 0.000000
# 3 -0.002436 0.007095 0.022013 0.000062 -0.002017 -0.000008
# 4 -0.000004 0.000024 0.000062 0.037000 -0.000021 -0.010770
# 5 -0.002856 0.003473 -0.002017 -0.000021 0.023523 0.000016
# 6 -0.000002 0.000000 -0.000008 -0.010770 0.000016 0.047052
#
#
# Mechanical properties :
#
#
# Convention : Reuss Voigt Hill
#
# Bulk Modulus (GPa) = 19.75745 32.00685 25.88215
# Shear Modulus (GPa) = 28.17504 34.94128 31.55816
#
# Velocity S-wave (km/s) = 3.38914 3.77421 3.58685
# Velocity P-wave (km/s) = 4.83421 5.66050 5.26360
#
# Compressibility (1/GPa) = 0.05061383
#
# Stress axis : x y z
#
# Youngs Moduli (GPa) = 112.01262 47.90615 45.42723
#
# Poissons Ratio (x) = 0.25194 0.11066
# Poissons Ratio (y) = 0.58909 -0.32228
# Poissons Ratio (z) = 0.27286 -0.33987
#
# Static dielectric constant tensor:
#      x y z
#    x 4.663140 -0.000050 0.054880 
#    y -0.000050 4.202000 0.000110 
#    z 0.054880 0.000110 4.453800 
# 
# 
# High freq. dielectric constant tensor:
#      x y z
#    x 2.000040 0.000000 0.008900 
#    y 0.000000 1.970530 0.000010 
#    z 0.008900 0.000010 1.979980 
# 
# From -- ./inp_files/135290.got.cif
#   From: 2010.06.25/outbox.cif.g09.slc.cpg/sg15_68_cif.got.tgz:135290.got - 2010.06.28 07:06:18.
