data_PCOD8154642
_publ_section_title
;
Structure prediction by ZEFSAII (Michael W. Deem and Ramdas Pophale) SiO2 
 PCOD8154642
Probable space group: C 2/C
;
_chemical_formula_sum "Si O2"
_cell_formula_units_Z 36
_cell_length_a 26.466683
_cell_length_b 6.376563
_cell_length_c 14.769907
_cell_angle_alpha 90.000000
_cell_angle_beta 141.021738
_cell_angle_gamma 90.000000
_cell_volume 1567.949896
_symmetry_space_group_name_H-M "C 2/C"
_symmetry_group_IT_number 15
_symmetry_cell_setting 'monoclinic'
loop_
_space_group_symop_operation_xyz
x,y,z
-x,y,1/2-z
-x,-y,-z
x,-y,1/2+z
1/2+x,1/2+y,z
1/2-x,1/2+y,1/2-z
1/2-x,1/2-y,-z
1/2+x,1/2-y,1/2+z
loop_
_atom_site_type_symbol
_atom_site_label
_atom_site_fract_x
_atom_site_fract_y
_atom_site_fract_z
Si Si1 0.317948 0.103422 0.928026
Si Si2 0.435132 0.432221 0.038638
Si Si3 0.354294 0.768070 0.830775
Si Si4 0.574560 0.093924 0.245349
Si Si5 0.000000 0.243542 0.250000
O O1 0.224375 0.143498 0.811862
O O2 0.335516 0.889450 0.898035
O O3 0.355918 0.292020 0.923664
O O4 0.360569 0.107601 0.084843
O O5 0.516248 0.295616 0.158068
O O6 0.429837 0.587449 0.118708
O O7 0.425172 0.593157 0.940186
O O8 0.381509 0.929824 0.790025
O O9 0.523008 0.885864 0.194817
#
# Coordination Sequence:
#
# PCOD8154642 Si02
#       5
#     8   8   8   8   4
#     4  12  24  48  68 105 145 183 235 296 347 420
#     4  12  23  46  71  99 144 184 229 295 346 417
#     4  12  27  44  74 104 143 188 235 288 357 422
#     4  12  25  46  73 106 139 188 238 286 357 419
#     4  12  22  44  72 100 138 178 242 292 336 414
#
# _framework density 22.959916
#
# number of rings (size 3 to 8) (size 9 to 14) (size 15 to 20)
#    0.000    0.000    8.889    1.333    0.000    5.333 
#    0.000    2.222    0.000    0.000    0.000    0.000 
#    0.000    0.000    0.000    0.000    0.000    0.000 
#
# Total GULP energy -222995.368007 kJ/mol
# GULP energy per Si atom -12388.631556 kJ/mol
# Density = 2.290766 g / cm^3
# Si number density = 22.959916 Si / 1000 Ang^3
#
#
#
# Elastic Constant Matrix: (Units=GPa)
#
#
# Indices 1 2 3 4 5 6 
#
# 1 72.3535 18.0824 32.5702 0.0000 -1.4573 0.0000
# 2 18.0824 87.4331 46.3807 0.0000 15.9652 0.0000
# 3 32.5702 46.3807 126.8813 0.0000 12.8952 0.0000
# 4 0.0000 0.0000 0.0000 31.8293 0.0000 8.3793
# 5 -1.4573 15.9652 12.8952 0.0000 28.2301 0.0000
# 6 0.0000 0.0000 0.0000 8.3793 0.0000 7.8989
#
#
#
# Elastic Compliance Matrix: (Units=1/GPa)
#
#
# Indices 1 2 3 4 5 6 
#
# 1 0.016094 -0.001999 -0.003775 0.000000 0.003686 0.000000
# 2 -0.001999 0.015451 -0.004443 0.000000 -0.006812 0.000000
# 3 -0.003775 -0.004443 0.010737 0.000000 -0.002587 0.000000
# 4 0.000000 0.000000 0.000000 0.043591 0.000000 -0.046242
# 5 0.003686 -0.006812 -0.002587 0.000000 0.040648 0.000000
# 6 0.000000 0.000000 0.000000 -0.046242 0.000000 0.175654
#
#
# Mechanical properties :
#
#
# Convention : Reuss Voigt Hill
#
# Bulk Modulus (GPa) = 45.76802 53.41493 49.59148
# Shear Modulus (GPa) = 15.15643 26.23398 20.69521
#
# Velocity S-wave (km/s) = 2.57208 3.38390 3.00553
# Velocity P-wave (km/s) = 5.36637 6.21149 5.80433
#
# Compressibility (1/GPa) = 0.02184932
#
# Stress axis : x y z
#
# Youngs Moduli (GPa) = 62.13389 64.71944 93.13217
#
# Poissons Ratio (x) = 0.12936 0.35160
# Poissons Ratio (y) = 0.12420 0.41376
# Poissons Ratio (z) = 0.23457 0.28753
#
# Static dielectric constant tensor:
#      x y z
#    x 3.809890 0.000000 -0.025000 
#    y 0.000000 4.343990 0.000000 
#    z -0.025000 0.000000 4.387690 
# 
# 
# High freq. dielectric constant tensor:
#      x y z
#    x 1.866530 0.000000 -0.001480 
#    y 0.000000 1.921580 0.000000 
#    z -0.001480 0.000000 1.933770 
# 
# From -- ./inp_files/179932.got.cif
#   From: 2010.06.25/outbox.cif.g09.slc.cpg/sg15_90_cif.got.tgz:179932.got - 2010.06.28 07:06:18.
