data_PCOD8154186
_publ_section_title
;
Structure prediction by ZEFSAII (Michael W. Deem and Ramdas Pophale) SiO2 
 PCOD8154186
Probable space group: C 2/C
;
_chemical_formula_sum "Si O2"
_cell_formula_units_Z 44
_cell_length_a 15.186432
_cell_length_b 11.987076
_cell_length_c 12.100043
_cell_angle_alpha 90.000000
_cell_angle_beta 111.295786
_cell_angle_gamma 90.000000
_cell_volume 2052.297806
_symmetry_space_group_name_H-M "C 2/C"
_symmetry_group_IT_number 15
_symmetry_cell_setting 'monoclinic'
loop_
_space_group_symop_operation_xyz
x,y,z
-x,y,1/2-z
-x,-y,-z
x,-y,1/2+z
1/2+x,1/2+y,z
1/2-x,1/2+y,1/2-z
1/2-x,1/2-y,-z
1/2+x,1/2-y,1/2+z
loop_
_atom_site_type_symbol
_atom_site_label
_atom_site_fract_x
_atom_site_fract_y
_atom_site_fract_z
Si Si1 0.215333 0.665603 0.890067
Si Si2 0.500000 0.671420 0.750000
Si Si3 0.009446 0.322607 0.962899
Si Si4 0.428351 0.686495 0.309772
Si Si5 0.850148 0.481403 0.953758
Si Si6 0.331977 0.535493 0.770989
O O1 0.144879 0.724233 0.773045
O O2 0.302296 0.615266 0.858955
O O3 0.250000 0.750000 0.000000
O O4 0.164499 0.563127 0.928345
O O5 0.524026 0.749053 0.863012
O O6 0.408237 0.597367 0.730573
O O7 0.913007 0.393479 0.912810
O O8 0.007129 0.243716 0.068528
O O9 0.099921 0.400939 0.013090
O O10 0.500000 0.642373 0.250000
O O11 0.375492 0.579701 0.338107
O O12 0.753321 0.498731 0.845957
#
# Coordination Sequence:
#
# PCOD8154186 Si02
#       6
#     8   4   8   8   8   8
#     4  12  25  45  74 102 145 189 241 291 359 430
#     4  12  30  46  66 106 146 186 234 304 364 420
#     4  11  27  45  73 103 148 183 241 299 360 424
#     4  12  25  46  72 107 145 188 235 297 359 428
#     4  11  25  46  71 108 135 192 240 291 354 431
#     4  12  28  45  72 106 141 188 243 291 363 429
#
# _framework density 21.439382999999999
#
# number of rings (size 3 to 8) (size 9 to 14) (size 15 to 20)
#    0.000    0.364    6.364    1.091    5.091    1.455 
#    0.000    0.000    0.000    0.000    0.000    0.000 
#    0.000    0.000    0.000    0.000    0.000    0.000 
#
# Total GULP energy -272925.205345 kJ/mol
# GULP energy per Si atom -12405.691152 kJ/mol
# Density = 2.139059 g / cm^3
# Si number density = 21.439383 Si / 1000 Ang^3
#
#
#
# Elastic Constant Matrix: (Units=GPa)
#
#
# Indices 1 2 3 4 5 6 
#
# 1 116.9195 55.2261 28.0262 0.0000 -6.2179 0.0000
# 2 55.2261 126.0095 54.5071 0.0000 -0.2599 0.0000
# 3 28.0262 54.5071 102.7945 0.0000 -7.2628 0.0000
# 4 0.0000 0.0000 0.0000 78.4483 0.0000 -129.2332
# 5 -6.2179 -0.2599 -7.2628 0.0000 36.0698 0.0000
# 6 0.0000 0.0000 0.0000 -129.2332 0.0000 316.5123
#
#
#
# Elastic Compliance Matrix: (Units=1/GPa)
#
#
# Indices 1 2 3 4 5 6 
#
# 1 0.010920 -0.004605 -0.000411 0.000000 0.001767 0.000000
# 2 -0.004605 0.012278 -0.005381 0.000000 -0.001789 0.000000
# 3 -0.000411 -0.005381 0.012869 0.000000 0.002482 0.000000
# 4 0.000000 0.000000 0.000000 0.038938 0.000000 0.015899
# 5 0.001767 -0.001789 0.002482 0.000000 0.028515 0.000000
# 6 0.000000 0.000000 0.000000 0.015899 0.000000 0.009651
#
#
# Mechanical properties :
#
#
# Convention : Reuss Voigt Hill
#
# Bulk Modulus (GPa) = 65.47313 69.02689 67.25001
# Shear Modulus (GPa) = 35.95651 100.07036 68.01343
#
# Velocity S-wave (km/s) = 4.09971 6.83939 5.63848
# Velocity P-wave (km/s) = 7.28116 9.72810 8.59218
#
# Compressibility (1/GPa) = 0.01527344
#
# Stress axis : x y z
#
# Youngs Moduli (GPa) = 91.57250 81.44566 77.70574
#
# Poissons Ratio (x) = 0.37503 0.03193
# Poissons Ratio (y) = 0.42166 0.41817
# Poissons Ratio (z) = 0.03763 0.43830
#
# Static dielectric constant tensor:
#      x y z
#    x 4.037140 0.000000 -0.059800 
#    y 0.000000 4.186500 0.000000 
#    z -0.059800 0.000000 3.714230 
# 
# 
# High freq. dielectric constant tensor:
#      x y z
#    x 1.856670 0.000000 0.000000 
#    y 0.000000 1.861580 0.000000 
#    z 0.000000 0.000000 1.836770 
# 
# From -- ./inp_files/95051.got.cif
#   From: 2010.06.25/outbox.cif.g09.slc.cpg/sg15_48_cif.got.tgz:95051.got - 2010.06.28 07:06:18.
