data_PCOD8154657
_publ_section_title
;
Structure prediction by ZEFSAII (Michael W. Deem and Ramdas Pophale) SiO2 
 PCOD8154657
Probable space group: C 2/C
;
_chemical_formula_sum "Si O2"
_cell_formula_units_Z 40
_cell_length_a 12.160923
_cell_length_b 28.623414
_cell_length_c 8.997414
_cell_angle_alpha 90.000000
_cell_angle_beta 143.252539
_cell_angle_gamma 90.000000
_cell_volume 1873.772068
_symmetry_space_group_name_H-M "C 2/C"
_symmetry_group_IT_number 15
_symmetry_cell_setting 'monoclinic'
loop_
_space_group_symop_operation_xyz
x,y,z
-x,y,1/2-z
-x,-y,-z
x,-y,1/2+z
1/2+x,1/2+y,z
1/2-x,1/2+y,1/2-z
1/2-x,1/2-y,-z
1/2+x,1/2-y,1/2+z
loop_
_atom_site_type_symbol
_atom_site_label
_atom_site_fract_x
_atom_site_fract_y
_atom_site_fract_z
Si Si1 0.796279 0.724342 0.204023
Si Si2 0.200334 0.100108 0.757104
Si Si3 0.529420 0.692502 0.455622
Si Si4 0.000000 0.347025 0.750000
Si Si5 0.132398 0.525092 0.758250
Si Si6 0.500000 0.467718 0.250000
O O1 0.636084 0.695203 0.106664
O O2 0.955608 0.686422 0.343231
O O3 0.842070 0.763577 0.372840
O O4 0.750000 0.750000 0.000000
O O5 0.315577 0.074205 0.756360
O O6 0.110642 0.142292 0.573876
O O7 0.051572 0.064732 0.665871
O O8 0.328970 0.119776 0.027868
O O9 0.500000 0.695909 0.250000
O O10 0.000000 0.536293 0.750000
O O11 0.000000 0.500000 0.500000
O O12 0.319853 0.497761 0.008474
#
# Coordination Sequence:
#
# PCOD8154657 Si02
#       6
#     8   8   8   4   8   4
#     4  12  22  45  71  97 143 195 238 281 362 445
#     4  12  26  43  73 109 140 185 247 302 359 437
#     4  12  26  42  68 107 144 182 234 306 365 419
#     4  12  24  43  74 104 138 188 248 295 346 444
#     4  12  27  50  75 106 144 195 244 302 379 443
#     4  12  26  49  78 102 152 196 244 305 372 448
#
# _framework density 21.347314000000001
#
# number of rings (size 3 to 8) (size 9 to 14) (size 15 to 20)
#    0.000    0.000    6.000    3.600    1.400    1.600 
#    0.000    1.000    0.000    0.000    0.000    0.000 
#    0.000    0.000    0.000    0.000    0.000    0.000 
#
# Total GULP energy -247909.087815 kJ/mol
# GULP energy per Si atom -12395.454391 kJ/mol
# Density = 2.129873 g / cm^3
# Si number density = 21.347314 Si / 1000 Ang^3
#
#
#
# Elastic Constant Matrix: (Units=GPa)
#
#
# Indices 1 2 3 4 5 6 
#
# 1 170.8058 72.8836 54.5757 0.0000 -5.4325 0.0000
# 2 72.8836 159.7443 64.9269 0.0000 -0.3853 0.0000
# 3 54.5757 64.9269 131.1827 0.0000 -7.4654 0.0000
# 4 0.0000 0.0000 0.0000 -34.3554 0.0000 32.4980
# 5 -5.4325 -0.3853 -7.4654 0.0000 39.9110 0.0000
# 6 0.0000 0.0000 0.0000 32.4980 0.0000 33.3909
#
#
#
# Elastic Compliance Matrix: (Units=1/GPa)
#
#
# Indices 1 2 3 4 5 6 
#
# 1 0.007616 -0.002755 -0.001766 0.000000 0.000680 0.000000
# 2 -0.002755 0.008850 -0.003285 0.000000 -0.000904 0.000000
# 3 -0.001766 -0.003285 0.010076 0.000000 0.001613 0.000000
# 4 0.000000 0.000000 0.000000 -0.015155 0.000000 0.014750
# 5 0.000680 -0.000904 0.001613 0.000000 0.025441 0.000000
# 6 0.000000 0.000000 0.000000 0.014750 0.000000 0.015593
#
#
# Mechanical properties :
#
#
# Convention : Reuss Voigt Hill
#
# Bulk Modulus (GPa) = 91.50710 94.05611 92.78160
# Shear Modulus (GPa) = 69.75638 25.74574 47.75106
#
# Velocity S-wave (km/s) = 5.72257 3.47658 4.73468
# Velocity P-wave (km/s) = 9.30713 7.76344 8.57011
#
# Compressibility (1/GPa) = 0.01092811
#
# Stress axis : x y z
#
# Youngs Moduli (GPa) = 131.29723 112.98966 99.24995
#
# Poissons Ratio (x) = 0.31134 0.17529
# Poissons Ratio (y) = 0.36179 0.32608
# Poissons Ratio (z) = 0.23189 0.37122
#
# Static dielectric constant tensor:
#      x y z
#    x 2.950090 0.000000 -0.344080 
#    y 0.000000 4.223470 0.000000 
#    z -0.344080 0.000000 3.759370 
# 
# 
# High freq. dielectric constant tensor:
#      x y z
#    x 1.856920 0.000000 0.006350 
#    y 0.000000 1.856820 0.000000 
#    z 0.006350 0.000000 1.836360 
# 
# From -- ./inp_files/35505.got.cif
#   From: 2010.06.25/outbox.cif.g09.slc.cpg/sg15_18_cif.got.tgz:35505.got - 2010.06.28 07:06:18.
