data_PCOD8154318
_publ_section_title
;
Structure prediction by ZEFSAII (Michael W. Deem and Ramdas Pophale) SiO2 
 PCOD8154318
Probable space group: C 2/C
;
_chemical_formula_sum "Si O2"
_cell_formula_units_Z 40
_cell_length_a 12.166849
_cell_length_b 7.479053
_cell_length_c 17.430191
_cell_angle_alpha 90.000000
_cell_angle_beta 98.541073
_cell_angle_gamma 90.000000
_cell_volume 1568.496270
_symmetry_space_group_name_H-M "C 2/C"
_symmetry_group_IT_number 15
_symmetry_cell_setting 'monoclinic'
loop_
_space_group_symop_operation_xyz
x,y,z
-x,y,1/2-z
-x,-y,-z
x,-y,1/2+z
1/2+x,1/2+y,z
1/2-x,1/2+y,1/2-z
1/2-x,1/2-y,-z
1/2+x,1/2-y,1/2+z
loop_
_atom_site_type_symbol
_atom_site_label
_atom_site_fract_x
_atom_site_fract_y
_atom_site_fract_z
Si Si1 0.668834 0.036396 0.192226
Si Si2 0.366931 0.841447 0.043560
Si Si3 0.990491 0.287741 0.583060
Si Si4 0.718799 0.586108 0.943417
Si Si5 0.884213 0.778172 0.713440
O O1 0.583019 0.192783 0.159347
O O2 0.780811 0.118485 0.240263
O O3 0.699080 0.913689 0.121272
O O4 0.611711 0.921162 0.252363
O O5 0.360723 0.717751 0.119274
O O6 0.420271 0.029818 0.073555
O O7 0.448720 0.748732 0.991195
O O8 0.243382 0.898575 0.993937
O O9 0.910290 0.117607 0.593620
O O10 0.750000 0.750000 0.000000
O O11 0.000000 0.871881 0.750000
#
# Coordination Sequence:
#
# PCOD8154318 Si02
#       5
#     8   8   8   8   8
#     4  11  26  42  64 100 128 180 220 263 333 396
#     4   9  19  38  64  95 125 173 211 268 322 387
#     4   9  18  39  68  93 126 167 219 263 330 377
#     4   9  20  38  72  98 127 164 225 272 324 385
#     4  12  27  43  65  94 142 174 219 268 328 393
#
# _framework density 25.502132
#
# number of rings (size 3 to 8) (size 9 to 14) (size 15 to 20)
#    0.000    2.000    2.000    1.200    5.600    4.800 
#    0.000    2.000    0.000    0.000    0.000    0.000 
#    0.000    0.000    0.000    0.000    0.000    0.000 
#
# Total GULP energy -248012.742566 kJ/mol
# GULP energy per Si atom -12400.637128 kJ/mol
# Density = 2.544409 g / cm^3
# Si number density = 25.502132 Si / 1000 Ang^3
#
#
#
# Elastic Constant Matrix: (Units=GPa)
#
#
# Indices 1 2 3 4 5 6 
#
# 1 170.2243 23.8367 29.6844 0.0000 39.8491 0.0000
# 2 23.8367 60.9021 6.5951 0.0000 11.4497 0.0000
# 3 29.6844 6.5951 97.6205 0.0000 23.5199 0.0000
# 4 0.0000 0.0000 0.0000 29.2929 0.0000 2.5213
# 5 39.8491 11.4497 23.5199 0.0000 48.0219 0.0000
# 6 0.0000 0.0000 0.0000 2.5213 0.0000 44.1731
#
#
#
# Elastic Compliance Matrix: (Units=1/GPa)
#
#
# Indices 1 2 3 4 5 6 
#
# 1 0.007548 -0.001845 -0.000870 0.000000 -0.005397 0.000000
# 2 -0.001845 0.017645 0.000016 0.000000 -0.002683 0.000000
# 3 -0.000870 0.000016 0.011717 0.000000 -0.005020 0.000000
# 4 0.000000 0.000000 0.000000 0.034306 0.000000 -0.001958
# 5 -0.005397 -0.002683 -0.005020 0.000000 0.028401 0.000000
# 6 0.000000 0.000000 0.000000 -0.001958 0.000000 0.022750
#
#
# Mechanical properties :
#
#
# Convention : Reuss Voigt Hill
#
# Bulk Modulus (GPa) = 31.73599 49.88660 40.81130
# Shear Modulus (GPa) = 36.16084 42.20628 39.18356
#
# Velocity S-wave (km/s) = 3.76966 4.07259 3.92405
# Velocity P-wave (km/s) = 5.60523 6.45902 6.04721
#
# Compressibility (1/GPa) = 0.03150997
#
# Stress axis : x y z
#
# Youngs Moduli (GPa) = 132.48017 56.67376 85.34728
#
# Poissons Ratio (x) = 0.10459 0.07427
# Poissons Ratio (y) = 0.24448 -0.00133
# Poissons Ratio (z) = 0.11528 -0.00088
#
# Static dielectric constant tensor:
#      x y z
#    x 5.422720 0.000000 0.353120 
#    y 0.000000 4.748540 0.000000 
#    z 0.353120 0.000000 4.516090 
# 
# 
# High freq. dielectric constant tensor:
#      x y z
#    x 2.043590 0.000000 0.017900 
#    y 0.000000 2.015960 0.000000 
#    z 0.017900 0.000000 2.009470 
# 
# From -- ./inp_files/195148.got.cif
#   From: 2010.06.25/outbox.cif.g09.slc.cpg/sg15_98_cif.got.tgz:195148.got - 2010.06.28 07:06:18.
