data_PCOD8154974
_publ_section_title
;
Structure prediction by ZEFSAII (Michael W. Deem and Ramdas Pophale) SiO2 
 PCOD8154974
Probable space group: C 2/C
;
_chemical_formula_sum "Si O2"
_cell_formula_units_Z 40
_cell_length_a 21.269254
_cell_length_b 8.932582
_cell_length_c 9.166735
_cell_angle_alpha 90.000000
_cell_angle_beta 82.734472
_cell_angle_gamma 90.000000
_cell_volume 1727.598409
_symmetry_space_group_name_H-M "C 2/C"
_symmetry_group_IT_number 15
_symmetry_cell_setting 'monoclinic'
loop_
_space_group_symop_operation_xyz
x,y,z
-x,y,1/2-z
-x,-y,-z
x,-y,1/2+z
1/2+x,1/2+y,z
1/2-x,1/2+y,1/2-z
1/2-x,1/2-y,-z
1/2+x,1/2-y,1/2+z
loop_
_atom_site_type_symbol
_atom_site_label
_atom_site_fract_x
_atom_site_fract_y
_atom_site_fract_z
Si Si1 0.540893 0.595720 0.099788
Si Si2 0.737478 0.406027 0.422949
Si Si3 0.563686 0.911112 0.950067
Si Si4 0.837126 0.091964 0.841621
Si Si5 0.858090 0.573820 0.351732
O O1 0.500000 0.648585 0.250000
O O2 0.562673 0.741181 0.005436
O O3 0.599126 0.501480 0.148300
O O4 0.500000 0.500000 0.000000
O O5 0.750000 0.250000 0.500000
O O6 0.720884 0.519130 0.556657
O O7 0.678906 0.396109 0.326406
O O8 0.797554 0.475413 0.317168
O O9 0.621609 0.993046 0.007864
O O10 0.581961 0.919257 0.775059
O O11 0.500000 0.000000 0.000000
O O12 0.841511 0.258416 0.901983
#
# Coordination Sequence:
#
# PCOD8154974 Si02
#       5
#     8   8   8   8   8
#     4  12  25  45  72 105 142 185 235 290 349 419
#     4  12  26  46  71 103 140 181 233 290 351 420
#     4  12  26  45  68  99 136 181 230 286 348 414
#     4  12  25  44  70 102 138 183 230 286 351 418
#     4  12  25  44  67  97 135 178 227 284 345 413
#
# _framework density 23.15353
#
# number of rings (size 3 to 8) (size 9 to 14) (size 15 to 20)
#    0.000    0.000    0.000   12.000    0.000    3.200 
#    0.000    0.000    0.000    0.000    0.000    0.000 
#    0.000    0.000    0.000    0.000    0.000    0.000 
#
# Total GULP energy -248033.770930 kJ/mol
# GULP energy per Si atom -12401.688546 kJ/mol
# Density = 2.310083 g / cm^3
# Si number density = 23.153530 Si / 1000 Ang^3
#
#
#
# Elastic Constant Matrix: (Units=GPa)
#
#
# Indices 1 2 3 4 5 6 
#
# 1 129.6850 64.3934 29.7149 0.0000 6.0204 0.0000
# 2 64.3934 199.2567 44.5758 0.0000 0.0449 0.0000
# 3 29.7149 44.5758 100.8232 0.0000 -3.4756 0.0000
# 4 0.0000 0.0000 0.0000 36.0739 0.0000 -0.9095
# 5 6.0204 0.0449 -3.4756 0.0000 53.9660 0.0000
# 6 0.0000 0.0000 0.0000 -0.9095 0.0000 52.3166
#
#
#
# Elastic Compliance Matrix: (Units=1/GPa)
#
#
# Indices 1 2 3 4 5 6 
#
# 1 0.009480 -0.002696 -0.001642 0.000000 -0.001161 0.000000
# 2 -0.002696 0.006338 -0.002002 0.000000 0.000167 0.000000
# 3 -0.001642 -0.002002 0.011319 0.000000 0.000914 0.000000
# 4 0.000000 0.000000 0.000000 0.027733 0.000000 0.000482
# 5 -0.001161 0.000167 0.000914 0.000000 0.018718 0.000000
# 6 0.000000 0.000000 0.000000 0.000482 0.000000 0.019123
#
#
# Mechanical properties :
#
#
# Convention : Reuss Voigt Hill
#
# Bulk Modulus (GPa) = 69.17114 78.57036 73.87075
# Shear Modulus (GPa) = 45.36848 47.87669 46.62259
#
# Velocity S-wave (km/s) = 4.43138 4.55223 4.49221
# Velocity P-wave (km/s) = 7.49151 7.85102 7.67337
#
# Compressibility (1/GPa) = 0.01445690
#
# Stress axis : x y z
#
# Youngs Moduli (GPa) = 105.48781 157.78678 88.34883
#
# Poissons Ratio (x) = 0.42539 0.14507
# Poissons Ratio (y) = 0.28439 0.17685
# Poissons Ratio (z) = 0.17321 0.31584
#
# Static dielectric constant tensor:
#      x y z
#    x 4.338400 0.000000 0.016860 
#    y 0.000000 4.314490 0.000000 
#    z 0.016860 0.000000 4.198790 
# 
# 
# High freq. dielectric constant tensor:
#      x y z
#    x 1.932820 0.000000 -0.002520 
#    y 0.000000 1.932970 0.000000 
#    z -0.002520 0.000000 1.923370 
# 
# From -- ./inp_files/59956.got.cif
#   From: 2010.06.25/outbox.cif.g09.slc.cpg/sg15_30_cif.got.tgz:59956.got - 2010.06.28 07:06:18.
