data_PCOD8154416
_publ_section_title
;
Structure prediction by ZEFSAII (Michael W. Deem and Ramdas Pophale) SiO2 
 PCOD8154416
Probable space group: C 2/C
;
_chemical_formula_sum "Si O2"
_cell_formula_units_Z 48
_cell_length_a 8.899890
_cell_length_b 10.475205
_cell_length_c 23.631709
_cell_angle_alpha 90.000000
_cell_angle_beta 103.121284
_cell_angle_gamma 90.000000
_cell_volume 2145.620780
_symmetry_space_group_name_H-M "C 2/C"
_symmetry_group_IT_number 15
_symmetry_cell_setting 'monoclinic'
loop_
_space_group_symop_operation_xyz
x,y,z
-x,y,1/2-z
-x,-y,-z
x,-y,1/2+z
1/2+x,1/2+y,z
1/2-x,1/2+y,1/2-z
1/2-x,1/2-y,-z
1/2+x,1/2-y,1/2+z
loop_
_atom_site_type_symbol
_atom_site_label
_atom_site_fract_x
_atom_site_fract_y
_atom_site_fract_z
Si Si1 0.901322 0.741119 0.392931
Si Si2 0.418065 0.369182 0.999705
Si Si3 0.078780 0.744402 0.911230
Si Si4 0.621272 0.677579 0.210883
Si Si5 0.845385 0.112826 0.772206
Si Si6 0.084470 0.529220 0.448497
O O1 0.750368 0.701891 0.416914
O O2 0.859321 0.809759 0.331497
O O3 0.033817 0.824822 0.434054
O O4 0.981006 0.603987 0.393579
O O5 0.498093 0.271085 0.963729
O O6 0.234956 0.384883 0.976544
O O7 0.500000 0.500000 0.000000
O O8 0.117794 0.594359 0.913876
O O9 0.965696 0.804255 0.855382
O O10 0.500000 0.687005 0.250000
O O11 0.731217 0.801197 0.224897
O O12 0.704822 0.536241 0.220164
O O13 0.000000 0.106597 0.750000
O O14 0.000000 0.500000 0.500000
#
# Coordination Sequence:
#
# PCOD8154416 Si02
#       6
#     8   8   8   8   8   8
#     4  12  25  47  70 103 147 187 239 296 362 430
#     4  12  24  44  71 103 145 183 238 294 362 429
#     4  12  26  45  72 104 142 190 238 297 361 429
#     4  11  26  49  72 103 143 188 244 298 357 428
#     4  11  28  47  73 106 139 191 240 299 360 423
#     4  12  27  44  70 110 142 193 236 291 365 434
#
# _framework density 22.371148999999999
#
# number of rings (size 3 to 8) (size 9 to 14) (size 15 to 20)
#    0.000    0.333    5.000    3.000    4.667    0.667 
#    0.000    0.000    0.000    0.000    0.000    0.000 
#    0.000    0.000    0.000    0.000    0.000    0.000 
#
# Total GULP energy -297347.826016 kJ/mol
# GULP energy per Si atom -12389.492751 kJ/mol
# Density = 2.232023 g / cm^3
# Si number density = 22.371149 Si / 1000 Ang^3
#
#
#
# Elastic Constant Matrix: (Units=GPa)
#
#
# Indices 1 2 3 4 5 6 
#
# 1 110.4984 31.2233 10.6229 0.0000 16.5700 0.0000
# 2 31.2233 117.0753 24.3696 0.0000 30.0394 0.0000
# 3 10.6229 24.3696 48.6811 0.0000 9.5248 0.0000
# 4 0.0000 0.0000 0.0000 36.4379 0.0000 17.7382
# 5 16.5700 30.0394 9.5248 0.0000 37.2104 0.0000
# 6 0.0000 0.0000 0.0000 17.7382 0.0000 31.3361
#
#
#
# Elastic Compliance Matrix: (Units=1/GPa)
#
#
# Indices 1 2 3 4 5 6 
#
# 1 0.010055 -0.001801 -0.000738 0.000000 -0.002835 0.000000
# 2 -0.001801 0.011842 -0.004023 0.000000 -0.007728 0.000000
# 3 -0.000738 -0.004023 0.023178 0.000000 -0.002356 0.000000
# 4 0.000000 0.000000 0.000000 0.037883 0.000000 -0.021444
# 5 -0.002835 -0.007728 -0.002356 0.000000 0.034979 0.000000
# 6 0.000000 0.000000 0.000000 -0.021444 0.000000 0.044051
#
#
# Mechanical properties :
#
#
# Convention : Reuss Voigt Hill
#
# Bulk Modulus (GPa) = 31.29753 45.40958 38.35356
# Shear Modulus (GPa) = 26.91628 34.99948 30.95788
#
# Velocity S-wave (km/s) = 3.47244 3.95966 3.72402
# Velocity P-wave (km/s) = 5.48613 6.42242 5.97265
#
# Compressibility (1/GPa) = 0.03195140
#
# Stress axis : x y z
#
# Youngs Moduli (GPa) = 99.45545 84.44470 43.14449
#
# Poissons Ratio (x) = 0.15204 0.03184
# Poissons Ratio (y) = 0.17907 0.17357
# Poissons Ratio (z) = 0.07341 0.33973
#
# Static dielectric constant tensor:
#      x y z
#    x 3.983790 0.000000 0.076360 
#    y 0.000000 4.327380 0.000000 
#    z 0.076360 0.000000 3.693640 
# 
# 
# High freq. dielectric constant tensor:
#      x y z
#    x 1.886920 0.000000 0.004840 
#    y 0.000000 1.909400 0.000000 
#    z 0.004840 0.000000 1.878450 
# 
# From -- ./inp_files/263561.got.cif
#   From: 2010.06.25/outbox.cif.g09.slc.cpg/sg15_132_cif.got.tgz:263561.got - 2010.06.28 07:06:18.
