data_PCOD8154109
_publ_section_title
;
Structure prediction by ZEFSAII (Michael W. Deem and Ramdas Pophale) SiO2 
 PCOD8154109
Probable space group: C 2/C
;
_chemical_formula_sum "Si O2"
_cell_formula_units_Z 32
_cell_length_a 19.874364
_cell_length_b 8.328415
_cell_length_c 8.637014
_cell_angle_alpha 90.000000
_cell_angle_beta 117.271078
_cell_angle_gamma 90.000000
_cell_volume 1270.711711
_symmetry_space_group_name_H-M "C 2/C"
_symmetry_group_IT_number 15
_symmetry_cell_setting 'monoclinic'
loop_
_space_group_symop_operation_xyz
x,y,z
-x,y,1/2-z
-x,-y,-z
x,-y,1/2+z
1/2+x,1/2+y,z
1/2-x,1/2+y,1/2-z
1/2-x,1/2-y,-z
1/2+x,1/2-y,1/2+z
loop_
_atom_site_type_symbol
_atom_site_label
_atom_site_fract_x
_atom_site_fract_y
_atom_site_fract_z
Si Si1 0.566639 0.436711 0.711766
Si Si2 0.797583 0.732037 0.895732
Si Si3 0.960964 0.649648 0.044614
Si Si4 0.661056 0.593100 0.590562
O O1 0.500000 0.503700 0.750000
O O2 0.531956 0.306235 0.557789
O O3 0.599373 0.602311 0.666011
O O4 0.629751 0.353563 0.890482
O O5 0.740184 0.679583 0.700165
O O6 0.829989 0.902150 0.884991
O O7 0.750000 0.750000 0.000000
O O8 0.870514 0.612958 0.979938
O O9 0.000000 0.678051 0.250000
O O10 0.000000 0.500000 0.000000
#
# Coordination Sequence:
#
# PCOD8154109 Si02
#       4
#     8   8   8   8
#     4  11  25  44  73 106 147 195 249 307 372 447
#     4  11  26  48  76 109 151 195 253 309 376 451
#     4  11  28  48  75 109 150 195 247 313 374 450
#     4  11  25  46  76 107 146 200 248 313 373 449
#
# _framework density 25.182735999999998
#
# number of rings (size 3 to 8) (size 9 to 14) (size 15 to 20)
#    0.000    1.000    2.500    1.500    7.000   10.000 
#    0.000    0.000    0.000    0.000    0.000    0.000 
#    0.000    0.000    0.000    0.000    0.000    0.000 
#
# Total GULP energy -198262.339829 kJ/mol
# GULP energy per Si atom -12391.396239 kJ/mol
# Density = 2.512542 g / cm^3
# Si number density = 25.182736 Si / 1000 Ang^3
#
#
#
# Elastic Constant Matrix: (Units=GPa)
#
#
# Indices 1 2 3 4 5 6 
#
# 1 165.7138 24.2949 67.5463 0.0000 11.3585 0.0000
# 2 24.2949 39.8562 12.3353 0.0000 7.2786 0.0000
# 3 67.5463 12.3353 241.8028 0.0000 31.6959 0.0000
# 4 0.0000 0.0000 0.0000 35.0102 0.0000 10.0843
# 5 11.3585 7.2786 31.6959 0.0000 50.8175 0.0000
# 6 0.0000 0.0000 0.0000 10.0843 0.0000 29.3666
#
#
#
# Elastic Compliance Matrix: (Units=1/GPa)
#
#
# Indices 1 2 3 4 5 6 
#
# 1 0.007366 -0.003927 -0.001868 0.000000 0.000081 0.000000
# 2 -0.003927 0.028040 0.000085 0.000000 -0.003191 0.000000
# 3 -0.001868 0.000085 0.005010 0.000000 -0.002719 0.000000
# 4 0.000000 0.000000 0.000000 0.031698 0.000000 -0.010885
# 5 0.000081 -0.003191 -0.002719 0.000000 0.021813 0.000000
# 6 0.000000 0.000000 0.000000 -0.010885 0.000000 0.037790
#
#
# Mechanical properties :
#
#
# Convention : Reuss Voigt Hill
#
# Bulk Modulus (GPa) = 34.48739 72.85843 53.67291
# Shear Modulus (GPa) = 32.72187 45.91861 39.32024
#
# Velocity S-wave (km/s) = 3.60860 4.27478 3.95574
# Velocity P-wave (km/s) = 5.57559 7.30477 6.49796
#
# Compressibility (1/GPa) = 0.02899611
#
# Stress axis : x y z
#
# Youngs Moduli (GPa) = 135.75835 35.66285 199.62011
#
# Poissons Ratio (x) = 0.14004 0.37289
# Poissons Ratio (y) = 0.53309 -0.01693
# Poissons Ratio (z) = 0.25359 -0.00302
#
# Static dielectric constant tensor:
#      x y z
#    x 4.233800 0.000000 1.145020 
#    y 0.000000 4.804270 0.000000 
#    z 1.145020 0.000000 4.527500 
# 
# 
# High freq. dielectric constant tensor:
#      x y z
#    x 2.044780 0.000000 0.004360 
#    y 0.000000 1.961920 0.000000 
#    z 0.004360 0.000000 2.032570 
# 
# From -- ./inp_files/59804.got.cif
#   From: 2010.06.25/outbox.cif.g09.slc.cpg/sg15_30_cif.got.tgz:59804.got - 2010.06.28 07:06:18.
