data_PCOD8154740
_publ_section_title
;
Structure prediction by ZEFSAII (Michael W. Deem and Ramdas Pophale) SiO2 
 PCOD8154740
Probable space group: C 2/C
;
_chemical_formula_sum "Si O2"
_cell_formula_units_Z 36
_cell_length_a 8.514226
_cell_length_b 16.342415
_cell_length_c 12.386709
_cell_angle_alpha 90.000000
_cell_angle_beta 69.594881
_cell_angle_gamma 90.000000
_cell_volume 1615.374353
_symmetry_space_group_name_H-M "C 2/C"
_symmetry_group_IT_number 15
_symmetry_cell_setting 'monoclinic'
loop_
_space_group_symop_operation_xyz
x,y,z
-x,y,1/2-z
-x,-y,-z
x,-y,1/2+z
1/2+x,1/2+y,z
1/2-x,1/2+y,1/2-z
1/2-x,1/2-y,-z
1/2+x,1/2-y,1/2+z
loop_
_atom_site_type_symbol
_atom_site_label
_atom_site_fract_x
_atom_site_fract_y
_atom_site_fract_z
Si Si1 0.323720 0.893754 0.742891
Si Si2 0.833974 0.836745 0.502639
Si Si3 0.637510 0.956776 0.396787
Si Si4 0.815720 0.761541 0.103215
Si Si5 0.000000 0.650510 0.750000
O O1 0.500000 0.920235 0.750000
O O2 0.194754 0.864893 0.866421
O O3 0.367506 0.823880 0.645018
O O4 0.256968 0.975457 0.697619
O O5 0.750000 0.750000 0.500000
O O6 0.768332 0.905094 0.435972
O O7 0.031446 0.825790 0.434684
O O8 0.517466 0.901172 0.353328
O O9 0.500000 0.000000 0.500000
O O10 0.666563 0.795634 0.210890
O O11 0.750000 0.750000 0.000000
#
# Coordination Sequence:
#
# PCOD8154740 Si02
#       5
#     8   8   8   8   4
#     4  12  23  44  74 102 144 190 235 295 368 433
#     4  12  24  44  76 107 140 193 248 297 363 443
#     4  12  23  45  71 103 143 188 236 299 367 431
#     4  12  26  46  71 105 142 187 249 299 353 433
#     4  12  26  44  68 100 142 188 238 298 356 422
#
# _framework density 22.285855000000002
#
# number of rings (size 3 to 8) (size 9 to 14) (size 15 to 20)
#    0.000    0.000    5.556    5.333    0.000    0.000 
#    0.000   16.667    0.000    0.000    0.000    0.000 
#    0.000    0.000    0.000    0.000    0.000    0.000 
#
# Total GULP energy -223233.527010 kJ/mol
# GULP energy per Si atom -12401.862612 kJ/mol
# Density = 2.223513 g / cm^3
# Si number density = 22.285855 Si / 1000 Ang^3
#
#
#
# Elastic Constant Matrix: (Units=GPa)
#
#
# Indices 1 2 3 4 5 6 
#
# 1 137.0409 60.9558 54.0688 0.0000 -6.7473 0.0000
# 2 60.9558 149.6627 68.5320 0.0000 7.7485 0.0000
# 3 54.0688 68.5320 122.0319 0.0000 11.3399 0.0000
# 4 0.0000 0.0000 0.0000 43.2117 0.0000 10.5652
# 5 -6.7473 7.7485 11.3399 0.0000 48.5184 0.0000
# 6 0.0000 0.0000 0.0000 10.5652 0.0000 41.2145
#
#
#
# Elastic Compliance Matrix: (Units=1/GPa)
#
#
# Indices 1 2 3 4 5 6 
#
# 1 0.009847 -0.002741 -0.003058 0.000000 0.002522 0.000000
# 2 -0.002741 0.009761 -0.004178 0.000000 -0.000964 0.000000
# 3 -0.003058 -0.004178 0.012137 0.000000 -0.002595 0.000000
# 4 0.000000 0.000000 0.000000 0.024689 0.000000 -0.006329
# 5 0.002522 -0.000964 -0.002595 0.000000 0.021722 0.000000
# 6 0.000000 0.000000 0.000000 -0.006329 0.000000 0.025886
#
#
# Mechanical properties :
#
#
# Convention : Reuss Voigt Hill
#
# Bulk Modulus (GPa) = 84.80674 86.20540 85.50607
# Shear Modulus (GPa) = 39.08541 41.60084 40.34313
#
# Velocity S-wave (km/s) = 4.19241 4.32521 4.25933
# Velocity P-wave (km/s) = 7.84677 7.98179 7.91456
#
# Compressibility (1/GPa) = 0.01179152
#
# Stress axis : x y z
#
# Youngs Moduli (GPa) = 101.55502 102.44975 82.39419
#
# Poissons Ratio (x) = 0.28079 0.25196
# Poissons Ratio (y) = 0.27834 0.34422
# Poissons Ratio (z) = 0.31056 0.42801
#
# Static dielectric constant tensor:
#      x y z
#    x 3.552110 0.000000 0.118720 
#    y 0.000000 4.285330 0.000000 
#    z 0.118720 0.000000 4.396960 
# 
# 
# High freq. dielectric constant tensor:
#      x y z
#    x 1.867770 0.000000 0.012340 
#    y 0.000000 1.891870 0.000000 
#    z 0.012340 0.000000 1.898970 
# 
# From -- ./inp_files/76569.got.cif
#   From: 2010.06.25/outbox.cif.g09.slc.cpg/sg15_39_cif.got.tgz:76569.got - 2010.06.28 07:06:18.
