data_PCOD8154152
_publ_section_title
;
Structure prediction by ZEFSAII (Michael W. Deem and Ramdas Pophale) SiO2 
 PCOD8154152
Probable space group: C 2/C
;
_chemical_formula_sum "Si O2"
_cell_formula_units_Z 44
_cell_length_a 20.952491
_cell_length_b 7.445469
_cell_length_c 12.920126
_cell_angle_alpha 90.000000
_cell_angle_beta 80.504731
_cell_angle_gamma 90.000000
_cell_volume 1987.939504
_symmetry_space_group_name_H-M "C 2/C"
_symmetry_group_IT_number 15
_symmetry_cell_setting 'monoclinic'
loop_
_space_group_symop_operation_xyz
x,y,z
-x,y,1/2-z
-x,-y,-z
x,-y,1/2+z
1/2+x,1/2+y,z
1/2-x,1/2+y,1/2-z
1/2-x,1/2-y,-z
1/2+x,1/2-y,1/2+z
loop_
_atom_site_type_symbol
_atom_site_label
_atom_site_fract_x
_atom_site_fract_y
_atom_site_fract_z
Si Si1 0.193464 0.725325 0.347672
Si Si2 0.608711 0.429093 0.838811
Si Si3 0.975071 0.766471 0.476407
Si Si4 0.903252 0.594875 0.964649
Si Si5 0.672180 0.884541 0.217890
Si Si6 0.500000 0.572041 0.750000
O O1 0.163077 0.639704 0.458005
O O2 0.266706 0.785182 0.350940
O O3 0.191156 0.579780 0.255913
O O4 0.155351 0.901922 0.324077
O O5 0.647433 0.242992 0.817503
O O6 0.562602 0.447948 0.750532
O O7 0.564010 0.426848 0.954941
O O8 0.928563 0.596189 0.495635
O O9 0.990974 0.803125 0.352926
O O10 0.040933 0.738198 0.523837
O O11 0.885673 0.592160 0.848591
#
# Coordination Sequence:
#
# PCOD8154152 Si02
#       6
#     8   8   8   8   8   4
#     4  12  25  49  69 103 142 183 243 282 341 427
#     4  12  25  44  72 103 145 180 237 288 349 421
#     4  11  25  45  72 109 144 180 235 291 353 423
#     4  11  25  45  72 106 145 181 234 292 352 417
#     4  12  26  48  72 103 141 193 230 292 350 408
#     4  12  24  42  74 104 140 190 228 292 354 420
#
# _framework density 22.133469999999999
#
# number of rings (size 3 to 8) (size 9 to 14) (size 15 to 20)
#    0.000    0.364    5.455    3.273    2.545    0.000 
#    0.000    1.818    0.000    0.000    0.000    0.000 
#    0.000    0.000    0.000    0.000    0.000    0.000 
#
# Total GULP energy -272842.139632 kJ/mol
# GULP energy per Si atom -12401.915438 kJ/mol
# Density = 2.208309 g / cm^3
# Si number density = 22.133470 Si / 1000 Ang^3
#
#
#
# Elastic Constant Matrix: (Units=GPa)
#
#
# Indices 1 2 3 4 5 6 
#
# 1 110.6563 36.9914 37.2881 0.0000 -0.4765 0.0000
# 2 36.9914 103.5080 37.2531 0.0000 5.0370 0.0000
# 3 37.2881 37.2531 90.9108 0.0000 0.6398 0.0000
# 4 0.0000 0.0000 0.0000 35.0007 0.0000 -4.7067
# 5 -0.4765 5.0370 0.6398 0.0000 35.5178 0.0000
# 6 0.0000 0.0000 0.0000 -4.7067 0.0000 34.2022
#
#
#
# Elastic Compliance Matrix: (Units=1/GPa)
#
#
# Indices 1 2 3 4 5 6 
#
# 1 0.011121 -0.002769 -0.003431 0.000000 0.000604 0.000000
# 2 -0.002769 0.012105 -0.003813 0.000000 -0.001685 0.000000
# 3 -0.003431 -0.003813 0.013968 0.000000 0.000243 0.000000
# 4 0.000000 0.000000 0.000000 0.029110 0.000000 0.004006
# 5 0.000604 -0.001685 0.000243 0.000000 0.028398 0.000000
# 6 0.000000 0.000000 0.000000 0.004006 0.000000 0.029789
#
#
# Mechanical properties :
#
#
# Convention : Reuss Voigt Hill
#
# Bulk Modulus (GPa) = 58.24676 58.68229 58.46452
# Shear Modulus (GPa) = 33.28031 33.84696 33.56363
#
# Velocity S-wave (km/s) = 3.88186 3.91477 3.89835
# Velocity P-wave (km/s) = 6.81653 6.85597 6.83628
#
# Compressibility (1/GPa) = 0.01716834
#
# Stress axis : x y z
#
# Youngs Moduli (GPa) = 89.91622 82.61119 71.59340
#
# Poissons Ratio (x) = 0.22875 0.24565
# Poissons Ratio (y) = 0.24898 0.27296
# Poissons Ratio (z) = 0.30852 0.31497
#
# Static dielectric constant tensor:
#      x y z
#    x 4.146080 0.000000 -0.142580 
#    y 0.000000 4.062820 0.000000 
#    z -0.142580 0.000000 3.744230 
# 
# 
# High freq. dielectric constant tensor:
#      x y z
#    x 1.880330 0.000000 -0.010100 
#    y 0.000000 1.887770 0.000000 
#    z -0.010100 0.000000 1.862780 
# 
# From -- ./inp_files/110054.got.cif
#   From: 2010.06.25/outbox.cif.g09.slc.cpg/sg15_56_cif.got.tgz:110054.got - 2010.06.28 07:06:18.
