data_PCOD8154708
_publ_section_title
;
Structure prediction by ZEFSAII (Michael W. Deem and Ramdas Pophale) SiO2 
 PCOD8154708
Probable space group: C 2/C
;
_chemical_formula_sum "Si O2"
_cell_formula_units_Z 52
_cell_length_a 32.018632
_cell_length_b 5.022472
_cell_length_c 15.495204
_cell_angle_alpha 90.000000
_cell_angle_beta 118.879803
_cell_angle_gamma 90.000000
_cell_volume 2181.929048
_symmetry_space_group_name_H-M "C 2/C"
_symmetry_group_IT_number 15
_symmetry_cell_setting 'monoclinic'
loop_
_space_group_symop_operation_xyz
x,y,z
-x,y,1/2-z
-x,-y,-z
x,-y,1/2+z
1/2+x,1/2+y,z
1/2-x,1/2+y,1/2-z
1/2-x,1/2-y,-z
1/2+x,1/2-y,1/2+z
loop_
_atom_site_type_symbol
_atom_site_label
_atom_site_fract_x
_atom_site_fract_y
_atom_site_fract_z
Si Si1 0.166536 0.894794 0.577771
Si Si2 0.757736 0.498373 0.567751
Si Si3 0.365669 0.025648 0.209368
Si Si4 0.603616 0.475296 0.856094
Si Si5 0.121466 0.365892 0.593456
Si Si6 0.500000 0.619976 0.250000
Si Si7 0.015381 0.744222 0.957533
O O1 0.153222 0.584447 0.572925
O O2 0.221381 0.953408 0.610546
O O3 0.132471 0.023001 0.472257
O O4 0.152859 0.096028 0.642512
O O5 0.750000 0.750000 0.500000
O O6 0.809509 0.530637 0.661189
O O7 0.750000 0.250000 0.500000
O O8 0.371394 0.326445 0.184424
O O9 0.389942 0.996833 0.326750
O O10 0.392998 0.826933 0.173573
O O11 0.547783 0.556035 0.810767
O O12 0.072194 0.282409 0.498607
O O13 0.506223 0.771267 0.162493
O O14 0.000000 0.500000 0.000000
O O15 0.000000 0.000000 0.000000
#
# Coordination Sequence:
#
# PCOD8154708 Si02
#       7
#     8   8   8   8   8   4   8
#     4  12  24  44  70  99 140 181 230 295 354 426
#     4  12  23  42  71 102 135 181 238 293 351 436
#     4  12  25  46  72 102 140 186 233 299 363 433
#     4  12  25  45  72 103 135 188 243 283 358 433
#     4  12  26  45  68 102 148 177 231 304 362 423
#     4  12  28  46  80 104 148 200 246 302 376 436
#     4  12  27  48  71 107 144 191 249 303 362 439
#
# _framework density 23.832125000000001
#
# number of rings (size 3 to 8) (size 9 to 14) (size 15 to 20)
#    0.000    0.000    4.615    5.538    0.000    2.462 
#    0.000    0.000    0.000    0.000    0.000    0.000 
#    0.000    0.000    0.000    0.000    0.000    0.000 
#
# Total GULP energy -322216.154837 kJ/mol
# GULP energy per Si atom -12392.929032 kJ/mol
# Density = 2.377788 g / cm^3
# Si number density = 23.832125 Si / 1000 Ang^3
#
#
#
# Elastic Constant Matrix: (Units=GPa)
#
#
# Indices 1 2 3 4 5 6 
#
# 1 130.1321 25.7205 3.8157 0.0000 10.7867 0.0000
# 2 25.7205 134.5231 9.9134 0.0003 -8.8781 -0.0001
# 3 3.8157 9.9134 99.8992 0.0000 -5.6716 0.0000
# 4 0.0000 0.0003 0.0000 21.8561 0.0000 -2.9487
# 5 10.7867 -8.8781 -5.6716 0.0000 44.2049 0.0001
# 6 0.0000 -0.0001 0.0000 -2.9487 0.0001 43.7792
#
#
#
# Elastic Compliance Matrix: (Units=1/GPa)
#
#
# Indices 1 2 3 4 5 6 
#
# 1 0.008229 -0.001710 -0.000280 0.000000 -0.002387 0.000000
# 2 -0.001710 0.007933 -0.000612 0.000000 0.001932 0.000000
# 3 -0.000280 -0.000612 0.010152 0.000000 0.001248 0.000000
# 4 0.000000 0.000000 0.000000 0.046173 0.000000 0.003110
# 5 -0.002387 0.001932 0.001248 0.000000 0.023753 0.000000
# 6 0.000000 0.000000 0.000000 0.003110 0.000000 0.023051
#
#
# Mechanical properties :
#
#
# Convention : Reuss Voigt Hill
#
# Bulk Modulus (GPa) = 47.37276 49.27260 48.32268
# Shear Modulus (GPa) = 38.01324 43.64171 40.82747
#
# Velocity S-wave (km/s) = 3.99813 4.28391 4.14348
# Velocity P-wave (km/s) = 6.42139 6.72227 6.57355
#
# Compressibility (1/GPa) = 0.02110918
#
# Stress axis : x y z
#
# Youngs Moduli (GPa) = 121.52708 126.05124 98.49888
#
# Poissons Ratio (x) = 0.21557 0.02759
# Poissons Ratio (y) = 0.20784 0.06030
# Poissons Ratio (z) = 0.03404 0.07717
#
# Static dielectric constant tensor:
#      x y z
#    x 3.968780 0.000040 0.047490 
#    y 0.000040 -1.766620 0.000000 
#    z 0.047490 0.000000 4.396430 
# 
# 
# High freq. dielectric constant tensor:
#      x y z
#    x 1.964520 0.000000 -0.001820 
#    y 0.000000 1.949690 0.000000 
#    z -0.001820 0.000000 1.945120 
# 
# From -- ./inp_files/180173.got.cif
#   From: 2010.06.25/outbox.cif.g09.slc.cpg/sg15_91_cif.got.tgz:180173.got - 2010.06.28 07:06:18.
