data_PCOD8154359
_publ_section_title
;
Structure prediction by ZEFSAII (Michael W. Deem and Ramdas Pophale) SiO2 
 PCOD8154359
Probable space group: C 2/C
;
_chemical_formula_sum "Si O2"
_cell_formula_units_Z 36
_cell_length_a 11.702909
_cell_length_b 21.550926
_cell_length_c 8.904687
_cell_angle_alpha 90.000000
_cell_angle_beta 44.832784
_cell_angle_gamma 90.000000
_cell_volume 1583.405842
_symmetry_space_group_name_H-M "C 2/C"
_symmetry_group_IT_number 15
_symmetry_cell_setting 'monoclinic'
loop_
_space_group_symop_operation_xyz
x,y,z
-x,y,1/2-z
-x,-y,-z
x,-y,1/2+z
1/2+x,1/2+y,z
1/2-x,1/2+y,1/2-z
1/2-x,1/2-y,-z
1/2+x,1/2-y,1/2+z
loop_
_atom_site_type_symbol
_atom_site_label
_atom_site_fract_x
_atom_site_fract_y
_atom_site_fract_z
Si Si1 0.768134 0.714257 0.327019
Si Si2 0.948696 0.806639 0.957003
Si Si3 0.847139 0.944117 0.984786
Si Si4 0.000000 0.620621 0.250000
Si Si5 0.164117 0.515153 0.929014
O O1 0.750000 0.750000 0.500000
O O2 0.599443 0.683574 0.430890
O O3 0.906682 0.662212 0.213780
O O4 0.816657 0.762428 0.153519
O O5 0.862514 0.871612 0.001391
O O6 0.000000 0.776817 0.750000
O O7 0.000000 0.971464 0.750000
O O8 0.696766 0.959114 0.014323
O O9 0.814373 0.978834 0.172858
O O10 0.861247 0.580017 0.459831
O O11 0.000000 0.500000 0.000000
#
# Coordination Sequence:
#
# PCOD8154359 Si02
#       5
#     8   8   8   4   8
#     4  12  24  49  74 108 145 197 249 302 364 454
#     4  11  26  46  72 110 150 189 244 309 376 424
#     4  11  26  46  74 106 147 194 245 305 370 439
#     4  12  26  42  82 104 148 190 258 294 374 444
#     4  12  25  48  71 107 146 196 245 304 368 442
#
# _framework density 22.735799
#
# number of rings (size 3 to 8) (size 9 to 14) (size 15 to 20)
#    0.000    0.444    4.444    2.667    6.222    1.778 
#    0.000    0.000    0.000    0.000    0.000    0.000 
#    0.000    0.000    0.000    0.000    0.000    0.000 
#
# Total GULP energy -223215.738806 kJ/mol
# GULP energy per Si atom -12400.874378 kJ/mol
# Density = 2.268405 g / cm^3
# Si number density = 22.735799 Si / 1000 Ang^3
#
#
#
# Elastic Constant Matrix: (Units=GPa)
#
#
# Indices 1 2 3 4 5 6 
#
# 1 139.6318 74.8151 24.8862 0.0000 7.3649 0.0000
# 2 74.8151 131.6367 56.9291 0.0000 7.7511 0.0000
# 3 24.8862 56.9291 163.4441 0.0000 23.3314 0.0000
# 4 0.0000 0.0000 0.0000 36.2657 0.0000 1.6812
# 5 7.3649 7.7511 23.3314 0.0000 38.9567 0.0000
# 6 0.0000 0.0000 0.0000 1.6812 0.0000 55.4211
#
#
#
# Elastic Compliance Matrix: (Units=1/GPa)
#
#
# Indices 1 2 3 4 5 6 
#
# 1 0.010389 -0.006150 0.000728 0.000000 -0.001177 0.000000
# 2 -0.006150 0.012585 -0.003560 0.000000 0.000791 0.000000
# 3 0.000728 -0.003560 0.007836 0.000000 -0.004122 0.000000
# 4 0.000000 0.000000 0.000000 0.027613 0.000000 -0.000838
# 5 -0.001177 0.000791 -0.004122 0.000000 0.028203 0.000000
# 6 0.000000 0.000000 0.000000 -0.000838 0.000000 0.018069
#
#
# Mechanical properties :
#
#
# Convention : Reuss Voigt Hill
#
# Bulk Modulus (GPa) = 77.84368 83.10817 80.47592
# Shear Modulus (GPa) = 39.38794 44.66752 42.02773
#
# Velocity S-wave (km/s) = 4.16675 4.43723 4.30411
# Velocity P-wave (km/s) = 7.58035 7.93002 7.75716
#
# Compressibility (1/GPa) = 0.01284626
#
# Stress axis : x y z
#
# Youngs Moduli (GPa) = 96.25216 79.45798 127.61886
#
# Poissons Ratio (x) = 0.48870 -0.09295
# Poissons Ratio (y) = 0.59199 0.45432
# Poissons Ratio (z) = -0.07010 0.28287
#
# Static dielectric constant tensor:
#      x y z
#    x 4.379210 0.000000 0.300840 
#    y 0.000000 4.083080 0.000000 
#    z 0.300840 0.000000 5.172250 
# 
# 
# High freq. dielectric constant tensor:
#      x y z
#    x 1.907800 0.000000 0.008900 
#    y 0.000000 1.885540 0.000000 
#    z 0.008900 0.000000 1.915110 
# 
# From -- ./inp_files/31686.got.cif
#   From: 2010.06.25/outbox.cif.g09.slc.cpg/sg15_16_cif.got.tgz:31686.got - 2010.06.28 07:06:18.
