data_PCOD8154086
_publ_section_title
;
Structure prediction by ZEFSAII (Michael W. Deem and Ramdas Pophale) SiO2 
 PCOD8154086
Probable space group: C 2/C
;
_chemical_formula_sum "Si O2"
_cell_formula_units_Z 48
_cell_length_a 24.654969
_cell_length_b 14.981479
_cell_length_c 10.430098
_cell_angle_alpha 90.000000
_cell_angle_beta 146.449742
_cell_angle_gamma 90.000000
_cell_volume 2129.178343
_symmetry_space_group_name_H-M "C 2/C"
_symmetry_group_IT_number 15
_symmetry_cell_setting 'monoclinic'
loop_
_space_group_symop_operation_xyz
x,y,z
-x,y,1/2-z
-x,-y,-z
x,-y,1/2+z
1/2+x,1/2+y,z
1/2-x,1/2+y,1/2-z
1/2-x,1/2-y,-z
1/2+x,1/2-y,1/2+z
loop_
_atom_site_type_symbol
_atom_site_label
_atom_site_fract_x
_atom_site_fract_y
_atom_site_fract_z
Si Si1 0.889841 0.905640 0.220073
Si Si2 0.939701 0.908742 0.748527
Si Si3 0.105174 0.282236 0.894837
Si Si4 0.218451 0.236457 0.579659
Si Si5 0.321994 0.062256 0.120533
Si Si6 0.383117 0.917215 0.028157
O O1 0.877856 0.819304 0.110715
O O2 0.992436 0.897378 0.494440
O O3 0.900024 0.991098 0.148231
O O4 0.795042 0.919483 0.125379
O O5 0.848735 0.846664 0.576663
O O6 0.000000 0.873330 0.750000
O O7 0.117797 0.348749 0.799562
O O8 0.000000 0.299455 0.750000
O O9 0.189601 0.302079 0.162240
O O10 0.250000 0.250000 0.500000
O O11 0.166566 0.321125 0.544606
O O12 0.345890 0.043150 0.317924
O O13 0.353698 0.982124 0.088227
O O14 0.500000 0.906403 0.250000
#
# Coordination Sequence:
#
# PCOD8154086 Si02
#       6
#     8   8   8   8   8   8
#     4  11  25  47  72 107 145 189 240 301 373 434
#     4  11  25  43  75 103 142 187 243 301 364 439
#     4  12  27  46  74 107 153 190 245 304 376 440
#     4  12  27  45  76 109 146 195 248 307 370 445
#     4  12  28  48  76 106 148 202 245 309 370 443
#     4  12  29  49  75 108 151 196 254 303 372 440
#
# _framework density 22.543908999999999
#
# number of rings (size 3 to 8) (size 9 to 14) (size 15 to 20)
#    0.000    0.333    1.667    5.500   14.000    2.667 
#    0.000    0.000    0.000    0.000    0.000    0.000 
#    0.000    0.000    0.000    0.000    0.000    0.000 
#
# Total GULP energy -297563.711111 kJ/mol
# GULP energy per Si atom -12398.487963 kJ/mol
# Density = 2.249260 g / cm^3
# Si number density = 22.543909 Si / 1000 Ang^3
#
#
#
# Elastic Constant Matrix: (Units=GPa)
#
#
# Indices 1 2 3 4 5 6 
#
# 1 109.7326 19.3373 65.6831 0.0000 -3.2893 0.0000
# 2 19.3373 87.6294 68.3241 0.0000 -7.6888 0.0000
# 3 65.6831 68.3241 139.5927 0.0000 21.8926 0.0000
# 4 0.0000 0.0000 0.0000 31.7199 0.0000 6.9746
# 5 -3.2893 -7.6888 21.8926 0.0000 47.1427 0.0000
# 6 0.0000 0.0000 0.0000 6.9746 0.0000 43.2124
#
#
#
# Elastic Compliance Matrix: (Units=1/GPa)
#
#
# Indices 1 2 3 4 5 6 
#
# 1 0.014880 0.005939 -0.011026 0.000000 0.007127 0.000000
# 2 0.005939 0.023904 -0.016362 0.000000 0.011912 0.000000
# 3 -0.011026 -0.016362 0.022541 0.000000 -0.013906 0.000000
# 4 0.000000 0.000000 0.000000 0.032686 0.000000 -0.005276
# 5 0.007127 0.011912 -0.013906 0.000000 0.030110 0.000000
# 6 0.000000 0.000000 0.000000 -0.005276 0.000000 0.023993
#
#
# Mechanical properties :
#
#
# Convention : Reuss Voigt Hill
#
# Bulk Modulus (GPa) = 54.27124 71.51597 62.89361
# Shear Modulus (GPa) = 25.36066 36.65568 31.00817
#
# Velocity S-wave (km/s) = 3.35766 4.03670 3.71274
# Velocity P-wave (km/s) = 6.25761 7.31563 6.80721
#
# Compressibility (1/GPa) = 0.01842596
#
# Stress axis : x y z
#
# Youngs Moduli (GPa) = 67.20384 41.83408 44.36291
#
# Poissons Ratio (x) = -0.24844 0.48915
# Poissons Ratio (y) = -0.39910 0.72588
# Poissons Ratio (z) = 0.74100 0.68450
#
# Static dielectric constant tensor:
#      x y z
#    x 4.209480 0.000000 0.293690 
#    y 0.000000 4.344730 0.000000 
#    z 0.293690 0.000000 2.916430 
# 
# 
# High freq. dielectric constant tensor:
#      x y z
#    x 1.903500 0.000000 0.011800 
#    y 0.000000 1.902590 0.000000 
#    z 0.011800 0.000000 1.905810 
# 
# From -- ./inp_files/123573.got.cif
#   From: 2010.06.25/outbox.cif.g09.slc.cpg/sg15_62_cif.got.tgz:123573.got - 2010.06.28 07:06:18.
