data_PCOD8154302
_publ_section_title
;
Structure prediction by ZEFSAII (Michael W. Deem and Ramdas Pophale) SiO2 
 PCOD8154302
Probable space group: C 2/C
;
_chemical_formula_sum "Si O2"
_cell_formula_units_Z 40
_cell_length_a 11.044618
_cell_length_b 10.485074
_cell_length_c 26.031076
_cell_angle_alpha 90.000000
_cell_angle_beta 148.543807
_cell_angle_gamma 90.000000
_cell_volume 1573.102776
_symmetry_space_group_name_H-M "C 2/C"
_symmetry_group_IT_number 15
_symmetry_cell_setting 'monoclinic'
loop_
_space_group_symop_operation_xyz
x,y,z
-x,y,1/2-z
-x,-y,-z
x,-y,1/2+z
1/2+x,1/2+y,z
1/2-x,1/2+y,1/2-z
1/2-x,1/2-y,-z
1/2+x,1/2-y,1/2+z
loop_
_atom_site_type_symbol
_atom_site_label
_atom_site_fract_x
_atom_site_fract_y
_atom_site_fract_z
Si Si1 0.464236 0.126222 0.392523
Si Si2 0.894302 0.832821 0.889978
Si Si3 0.000000 0.976247 0.750000
Si Si4 0.590804 0.126497 0.888044
Si Si5 0.000000 0.533481 0.750000
Si Si6 0.347105 0.667241 0.611017
O O1 0.486979 0.256348 0.368296
O O2 0.649089 0.104051 0.504802
O O3 0.479115 0.007999 0.360292
O O4 0.214850 0.119713 0.328622
O O5 0.772986 0.761139 0.892616
O O6 0.937316 0.740200 0.856876
O O7 0.722352 0.947797 0.812534
O O8 0.143675 0.880573 0.998093
O O9 0.008063 0.062598 0.804810
O O10 0.580442 0.131862 0.822991
#
# Coordination Sequence:
#
# PCOD8154302 Si02
#       6
#     8   8   4   8   4   8
#     4  11  26  47  76 106 151 205 242 313 388 444
#     4  11  25  50  71 109 153 194 256 311 373 455
#     4  12  25  50  79 112 148 201 252 321 362 454
#     4  11  26  47  76 106 151 205 242 313 388 444
#     4  12  25  50  79 112 148 201 252 321 362 454
#     4  11  25  50  71 109 153 194 256 311 373 455
#
# _framework density 25.427454999999998
#
# number of rings (size 3 to 8) (size 9 to 14) (size 15 to 20)
#    0.000    0.800    4.000    1.800    0.000    1.600 
#   14.400    0.000    0.000    0.000    0.000    0.000 
#    0.000    0.000    0.000    0.000    0.000    0.000 
#
# Total GULP energy -248022.791889 kJ/mol
# GULP energy per Si atom -12401.139594 kJ/mol
# Density = 2.536958 g / cm^3
# Si number density = 25.427455 Si / 1000 Ang^3
#
#
#
# Elastic Constant Matrix: (Units=GPa)
#
#
# Indices 1 2 3 4 5 6 
#
# 1 86.3490 53.1042 62.4755 0.0000 -21.8372 0.0000
# 2 53.1042 78.9599 51.7592 0.0000 -7.4745 0.0000
# 3 62.4755 51.7592 147.6833 -0.0003 -19.5946 0.0000
# 4 0.0000 0.0000 -0.0003 -11.0471 0.0000 13.7389
# 5 -21.8372 -7.4745 -19.5946 0.0000 41.3479 0.0000
# 6 0.0000 0.0000 0.0000 13.7389 0.0000 31.1401
#
#
#
# Elastic Compliance Matrix: (Units=1/GPa)
#
#
# Indices 1 2 3 4 5 6 
#
# 1 0.025391 -0.012942 -0.005054 0.000000 0.008675 0.000000
# 2 -0.012942 0.023042 -0.003153 0.000000 -0.004164 0.000000
# 3 -0.005054 -0.003153 0.010228 0.000000 0.001608 0.000000
# 4 0.000000 0.000000 0.000000 -0.058450 0.000000 0.025788
# 5 0.008675 -0.004164 0.001608 0.000000 0.028776 0.000000
# 6 0.000000 0.000000 0.000000 0.025788 0.000000 0.020735
#
#
# Mechanical properties :
#
#
# Convention : Reuss Voigt Hill
#
# Bulk Modulus (GPa) = 61.12025 71.96332 66.54178
# Shear Modulus (GPa) = 51.29528 21.99840 36.64684
#
# Velocity S-wave (km/s) = 4.49633 2.94452 3.80047
# Velocity P-wave (km/s) = 7.14460 6.31848 6.74420
#
# Compressibility (1/GPa) = 0.01636119
#
# Stress axis : x y z
#
# Youngs Moduli (GPa) = 39.38361 43.39985 97.77305
#
# Poissons Ratio (x) = 0.56170 0.49419
# Poissons Ratio (y) = 0.50972 0.30827
# Poissons Ratio (z) = 0.19906 0.13684
#
# Static dielectric constant tensor:
#      x y z
#    x 4.739020 0.000000 0.066540 
#    y 0.000000 4.492000 0.000000 
#    z 0.066540 0.000000 5.163410 
# 
# 
# High freq. dielectric constant tensor:
#      x y z
#    x 2.023690 0.000000 0.000350 
#    y 0.000000 2.008490 0.000000 
#    z 0.000350 0.000000 2.039600 
# 
# From -- ./inp_files/292429.got.cif
#   From: 2010.06.25/outbox.cif.g09.slc.cpg/sg15_147_cif.got.tgz:292429.got - 2010.06.28 07:06:18.
