data_PCOD8154024
_publ_section_title
;
Structure prediction by ZEFSAII (Michael W. Deem and Ramdas Pophale) SiO2 
 PCOD8154024
Probable space group: C 2/C
;
_chemical_formula_sum "Si O2"
_cell_formula_units_Z 48
_cell_length_a 11.524568
_cell_length_b 15.011019
_cell_length_c 13.327621
_cell_angle_alpha 90.000000
_cell_angle_beta 118.215075
_cell_angle_gamma 90.000000
_cell_volume 2031.662882
_symmetry_space_group_name_H-M "C 2/C"
_symmetry_group_IT_number 15
_symmetry_cell_setting 'monoclinic'
loop_
_space_group_symop_operation_xyz
x,y,z
-x,y,1/2-z
-x,-y,-z
x,-y,1/2+z
1/2+x,1/2+y,z
1/2-x,1/2+y,1/2-z
1/2-x,1/2-y,-z
1/2+x,1/2-y,1/2+z
loop_
_atom_site_type_symbol
_atom_site_label
_atom_site_fract_x
_atom_site_fract_y
_atom_site_fract_z
Si Si1 0.867279 0.645280 0.828625
Si Si2 0.872454 0.167660 0.634568
Si Si3 0.849318 0.984474 0.968858
Si Si4 0.875479 0.548312 0.271776
Si Si5 0.973989 0.288062 0.934119
Si Si6 0.259775 0.675212 0.920222
O O1 0.745004 0.688533 0.837664
O O2 0.868449 0.538563 0.839261
O O3 0.863235 0.672773 0.708659
O O4 0.995650 0.681956 0.938638
O O5 0.834543 0.082372 0.554034
O O6 0.898204 0.257932 0.578747
O O7 0.000000 0.142814 0.750000
O O8 0.764143 0.943938 0.842541
O O9 0.782967 0.077819 0.976492
O O10 0.000000 0.000000 0.000000
O O11 0.000000 0.539354 0.250000
O O12 0.891928 0.634506 0.347442
O O13 0.887068 0.198932 0.904858
O O14 0.250000 0.750000 0.000000
#
# Coordination Sequence:
#
# PCOD8154024 Si02
#       6
#     8   8   8   8   8   8
#     4  11  26  45  71 102 145 193 240 310 373 447
#     4  12  23  45  70 106 143 186 247 305 365 455
#     4  11  24  49  71 106 150 200 243 310 373 452
#     4  11  26  45  73 107 149 193 248 306 377 449
#     4  12  25  43  73 107 144 187 247 303 379 441
#     4  11  27  46  69 105 147 188 256 308 369 452
#
# _framework density 23.625965000000001
#
# number of rings (size 3 to 8) (size 9 to 14) (size 15 to 20)
#    0.000    0.667    3.333    3.500    9.333    0.000 
#    3.000    0.000    0.000    0.000    0.000    0.000 
#    0.000    0.000    0.000    0.000    0.000    0.000 
#
# Total GULP energy -297593.759756 kJ/mol
# GULP energy per Si atom -12399.739990 kJ/mol
# Density = 2.357219 g / cm^3
# Si number density = 23.625965 Si / 1000 Ang^3
#
#
#
# Elastic Constant Matrix: (Units=GPa)
#
#
# Indices 1 2 3 4 5 6 
#
# 1 37.5466 -1.0859 18.0966 0.0000 9.2198 0.0000
# 2 -1.0859 140.3407 83.9410 0.0000 -10.0797 0.0000
# 3 18.0966 83.9410 175.3894 0.0000 9.1250 0.0000
# 4 0.0000 0.0000 0.0000 51.7431 0.0000 -8.6730
# 5 9.2198 -10.0797 9.1250 0.0000 36.1886 0.0000
# 6 0.0000 0.0000 0.0000 -8.6730 0.0000 37.1259
#
#
#
# Elastic Compliance Matrix: (Units=1/GPa)
#
#
# Indices 1 2 3 4 5 6 
#
# 1 0.030006 0.002035 -0.003751 0.000000 -0.006132 0.000000
# 2 0.002035 0.010740 -0.005552 0.000000 0.003873 0.000000
# 3 -0.003751 -0.005552 0.008893 0.000000 -0.002833 0.000000
# 4 0.000000 0.000000 0.000000 0.020114 0.000000 0.004699
# 5 -0.006132 0.003873 -0.002833 0.000000 0.030988 0.000000
# 6 0.000000 0.000000 0.000000 0.004699 0.000000 0.028033
#
#
# Mechanical properties :
#
#
# Convention : Reuss Voigt Hill
#
# Bulk Modulus (GPa) = 28.48648 61.68668 45.08658
# Shear Modulus (GPa) = 32.25591 41.83320 37.04455
#
# Velocity S-wave (km/s) = 3.69897 4.21247 3.96404
# Velocity P-wave (km/s) = 5.50696 7.05877 6.33059
#
# Compressibility (1/GPa) = 0.03510438
#
# Stress axis : x y z
#
# Youngs Moduli (GPa) = 33.32657 93.11016 112.44767
#
# Poissons Ratio (x) = -0.18951 0.42180
# Poissons Ratio (y) = -0.06783 0.62427
# Poissons Ratio (z) = 0.12501 0.51691
#
# Static dielectric constant tensor:
#      x y z
#    x 4.283560 0.000000 0.151370 
#    y 0.000000 4.270190 0.000000 
#    z 0.151370 0.000000 4.555230 
# 
# 
# High freq. dielectric constant tensor:
#      x y z
#    x 1.933320 0.000000 0.008350 
#    y 0.000000 1.940830 0.000000 
#    z 0.008350 0.000000 1.953700 
# 
# From -- ./inp_files/144385.got.cif
#   From: 2010.06.25/outbox.cif.g09.slc.cpg/sg15_73_cif.got.tgz:144385.got - 2010.06.28 07:06:18.
