data_PCOD8154240
_publ_section_title
;
Structure prediction by ZEFSAII (Michael W. Deem and Ramdas Pophale) SiO2 
 PCOD8154240
Probable space group: C 2/C
;
_chemical_formula_sum "Si O2"
_cell_formula_units_Z 40
_cell_length_a 11.838796
_cell_length_b 14.417486
_cell_length_c 14.127272
_cell_angle_alpha 90.000000
_cell_angle_beta 46.048994
_cell_angle_gamma 90.000000
_cell_volume 1735.992289
_symmetry_space_group_name_H-M "C 2/C"
_symmetry_group_IT_number 15
_symmetry_cell_setting 'monoclinic'
loop_
_space_group_symop_operation_xyz
x,y,z
-x,y,1/2-z
-x,-y,-z
x,-y,1/2+z
1/2+x,1/2+y,z
1/2-x,1/2+y,1/2-z
1/2-x,1/2-y,-z
1/2+x,1/2-y,1/2+z
loop_
_atom_site_type_symbol
_atom_site_label
_atom_site_fract_x
_atom_site_fract_y
_atom_site_fract_z
Si Si1 0.329609 0.286713 0.046854
Si Si2 0.131415 0.986230 0.547051
Si Si3 0.723119 0.504748 0.699783
Si Si4 0.330281 0.115279 0.306076
Si Si5 0.828143 0.710321 0.665939
O O1 0.359471 0.396248 0.023750
O O2 0.494679 0.235573 0.964621
O O3 0.250000 0.250000 0.000000
O O4 0.207736 0.270236 0.202885
O O5 0.218400 0.964821 0.595911
O O6 0.209216 0.071512 0.449251
O O7 0.952756 0.016569 0.661619
O O8 0.819531 0.433397 0.709125
O O9 0.805278 0.604389 0.650538
O O10 0.500000 0.100090 0.250000
O O11 0.290734 0.224240 0.323370
#
# Coordination Sequence:
#
# PCOD8154240 Si02
#       5
#     8   8   8   8   8
#     4  12  26  46  78 108 143 194 252 307 362 434
#     4  11  25  49  76  97 152 197 243 298 377 432
#     4  11  25  47  74 104 141 197 244 299 363 439
#     4  12  27  45  70 108 152 187 243 303 364 442
#     4  12  27  46  74 110 149 187 251 301 369 438
#
# _framework density 23.041577
#
# number of rings (size 3 to 8) (size 9 to 14) (size 15 to 20)
#    0.000    0.400    4.000    3.600   11.200    1.600 
#    0.000    0.000    0.000    0.000    0.000    0.000 
#    0.000    0.000    0.000    0.000    0.000    0.000 
#
# Total GULP energy -248132.003874 kJ/mol
# GULP energy per Si atom -12406.600194 kJ/mol
# Density = 2.298913 g / cm^3
# Si number density = 23.041577 Si / 1000 Ang^3
#
#
#
# Elastic Constant Matrix: (Units=GPa)
#
#
# Indices 1 2 3 4 5 6 
#
# 1 124.4725 11.2598 -4.2028 0.0000 0.4310 0.0001
# 2 11.2598 64.9241 -14.4657 -0.0001 -18.3812 0.0001
# 3 -4.2028 -14.4657 48.7690 0.0000 2.2232 0.0001
# 4 0.0000 -0.0001 0.0000 25.3881 0.0000 1.4421
# 5 0.4310 -18.3812 2.2232 0.0000 24.8910 -0.0001
# 6 0.0001 0.0001 0.0001 1.4421 -0.0001 42.1422
#
#
#
# Elastic Compliance Matrix: (Units=1/GPa)
#
#
# Indices 1 2 3 4 5 6 
#
# 1 0.008209 -0.001790 0.000244 0.000000 -0.001486 0.000000
# 2 -0.001790 0.021239 0.005451 0.000000 0.015229 0.000000
# 3 0.000244 0.005451 0.022049 0.000000 0.002052 0.000000
# 4 0.000000 0.000000 0.000000 0.039465 0.000000 -0.001350
# 5 -0.001486 0.015229 0.002052 0.000000 0.051263 0.000000
# 6 0.000000 0.000000 0.000000 -0.001350 0.000000 0.023775
#
#
# Mechanical properties :
#
#
# Convention : Reuss Voigt Hill
#
# Bulk Modulus (GPa) = 16.86080 24.81645 20.83863
# Shear Modulus (GPa) = 28.09622 34.85588 31.47605
#
# Velocity S-wave (km/s) = 3.49574 3.89361 3.70003
# Velocity P-wave (km/s) = 4.86076 5.56842 5.22658
#
# Compressibility (1/GPa) = 0.05930918
#
# Stress axis : x y z
#
# Youngs Moduli (GPa) = 121.81439 47.08288 45.35285
#
# Poissons Ratio (x) = 0.08428 -0.01108
# Poissons Ratio (y) = 0.21804 -0.24724
# Poissons Ratio (z) = -0.02975 -0.25667
#
# Static dielectric constant tensor:
#      x y z
#    x 4.261080 0.000000 0.116530 
#    y 0.000000 4.390190 0.000000 
#    z 0.116530 0.000000 4.253980 
# 
# 
# High freq. dielectric constant tensor:
#      x y z
#    x 1.920150 0.000000 0.005310 
#    y 0.000000 1.921650 0.000000 
#    z 0.005310 0.000000 1.917810 
# 
# From -- ./inp_files/85711.got.cif
#   From: 2010.06.25/outbox.cif.g09.slc.cpg/sg15_43_cif.got.tgz:85711.got - 2010.06.28 07:06:18.
