data_PCOD8154966
_publ_section_title
;
Structure prediction by ZEFSAII (Michael W. Deem and Ramdas Pophale) SiO2 
 PCOD8154966
Probable space group: C 2/C
;
_chemical_formula_sum "Si O2"
_cell_formula_units_Z 36
_cell_length_a 13.860763
_cell_length_b 28.551010
_cell_length_c 9.431894
_cell_angle_alpha 90.000000
_cell_angle_beta 150.702869
_cell_angle_gamma 90.000000
_cell_volume 1826.489430
_symmetry_space_group_name_H-M "C 2/C"
_symmetry_group_IT_number 15
_symmetry_cell_setting 'monoclinic'
loop_
_space_group_symop_operation_xyz
x,y,z
-x,y,1/2-z
-x,-y,-z
x,-y,1/2+z
1/2+x,1/2+y,z
1/2-x,1/2+y,1/2-z
1/2-x,1/2-y,-z
1/2+x,1/2-y,1/2+z
loop_
_atom_site_type_symbol
_atom_site_label
_atom_site_fract_x
_atom_site_fract_y
_atom_site_fract_z
Si Si1 0.826139 0.109716 0.912940
Si Si2 0.694323 0.810478 0.067099
Si Si3 0.025354 0.545656 0.940799
Si Si4 0.500000 0.279133 0.250000
Si Si5 0.464944 0.451819 0.038773
O O1 0.761133 0.163068 0.795398
O O2 0.636123 0.084479 0.731971
O O3 0.890686 0.086272 0.846759
O O4 0.000000 0.108782 0.250000
O O5 0.874163 0.813343 0.186734
O O6 0.500000 0.835504 0.750000
O O7 0.642301 0.755307 0.027356
O O8 0.000000 0.527686 0.750000
O O9 0.242577 0.567052 0.238446
O O10 0.000000 0.500000 0.000000
O O11 0.500000 0.459928 0.250000
O O12 0.500000 0.500000 0.000000
#
# Coordination Sequence:
#
# PCOD8154966 Si02
#       5
#     8   8   8   4   8
#     4  12  26  42  59  97 134 166 216 267 313 386
#     4   9  20  39  69  92 124 162 207 259 322 384
#     4  12  25  42  63  86 127 175 217 268 319 368
#     4   8  18  42  68  98 126 154 210 272 316 390
#     4  12  25  41  63  89 123 171 217 266 317 371
#
# _framework density 19.709942000000002
#
# number of rings (size 3 to 8) (size 9 to 14) (size 15 to 20)
#    0.667    0.444    4.444    2.000    4.667    0.000 
#    0.000    1.111    0.000    0.000    0.000    0.000 
#    0.000    0.000    0.000    0.000    0.000    0.000 
#
# Total GULP energy -223122.260900 kJ/mol
# GULP energy per Si atom -12395.681161 kJ/mol
# Density = 1.966508 g / cm^3
# Si number density = 19.709942 Si / 1000 Ang^3
#
#
#
# Elastic Constant Matrix: (Units=GPa)
#
#
# Indices 1 2 3 4 5 6 
#
# 1 139.1554 41.3756 68.2887 0.0000 1.7660 0.0000
# 2 41.3756 76.9375 34.6268 0.0000 -8.0010 0.0000
# 3 68.2887 34.6268 126.0127 0.0000 1.6881 0.0000
# 4 0.0000 0.0000 0.0000 13.7086 0.0000 -2.6553
# 5 1.7660 -8.0010 1.6881 0.0000 48.7124 0.0000
# 6 0.0000 0.0000 0.0000 -2.6553 0.0000 4.5695
#
#
#
# Elastic Compliance Matrix: (Units=1/GPa)
#
#
# Indices 1 2 3 4 5 6 
#
# 1 0.010607 -0.003660 -0.004731 0.000000 -0.000822 0.000000
# 2 -0.003660 0.016426 -0.002569 0.000000 0.002920 0.000000
# 3 -0.004731 -0.002569 0.011214 0.000000 -0.000639 0.000000
# 4 0.000000 0.000000 0.000000 0.082198 0.000000 0.047764
# 5 -0.000822 0.002920 -0.000639 0.000000 0.021060 0.000000
# 6 0.000000 0.000000 0.000000 0.047764 0.000000 0.246596
#
#
# Mechanical properties :
#
#
# Convention : Reuss Voigt Hill
#
# Bulk Modulus (GPa) = 61.25365 70.07643 65.66504
# Shear Modulus (GPa) = 12.03473 26.58575 19.31024
#
# Velocity S-wave (km/s) = 2.47370 3.67665 3.13345
# Velocity P-wave (km/s) = 6.26928 7.32494 6.81757
#
# Compressibility (1/GPa) = 0.01632556
#
# Stress axis : x y z
#
# Youngs Moduli (GPa) = 94.27989 60.87947 89.17281
#
# Poissons Ratio (x) = 0.22283 0.42189
# Poissons Ratio (y) = 0.34509 0.22910
# Poissons Ratio (z) = 0.44606 0.15641
#
# Static dielectric constant tensor:
#      x y z
#    x 3.572780 0.000000 0.348710 
#    y 0.000000 3.314510 0.000000 
#    z 0.348710 0.000000 3.742060 
# 
# 
# High freq. dielectric constant tensor:
#      x y z
#    x 1.782880 0.000000 0.022720 
#    y 0.000000 1.747990 0.000000 
#    z 0.022720 0.000000 1.767280 
# 
# From -- ./inp_files/44019.got.cif
#   From: 2010.06.25/outbox.cif.g09.slc.cpg/sg15_23_cif.got.tgz:44019.got - 2010.06.28 07:06:18.
