data_PCOD8154526
_publ_section_title
;
Structure prediction by ZEFSAII (Michael W. Deem and Ramdas Pophale) SiO2 
 PCOD8154526
Probable space group: C 2/C
;
_chemical_formula_sum "Si O2"
_cell_formula_units_Z 40
_cell_length_a 10.908605
_cell_length_b 16.275372
_cell_length_c 12.661319
_cell_angle_alpha 90.000000
_cell_angle_beta 52.080636
_cell_angle_gamma 90.000000
_cell_volume 1773.323923
_symmetry_space_group_name_H-M "C 2/C"
_symmetry_group_IT_number 15
_symmetry_cell_setting 'monoclinic'
loop_
_space_group_symop_operation_xyz
x,y,z
-x,y,1/2-z
-x,-y,-z
x,-y,1/2+z
1/2+x,1/2+y,z
1/2-x,1/2+y,1/2-z
1/2-x,1/2-y,-z
1/2+x,1/2-y,1/2+z
loop_
_atom_site_type_symbol
_atom_site_label
_atom_site_fract_x
_atom_site_fract_y
_atom_site_fract_z
Si Si1 0.638173 0.554181 0.881336
Si Si2 0.905854 0.246863 0.130021
Si Si3 0.554451 0.716550 0.836056
Si Si4 0.681787 0.158502 0.540092
Si Si5 0.356192 0.583365 0.263339
O O1 0.556785 0.618843 0.846356
O O2 0.755223 0.600336 0.899579
O O3 0.729417 0.486079 0.762805
O O4 0.500000 0.500000 0.000000
O O5 0.728356 0.251635 0.256873
O O6 0.949576 0.154905 0.146804
O O7 0.996115 0.321124 0.143727
O O8 0.943238 0.255289 0.985260
O O9 0.500000 0.744794 0.750000
O O10 0.750000 0.250000 0.500000
O O11 0.718940 0.115839 0.409569
O O12 0.500000 0.542077 0.250000
#
# Coordination Sequence:
#
# PCOD8154526 Si02
#       5
#     8   8   8   8   8
#     4  12  23  39  68 105 140 189 237 296 365 429
#     4  12  24  45  76 106 135 198 248 297 351 449
#     4  12  26  44  72 102 142 185 245 298 370 430
#     4  12  22  42  72 105 141 190 247 299 347 444
#     4  12  21  38  72 104 143 184 247 295 354 423
#
# _framework density 22.556511
#
# number of rings (size 3 to 8) (size 9 to 14) (size 15 to 20)
#    0.000    0.000   10.000    1.200    0.000    0.000 
#    0.000    1.000    8.800    0.000    0.000    0.000 
#    0.000    0.000    0.000    0.000    0.000    0.000 
#
# Total GULP energy -247793.428549 kJ/mol
# GULP energy per Si atom -12389.671427 kJ/mol
# Density = 2.250517 g / cm^3
# Si number density = 22.556511 Si / 1000 Ang^3
#
#
#
# Elastic Constant Matrix: (Units=GPa)
#
#
# Indices 1 2 3 4 5 6 
#
# 1 101.7887 52.6049 23.8710 -0.0001 18.4122 0.0001
# 2 52.6049 133.6825 32.6868 0.0000 17.2602 0.0000
# 3 23.8710 32.6868 80.8753 -0.0001 17.5282 0.0000
# 4 -0.0001 0.0000 -0.0001 42.2633 0.0000 14.4668
# 5 18.4122 17.2602 17.5282 0.0000 36.6106 0.0000
# 6 0.0001 0.0000 0.0000 14.4668 0.0000 48.3973
#
#
#
# Elastic Compliance Matrix: (Units=1/GPa)
#
#
# Indices 1 2 3 4 5 6 
#
# 1 0.013066 -0.004327 -0.001256 0.000000 -0.003930 0.000000
# 2 -0.004327 0.009957 -0.002456 0.000000 -0.001342 0.000000
# 3 -0.001256 -0.002456 0.014885 0.000000 -0.005337 0.000000
# 4 0.000000 0.000000 0.000000 0.026358 0.000000 -0.007879
# 5 -0.003930 -0.001342 -0.005337 0.000000 0.032479 0.000000
# 6 0.000000 0.000000 0.000000 -0.007879 0.000000 0.023017
#
#
# Mechanical properties :
#
#
# Convention : Reuss Voigt Hill
#
# Bulk Modulus (GPa) = 45.81009 59.40796 52.60903
# Shear Modulus (GPa) = 34.93649 39.26650 37.10149
#
# Velocity S-wave (km/s) = 3.93980 4.17682 4.06004
# Velocity P-wave (km/s) = 6.40696 7.04668 6.73442
#
# Compressibility (1/GPa) = 0.02182925
#
# Stress axis : x y z
#
# Youngs Moduli (GPa) = 76.53518 100.43213 67.18275
#
# Poissons Ratio (x) = 0.43457 0.08438
# Poissons Ratio (y) = 0.33117 0.16501
# Poissons Ratio (z) = 0.09613 0.24668
#
# Static dielectric constant tensor:
#      x y z
#    x 4.681580 0.000000 0.146230 
#    y 0.000000 5.032040 0.000000 
#    z 0.146230 0.000000 4.424610 
# 
# 
# High freq. dielectric constant tensor:
#      x y z
#    x 1.866610 0.000000 0.017990 
#    y 0.000000 1.884900 0.000000 
#    z 0.017990 0.000000 1.909490 
# 
# From -- ./inp_files/143287.got.cif
#   From: 2010.06.25/outbox.cif.g09.slc.cpg/sg15_72_cif.got.tgz:143287.got - 2010.06.28 07:06:18.
