data_PCOD8154412
_publ_section_title
;
Structure prediction by ZEFSAII (Michael W. Deem and Ramdas Pophale) SiO2 
 PCOD8154412
Probable space group: C 2/C
;
_chemical_formula_sum "Si O2"
_cell_formula_units_Z 40
_cell_length_a 13.724142
_cell_length_b 5.299750
_cell_length_c 22.968547
_cell_angle_alpha 90.000000
_cell_angle_beta 72.295303
_cell_angle_gamma 90.000000
_cell_volume 1591.480607
_symmetry_space_group_name_H-M "C 2/C"
_symmetry_group_IT_number 15
_symmetry_cell_setting 'monoclinic'
loop_
_space_group_symop_operation_xyz
x,y,z
-x,y,1/2-z
-x,-y,-z
x,-y,1/2+z
1/2+x,1/2+y,z
1/2-x,1/2+y,1/2-z
1/2-x,1/2-y,-z
1/2+x,1/2-y,1/2+z
loop_
_atom_site_type_symbol
_atom_site_label
_atom_site_fract_x
_atom_site_fract_y
_atom_site_fract_z
Si Si1 0.625758 0.715132 0.588210
Si Si2 0.814336 0.210991 0.197649
Si Si3 0.100930 0.293030 0.875415
Si Si4 0.306586 0.433661 0.031713
Si Si5 0.885403 0.052837 0.786840
O O1 0.518095 0.859474 0.612309
O O2 0.623700 0.601274 0.523680
O O3 0.627811 0.510325 0.640878
O O4 0.723453 0.896346 0.581189
O O5 0.843301 0.456749 0.155844
O O6 0.690231 0.217510 0.220586
O O7 0.864068 0.957912 0.163841
O O8 0.852955 0.204964 0.258369
O O9 0.124809 0.237051 0.938615
O O10 0.250000 0.250000 0.000000
O O11 0.000000 0.138505 0.750000
#
# Coordination Sequence:
#
# PCOD8154412 Si02
#       5
#     8   8   8   8   8
#     4  11  26  50  78 119 155 218 268 334 409 478
#     4  12  28  51  78 118 157 211 267 336 393 494
#     4  12  27  51  81 114 163 206 272 329 405 481
#     4  11  26  48  81 113 163 210 270 336 396 488
#     4  12  26  53  80 115 164 212 271 334 415 478
#
# _framework density 25.133827
#
# number of rings (size 3 to 8) (size 9 to 14) (size 15 to 20)
#    0.000    0.400    4.000    3.000    5.600    2.400 
#   10.800    0.000    0.000    0.000    0.000    0.000 
#    0.000    0.000    0.000    0.000    0.000    0.000 
#
# Total GULP energy -247842.304691 kJ/mol
# GULP energy per Si atom -12392.115235 kJ/mol
# Density = 2.507662 g / cm^3
# Si number density = 25.133827 Si / 1000 Ang^3
#
#
#
# Elastic Constant Matrix: (Units=GPa)
#
#
# Indices 1 2 3 4 5 6 
#
# 1 156.0137 17.8301 62.7210 -0.0005 -13.0749 -0.0012
# 2 17.8301 90.4161 44.3291 -0.0025 -16.8738 -0.0024
# 3 62.7210 44.3291 150.7598 -0.0010 4.3731 0.0000
# 4 -0.0005 -0.0025 -0.0010 43.0938 -0.0005 12.9076
# 5 -13.0749 -16.8738 4.3731 -0.0005 45.7462 -0.0006
# 6 -0.0012 -0.0024 0.0000 12.9076 -0.0006 28.7458
#
#
#
# Elastic Compliance Matrix: (Units=1/GPa)
#
#
# Indices 1 2 3 4 5 6 
#
# 1 0.008036 0.000749 -0.003648 0.000000 0.002922 0.000000
# 2 0.000749 0.014324 -0.004696 0.000000 0.005947 0.000001
# 3 -0.003648 -0.004696 0.009639 0.000000 -0.003696 -0.000001
# 4 0.000000 0.000000 0.000000 0.026811 0.000000 -0.012039
# 5 0.002922 0.005947 -0.003696 0.000000 0.025242 0.000001
# 6 0.000000 0.000001 -0.000001 -0.012039 0.000001 0.040193
#
#
# Mechanical properties :
#
#
# Convention : Reuss Voigt Hill
#
# Bulk Modulus (GPa) = 59.49244 71.88333 65.68789
# Shear Modulus (GPa) = 34.47374 41.67112 38.07243
#
# Velocity S-wave (km/s) = 3.70754 4.07623 3.89625
# Velocity P-wave (km/s) = 6.48456 7.12857 6.81418
#
# Compressibility (1/GPa) = 0.01680886
#
# Stress axis : x y z
#
# Youngs Moduli (GPa) = 124.44704 69.81072 103.74671
#
# Poissons Ratio (x) = -0.05231 0.37848
# Poissons Ratio (y) = -0.09324 0.48721
# Poissons Ratio (z) = 0.45400 0.32784
#
# Static dielectric constant tensor:
#      x y z
#    x 5.796630 0.000020 -0.150390 
#    y 0.000020 5.306210 -0.000010 
#    z -0.150390 -0.000010 3.842300 
# 
# 
# High freq. dielectric constant tensor:
#      x y z
#    x 2.017120 0.000000 0.003130 
#    y 0.000000 1.973520 0.000000 
#    z 0.003130 0.000000 2.032310 
# 
# From -- ./inp_files/271821.got.cif
#   From: 2010.06.25/outbox.cif.g09.slc.cpg/sg15_136_cif.got.tgz:271821.got - 2010.06.28 07:06:18.
