data_PCOD8154031
_publ_section_title
;
Structure prediction by ZEFSAII (Michael W. Deem and Ramdas Pophale) SiO2 
 PCOD8154031
Probable space group: C 2/C
;
_chemical_formula_sum "Si O2"
_cell_formula_units_Z 40
_cell_length_a 11.117379
_cell_length_b 8.319416
_cell_length_c 18.139367
_cell_angle_alpha 90.000000
_cell_angle_beta 77.660569
_cell_angle_gamma 90.000000
_cell_volume 1638.954615
_symmetry_space_group_name_H-M "C 2/C"
_symmetry_group_IT_number 15
_symmetry_cell_setting 'monoclinic'
loop_
_space_group_symop_operation_xyz
x,y,z
-x,y,1/2-z
-x,-y,-z
x,-y,1/2+z
1/2+x,1/2+y,z
1/2-x,1/2+y,1/2-z
1/2-x,1/2-y,-z
1/2+x,1/2-y,1/2+z
loop_
_atom_site_type_symbol
_atom_site_label
_atom_site_fract_x
_atom_site_fract_y
_atom_site_fract_z
Si Si1 0.044701 0.004129 0.578562
Si Si2 0.455642 0.864084 0.915192
Si Si3 0.628074 0.984921 0.210898
Si Si4 0.652238 0.698804 0.309129
Si Si5 0.312776 0.948739 0.075213
O O1 0.969479 0.881351 0.639961
O O2 0.032923 0.182080 0.614885
O O3 0.189868 0.959946 0.563933
O O4 0.000000 0.000000 0.500000
O O5 0.374230 0.990121 0.877154
O O6 0.596196 0.921468 0.901496
O O7 0.384520 0.856174 0.001407
O O8 0.500000 0.074783 0.250000
O O9 0.380443 0.800981 0.259878
O O10 0.749616 0.065232 0.229349
O O11 0.718148 0.812943 0.360417
#
# Coordination Sequence:
#
# PCOD8154031 Si02
#       5
#     8   8   8   8   8
#     4  12  25  46  81 114 146 194 253 320 372 444
#     4  11  24  49  77 109 157 190 246 318 377 441
#     4  12  28  50  71 107 155 199 244 313 372 458
#     4  12  28  47  75 111 148 200 256 304 380 454
#     4  11  24  49  76 113 146 194 253 310 376 445
#
# _framework density 24.405799999999999
#
# number of rings (size 3 to 8) (size 9 to 14) (size 15 to 20)
#    0.000    0.400    6.000    1.800    2.800    4.000 
#    0.000    0.000    0.000    0.000    0.000    0.000 
#    0.000    0.000    0.000    0.000    0.000    0.000 
#
# Total GULP energy -247940.090915 kJ/mol
# GULP energy per Si atom -12397.004546 kJ/mol
# Density = 2.435025 g / cm^3
# Si number density = 24.405800 Si / 1000 Ang^3
#
#
#
# Elastic Constant Matrix: (Units=GPa)
#
#
# Indices 1 2 3 4 5 6 
#
# 1 183.3613 73.2906 26.5467 0.0000 -7.8205 0.0000
# 2 73.2906 115.6349 58.4723 0.0000 5.3873 0.0000
# 3 26.5467 58.4723 64.4289 0.0000 7.3693 0.0000
# 4 0.0000 0.0000 0.0000 46.9468 0.0000 -4.9547
# 5 -7.8205 5.3873 7.3693 0.0000 47.0253 0.0000
# 6 0.0000 0.0000 0.0000 -4.9547 0.0000 35.8715
#
#
#
# Elastic Compliance Matrix: (Units=1/GPa)
#
#
# Indices 1 2 3 4 5 6 
#
# 1 0.007596 -0.005939 0.002075 0.000000 0.001619 0.000000
# 2 -0.005939 0.020636 -0.016187 0.000000 -0.000815 0.000000
# 3 0.002075 -0.016187 0.029636 0.000000 -0.002445 0.000000
# 4 0.000000 0.000000 0.000000 0.021616 0.000000 0.002986
# 5 0.001619 -0.000815 -0.002445 0.000000 0.022011 0.000000
# 6 0.000000 0.000000 0.000000 0.002986 0.000000 0.028290
#
#
# Mechanical properties :
#
#
# Convention : Reuss Voigt Hill
#
# Bulk Modulus (GPa) = 56.28965 75.56048 65.92506
# Shear Modulus (GPa) = 28.43983 39.64308 34.04145
#
# Velocity S-wave (km/s) = 3.41734 4.03467 3.73877
# Velocity P-wave (km/s) = 6.21973 7.26168 6.76081
#
# Compressibility (1/GPa) = 0.01776526
#
# Stress axis : x y z
#
# Youngs Moduli (GPa) = 131.64289 48.45965 33.74224
#
# Poissons Ratio (x) = 0.28782 -0.07002
# Poissons Ratio (y) = 0.78188 0.54620
# Poissons Ratio (z) = -0.27319 0.78444
#
# Static dielectric constant tensor:
#      x y z
#    x 4.629490 0.000000 0.060580 
#    y 0.000000 4.283470 0.000000 
#    z 0.060580 0.000000 4.453110 
# 
# 
# High freq. dielectric constant tensor:
#      x y z
#    x 1.991010 0.000000 0.001600 
#    y 0.000000 1.956790 0.000000 
#    z 0.001600 0.000000 1.967760 
# 
# From -- ./inp_files/235730.got.cif
#   From: 2010.06.25/outbox.cif.g09.slc.cpg/sg15_118_cif.got.tgz:235730.got - 2010.06.28 07:06:18.
