data_PCOD8154659
_publ_section_title
;
Structure prediction by ZEFSAII (Michael W. Deem and Ramdas Pophale) SiO2 
 PCOD8154659
Probable space group: C 2/C
;
_chemical_formula_sum "Si O2"
_cell_formula_units_Z 48
_cell_length_a 27.937942
_cell_length_b 10.773188
_cell_length_c 22.841857
_cell_angle_alpha 90.000000
_cell_angle_beta 16.625374
_cell_angle_gamma 90.000000
_cell_volume 1967.013125
_symmetry_space_group_name_H-M "C 2/C"
_symmetry_group_IT_number 15
_symmetry_cell_setting 'monoclinic'
loop_
_space_group_symop_operation_xyz
x,y,z
-x,y,1/2-z
-x,-y,-z
x,-y,1/2+z
1/2+x,1/2+y,z
1/2-x,1/2+y,1/2-z
1/2-x,1/2-y,-z
1/2+x,1/2-y,1/2+z
loop_
_atom_site_type_symbol
_atom_site_label
_atom_site_fract_x
_atom_site_fract_y
_atom_site_fract_z
Si Si1 0.189472 0.879280 0.032875
Si Si2 0.339581 0.929361 0.971439
Si Si3 0.231271 0.223216 0.364421
Si Si4 0.322170 0.166534 0.054058
Si Si5 0.288628 0.847289 0.405078
Si Si6 0.945755 0.866431 0.538825
O O1 0.000000 0.832511 0.250000
O O2 0.253199 0.835598 0.023991
O O3 0.284905 0.853519 0.859712
O O4 0.205274 0.026358 0.024085
O O5 0.500000 0.983821 0.750000
O O6 0.372464 0.843809 0.989922
O O7 0.243828 0.052607 0.106601
O O8 0.114422 0.138797 0.458962
O O9 0.399046 0.271727 0.135414
O O10 0.305053 0.298749 0.042840
O O11 0.216200 0.180549 0.237090
O O12 0.515389 0.136876 0.840062
O O13 0.250000 0.750000 0.500000
O O14 0.000000 0.000000 0.500000
#
# Coordination Sequence:
#
# PCOD8154659 Si02
#       6
#     8   8   8   8   8   8
#     4  12  25  42  74 115 148 193 244 310 389 453
#     4  12  22  45  74 106 149 186 243 316 385 437
#     4  12  27  48  76 109 150 195 254 307 376 455
#     4  12  25  46  72 102 147 198 250 308 372 447
#     4  12  24  44  70 107 147 193 248 311 374 445
#     4  12  28  51  76 106 154 206 255 311 375 458
#
# _framework density 24.402481999999999
#
# number of rings (size 3 to 8) (size 9 to 14) (size 15 to 20)
#    0.000    0.000    5.000    5.500    0.000    1.333 
#    0.000    2.500    0.000    0.000    0.000    0.000 
#    0.000    0.000    0.000    0.000    0.000    0.000 
#
# Total GULP energy -297413.917261 kJ/mol
# GULP energy per Si atom -12392.246553 kJ/mol
# Density = 2.434694 g / cm^3
# Si number density = 24.402482 Si / 1000 Ang^3
#
#
#
# Elastic Constant Matrix: (Units=GPa)
#
#
# Indices 1 2 3 4 5 6 
#
# 1 143.4329 39.1517 31.3691 0.0108 -0.0995 -0.0202
# 2 39.1517 59.5068 17.1433 0.0332 8.5264 -0.0304
# 3 31.3691 17.1433 128.6273 0.0099 12.9626 -0.0159
# 4 0.0108 0.0332 0.0099 36.0923 0.0016 0.5701
# 5 -0.0995 8.5264 12.9626 0.0016 44.4845 0.0042
# 6 -0.0202 -0.0304 -0.0159 0.5701 0.0042 45.3318
#
#
#
# Elastic Compliance Matrix: (Units=1/GPa)
#
#
# Indices 1 2 3 4 5 6 
#
# 1 0.008841 -0.005587 -0.001567 0.000003 0.001547 -0.000001
# 2 -0.005587 0.021340 -0.001100 -0.000018 -0.003782 0.000012
# 3 -0.001567 -0.001100 0.008533 -0.000001 -0.002279 0.000002
# 4 0.000003 -0.000018 -0.000001 0.027712 0.000003 -0.000349
# 5 0.001547 -0.003782 -0.002279 0.000003 0.023872 -0.000005
# 6 -0.000001 0.000012 0.000002 -0.000349 -0.000005 0.022064
#
#
# Mechanical properties :
#
#
# Convention : Reuss Voigt Hill
#
# Bulk Modulus (GPa) = 45.03708 56.32169 50.67939
# Shear Modulus (GPa) = 36.69123 41.44193 39.06658
#
# Velocity S-wave (km/s) = 3.88182 4.12547 4.00550
# Velocity P-wave (km/s) = 6.21187 6.76928 6.49656
#
# Compressibility (1/GPa) = 0.02220392
#
# Stress axis : x y z
#
# Youngs Moduli (GPa) = 113.11256 46.86138 117.19220
#
# Poissons Ratio (x) = 0.26181 0.18368
# Poissons Ratio (y) = 0.63194 0.12897
# Poissons Ratio (z) = 0.17729 0.05157
#
# Static dielectric constant tensor:
#      x y z
#    x 4.851240 -0.000080 0.181120 
#    y -0.000080 4.674240 0.000040 
#    z 0.181120 0.000040 4.421670 
# 
# 
# High freq. dielectric constant tensor:
#      x y z
#    x 1.971850 0.000000 0.014310 
#    y 0.000000 1.986940 0.000000 
#    z 0.014310 0.000000 1.969310 
# 
# From -- ./inp_files/257600.got.cif
#   From: 2010.06.25/outbox.cif.g09.slc.cpg/sg15_129_cif.got.tgz:257600.got - 2010.06.28 07:06:18.
