data_PCOD8154346
_publ_section_title
;
Structure prediction by ZEFSAII (Michael W. Deem and Ramdas Pophale) SiO2 
 PCOD8154346
Probable space group: C 2/C
;
_chemical_formula_sum "Si O2"
_cell_formula_units_Z 32
_cell_length_a 23.197523
_cell_length_b 4.872304
_cell_length_c 11.261049
_cell_angle_alpha 90.000000
_cell_angle_beta 76.170419
_cell_angle_gamma 90.000000
_cell_volume 1235.887641
_symmetry_space_group_name_H-M "C 2/C"
_symmetry_group_IT_number 15
_symmetry_cell_setting 'monoclinic'
loop_
_space_group_symop_operation_xyz
x,y,z
-x,y,1/2-z
-x,-y,-z
x,-y,1/2+z
1/2+x,1/2+y,z
1/2-x,1/2+y,1/2-z
1/2-x,1/2-y,-z
1/2+x,1/2-y,1/2+z
loop_
_atom_site_type_symbol
_atom_site_label
_atom_site_fract_x
_atom_site_fract_y
_atom_site_fract_z
Si Si1 0.750347 0.032342 0.830736
Si Si2 0.565877 0.536387 0.919916
Si Si3 0.434160 0.964608 0.237288
Si Si4 0.651877 0.246632 0.048658
O O1 0.748950 0.217850 0.712471
O O2 0.809401 0.084956 0.876234
O O3 0.692216 0.077934 0.937602
O O4 0.577541 0.847230 0.872922
O O5 0.575003 0.347838 0.798872
O O6 0.500000 0.500000 0.000000
O O7 0.612157 0.468948 0.000114
O O8 0.500000 0.021881 0.250000
O O9 0.388705 0.024053 0.365197
#
# Coordination Sequence:
#
# PCOD8154346 Si02
#       4
#     8   8   8   8
#     4  11  26  49  72 107 139 187 247 301 361 425
#     4  12  26  45  68 106 145 189 236 289 356 431
#     4  12  26  44  69 105 145 190 237 289 356 433
#     4  11  26  45  77 102 146 192 236 306 361 428
#
# _framework density 25.892323000000001
#
# number of rings (size 3 to 8) (size 9 to 14) (size 15 to 20)
#    0.000    0.500    2.500    4.500    0.000    8.000 
#    0.000    0.000    0.000    0.000    0.000    0.000 
#    0.000    0.000    0.000    0.000    0.000    0.000 
#
# Total GULP energy -198606.903281 kJ/mol
# GULP energy per Si atom -12412.931455 kJ/mol
# Density = 2.583339 g / cm^3
# Si number density = 25.892323 Si / 1000 Ang^3
#
#
#
# Elastic Constant Matrix: (Units=GPa)
#
#
# Indices 1 2 3 4 5 6 
#
# 1 170.3689 2.7645 52.4646 0.0000 -2.7597 0.0000
# 2 2.7645 60.8748 0.2902 0.0000 6.0496 0.0000
# 3 52.4646 0.2902 111.4188 0.0000 -0.0732 0.0000
# 4 0.0000 0.0000 0.0000 25.6208 0.0000 0.7739
# 5 -2.7597 6.0496 -0.0732 0.0000 43.0532 0.0000
# 6 0.0000 0.0000 0.0000 0.7739 0.0000 24.8892
#
#
#
# Elastic Compliance Matrix: (Units=1/GPa)
#
#
# Indices 1 2 3 4 5 6 
#
# 1 0.006880 -0.000345 -0.003239 0.000000 0.000484 0.000000
# 2 -0.000345 0.016677 0.000118 0.000000 -0.002365 0.000000
# 3 -0.003239 0.000118 0.010500 0.000000 -0.000206 0.000000
# 4 0.000000 0.000000 0.000000 0.039068 0.000000 -0.001215
# 5 0.000484 -0.002365 -0.000206 0.000000 0.023590 0.000000
# 6 0.000000 0.000000 0.000000 -0.001215 0.000000 0.040216
#
#
# Mechanical properties :
#
#
# Convention : Reuss Voigt Hill
#
# Bulk Modulus (GPa) = 36.86638 50.41122 43.63880
# Shear Modulus (GPa) = 32.70007 37.85552 35.27779
#
# Velocity S-wave (km/s) = 3.55762 3.82781 3.69518
# Velocity P-wave (km/s) = 5.58075 6.24884 5.92422
#
# Compressibility (1/GPa) = 0.02712499
#
# Stress axis : x y z
#
# Youngs Moduli (GPa) = 145.34101 59.96168 95.24096
#
# Poissons Ratio (x) = 0.02069 0.30845
# Poissons Ratio (y) = 0.05016 -0.01119
# Poissons Ratio (z) = 0.47070 -0.00705
#
# Static dielectric constant tensor:
#      x y z
#    x 4.989260 0.000000 -0.030570 
#    y 0.000000 4.497540 0.000000 
#    z -0.030570 0.000000 4.872890 
# 
# 
# High freq. dielectric constant tensor:
#      x y z
#    x 2.059050 0.000000 -0.002200 
#    y 0.000000 2.033120 0.000000 
#    z -0.002200 0.000000 2.053840 
# 
# From -- ./inp_files/115372.got.cif
#   From: 2010.06.25/outbox.cif.g09.slc.cpg/sg15_58_cif.got.tgz:115372.got - 2010.06.28 07:06:18.
