data_PCOD8154085
_publ_section_title
;
Structure prediction by ZEFSAII (Michael W. Deem and Ramdas Pophale) SiO2 
 PCOD8154085
Probable space group: C 2/C
;
_chemical_formula_sum "Si O2"
_cell_formula_units_Z 32
_cell_length_a 9.163745
_cell_length_b 15.619753
_cell_length_c 10.512385
_cell_angle_alpha 90.000000
_cell_angle_beta 66.277110
_cell_angle_gamma 90.000000
_cell_volume 1377.550993
_symmetry_space_group_name_H-M "C 2/C"
_symmetry_group_IT_number 15
_symmetry_cell_setting 'monoclinic'
loop_
_space_group_symop_operation_xyz
x,y,z
-x,y,1/2-z
-x,-y,-z
x,-y,1/2+z
1/2+x,1/2+y,z
1/2-x,1/2+y,1/2-z
1/2-x,1/2-y,-z
1/2+x,1/2-y,1/2+z
loop_
_atom_site_type_symbol
_atom_site_label
_atom_site_fract_x
_atom_site_fract_y
_atom_site_fract_z
Si Si1 0.105138 0.100715 0.026565
Si Si2 0.284364 0.580355 0.008492
Si Si3 0.000000 0.769715 0.750000
Si Si4 0.286456 0.689235 0.758431
Si Si5 0.500000 0.838892 0.750000
O O1 0.126134 0.173958 0.124749
O O2 0.198406 0.017213 0.047123
O O3 0.178572 0.123160 0.865319
O O4 0.914312 0.088409 0.075976
O O5 0.324850 0.646081 0.880568
O O6 0.107801 0.600222 0.122772
O O7 0.099476 0.711857 0.813873
O O8 0.386828 0.776507 0.707314
#
# Coordination Sequence:
#
# PCOD8154085 Si02
#       5
#     8   8   4   8   4
#     4  11  25  44  70 106 139 182 229 289 346 411
#     4  11  25  43  74 102 140 183 233 282 349 410
#     4  12  26  44  70 108 144 176 234 288 344 406
#     4  12  24  46  73 103 141 184 231 285 342 413
#     4  12  22  44  72 104 134 184 234 274 342 416
#
# _framework density 23.22963
#
# number of rings (size 3 to 8) (size 9 to 14) (size 15 to 20)
#    0.000    0.500    5.000    3.000    7.000    1.000 
#    0.000    3.750    0.000    0.000    0.000    0.000 
#    0.000    0.000    0.000    0.000    0.000    0.000 
#
# Total GULP energy -198413.836603 kJ/mol
# GULP energy per Si atom -12400.864788 kJ/mol
# Density = 2.317676 g / cm^3
# Si number density = 23.229630 Si / 1000 Ang^3
#
#
#
# Elastic Constant Matrix: (Units=GPa)
#
#
# Indices 1 2 3 4 5 6 
#
# 1 106.7733 62.4540 25.5000 0.0000 -7.8012 0.0000
# 2 62.4540 109.6695 38.7173 0.0000 -8.0008 0.0000
# 3 25.5000 38.7173 110.8755 0.0000 -15.7916 0.0000
# 4 0.0000 0.0000 0.0000 40.7961 0.0000 -3.7902
# 5 -7.8012 -8.0008 -15.7916 0.0000 35.0633 0.0000
# 6 0.0000 0.0000 0.0000 -3.7902 0.0000 33.7354
#
#
#
# Elastic Compliance Matrix: (Units=1/GPa)
#
#
# Indices 1 2 3 4 5 6 
#
# 1 0.014115 -0.007830 -0.000341 0.000000 0.001200 0.000000
# 2 -0.007830 0.014765 -0.003337 0.000000 0.000124 0.000000
# 3 -0.000341 -0.003337 0.010839 0.000000 0.004044 0.000000
# 4 0.000000 0.000000 0.000000 0.024771 0.000000 0.002783
# 5 0.001200 0.000124 0.004044 0.000000 0.030636 0.000000
# 6 0.000000 0.000000 0.000000 0.002783 0.000000 0.029955
#
#
# Mechanical properties :
#
#
# Convention : Reuss Voigt Hill
#
# Bulk Modulus (GPa) = 59.87501 64.51788 62.19644
# Shear Modulus (GPa) = 32.53846 35.29545 33.91696
#
# Velocity S-wave (km/s) = 3.74669 3.90220 3.82524
# Velocity P-wave (km/s) = 6.67444 6.93809 6.80754
#
# Compressibility (1/GPa) = 0.01670146
#
# Stress axis : x y z
#
# Youngs Moduli (GPa) = 70.84795 67.72996 92.26010
#
# Poissons Ratio (x) = 0.53033 0.03147
# Poissons Ratio (y) = 0.55474 0.30790
# Poissons Ratio (z) = 0.02416 0.22603
#
# Static dielectric constant tensor:
#      x y z
#    x 4.192420 0.000000 -0.057090 
#    y 0.000000 4.306810 0.000000 
#    z -0.057090 0.000000 3.884950 
# 
# 
# High freq. dielectric constant tensor:
#      x y z
#    x 1.915460 0.000000 -0.002440 
#    y 0.000000 1.921790 0.000000 
#    z -0.002440 0.000000 1.910480 
# 
# From -- ./inp_files/75560.got.cif
#   From: 2010.06.25/outbox.cif.g09.slc.cpg/sg15_38_cif.got.tgz:75560.got - 2010.06.28 07:06:18.
