data_PCOD8154826
_publ_section_title
;
Structure prediction by ZEFSAII (Michael W. Deem and Ramdas Pophale) SiO2 
 PCOD8154826
Probable space group: C 2/C
;
_chemical_formula_sum "Si O2"
_cell_formula_units_Z 56
_cell_length_a 9.053558
_cell_length_b 14.748661
_cell_length_c 22.092605
_cell_angle_alpha 90.000000
_cell_angle_beta 124.038752
_cell_angle_gamma 90.000000
_cell_volume 2444.526511
_symmetry_space_group_name_H-M "C 2/C"
_symmetry_group_IT_number 15
_symmetry_cell_setting 'monoclinic'
loop_
_space_group_symop_operation_xyz
x,y,z
-x,y,1/2-z
-x,-y,-z
x,-y,1/2+z
1/2+x,1/2+y,z
1/2-x,1/2+y,1/2-z
1/2-x,1/2-y,-z
1/2+x,1/2-y,1/2+z
loop_
_atom_site_type_symbol
_atom_site_label
_atom_site_fract_x
_atom_site_fract_y
_atom_site_fract_z
Si Si1 0.108657 0.681761 0.219058
Si Si2 0.586026 0.826356 0.332258
Si Si3 0.358812 0.581274 0.467573
Si Si4 0.471650 0.339487 0.382915
Si Si5 0.023960 0.506058 0.137570
Si Si6 0.539112 0.337878 0.634163
Si Si7 0.893577 0.003757 0.665150
O O1 0.053618 0.736125 0.145682
O O2 0.069344 0.576208 0.201054
O O3 0.315103 0.690099 0.282320
O O4 0.000000 0.722118 0.250000
O O5 0.500000 0.790713 0.250000
O O6 0.780188 0.869717 0.364959
O O7 0.596338 0.746960 0.386615
O O8 0.468261 0.907454 0.331208
O O9 0.500000 0.500000 0.500000
O O10 0.387795 0.649611 0.530470
O O11 0.373348 0.647096 0.411943
O O12 0.166279 0.535202 0.433415
O O13 0.537361 0.398987 0.341370
O O14 0.180399 0.503127 0.123520
O O15 0.439475 0.431176 0.624379
O O16 0.000000 0.978375 0.750000
#
# Coordination Sequence:
#
# PCOD8154826 Si02
#       7
#     8   8   8   8   8   8   8
#     4  12  25  46  75 110 140 190 245 309 362 424
#     4  12  24  43  74 110 138 192 247 302 363 427
#     4  12  26  52  70 105 148 204 235 296 373 447
#     4  12  27  47  73 101 155 187 243 298 367 440
#     4  12  26  43  75 107 145 192 247 297 369 432
#     4  12  25  46  76 107 147 185 250 301 365 440
#     4  12  24  43  74 111 141 189 248 312 356 422
#
# _framework density 22.908321000000001
#
# number of rings (size 3 to 8) (size 9 to 14) (size 15 to 20)
#    0.000    0.000    7.143    3.000    2.000    1.714 
#    0.000    0.000    0.000    0.000    0.000    0.000 
#    0.000    0.000    0.000    0.000    0.000    0.000 
#
# Total GULP energy -347183.948451 kJ/mol
# GULP energy per Si atom -12399.426730 kJ/mol
# Density = 2.285618 g / cm^3
# Si number density = 22.908321 Si / 1000 Ang^3
#
#
#
# Elastic Constant Matrix: (Units=GPa)
#
#
# Indices 1 2 3 4 5 6 
#
# 1 145.6376 31.3963 34.4839 0.0000 15.1516 0.0000
# 2 31.3963 106.4043 30.5004 0.0000 -13.7716 0.0000
# 3 34.4839 30.5004 87.8407 0.0000 -0.7761 0.0000
# 4 0.0000 0.0000 0.0000 35.0886 0.0000 -9.8319
# 5 15.1516 -13.7716 -0.7761 0.0000 34.8143 0.0000
# 6 0.0000 0.0000 0.0000 -9.8319 0.0000 43.6730
#
#
#
# Elastic Compliance Matrix: (Units=1/GPa)
#
#
# Indices 1 2 3 4 5 6 
#
# 1 0.008467 -0.002376 -0.002540 0.000000 -0.004682 0.000000
# 2 -0.002376 0.011707 -0.003083 0.000000 0.005596 0.000000
# 3 -0.002540 -0.003083 0.013454 0.000000 0.000186 0.000000
# 4 0.000000 0.000000 0.000000 0.030418 0.000000 0.006848
# 5 -0.004682 0.005596 0.000186 0.000000 0.032979 0.000000
# 6 0.000000 0.000000 0.000000 0.006848 0.000000 0.024439
#
#
# Mechanical properties :
#
#
# Convention : Reuss Voigt Hill
#
# Bulk Modulus (GPa) = 56.72299 59.18265 57.95282
# Shear Modulus (GPa) = 34.88228 38.94866 36.91547
#
# Velocity S-wave (km/s) = 3.90640 4.12782 4.01863
# Velocity P-wave (km/s) = 6.72021 6.97203 6.84728
#
# Compressibility (1/GPa) = 0.01762954
#
# Stress axis : x y z
#
# Youngs Moduli (GPa) = 118.10369 85.41719 74.32976
#
# Poissons Ratio (x) = 0.20296 0.18882
# Poissons Ratio (y) = 0.28063 0.22914
# Poissons Ratio (z) = 0.30002 0.26332
#
# Static dielectric constant tensor:
#      x y z
#    x 4.352730 0.000000 0.094320 
#    y 0.000000 3.985080 0.000000 
#    z 0.094320 0.000000 3.951200 
# 
# 
# High freq. dielectric constant tensor:
#      x y z
#    x 1.922390 0.000000 0.001780 
#    y 0.000000 1.910390 0.000000 
#    z 0.001780 0.000000 1.883290 
# 
# From -- ./inp_files/264792.got.cif
#   From: 2010.06.25/outbox.cif.g09.slc.cpg/sg15_133_cif.got.tgz:264792.got - 2010.06.28 07:06:18.
