data_PCOD8154862
_publ_section_title
;
Structure prediction by ZEFSAII (Michael W. Deem and Ramdas Pophale) SiO2 
 PCOD8154862
Probable space group: C 2/C
;
_chemical_formula_sum "Si O2"
_cell_formula_units_Z 60
_cell_length_a 25.894791
_cell_length_b 8.852897
_cell_length_c 24.750521
_cell_angle_alpha 90.000000
_cell_angle_beta 28.312055
_cell_angle_gamma 90.000000
_cell_volume 2690.983164
_symmetry_space_group_name_H-M "C 2/C"
_symmetry_group_IT_number 15
_symmetry_cell_setting 'monoclinic'
loop_
_space_group_symop_operation_xyz
x,y,z
-x,y,1/2-z
-x,-y,-z
x,-y,1/2+z
1/2+x,1/2+y,z
1/2-x,1/2+y,1/2-z
1/2-x,1/2-y,-z
1/2+x,1/2-y,1/2+z
loop_
_atom_site_type_symbol
_atom_site_label
_atom_site_fract_x
_atom_site_fract_y
_atom_site_fract_z
Si Si1 0.109496 0.993651 0.023978
Si Si2 0.197572 0.341049 0.096250
Si Si3 0.969059 0.719636 0.172458
Si Si4 0.729005 0.965312 0.811243
Si Si5 0.250190 0.806908 0.816585
Si Si6 0.000000 0.532053 0.250000
Si Si7 0.016554 0.524348 0.547671
Si Si8 0.914499 0.792717 0.696771
O O1 0.150428 0.906399 0.932415
O O2 0.215635 0.040457 0.959839
O O3 0.025725 0.880600 0.130790
O O4 0.037327 0.143653 0.082888
O O5 0.105794 0.430295 0.148943
O O6 0.142743 0.232776 0.192452
O O7 0.250000 0.250000 0.000000
O O8 0.839560 0.729871 0.280650
O O9 0.994134 0.630342 0.202680
O O10 0.023272 0.635678 0.071749
O O11 0.700075 0.908324 0.777449
O O12 0.846041 0.906301 0.722331
O O13 0.716647 0.147054 0.821686
O O14 0.638580 0.902560 0.936971
O O15 0.000000 0.500000 0.500000
O O16 0.924903 0.628328 0.659750
#
# Coordination Sequence:
#
# PCOD8154862 Si02
#       8
#     8   8   8   8   8   4   8   8
#     4  12  27  49  77 107 154 197 253 321 380 453
#     4  12  28  49  77 110 149 198 259 321 384 455
#     4  12  26  48  71 109 152 193 253 311 376 454
#     4  12  27  42  76 106 154 201 245 309 378 455
#     4  12  26  47  69 114 153 198 252 308 377 461
#     4  12  26  48  78 102 148 198 252 324 378 452
#     4  12  24  45  72 105 152 197 238 307 382 445
#     4  12  27  47  75 112 148 200 254 309 382 466
#
# _framework density 22.296685
#
# number of rings (size 3 to 8) (size 9 to 14) (size 15 to 20)
#    0.000    0.000    6.667    2.400    5.600    2.133 
#    0.000    0.000    0.000    0.000    0.000    0.000 
#    0.000    0.000    0.000    0.000    0.000    0.000 
#
# Total GULP energy -371899.264350 kJ/mol
# GULP energy per Si atom -12396.642145 kJ/mol
# Density = 2.224594 g / cm^3
# Si number density = 22.296685 Si / 1000 Ang^3
#
#
#
# Elastic Constant Matrix: (Units=GPa)
#
#
# Indices 1 2 3 4 5 6 
#
# 1 112.7790 44.2260 33.6393 -0.0022 -0.9123 0.0022
# 2 44.2260 114.4524 46.0658 0.0020 10.2501 0.0038
# 3 33.6393 46.0658 111.5853 0.0035 2.6594 0.0019
# 4 -0.0022 0.0020 0.0035 50.2181 0.0010 -7.5668
# 5 -0.9123 10.2501 2.6594 0.0010 45.7310 -0.0015
# 6 0.0022 0.0038 0.0019 -7.5668 -0.0015 46.8261
#
#
#
# Elastic Compliance Matrix: (Units=1/GPa)
#
#
# Indices 1 2 3 4 5 6 
#
# 1 0.010809 -0.003543 -0.001822 0.000001 0.001116 0.000000
# 2 -0.003543 0.011845 -0.003762 0.000000 -0.002507 -0.000001
# 3 -0.001822 -0.003762 0.011060 -0.000001 0.000164 0.000000
# 4 0.000001 0.000000 -0.000001 0.020410 0.000000 0.003298
# 5 0.001116 -0.002507 0.000164 0.000000 0.022442 0.000001
# 6 0.000000 -0.000001 0.000000 0.003298 0.000001 0.021889
#
#
# Mechanical properties :
#
#
# Convention : Reuss Voigt Hill
#
# Bulk Modulus (GPa) = 64.68709 65.18653 64.93681
# Shear Modulus (GPa) = 41.02965 42.88076 41.95520
#
# Velocity S-wave (km/s) = 4.29437 4.39018 4.34254
# Velocity P-wave (km/s) = 7.32556 7.41604 7.37094
#
# Compressibility (1/GPa) = 0.01545904
#
# Stress axis : x y z
#
# Youngs Moduli (GPa) = 92.51600 84.42303 90.41288
#
# Poissons Ratio (x) = 0.29912 0.16477
# Poissons Ratio (y) = 0.32780 0.34015
# Poissons Ratio (z) = 0.16860 0.31761
#
# Static dielectric constant tensor:
#      x y z
#    x 3.792040 -0.000010 -0.203240 
#    y -0.000010 4.130740 0.000000 
#    z -0.203240 0.000000 4.448790 
# 
# 
# High freq. dielectric constant tensor:
#      x y z
#    x 1.877320 0.000000 -0.014800 
#    y 0.000000 1.887710 0.000000 
#    z -0.014800 0.000000 1.896070 
# 
# From -- ./inp_files/283367.got.cif
#   From: 2010.06.25/outbox.cif.g09.slc.cpg/sg15_142_cif.got.tgz:283367.got - 2010.06.28 07:06:18.
