data_PCOD8154597
_publ_section_title
;
Structure prediction by ZEFSAII (Michael W. Deem and Ramdas Pophale) SiO2 
 PCOD8154597
Probable space group: C 2/C
;
_chemical_formula_sum "Si O2"
_cell_formula_units_Z 44
_cell_length_a 11.867164
_cell_length_b 19.119867
_cell_length_c 9.544643
_cell_angle_alpha 90.000000
_cell_angle_beta 112.222789
_cell_angle_gamma 90.000000
_cell_volume 2004.800924
_symmetry_space_group_name_H-M "C 2/C"
_symmetry_group_IT_number 15
_symmetry_cell_setting 'monoclinic'
loop_
_space_group_symop_operation_xyz
x,y,z
-x,y,1/2-z
-x,-y,-z
x,-y,1/2+z
1/2+x,1/2+y,z
1/2-x,1/2+y,1/2-z
1/2-x,1/2-y,-z
1/2+x,1/2-y,1/2+z
loop_
_atom_site_type_symbol
_atom_site_label
_atom_site_fract_x
_atom_site_fract_y
_atom_site_fract_z
Si Si1 0.409293 0.354868 0.834499
Si Si2 0.918482 0.879215 0.341571
Si Si3 0.000000 0.341943 0.750000
Si Si4 0.720978 0.749127 0.821946
Si Si5 0.893524 0.536890 0.033242
Si Si6 0.737550 0.502041 0.210805
O O1 0.500000 0.365660 0.750000
O O2 0.330406 0.283887 0.784120
O O3 0.316755 0.420224 0.803726
O O4 0.490216 0.342435 0.009100
O O5 0.806167 0.828828 0.245378
O O6 0.865102 0.948534 0.391994
O O7 0.000000 0.902945 0.250000
O O8 0.898454 0.293597 0.770527
O O9 0.939949 0.385805 0.593890
O O10 0.750000 0.750000 0.000000
O O11 0.854825 0.501720 0.163220
O O12 0.775320 0.531608 0.878528
O O13 0.000000 0.500000 0.000000
#
# Coordination Sequence:
#
# PCOD8154597 Si02
#       6
#     8   8   4   8   8   8
#     4  12  25  45  68 101 139 178 224 284 344 403
#     4  12  24  42  70 100 132 181 231 274 341 412
#     4  12  22  42  70  96 136 182 226 276 338 410
#     4  12  23  46  71  99 134 185 231 278 339 415
#     4  12  22  41  65 100 132 180 225 278 338 400
#     4  12  24  42  67 100 140 175 226 285 339 405
#
# _framework density 21.947317000000002
#
# number of rings (size 3 to 8) (size 9 to 14) (size 15 to 20)
#    0.000    0.000    6.364    4.364    0.000    0.727 
#    0.000    3.636    0.000    0.000    0.000    0.000 
#    0.000    0.000    0.000    0.000    0.000    0.000 
#
# Total GULP energy -272795.574156 kJ/mol
# GULP energy per Si atom -12399.798825 kJ/mol
# Density = 2.189736 g / cm^3
# Si number density = 21.947317 Si / 1000 Ang^3
#
#
#
# Elastic Constant Matrix: (Units=GPa)
#
#
# Indices 1 2 3 4 5 6 
#
# 1 134.9776 47.5000 19.7105 0.0000 -20.4010 0.0000
# 2 47.5000 104.7264 10.3602 0.0000 -4.1276 0.0000
# 3 19.7105 10.3602 93.1377 0.0000 1.5027 0.0000
# 4 0.0000 0.0000 0.0000 39.9682 0.0000 24.4280
# 5 -20.4010 -4.1276 1.5027 0.0000 40.6221 0.0000
# 6 0.0000 0.0000 0.0000 24.4280 0.0000 53.5213
#
#
#
# Elastic Compliance Matrix: (Units=1/GPa)
#
#
# Indices 1 2 3 4 5 6 
#
# 1 0.009784 -0.004091 -0.001689 0.000000 0.004561 0.000000
# 2 -0.004091 0.011408 -0.000389 0.000000 -0.000881 0.000000
# 3 -0.001689 -0.000389 0.011159 0.000000 -0.001301 0.000000
# 4 0.000000 0.000000 0.000000 0.034699 0.000000 -0.015837
# 5 0.004561 -0.000881 -0.001301 0.000000 0.026866 0.000000
# 6 0.000000 0.000000 0.000000 -0.015837 0.000000 0.025913
#
#
# Mechanical properties :
#
#
# Convention : Reuss Voigt Hill
#
# Bulk Modulus (GPa) = 49.96859 54.22034 52.09447
# Shear Modulus (GPa) = 36.01322 43.84037 39.92679
#
# Velocity S-wave (km/s) = 4.05519 4.47422 4.26985
# Velocity P-wave (km/s) = 6.68902 7.17286 6.93516
#
# Compressibility (1/GPa) = 0.02001257
#
# Stress axis : x y z
#
# Youngs Moduli (GPa) = 102.20520 87.65831 89.61760
#
# Poissons Ratio (x) = 0.35860 0.15138
# Poissons Ratio (y) = 0.41811 0.03486
# Poissons Ratio (z) = 0.17264 0.03410
#
# Static dielectric constant tensor:
#      x y z
#    x 4.021290 0.000000 0.386480 
#    y 0.000000 4.019040 0.000000 
#    z 0.386480 0.000000 4.073590 
# 
# 
# High freq. dielectric constant tensor:
#      x y z
#    x 1.877620 0.000000 0.018640 
#    y 0.000000 1.862610 0.000000 
#    z 0.018640 0.000000 1.861760 
# 
# From -- ./inp_files/30738.got.cif
#   From: 2010.06.25/outbox.cif.g09.slc.cpg/sg15_16_cif.got.tgz:30738.got - 2010.06.28 07:06:18.
