data_PCOD8154385
_publ_section_title
;
Structure prediction by ZEFSAII (Michael W. Deem and Ramdas Pophale) SiO2 
 PCOD8154385
Probable space group: C 2/C
;
_chemical_formula_sum "Si O2"
_cell_formula_units_Z 32
_cell_length_a 18.138924
_cell_length_b 5.438151
_cell_length_c 13.742617
_cell_angle_alpha 90.000000
_cell_angle_beta 74.568563
_cell_angle_gamma 90.000000
_cell_volume 1306.732021
_symmetry_space_group_name_H-M "C 2/C"
_symmetry_group_IT_number 15
_symmetry_cell_setting 'monoclinic'
loop_
_space_group_symop_operation_xyz
x,y,z
-x,y,1/2-z
-x,-y,-z
x,-y,1/2+z
1/2+x,1/2+y,z
1/2-x,1/2+y,1/2-z
1/2-x,1/2-y,-z
1/2+x,1/2-y,1/2+z
loop_
_atom_site_type_symbol
_atom_site_label
_atom_site_fract_x
_atom_site_fract_y
_atom_site_fract_z
Si Si1 0.763684 0.600729 0.186987
Si Si2 0.088915 0.743729 0.455934
Si Si3 0.464125 0.109302 0.363716
Si Si4 0.323349 0.592380 0.946974
O O1 0.743212 0.353892 0.252436
O O2 0.849849 0.561734 0.116455
O O3 0.704788 0.621765 0.116545
O O4 0.050665 0.629138 0.565364
O O5 0.021528 0.796244 0.401604
O O6 0.136271 0.986568 0.470083
O O7 0.500000 0.019803 0.250000
O O8 0.384713 0.242922 0.368038
O O9 0.250000 0.750000 0.000000
#
# Coordination Sequence:
#
# PCOD8154385 Si02
#       4
#     8   8   8   8
#     4  12  27  46  81 115 154 202 263 316 389 466
#     4  11  26  47  75 107 159 195 259 321 392 464
#     4  11  26  47  73 110 151 204 258 314 399 463
#     4  12  25  47  77 108 153 205 259 326 387 459
#
# _framework density 24.488569999999999
#
# number of rings (size 3 to 8) (size 9 to 14) (size 15 to 20)
#    0.000    0.500    2.500    4.500    7.000    1.000 
#    4.500    0.000    0.000    0.000    0.000    0.000 
#    0.000    0.000    0.000    0.000    0.000    0.000 
#
# Total GULP energy -198415.817141 kJ/mol
# GULP energy per Si atom -12400.988571 kJ/mol
# Density = 2.443283 g / cm^3
# Si number density = 24.488570 Si / 1000 Ang^3
#
#
#
# Elastic Constant Matrix: (Units=GPa)
#
#
# Indices 1 2 3 4 5 6 
#
# 1 156.6150 37.0065 61.2391 0.0000 -18.9589 0.0000
# 2 37.0065 98.3299 45.5058 0.0000 -4.7055 0.0000
# 3 61.2391 45.5058 167.0164 0.0000 -22.8986 0.0000
# 4 0.0000 0.0000 0.0000 22.9539 0.0000 7.8077
# 5 -18.9589 -4.7055 -22.8986 0.0000 39.7466 0.0000
# 6 0.0000 0.0000 0.0000 7.8077 0.0000 45.8947
#
#
#
# Elastic Compliance Matrix: (Units=1/GPa)
#
#
# Indices 1 2 3 4 5 6 
#
# 1 0.007931 -0.001918 -0.002061 0.000000 0.002369 0.000000
# 2 -0.001918 0.012110 -0.002742 0.000000 -0.001061 0.000000
# 3 -0.002061 -0.002742 0.007938 0.000000 0.003266 0.000000
# 4 0.000000 0.000000 0.000000 0.046241 0.000000 -0.007867
# 5 0.002369 -0.001061 0.003266 0.000000 0.028045 0.000000
# 6 0.000000 0.000000 0.000000 -0.007867 0.000000 0.023127
#
#
# Mechanical properties :
#
#
# Convention : Reuss Voigt Hill
#
# Bulk Modulus (GPa) = 68.78546 78.82936 73.80741
# Shear Modulus (GPa) = 34.80007 40.26638 37.53322
#
# Velocity S-wave (km/s) = 3.77380 4.05939 3.91920
# Velocity P-wave (km/s) = 6.86575 7.36421 7.11935
#
# Compressibility (1/GPa) = 0.01453796
#
# Stress axis : x y z
#
# Youngs Moduli (GPa) = 126.09208 82.57880 125.98056
#
# Poissons Ratio (x) = 0.15836 0.25960
# Poissons Ratio (y) = 0.24181 0.34540
# Poissons Ratio (z) = 0.25983 0.22641
#
# Static dielectric constant tensor:
#      x y z
#    x 5.091590 0.000000 0.083780 
#    y 0.000000 3.973490 0.000000 
#    z 0.083780 0.000000 4.646070 
# 
# 
# High freq. dielectric constant tensor:
#      x y z
#    x 2.002690 0.000000 -0.005960 
#    y 0.000000 1.946670 0.000000 
#    z -0.005960 0.000000 1.983060 
# 
# From -- ./inp_files/158158.got.cif
#   From: 2010.06.25/outbox.cif.g09.slc.cpg/sg15_80_cif.got.tgz:158158.got - 2010.06.28 07:06:18.
