data_PCOD8154829
_publ_section_title
;
Structure prediction by ZEFSAII (Michael W. Deem and Ramdas Pophale) SiO2 
 PCOD8154829
Probable space group: C 2/C
;
_chemical_formula_sum "Si O2"
_cell_formula_units_Z 40
_cell_length_a 25.461350
_cell_length_b 7.481886
_cell_length_c 9.667545
_cell_angle_alpha 90.000000
_cell_angle_beta 88.772461
_cell_angle_gamma 90.000000
_cell_volume 1841.234207
_symmetry_space_group_name_H-M "C 2/C"
_symmetry_group_IT_number 15
_symmetry_cell_setting 'monoclinic'
loop_
_space_group_symop_operation_xyz
x,y,z
-x,y,1/2-z
-x,-y,-z
x,-y,1/2+z
1/2+x,1/2+y,z
1/2-x,1/2+y,1/2-z
1/2-x,1/2-y,-z
1/2+x,1/2-y,1/2+z
loop_
_atom_site_type_symbol
_atom_site_label
_atom_site_fract_x
_atom_site_fract_y
_atom_site_fract_z
Si Si1 0.290861 0.724643 0.614679
Si Si2 0.037462 0.042387 0.873674
Si Si3 0.899131 0.369344 0.516098
Si Si4 0.892958 0.302058 0.193534
Si Si5 0.720775 0.317524 0.865586
O O1 0.250000 0.750000 0.500000
O O2 0.340165 0.838786 0.567077
O O3 0.303110 0.515496 0.625662
O O4 0.267658 0.809935 0.753887
O O5 0.067721 0.219462 0.910912
O O6 0.000000 0.086829 0.750000
O O7 0.078690 0.886046 0.834939
O O8 0.000000 0.000000 0.000000
O O9 0.905049 0.367044 0.349487
O O10 0.916861 0.559918 0.579373
O O11 0.829979 0.297904 0.174080
O O12 0.750000 0.250000 0.000000
#
# Coordination Sequence:
#
# PCOD8154829 Si02
#       5
#     8   8   8   8   8
#     4  12  24  44  67 105 147 195 243 295 365 444
#     4  12  28  52  81 109 145 197 255 315 377 433
#     4  12  28  48  75 109 155 193 252 309 374 449
#     4  12  28  49  74 112 150 198 250 309 373 448
#     4  12  26  42  71 105 150 195 245 299 367 445
#
# _framework density 21.724558999999999
#
# number of rings (size 3 to 8) (size 9 to 14) (size 15 to 20)
#    0.000    0.000    6.000    3.600    5.600    1.600 
#    0.000    0.000    0.000    0.000    0.000    0.000 
#    0.000    0.000    0.000    0.000    0.000    0.000 
#
# Total GULP energy -247988.306691 kJ/mol
# GULP energy per Si atom -12399.415335 kJ/mol
# Density = 2.167511 g / cm^3
# Si number density = 21.724559 Si / 1000 Ang^3
#
#
#
# Elastic Constant Matrix: (Units=GPa)
#
#
# Indices 1 2 3 4 5 6 
#
# 1 104.3992 11.8847 40.5746 0.0000 18.9482 0.0000
# 2 11.8847 98.2003 13.5684 0.0000 20.0512 0.0000
# 3 40.5746 13.5684 154.7940 0.0000 20.8619 0.0000
# 4 0.0000 0.0000 0.0000 38.1383 0.0000 7.0073
# 5 18.9482 20.0512 20.8619 0.0000 44.8804 0.0000
# 6 0.0000 0.0000 0.0000 7.0073 0.0000 20.3817
#
#
#
# Elastic Compliance Matrix: (Units=1/GPa)
#
#
# Indices 1 2 3 4 5 6 
#
# 1 0.011189 -0.000313 -0.002440 0.000000 -0.003450 0.000000
# 2 -0.000313 0.011230 -0.000260 0.000000 -0.004764 0.000000
# 3 -0.002440 -0.000260 0.007434 0.000000 -0.002309 0.000000
# 4 0.000000 0.000000 0.000000 0.027988 0.000000 -0.009623
# 5 -0.003450 -0.004764 -0.002309 0.000000 0.026940 0.000000
# 6 0.000000 0.000000 0.000000 -0.009623 0.000000 0.052372
#
#
# Mechanical properties :
#
#
# Convention : Reuss Voigt Hill
#
# Bulk Modulus (GPa) = 41.97124 54.38321 48.17722
# Shear Modulus (GPa) = 33.08608 40.10448 36.59528
#
# Velocity S-wave (km/s) = 3.90677 4.30122 4.10873
# Velocity P-wave (km/s) = 6.30176 7.05370 6.68831
#
# Compressibility (1/GPa) = 0.02382584
#
# Stress axis : x y z
#
# Youngs Moduli (GPa) = 89.37499 89.04838 134.51920
#
# Poissons Ratio (x) = 0.02783 0.32829
# Poissons Ratio (y) = 0.02793 0.03502
# Poissons Ratio (z) = 0.21812 0.02318
#
# Static dielectric constant tensor:
#      x y z
#    x 3.905210 0.000000 0.114140 
#    y 0.000000 5.279500 0.000000 
#    z 0.114140 0.000000 4.043570 
# 
# 
# High freq. dielectric constant tensor:
#      x y z
#    x 1.862510 0.000000 0.005150 
#    y 0.000000 1.868940 0.000000 
#    z 0.005150 0.000000 1.871710 
# 
# From -- ./inp_files/59950.got.cif
#   From: 2010.06.25/outbox.cif.g09.slc.cpg/sg15_30_cif.got.tgz:59950.got - 2010.06.28 07:06:18.
