data_PCOD8154234
_publ_section_title
;
Structure prediction by ZEFSAII (Michael W. Deem and Ramdas Pophale) SiO2 
 PCOD8154234
Probable space group: C 2/C
;
_chemical_formula_sum "Si O2"
_cell_formula_units_Z 24
_cell_length_a 5.095436
_cell_length_b 26.699026
_cell_length_c 9.163964
_cell_angle_alpha 90.000000
_cell_angle_beta 59.355174
_cell_angle_gamma 90.000000
_cell_volume 1072.585769
_symmetry_space_group_name_H-M "C 2/C"
_symmetry_group_IT_number 15
_symmetry_cell_setting 'monoclinic'
loop_
_space_group_symop_operation_xyz
x,y,z
-x,y,1/2-z
-x,-y,-z
x,-y,1/2+z
1/2+x,1/2+y,z
1/2-x,1/2+y,1/2-z
1/2-x,1/2-y,-z
1/2+x,1/2-y,1/2+z
loop_
_atom_site_type_symbol
_atom_site_label
_atom_site_fract_x
_atom_site_fract_y
_atom_site_fract_z
Si Si1 0.853491 0.956547 0.634489
Si Si2 0.500000 0.723862 0.250000
Si Si3 0.682515 0.653967 0.426271
Si Si4 0.500000 0.708789 0.750000
O O1 0.500000 0.968307 0.750000
O O2 0.918309 0.903740 0.536645
O O3 0.000000 0.954479 0.750000
O O4 0.000000 0.000000 0.500000
O O5 0.434241 0.687270 0.407345
O O6 0.206721 0.757416 0.296818
O O7 0.706216 0.674424 0.585027
O O8 0.000000 0.659320 0.250000
#
# Coordination Sequence:
#
# PCOD8154234 Si02
#       4
#     8   4   8   4
#     4  11  25  47  73 102 138 178 228 290 350 409
#     4  12  24  46  65 102 141 180 228 280 334 402
#     4  11  26  46  70 100 141 179 227 284 341 401
#     4  12  28  40  71 102 135 186 230 270 336 416
#
# _framework density 22.375834000000001
#
# number of rings (size 3 to 8) (size 9 to 14) (size 15 to 20)
#    0.000    0.667    3.333    3.000    7.000    0.000 
#    3.000    0.000    0.000    0.000    0.000    0.000 
#    0.000    0.000    0.000    0.000    0.000    0.000 
#
# Total GULP energy -148790.472397 kJ/mol
# GULP energy per Si atom -12399.206033 kJ/mol
# Density = 2.232491 g / cm^3
# Si number density = 22.375834 Si / 1000 Ang^3
#
#
#
# Elastic Constant Matrix: (Units=GPa)
#
#
# Indices 1 2 3 4 5 6 
#
# 1 136.6685 65.0170 33.2085 0.0000 2.2338 0.0000
# 2 65.0170 216.5189 93.7945 0.0000 -0.0149 0.0000
# 3 33.2085 93.7945 124.0389 0.0000 -4.2131 0.0000
# 4 0.0000 0.0000 0.0000 19.4797 0.0000 -9.3609
# 5 2.2338 -0.0149 -4.2131 0.0000 22.7126 0.0000
# 6 0.0000 0.0000 0.0000 -9.3609 0.0000 10.3344
#
#
#
# Elastic Compliance Matrix: (Units=1/GPa)
#
#
# Indices 1 2 3 4 5 6 
#
# 1 0.008579 -0.002331 -0.000567 0.000000 -0.000950 0.000000
# 2 -0.002331 0.007523 -0.005089 0.000000 -0.000710 0.000000
# 3 -0.000567 -0.005089 0.012140 0.000000 0.002304 0.000000
# 4 0.000000 0.000000 0.000000 0.090905 0.000000 0.082343
# 5 -0.000950 -0.000710 0.002304 0.000000 0.044549 0.000000
# 6 0.000000 0.000000 0.000000 0.082343 0.000000 0.171351
#
#
# Mechanical properties :
#
#
# Convention : Reuss Voigt Hill
#
# Bulk Modulus (GPa) = 81.50247 95.69623 88.59935
# Shear Modulus (GPa) = 14.08021 29.51908 21.79964
#
# Velocity S-wave (km/s) = 2.51123 3.63607 3.12468
# Velocity P-wave (km/s) = 6.70162 7.77744 7.25949
#
# Compressibility (1/GPa) = 0.01226957
#
# Stress axis : x y z
#
# Youngs Moduli (GPa) = 116.56387 132.93139 82.37383
#
# Poissons Ratio (x) = 0.30982 0.04668
# Poissons Ratio (y) = 0.27168 0.41916
# Poissons Ratio (z) = 0.06606 0.67643
#
# Static dielectric constant tensor:
#      x y z
#    x 4.200430 0.000000 0.273690 
#    y 0.000000 7.556800 0.000000 
#    z 0.273690 0.000000 3.921600 
# 
# 
# High freq. dielectric constant tensor:
#      x y z
#    x 1.884890 0.000000 0.016400 
#    y 0.000000 1.900390 0.000000 
#    z 0.016400 0.000000 1.877870 
# 
# From -- ./inp_files/19493.got.cif
#   From: 2010.06.25/outbox.cif.g09.slc.cpg/sg15_10_cif.got.tgz:19493.got - 2010.06.28 07:06:18.
