data_PCOD8154163
_publ_section_title
;
Structure prediction by ZEFSAII (Michael W. Deem and Ramdas Pophale) SiO2 
 PCOD8154163
Probable space group: C 2/C
;
_chemical_formula_sum "Si O2"
_cell_formula_units_Z 60
_cell_length_a 11.871836
_cell_length_b 19.355212
_cell_length_c 18.145844
_cell_angle_alpha 90.000000
_cell_angle_beta 139.897008
_cell_angle_gamma 90.000000
_cell_volume 2685.895777
_symmetry_space_group_name_H-M "C 2/C"
_symmetry_group_IT_number 15
_symmetry_cell_setting 'monoclinic'
loop_
_space_group_symop_operation_xyz
x,y,z
-x,y,1/2-z
-x,-y,-z
x,-y,1/2+z
1/2+x,1/2+y,z
1/2-x,1/2+y,1/2-z
1/2-x,1/2-y,-z
1/2+x,1/2-y,1/2+z
loop_
_atom_site_type_symbol
_atom_site_label
_atom_site_fract_x
_atom_site_fract_y
_atom_site_fract_z
Si Si1 0.182243 0.370086 0.081551
Si Si2 0.136365 0.817536 0.456956
Si Si3 0.761864 0.716146 0.745360
Si Si4 0.172491 0.085376 0.107576
Si Si5 0.699975 0.552142 0.532634
Si Si6 0.000000 0.640553 0.750000
Si Si7 0.195813 0.014394 0.362914
Si Si8 0.824595 0.631507 0.323589
O O1 0.350091 0.361985 0.111654
O O2 0.183069 0.315056 0.147997
O O3 0.181594 0.450932 0.106261
O O4 0.018219 0.351415 0.947518
O O5 0.250000 0.750000 0.500000
O O6 0.211247 0.857636 0.564982
O O7 0.934587 0.804705 0.371638
O O8 0.781161 0.798675 0.749695
O O9 0.890278 0.687885 0.748850
O O10 0.321620 0.089918 0.245188
O O11 0.191533 0.009493 0.085869
O O12 0.980292 0.095311 0.048755
O O13 0.727494 0.523951 0.464808
O O14 0.869549 0.596659 0.634971
O O15 0.232277 0.086341 0.340453
O O16 0.000000 0.990982 0.250000
#
# Coordination Sequence:
#
# PCOD8154163 Si02
#       8
#     8   8   8   8   8   4   8   8
#     4  12  27  47  77 110 148 197 257 318 381 453
#     4  12  23  48  74 106 150 196 249 308 381 449
#     4  12  28  49  73 112 152 203 251 315 381 461
#     4  11  25  45  75 105 152 194 251 318 379 443
#     4  11  25  46  73 112 145 199 256 314 381 458
#     4  12  28  46  80 108 156 202 256 318 380 460
#     4  12  25  47  75 108 149 204 249 320 386 448
#     4  12  28  47  74 109 153 199 254 312 379 461
#
# _framework density 22.338916000000001
#
# number of rings (size 3 to 8) (size 9 to 14) (size 15 to 20)
#    0.000    0.267    5.333    3.200    4.667    0.533 
#    0.000    2.000    0.000    0.000    0.000    0.000 
#    0.000    0.000    0.000    0.000    0.000    0.000 
#
# Total GULP energy -372058.312364 kJ/mol
# GULP energy per Si atom -12401.943745 kJ/mol
# Density = 2.228807 g / cm^3
# Si number density = 22.338916 Si / 1000 Ang^3
#
#
#
# Elastic Constant Matrix: (Units=GPa)
#
#
# Indices 1 2 3 4 5 6 
#
# 1 125.0019 53.9651 46.6933 0.0001 -6.2853 0.0000
# 2 53.9651 132.9097 46.4857 0.0001 -4.5598 0.0001
# 3 46.6933 46.4857 120.0676 0.0016 -17.4664 0.0011
# 4 0.0001 0.0001 0.0016 36.8325 0.0007 -5.1339
# 5 -6.2853 -4.5598 -17.4664 0.0007 32.9239 0.0003
# 6 0.0000 0.0001 0.0011 -5.1339 0.0003 47.9394
#
#
#
# Elastic Compliance Matrix: (Units=1/GPa)
#
#
# Indices 1 2 3 4 5 6 
#
# 1 0.010456 -0.003267 -0.002793 0.000000 0.000062 0.000000
# 2 -0.003267 0.009735 -0.002593 0.000000 -0.000651 0.000000
# 3 -0.002793 -0.002593 0.011149 -0.000001 0.005023 0.000000
# 4 0.000000 0.000000 -0.000001 0.027561 -0.000001 0.002952
# 5 0.000062 -0.000651 0.005023 -0.000001 0.032959 0.000000
# 6 0.000000 0.000000 0.000000 0.002952 0.000000 0.021176
#
#
# Mechanical properties :
#
#
# Convention : Reuss Voigt Hill
#
# Bulk Modulus (GPa) = 71.24847 74.69638 72.97243
# Shear Modulus (GPa) = 37.03127 38.92817 37.97972
#
# Velocity S-wave (km/s) = 4.07591 4.17899 4.12777
# Velocity P-wave (km/s) = 7.35624 7.53629 7.44681
#
# Compressibility (1/GPa) = 0.01403539
#
# Stress axis : x y z
#
# Youngs Moduli (GPa) = 95.63459 102.72221 89.69142
#
# Poissons Ratio (x) = 0.33557 0.25047
# Poissons Ratio (y) = 0.31242 0.23260
# Poissons Ratio (z) = 0.26707 0.26639
#
# Static dielectric constant tensor:
#      x y z
#    x 4.131210 0.000000 0.016650 
#    y 0.000000 4.212660 0.000000 
#    z 0.016650 0.000000 4.283550 
# 
# 
# High freq. dielectric constant tensor:
#      x y z
#    x 1.882870 0.000000 -0.005870 
#    y 0.000000 1.892010 0.000000 
#    z -0.005870 0.000000 1.891570 
# 
# From -- ./inp_files/200554.got.cif
#   From: 2010.06.25/outbox.cif.g09.slc.cpg/sg15_101_cif.got.tgz:200554.got - 2010.06.28 07:06:18.
