data_PCOD8154997
_publ_section_title
;
Structure prediction by ZEFSAII (Michael W. Deem and Ramdas Pophale) SiO2 
 PCOD8154997
Probable space group: C 2/C
;
_chemical_formula_sum "Si O2"
_cell_formula_units_Z 40
_cell_length_a 11.252427
_cell_length_b 18.648091
_cell_length_c 8.646697
_cell_angle_alpha 90.000000
_cell_angle_beta 72.106109
_cell_angle_gamma 90.000000
_cell_volume 1726.623539
_symmetry_space_group_name_H-M "C 2/C"
_symmetry_group_IT_number 15
_symmetry_cell_setting 'monoclinic'
loop_
_space_group_symop_operation_xyz
x,y,z
-x,y,1/2-z
-x,-y,-z
x,-y,1/2+z
1/2+x,1/2+y,z
1/2-x,1/2+y,1/2-z
1/2-x,1/2-y,-z
1/2+x,1/2-y,1/2+z
loop_
_atom_site_type_symbol
_atom_site_label
_atom_site_fract_x
_atom_site_fract_y
_atom_site_fract_z
Si Si1 0.000000 0.457471 0.250000
Si Si2 0.366531 0.134555 0.574461
Si Si3 0.236961 0.255415 0.822114
Si Si4 0.141132 0.095319 0.226874
Si Si5 0.756095 0.984008 0.540488
Si Si6 0.500000 0.211202 0.250000
O O1 0.980699 0.407522 0.108016
O O2 0.880110 0.506822 0.327580
O O3 0.322210 0.196499 0.706876
O O4 0.254312 0.078314 0.585653
O O5 0.412334 0.164348 0.393774
O O6 0.281465 0.334528 0.756246
O O7 0.094044 0.242615 0.821049
O O8 0.250000 0.250000 0.000000
O O9 0.146170 0.039924 0.367434
O O10 0.000000 0.118090 0.250000
O O11 0.197772 0.058505 0.050712
#
# Coordination Sequence:
#
# PCOD8154997 Si02
#       6
#     4   8   8   8   8   4
#     4  12  25  46  78 110 147 188 252 310 363 438
#     4  12  25  46  73 112 145 187 247 303 373 434
#     4  12  29  48  75 110 148 199 246 308 373 441
#     4  12  28  48  72 104 151 193 244 299 375 447
#     4  12  25  47  74 108 143 193 245 307 366 437
#     4  12  25  46  76 108 149 188 248 314 367 438
#
# _framework density 23.166601
#
# number of rings (size 3 to 8) (size 9 to 14) (size 15 to 20)
#    0.000    0.000    4.000    6.000    4.200    0.000 
#    1.800    0.000    0.000    0.000    0.000    0.000 
#    0.000    0.000    0.000    0.000    0.000    0.000 
#
# Total GULP energy -248095.747624 kJ/mol
# GULP energy per Si atom -12404.787381 kJ/mol
# Density = 2.311387 g / cm^3
# Si number density = 23.166601 Si / 1000 Ang^3
#
#
#
# Elastic Constant Matrix: (Units=GPa)
#
#
# Indices 1 2 3 4 5 6 
#
# 1 121.2398 25.8841 37.9834 0.0000 22.3928 0.0000
# 2 25.8841 102.3836 37.0573 0.0000 -6.8494 0.0000
# 3 37.9834 37.0573 119.1389 0.0000 11.5783 0.0000
# 4 0.0000 0.0000 0.0000 34.8793 0.0000 12.5567
# 5 22.3928 -6.8494 11.5783 0.0000 46.7303 0.0000
# 6 0.0000 0.0000 0.0000 12.5567 0.0000 25.3247
#
#
#
# Elastic Compliance Matrix: (Units=1/GPa)
#
#
# Indices 1 2 3 4 5 6 
#
# 1 0.010240 -0.002125 -0.002148 0.000000 -0.004686 0.000000
# 2 -0.002125 0.011745 -0.003322 0.000000 0.003563 0.000000
# 3 -0.002148 -0.003322 0.010307 0.000000 -0.002011 0.000000
# 4 0.000000 0.000000 0.000000 0.034900 0.000000 -0.017304
# 5 -0.004686 0.003563 -0.002011 0.000000 0.024666 0.000000
# 6 0.000000 0.000000 0.000000 -0.017304 0.000000 0.048067
#
#
# Mechanical properties :
#
#
# Convention : Reuss Voigt Hill
#
# Bulk Modulus (GPa) = 58.47225 60.51244 59.49235
# Shear Modulus (GPa) = 31.09129 37.50937 34.30033
#
# Velocity S-wave (km/s) = 3.66741 4.02819 3.85202
# Velocity P-wave (km/s) = 6.57479 6.91464 6.74686
#
# Compressibility (1/GPa) = 0.01710213
#
# Stress axis : x y z
#
# Youngs Moduli (GPa) = 97.65263 85.14170 97.01869
#
# Poissons Ratio (x) = 0.18091 0.20844
# Poissons Ratio (y) = 0.20749 0.32230
# Poissons Ratio (z) = 0.20980 0.28285
#
# Static dielectric constant tensor:
#      x y z
#    x 5.439020 0.000000 -0.878230 
#    y 0.000000 4.236190 0.000000 
#    z -0.878230 0.000000 5.232530 
# 
# 
# High freq. dielectric constant tensor:
#      x y z
#    x 1.911550 0.000000 0.022330 
#    y 0.000000 1.918760 0.000000 
#    z 0.022330 0.000000 1.930530 
# 
# From -- ./inp_files/29260.got.cif
#   From: 2010.06.25/outbox.cif.g09.slc.cpg/sg15_15_cif.got.tgz:29260.got - 2010.06.28 07:06:18.
