data_PCOD8154077
_publ_section_title
;
Structure prediction by ZEFSAII (Michael W. Deem and Ramdas Pophale) SiO2 
 PCOD8154077
Probable space group: C 2/C
;
_chemical_formula_sum "Si O2"
_cell_formula_units_Z 48
_cell_length_a 22.822413
_cell_length_b 11.469474
_cell_length_c 12.961095
_cell_angle_alpha 90.000000
_cell_angle_beta 43.461430
_cell_angle_gamma 90.000000
_cell_volume 2333.730342
_symmetry_space_group_name_H-M "C 2/C"
_symmetry_group_IT_number 15
_symmetry_cell_setting 'monoclinic'
loop_
_space_group_symop_operation_xyz
x,y,z
-x,y,1/2-z
-x,-y,-z
x,-y,1/2+z
1/2+x,1/2+y,z
1/2-x,1/2+y,1/2-z
1/2-x,1/2-y,-z
1/2+x,1/2-y,1/2+z
loop_
_atom_site_type_symbol
_atom_site_label
_atom_site_fract_x
_atom_site_fract_y
_atom_site_fract_z
Si Si1 0.463092 0.907208 0.686503
Si Si2 0.704324 0.470873 0.275101
Si Si3 0.179243 0.818357 0.653913
Si Si4 0.902161 0.010336 0.390678
Si Si5 0.164825 0.196540 0.650568
Si Si6 0.878024 0.405935 0.166025
O O1 0.500000 0.938605 0.750000
O O2 0.413927 0.785026 0.747213
O O3 0.544069 0.903098 0.510455
O O4 0.397520 0.008211 0.736570
O O5 0.714678 0.581661 0.185660
O O6 0.625456 0.484352 0.454653
O O7 0.680972 0.353557 0.243737
O O8 0.792637 0.452873 0.221668
O O9 0.250000 0.750000 0.500000
O O10 0.117464 0.871422 0.646312
O O11 0.129044 0.725806 0.786436
O O12 0.000000 0.981927 0.250000
O O13 0.850544 0.905124 0.409739
O O14 0.250000 0.250000 0.500000
#
# Coordination Sequence:
#
# PCOD8154077 Si02
#       6
#     8   8   8   8   8   8
#     4  11  26  44  70 100 137 174 227 283 341 406
#     4  11  26  44  71  98 136 180 232 277 337 414
#     4  11  26  45  68  98 138 176 228 278 344 404
#     4  11  26  43  68 102 136 179 226 280 343 402
#     4  11  25  43  71 100 135 179 227 278 340 407
#     4  11  26  45  69 101 131 182 227 281 344 404
#
# _framework density 20.567928999999999
#
# number of rings (size 3 to 8) (size 9 to 14) (size 15 to 20)
#    0.000    1.000    1.667    2.500   16.333    2.000 
#    0.000    0.000    0.000    0.000    0.000    0.000 
#    0.000    0.000    0.000    0.000    0.000    0.000 
#
# Total GULP energy -297643.838660 kJ/mol
# GULP energy per Si atom -12401.826611 kJ/mol
# Density = 2.052112 g / cm^3
# Si number density = 20.567929 Si / 1000 Ang^3
#
#
#
# Elastic Constant Matrix: (Units=GPa)
#
#
# Indices 1 2 3 4 5 6 
#
# 1 124.0936 43.4629 58.4614 0.0000 16.1004 0.0000
# 2 43.4629 101.4782 38.9310 0.0000 16.0813 0.0000
# 3 58.4614 38.9310 129.5734 0.0000 2.1894 0.0000
# 4 0.0000 0.0000 0.0000 30.0609 0.0000 12.3206
# 5 16.1004 16.0813 2.1894 0.0000 36.3261 0.0000
# 6 0.0000 0.0000 0.0000 12.3206 0.0000 -4.3779
#
#
#
# Elastic Compliance Matrix: (Units=1/GPa)
#
#
# Indices 1 2 3 4 5 6 
#
# 1 0.011512 -0.002694 -0.004323 0.000000 -0.003649 0.000000
# 2 -0.002694 0.012646 -0.002512 0.000000 -0.004253 0.000000
# 3 -0.004323 -0.002512 0.010382 0.000000 0.002402 0.000000
# 4 0.000000 0.000000 0.000000 0.015448 0.000000 0.043474
# 5 -0.003649 -0.004253 0.002402 0.000000 0.030884 0.000000
# 6 0.000000 0.000000 0.000000 0.043474 0.000000 -0.106072
#
#
# Mechanical properties :
#
#
# Convention : Reuss Voigt Hill
#
# Bulk Modulus (GPa) = 64.59088 70.76178 67.67633
# Shear Modulus (GPa) = -5095.16630 26.68781 -2534.23925
#
# Velocity S-wave (km/s) = -49.82586 3.60605 -35.13981
# Velocity P-wave (km/s) = 57.25979 7.19839 40.16756
#
# Compressibility (1/GPa) = 0.01548206
#
# Stress axis : x y z
#
# Youngs Moduli (GPa) = 86.86611 79.07742 96.31761
#
# Poissons Ratio (x) = 0.21302 0.41638
# Poissons Ratio (y) = 0.23400 0.24197
# Poissons Ratio (z) = 0.37552 0.19866
#
# Static dielectric constant tensor:
#      x y z
#    x 3.805800 0.000000 0.011320 
#    y 0.000000 3.833700 0.000000 
#    z 0.011320 0.000000 3.774570 
# 
# 
# High freq. dielectric constant tensor:
#      x y z
#    x 1.815010 0.000000 0.003670 
#    y 0.000000 1.820440 0.000000 
#    z 0.003670 0.000000 1.821490 
# 
# From -- ./inp_files/111427.got.cif
#   From: 2010.06.25/outbox.cif.g09.slc.cpg/sg15_56_cif.got.tgz:111427.got - 2010.06.28 07:06:18.
