data_PCOD8154124
_publ_section_title
;
Structure prediction by ZEFSAII (Michael W. Deem and Ramdas Pophale) SiO2 
 PCOD8154124
Probable space group: C 2/C
;
_chemical_formula_sum "Si O2"
_cell_formula_units_Z 60
_cell_length_a 21.030883
_cell_length_b 8.675844
_cell_length_c 23.932073
_cell_angle_alpha 90.000000
_cell_angle_beta 138.230934
_cell_angle_gamma 90.000000
_cell_volume 2908.763971
_symmetry_space_group_name_H-M "C 2/C"
_symmetry_group_IT_number 15
_symmetry_cell_setting 'monoclinic'
loop_
_space_group_symop_operation_xyz
x,y,z
-x,y,1/2-z
-x,-y,-z
x,-y,1/2+z
1/2+x,1/2+y,z
1/2-x,1/2+y,1/2-z
1/2-x,1/2-y,-z
1/2+x,1/2-y,1/2+z
loop_
_atom_site_type_symbol
_atom_site_label
_atom_site_fract_x
_atom_site_fract_y
_atom_site_fract_z
Si Si1 0.500000 0.929312 0.750000
Si Si2 0.505740 0.272998 0.144476
Si Si3 0.312713 0.483750 0.235841
Si Si4 0.238928 0.409435 0.573952
Si Si5 0.520960 0.012289 0.948901
Si Si6 0.305865 0.927559 0.142170
Si Si7 0.302195 0.598598 0.513870
Si Si8 0.160190 0.664768 0.713517
O O1 0.481024 0.822055 0.790439
O O2 0.590944 0.039672 0.817941
O O3 0.594917 0.382347 0.191484
O O4 0.493467 0.158543 0.084643
O O5 0.415082 0.383881 0.088840
O O6 0.293516 0.492095 0.157114
O O7 0.222976 0.399257 0.204288
O O8 0.325206 0.653588 0.269590
O O9 0.126054 0.425223 0.506741
O O10 0.268121 0.233937 0.596394
O O11 0.272242 0.462102 0.535215
O O12 0.450148 0.132708 0.872530
O O13 0.500000 0.000000 0.000000
O O14 0.310250 0.931268 0.211989
O O15 0.232640 0.057800 0.071782
O O16 0.250000 0.750000 0.500000
#
# Coordination Sequence:
#
# PCOD8154124 Si02
#       8
#     4   8   8   8   8   8   8   8
#     4  12  22  44  72 100 138 188 224 286 336 412
#     4  12  26  42  72 103 138 181 232 275 347 405
#     4  11  26  45  71 103 133 187 226 286 338 409
#     4  11  25  45  69 101 140 178 230 284 346 405
#     4  12  24  45  70  97 137 183 224 285 342 403
#     4  11  26  42  71  99 139 181 228 281 347 402
#     4  12  24  44  66 103 138 180 227 283 337 408
#     4  11  25  46  70  99 142 178 233 281 344 407
#
# _framework density 20.627319
#
# number of rings (size 3 to 8) (size 9 to 14) (size 15 to 20)
#    0.000    0.533    5.333    2.000    3.733    3.200 
#    0.000    1.333    0.000    0.000    0.000    0.000 
#    0.000    0.000    0.000    0.000    0.000    0.000 
#
# Total GULP energy -372177.517745 kJ/mol
# GULP energy per Si atom -12405.917258 kJ/mol
# Density = 2.058037 g / cm^3
# Si number density = 20.627319 Si / 1000 Ang^3
#
#
#
# Elastic Constant Matrix: (Units=GPa)
#
#
# Indices 1 2 3 4 5 6 
#
# 1 87.4880 44.8456 38.0661 0.0000 8.0807 0.0000
# 2 44.8456 101.9363 57.4374 0.0000 5.8305 -0.0001
# 3 38.0661 57.4374 122.1617 0.0000 11.7989 0.0000
# 4 0.0000 0.0000 0.0000 45.7918 0.0000 6.1860
# 5 8.0807 5.8305 11.7989 0.0000 53.7267 0.0000
# 6 0.0000 -0.0001 0.0000 6.1860 0.0000 35.7982
#
#
#
# Elastic Compliance Matrix: (Units=1/GPa)
#
#
# Indices 1 2 3 4 5 6 
#
# 1 0.015248 -0.005479 -0.002055 0.000000 -0.001248 0.000000
# 2 -0.005479 0.015315 -0.005530 0.000000 0.000376 0.000000
# 3 -0.002055 -0.005530 0.011584 0.000000 -0.001635 0.000000
# 4 0.000000 0.000000 0.000000 0.022360 0.000000 -0.003864
# 5 -0.001248 0.000376 -0.001635 0.000000 0.019119 0.000000
# 6 0.000000 0.000000 0.000000 -0.003864 0.000000 0.028602
#
#
# Mechanical properties :
#
#
# Convention : Reuss Voigt Hill
#
# Bulk Modulus (GPa) = 62.42302 65.80936 64.11619
# Shear Modulus (GPa) = 34.79624 38.47914 36.63769
#
# Velocity S-wave (km/s) = 4.11165 4.32377 4.21904
# Velocity P-wave (km/s) = 7.27110 7.54320 7.40840
#
# Compressibility (1/GPa) = 0.01601973
#
# Stress axis : x y z
#
# Youngs Moduli (GPa) = 65.58296 65.29673 86.32636
#
# Poissons Ratio (x) = 0.35776 0.17738
# Poissons Ratio (y) = 0.35933 0.47736
# Poissons Ratio (z) = 0.13475 0.36107
#
# Static dielectric constant tensor:
#      x y z
#    x 3.990170 0.000000 0.072500 
#    y 0.000000 3.689010 0.000000 
#    z 0.072500 0.000000 4.116760 
# 
# 
# High freq. dielectric constant tensor:
#      x y z
#    x 1.811890 0.000000 -0.000450 
#    y 0.000000 1.813350 0.000000 
#    z -0.000450 0.000000 1.828960 
# 
# From -- ./inp_files/279673.got.cif
#   From: 2010.06.25/outbox.cif.g09.slc.cpg/sg15_140_cif.got.tgz:279673.got - 2010.06.28 07:06:18.
