data_PCOD8154462
_publ_section_title
;
Structure prediction by ZEFSAII (Michael W. Deem and Ramdas Pophale) SiO2 
 PCOD8154462
Probable space group: C 2/C
;
_chemical_formula_sum "Si O2"
_cell_formula_units_Z 48
_cell_length_a 27.552103
_cell_length_b 5.345010
_cell_length_c 13.855530
_cell_angle_alpha 90.000000
_cell_angle_beta 114.929051
_cell_angle_gamma 90.000000
_cell_volume 1850.344091
_symmetry_space_group_name_H-M "C 2/C"
_symmetry_group_IT_number 15
_symmetry_cell_setting 'monoclinic'
loop_
_space_group_symop_operation_xyz
x,y,z
-x,y,1/2-z
-x,-y,-z
x,-y,1/2+z
1/2+x,1/2+y,z
1/2-x,1/2+y,1/2-z
1/2-x,1/2-y,-z
1/2+x,1/2-y,1/2+z
loop_
_atom_site_type_symbol
_atom_site_label
_atom_site_fract_x
_atom_site_fract_y
_atom_site_fract_z
Si Si1 0.438416 0.580254 0.338167
Si Si2 0.345903 0.741256 0.743754
Si Si3 0.474281 0.806661 0.553239
Si Si4 0.270414 0.785991 0.411200
Si Si5 0.163288 0.216346 0.554250
Si Si6 0.591462 0.086620 0.841527
O O1 0.379088 0.510961 0.248776
O O2 0.436723 0.641522 0.450911
O O3 0.480374 0.358039 0.356347
O O4 0.451403 0.807491 0.274013
O O5 0.282326 0.705292 0.700035
O O6 0.365651 0.799727 0.869881
O O7 0.361572 0.946988 0.678129
O O8 0.500000 0.000000 0.500000
O O9 0.438945 0.908049 0.610060
O O10 0.250000 0.750000 0.500000
O O11 0.308745 0.556003 0.412964
O O12 0.296168 0.057882 0.431433
O O13 0.119700 0.201807 0.431779
#
# Coordination Sequence:
#
# PCOD8154462 Si02
#       6
#     8   8   8   8   8   8
#     4  11  27  49  81 107 157 203 264 328 407 475
#     4  12  28  46  76 114 155 208 268 324 404 471
#     4  11  27  53  76 115 154 203 263 332 404 477
#     4  12  26  50  79 114 159 213 263 331 393 478
#     4  12  28  49  78 116 166 207 266 330 400 476
#     4  12  27  47  80 115 154 206 266 330 401 489
#
# _framework density 25.941120000000002
#
# number of rings (size 3 to 8) (size 9 to 14) (size 15 to 20)
#    0.000    0.333    1.667    5.500    7.000    6.667 
#    0.000    0.000    0.000    0.000    0.000    0.000 
#    0.000    0.000    0.000    0.000    0.000    0.000 
#
# Total GULP energy -297470.480146 kJ/mol
# GULP energy per Si atom -12394.603339 kJ/mol
# Density = 2.588208 g / cm^3
# Si number density = 25.941120 Si / 1000 Ang^3
#
#
#
# Elastic Constant Matrix: (Units=GPa)
#
#
# Indices 1 2 3 4 5 6 
#
# 1 89.1683 18.7072 54.1937 0.0000 -5.4422 0.0000
# 2 18.7072 89.3303 27.1912 0.0000 13.5895 0.0000
# 3 54.1937 27.1912 122.0143 0.0000 -23.9918 0.0000
# 4 0.0000 0.0000 0.0000 49.7173 0.0000 3.5201
# 5 -5.4422 13.5895 -23.9918 0.0000 45.1642 0.0000
# 6 0.0000 0.0000 0.0000 3.5201 0.0000 34.7651
#
#
#
# Elastic Compliance Matrix: (Units=1/GPa)
#
#
# Indices 1 2 3 4 5 6 
#
# 1 0.015579 -0.000877 -0.007038 0.000000 -0.001598 0.000000
# 2 -0.000877 0.013489 -0.003836 0.000000 -0.006202 0.000000
# 3 -0.007038 -0.003836 0.013664 0.000000 0.007565 0.000000
# 4 0.000000 0.000000 0.000000 0.020259 0.000000 -0.002051
# 5 -0.001598 -0.006202 0.007565 0.000000 0.027834 0.000000
# 6 0.000000 0.000000 0.000000 -0.002051 0.000000 0.028972
#
#
# Mechanical properties :
#
#
# Convention : Reuss Voigt Hill
#
# Bulk Modulus (GPa) = 52.00321 55.63301 53.81811
# Shear Modulus (GPa) = 33.39799 39.29069 36.34434
#
# Velocity S-wave (km/s) = 3.59200 3.89602 3.74710
# Velocity P-wave (km/s) = 6.10684 6.45996 6.28588
#
# Compressibility (1/GPa) = 0.01922958
#
# Stress axis : x y z
#
# Youngs Moduli (GPa) = 64.18980 74.13282 73.18410
#
# Poissons Ratio (x) = 0.06502 0.51508
# Poissons Ratio (y) = 0.05630 0.28074
# Poissons Ratio (z) = 0.45178 0.28438
#
# Static dielectric constant tensor:
#      x y z
#    x 5.835630 0.000000 0.751570 
#    y 0.000000 5.198870 0.000000 
#    z 0.751570 0.000000 6.110880 
# 
# 
# High freq. dielectric constant tensor:
#      x y z
#    x 2.038690 0.000000 -0.009330 
#    y 0.000000 2.038070 0.000000 
#    z -0.009330 0.000000 2.070340 
# 
# From -- ./inp_files/180218.got.cif
#   From: 2010.06.25/outbox.cif.g09.slc.cpg/sg15_91_cif.got.tgz:180218.got - 2010.06.28 07:06:18.
