data_PCOD8154589
_publ_section_title
;
Structure prediction by ZEFSAII (Michael W. Deem and Ramdas Pophale) SiO2 
 PCOD8154589
Probable space group: C 2/C
;
_chemical_formula_sum "Si O2"
_cell_formula_units_Z 56
_cell_length_a 25.696088
_cell_length_b 8.914360
_cell_length_c 18.553247
_cell_angle_alpha 90.000000
_cell_angle_beta 144.217764
_cell_angle_gamma 90.000000
_cell_volume 2484.933629
_symmetry_space_group_name_H-M "C 2/C"
_symmetry_group_IT_number 15
_symmetry_cell_setting 'monoclinic'
loop_
_space_group_symop_operation_xyz
x,y,z
-x,y,1/2-z
-x,-y,-z
x,-y,1/2+z
1/2+x,1/2+y,z
1/2-x,1/2+y,1/2-z
1/2-x,1/2-y,-z
1/2+x,1/2-y,1/2+z
loop_
_atom_site_type_symbol
_atom_site_label
_atom_site_fract_x
_atom_site_fract_y
_atom_site_fract_z
Si Si1 0.499920 0.526272 0.830618
Si Si2 0.487289 0.007172 0.809218
Si Si3 0.324683 0.152194 0.820271
Si Si4 0.503632 0.252224 0.564426
Si Si5 0.345327 0.771222 0.656302
Si Si6 0.326893 0.810175 0.792837
Si Si7 0.134961 0.270978 0.978940
O O1 0.500000 0.457105 0.750000
O O2 0.492857 0.397913 0.882454
O O3 0.415868 0.636735 0.742036
O O4 0.594695 0.607250 0.952262
O O5 0.500000 0.107518 0.750000
O O6 0.514351 0.103708 0.908846
O O7 0.390334 0.936052 0.715090
O O8 0.551645 0.869997 0.861191
O O9 0.403423 0.246608 0.872883
O O10 0.231984 0.244171 0.707167
O O11 0.320467 0.988228 0.783598
O O12 0.329716 0.143461 0.911854
O O13 0.426885 0.251877 0.416990
O O14 0.288607 0.762740 0.668918
O O15 0.302238 0.764167 0.524706
#
# Coordination Sequence:
#
# PCOD8154589 Si02
#       7
#     8   8   8   8   8   8   8
#     4   9  20  36  64 102 129 165 219 262 312 381
#     4   9  16  33  64  93 117 163 217 254 302 379
#     4  12  27  43  65  98 130 166 219 267 322 387
#     4  12  22  40  69  93 130 174 202 266 331 369
#     4   9  19  39  64  89 125 171 216 255 311 386
#     4  12  27  43  65  98 130 166 219 267 322 387
#     4   9  19  39  64  89 125 171 216 255 311 386
#
# _framework density 22.535813000000001
#
# number of rings (size 3 to 8) (size 9 to 14) (size 15 to 20)
#    0.000    1.714    2.857    4.286    4.000    1.714 
#    0.000    0.000    0.000    4.286    0.000    0.000 
#    0.000    0.000    0.000    0.000    0.000    0.000 
#
# Total GULP energy -346879.126842 kJ/mol
# GULP energy per Si atom -12388.540244 kJ/mol
# Density = 2.248452 g / cm^3
# Si number density = 22.535813 Si / 1000 Ang^3
#
#
#
# Elastic Constant Matrix: (Units=GPa)
#
#
# Indices 1 2 3 4 5 6 
#
# 1 177.4973 51.9688 39.6788 0.0000 -12.0162 0.0000
# 2 51.9688 90.4350 37.2071 0.0000 -13.5143 0.0000
# 3 39.6788 37.2071 84.5925 0.0000 -36.3243 0.0000
# 4 0.0000 0.0000 0.0000 25.7166 0.0000 -6.8406
# 5 -12.0162 -13.5143 -36.3243 0.0000 28.6217 0.0000
# 6 0.0000 0.0000 0.0000 -6.8406 0.0000 32.1069
#
#
#
# Elastic Compliance Matrix: (Units=1/GPa)
#
#
# Indices 1 2 3 4 5 6 
#
# 1 0.007060 -0.003220 -0.002803 0.000000 -0.002114 0.000000
# 2 -0.003220 0.015055 -0.005801 0.000000 -0.001605 0.000000
# 3 -0.002803 -0.005801 0.030780 0.000000 0.035148 0.000000
# 4 0.000000 0.000000 0.000000 0.041222 0.000000 0.008782
# 5 -0.002114 -0.001605 0.035148 0.000000 0.077900 0.000000
# 6 0.000000 0.000000 0.000000 0.008782 0.000000 0.033017
#
#
# Mechanical properties :
#
#
# Convention : Reuss Voigt Hill
#
# Bulk Modulus (GPa) = 34.19016 67.80380 50.99698
# Shear Modulus (GPa) = 20.97057 32.20038 26.58547
#
# Velocity S-wave (km/s) = 3.05379 3.78412 3.43840
# Velocity P-wave (km/s) = 5.25724 7.01749 6.20015
#
# Compressibility (1/GPa) = 0.02924818
#
# Stress axis : x y z
#
# Youngs Moduli (GPa) = 141.64117 66.42523 32.48855
#
# Poissons Ratio (x) = 0.21387 0.09107
# Poissons Ratio (y) = 0.45605 0.18845
# Poissons Ratio (z) = 0.39702 0.38530
#
# Static dielectric constant tensor:
#      x y z
#    x 4.721740 0.000000 0.055730 
#    y 0.000000 3.814100 0.000000 
#    z 0.055730 0.000000 4.202830 
# 
# 
# High freq. dielectric constant tensor:
#      x y z
#    x 1.928610 0.000000 -0.010120 
#    y 0.000000 1.862350 0.000000 
#    z -0.010120 0.000000 1.901960 
# 
# From -- ./inp_files/222060.got.cif
#   From: 2010.06.25/outbox.cif.g09.slc.cpg/sg15_112_cif.got.tgz:222060.got - 2010.06.28 07:06:18.
