data_PCOD8154741
_publ_section_title
;
Structure prediction by ZEFSAII (Michael W. Deem and Ramdas Pophale) SiO2 
 PCOD8154741
Probable space group: C 2/C
;
_chemical_formula_sum "Si O2"
_cell_formula_units_Z 56
_cell_length_a 11.155892
_cell_length_b 17.325895
_cell_length_c 14.982413
_cell_angle_alpha 90.000000
_cell_angle_beta 65.434228
_cell_angle_gamma 90.000000
_cell_volume 2633.765518
_symmetry_space_group_name_H-M "C 2/C"
_symmetry_group_IT_number 15
_symmetry_cell_setting 'monoclinic'
loop_
_space_group_symop_operation_xyz
x,y,z
-x,y,1/2-z
-x,-y,-z
x,-y,1/2+z
1/2+x,1/2+y,z
1/2-x,1/2+y,1/2-z
1/2-x,1/2-y,-z
1/2+x,1/2-y,1/2+z
loop_
_atom_site_type_symbol
_atom_site_label
_atom_site_fract_x
_atom_site_fract_y
_atom_site_fract_z
Si Si1 0.495574 0.170814 0.095747
Si Si2 0.601631 0.320214 0.140858
Si Si3 0.382072 0.192887 0.624703
Si Si4 0.274847 0.348787 0.729424
Si Si5 0.415659 0.468869 0.445792
Si Si6 0.500000 0.097633 0.750000
Si Si7 0.158883 0.462709 0.619458
Si Si8 0.000000 0.936738 0.750000
O O1 0.596235 0.231672 0.110118
O O2 0.348102 0.186810 0.176868
O O3 0.538366 0.085512 0.114007
O O4 0.504886 0.181610 0.985939
O O5 0.500000 0.335387 0.250000
O O6 0.747083 0.343887 0.129139
O O7 0.563973 0.376622 0.070746
O O8 0.352827 0.282382 0.652698
O O9 0.428391 0.151142 0.699925
O O10 0.228912 0.414530 0.675700
O O11 0.374321 0.384122 0.769681
O O12 0.500000 0.500000 0.500000
O O13 0.261985 0.484915 0.510865
O O14 0.461409 0.509669 0.342984
O O15 0.608860 0.043915 0.671197
#
# Coordination Sequence:
#
# PCOD8154741 Si02
#       8
#     8   8   8   8   8   4   8   4
#     4  12  24  45  80 103 130 193 251 300 350 434
#     4  12  23  44  74 104 138 184 243 299 354 426
#     4  12  27  48  71 104 143 186 240 299 358 439
#     4  12  25  49  71 104 146 189 243 293 364 437
#     4  12  27  43  70 108 147 188 237 303 371 432
#     4  12  31  46  67 106 154 182 234 306 375 424
#     4  12  24  46  73 103 142 184 242 299 357 427
#     4  12  29  46  69 104 152 192 234 302 373 438
#
# _framework density 21.262333000000002
#
# number of rings (size 3 to 8) (size 9 to 14) (size 15 to 20)
#    0.000    0.000    7.857    1.714    6.000    0.571 
#    0.000    1.429    0.000    0.000    0.000    0.000 
#    0.000    0.000    0.000    0.000    0.000    0.000 
#
# Total GULP energy -347324.132292 kJ/mol
# GULP energy per Si atom -12404.433296 kJ/mol
# Density = 2.121394 g / cm^3
# Si number density = 21.262333 Si / 1000 Ang^3
#
#
#
# Elastic Constant Matrix: (Units=GPa)
#
#
# Indices 1 2 3 4 5 6 
#
# 1 97.1981 52.1862 42.7166 0.0000 12.0952 0.0000
# 2 52.1862 81.5426 29.0038 0.0000 7.7474 0.0000
# 3 42.7166 29.0038 138.4321 0.0000 -2.9468 0.0000
# 4 0.0000 0.0000 0.0000 19.5734 0.0000 -8.9559
# 5 12.0952 7.7474 -2.9468 0.0000 32.2203 0.0000
# 6 0.0000 0.0000 0.0000 -8.9559 0.0000 32.6028
#
#
#
# Elastic Compliance Matrix: (Units=1/GPa)
#
#
# Indices 1 2 3 4 5 6 
#
# 1 0.017517 -0.009526 -0.003508 0.000000 -0.004606 0.000000
# 2 -0.009526 0.018824 -0.001027 0.000000 -0.001044 0.000000
# 3 -0.003508 -0.001027 0.008571 0.000000 0.002348 0.000000
# 4 0.000000 0.000000 0.000000 0.058434 0.000000 0.016052
# 5 -0.004606 -0.001044 0.002348 0.000000 0.033231 0.000000
# 6 0.000000 0.000000 0.000000 0.016052 0.000000 0.035082
#
#
# Mechanical properties :
#
#
# Convention : Reuss Voigt Hill
#
# Bulk Modulus (GPa) = 59.55015 62.77621 61.16318
# Shear Modulus (GPa) = 24.34536 29.76371 27.05454
#
# Velocity S-wave (km/s) = 3.38745 3.74549 3.57096
# Velocity P-wave (km/s) = 6.58543 6.94936 6.76985
#
# Compressibility (1/GPa) = 0.01679257
#
# Stress axis : x y z
#
# Youngs Moduli (GPa) = 57.08617 53.12294 116.66903
#
# Poissons Ratio (x) = 0.50603 0.40924
# Poissons Ratio (y) = 0.54378 0.11980
# Poissons Ratio (z) = 0.20024 0.05455
#
# Static dielectric constant tensor:
#      x y z
#    x 3.904260 0.000000 -0.142710 
#    y 0.000000 4.105310 0.000000 
#    z -0.142710 0.000000 4.091430 
# 
# 
# High freq. dielectric constant tensor:
#      x y z
#    x 1.823870 0.000000 -0.007440 
#    y 0.000000 1.838800 0.000000 
#    z -0.007440 0.000000 1.855670 
# 
# From -- ./inp_files/146018.got.cif
#   From: 2010.06.25/outbox.cif.g09.slc.cpg/sg15_74_cif.got.tgz:146018.got - 2010.06.28 07:06:18.
