data_PCOD8154933
_publ_section_title
;
Structure prediction by ZEFSAII (Michael W. Deem and Ramdas Pophale) SiO2 
 PCOD8154933
Probable space group: C 2/C
;
_chemical_formula_sum "Si O2"
_cell_formula_units_Z 32
_cell_length_a 7.241268
_cell_length_b 7.108193
_cell_length_c 22.849456
_cell_angle_alpha 90.000000
_cell_angle_beta 119.383948
_cell_angle_gamma 90.000000
_cell_volume 1024.809128
_symmetry_space_group_name_H-M "C 2/C"
_symmetry_group_IT_number 15
_symmetry_cell_setting 'monoclinic'
loop_
_space_group_symop_operation_xyz
x,y,z
-x,y,1/2-z
-x,-y,-z
x,-y,1/2+z
1/2+x,1/2+y,z
1/2-x,1/2+y,1/2-z
1/2-x,1/2-y,-z
1/2+x,1/2-y,1/2+z
loop_
_atom_site_type_symbol
_atom_site_label
_atom_site_fract_x
_atom_site_fract_y
_atom_site_fract_z
Si Si1 0.414559 0.044726 0.417500
Si Si2 0.348377 0.341129 0.951802
Si Si3 0.553372 0.434691 0.657581
Si Si4 0.385774 0.852188 0.791111
O O1 0.466777 0.861798 0.466035
O O2 0.624370 0.179860 0.453645
O O3 0.396929 0.990538 0.345010
O O4 0.185684 0.138060 0.396608
O O5 0.295162 0.397357 0.875785
O O6 0.500000 0.500000 0.000000
O O7 0.642470 0.334019 0.729855
O O8 0.534616 0.657870 0.667730
O O9 0.500000 0.923607 0.750000
#
# Coordination Sequence:
#
# PCOD8154933 Si02
#       4
#     8   8   8   8
#     4  12  26  52  73 116 151 201 266 330 406 483
#     4  12  29  52  77 109 156 211 273 333 403 488
#     4  12  26  47  78 110 158 203 256 335 407 493
#     4  12  24  48  74 115 156 199 260 326 414 490
#
# _framework density 31.225327
#
# number of rings (size 3 to 8) (size 9 to 14) (size 15 to 20)
#    0.000    0.000    5.000    4.500    3.500    4.000 
#    4.500    0.000    0.000    0.000    0.000    0.000 
#    0.000    0.000    0.000    0.000    0.000    0.000 
#
# Total GULP energy -198348.760776 kJ/mol
# GULP energy per Si atom -12396.797548 kJ/mol
# Density = 3.115426 g / cm^3
# Si number density = 31.225327 Si / 1000 Ang^3
#
#
#
# Elastic Constant Matrix: (Units=GPa)
#
#
# Indices 1 2 3 4 5 6 
#
# 1 196.5847 62.5856 45.9127 0.0000 -3.7425 0.0000
# 2 62.5856 109.0139 52.2396 0.0000 2.4748 0.0000
# 3 45.9127 52.2396 154.4778 0.0000 3.7358 0.0000
# 4 0.0000 0.0000 0.0000 70.0371 0.0000 4.2720
# 5 -3.7425 2.4748 3.7358 0.0000 79.0701 0.0000
# 6 0.0000 0.0000 0.0000 4.2720 0.0000 39.4698
#
#
#
# Elastic Compliance Matrix: (Units=1/GPa)
#
#
# Indices 1 2 3 4 5 6 
#
# 1 0.006316 -0.003260 -0.000786 0.000000 0.000438 0.000000
# 2 -0.003260 0.012632 -0.003293 0.000000 -0.000394 0.000000
# 3 -0.000786 -0.003293 0.007828 0.000000 -0.000304 0.000000
# 4 0.000000 0.000000 0.000000 0.014373 0.000000 -0.001556
# 5 0.000438 -0.000394 -0.000304 0.000000 0.012694 0.000000
# 6 0.000000 0.000000 0.000000 -0.001556 0.000000 0.025504
#
#
# Mechanical properties :
#
#
# Convention : Reuss Voigt Hill
#
# Bulk Modulus (GPa) = 82.65271 86.83915 84.74593
# Shear Modulus (GPa) = 50.99016 57.67128 54.33072
#
# Velocity S-wave (km/s) = 4.04539 4.30227 4.17580
# Velocity P-wave (km/s) = 6.95324 7.24915 7.10273
#
# Compressibility (1/GPa) = 0.01209882
#
# Stress axis : x y z
#
# Youngs Moduli (GPa) = 158.31560 79.16569 127.74764
#
# Poissons Ratio (x) = 0.25807 0.10035
# Poissons Ratio (y) = 0.51609 0.42071
# Poissons Ratio (z) = 0.12437 0.26071
#
# Static dielectric constant tensor:
#      x y z
#    x 6.175740 0.000000 -0.177820 
#    y 0.000000 5.204970 0.000000 
#    z -0.177820 0.000000 7.122460 
# 
# 
# High freq. dielectric constant tensor:
#      x y z
#    x 2.303490 0.000000 -0.012150 
#    y 0.000000 2.248020 0.000000 
#    z -0.012150 0.000000 2.362020 
# 
# From -- ./inp_files/286931.got.cif
#   From: 2010.06.25/outbox.cif.g09.slc.cpg/sg15_144_cif.got.tgz:286931.got - 2010.06.28 07:06:18.
