data_PCOD8154540
_publ_section_title
;
Structure prediction by ZEFSAII (Michael W. Deem and Ramdas Pophale) SiO2 
 PCOD8154540
Probable space group: C 2/C
;
_chemical_formula_sum "Si O2"
_cell_formula_units_Z 32
_cell_length_a 19.572052
_cell_length_b 4.807993
_cell_length_c 14.394195
_cell_angle_alpha 90.000000
_cell_angle_beta 99.361555
_cell_angle_gamma 90.000000
_cell_volume 1336.486475
_symmetry_space_group_name_H-M "C 2/C"
_symmetry_group_IT_number 15
_symmetry_cell_setting 'monoclinic'
loop_
_space_group_symop_operation_xyz
x,y,z
-x,y,1/2-z
-x,-y,-z
x,-y,1/2+z
1/2+x,1/2+y,z
1/2-x,1/2+y,1/2-z
1/2-x,1/2-y,-z
1/2+x,1/2-y,1/2+z
loop_
_atom_site_type_symbol
_atom_site_label
_atom_site_fract_x
_atom_site_fract_y
_atom_site_fract_z
Si Si1 0.379046 0.691122 0.365656
Si Si2 0.267420 0.736718 0.610861
Si Si3 0.430652 0.817980 0.984730
Si Si4 0.640733 0.767885 0.340704
O O1 0.296805 0.628021 0.346509
O O2 0.431006 0.467662 0.424717
O O3 0.402879 0.721724 0.263894
O O4 0.376319 0.980777 0.422251
O O5 0.250000 0.750000 0.500000
O O6 0.290552 0.423399 0.639686
O O7 0.334865 0.914833 0.651505
O O8 0.410289 0.722234 0.083498
O O9 0.500000 0.000000 0.000000
#
# Coordination Sequence:
#
# PCOD8154540 Si02
#       4
#     8   8   8   8
#     4  12  25  43  70 101 135 179 225 281 346 409
#     4  12  21  41  71 101 140 176 214 282 359 416
#     4  12  26  46  67  96 135 183 233 279 329 400
#     4  12  24  43  68 102 137 177 224 282 348 414
#
# _framework density 23.943377000000002
#
# number of rings (size 3 to 8) (size 9 to 14) (size 15 to 20)
#    0.000    0.000    5.000    6.000    0.000    1.000 
#    0.000    2.500    0.000    0.000    0.000    0.000 
#    0.000    0.000    0.000    0.000    0.000    0.000 
#
# Total GULP energy -198362.919683 kJ/mol
# GULP energy per Si atom -12397.682480 kJ/mol
# Density = 2.388888 g / cm^3
# Si number density = 23.943377 Si / 1000 Ang^3
#
#
#
# Elastic Constant Matrix: (Units=GPa)
#
#
# Indices 1 2 3 4 5 6 
#
# 1 81.2194 12.4839 52.9902 0.0000 -13.1928 0.0000
# 2 12.4839 106.8961 48.7337 0.0000 -15.1064 0.0000
# 3 52.9902 48.7337 197.5540 0.0000 -43.4518 0.0000
# 4 0.0000 0.0000 0.0000 37.6637 0.0000 11.8667
# 5 -13.1928 -15.1064 -43.4518 0.0000 28.3827 0.0000
# 6 0.0000 0.0000 0.0000 11.8667 0.0000 43.1578
#
#
#
# Elastic Compliance Matrix: (Units=1/GPa)
#
#
# Indices 1 2 3 4 5 6 
#
# 1 0.014954 0.000151 -0.003772 0.000000 0.001257 0.000000
# 2 0.000151 0.010657 -0.002120 0.000000 0.002496 0.000000
# 3 -0.003772 -0.002120 0.008990 0.000000 0.010881 0.000000
# 4 0.000000 0.000000 0.000000 0.029069 0.000000 -0.007993
# 5 0.001257 0.002496 0.010881 0.000000 0.053804 0.000000
# 6 0.000000 0.000000 0.000000 -0.007993 0.000000 0.025368
#
#
# Mechanical properties :
#
#
# Convention : Reuss Voigt Hill
#
# Bulk Modulus (GPa) = 43.25652 68.23166 55.74409
# Shear Modulus (GPa) = 30.85826 39.93830 35.39828
#
# Velocity S-wave (km/s) = 3.59388 4.08858 3.84919
# Velocity P-wave (km/s) = 5.94363 7.13075 6.56408
#
# Compressibility (1/GPa) = 0.02311790
#
# Stress axis : x y z
#
# Youngs Moduli (GPa) = 66.87067 93.83829 111.23403
#
# Poissons Ratio (x) = -0.01415 0.41958
# Poissons Ratio (y) = -0.01008 0.23585
# Poissons Ratio (z) = 0.25224 0.19897
#
# Static dielectric constant tensor:
#      x y z
#    x 3.985350 0.000000 -0.043920 
#    y 0.000000 4.678250 0.000000 
#    z -0.043920 0.000000 4.485500 
# 
# 
# High freq. dielectric constant tensor:
#      x y z
#    x 1.926080 0.000000 -0.005480 
#    y 0.000000 1.962730 0.000000 
#    z -0.005480 0.000000 1.965010 
# 
# From -- ./inp_files/158004.got.cif
#   From: 2010.06.25/outbox.cif.g09.slc.cpg/sg15_80_cif.got.tgz:158004.got - 2010.06.28 07:06:18.
