data_PCOD8154310
_publ_section_title
;
Structure prediction by ZEFSAII (Michael W. Deem and Ramdas Pophale) SiO2 
 PCOD8154310
Probable space group: C 2/C
;
_chemical_formula_sum "Si O2"
_cell_formula_units_Z 40
_cell_length_a 13.636855
_cell_length_b 4.941164
_cell_length_c 22.968360
_cell_angle_alpha 90.000000
_cell_angle_beta 104.500774
_cell_angle_gamma 90.000000
_cell_volume 1498.350965
_symmetry_space_group_name_H-M "C 2/C"
_symmetry_group_IT_number 15
_symmetry_cell_setting 'monoclinic'
loop_
_space_group_symop_operation_xyz
x,y,z
-x,y,1/2-z
-x,-y,-z
x,-y,1/2+z
1/2+x,1/2+y,z
1/2-x,1/2+y,1/2-z
1/2-x,1/2-y,-z
1/2+x,1/2-y,1/2+z
loop_
_atom_site_type_symbol
_atom_site_label
_atom_site_fract_x
_atom_site_fract_y
_atom_site_fract_z
Si Si1 0.304902 0.780287 0.832792
Si Si2 0.176967 0.439362 0.884571
Si Si3 0.064951 0.708241 0.047830
Si Si4 0.609244 0.612805 0.774879
Si Si5 0.376853 0.540602 0.052455
O O1 0.280447 0.495836 0.862911
O O2 0.375141 0.939779 0.890384
O O3 0.360227 0.758312 0.780260
O O4 0.194881 0.905302 0.806738
O O5 0.095937 0.328235 0.825105
O O6 0.128078 0.708951 0.904156
O O7 0.195212 0.205852 0.936570
O O8 0.149137 0.851641 0.017052
O O9 0.992586 0.933622 0.066111
O O10 0.000000 0.500000 0.000000
O O11 0.500000 0.469443 0.750000
#
# Coordination Sequence:
#
# PCOD8154310 Si02
#       5
#     8   8   8   8   8
#     4  12  28  52  84 128 166 222 290 345 422 514
#     4  12  25  51  78 121 163 215 281 344 412 503
#     4  11  26  51  85 125 172 219 282 352 414 517
#     4  12  28  54  84 124 170 228 280 357 420 501
#     4  11  25  50  79 123 163 221 267 345 428 485
#
# _framework density 26.696014999999999
#
# number of rings (size 3 to 8) (size 9 to 14) (size 15 to 20)
#    0.000    0.400    6.000    1.200    0.000    5.600 
#    7.200    0.000    0.000    0.000    0.000    0.000 
#    0.000    0.000    0.000    0.000    0.000    0.000 
#
# Total GULP energy -247825.313348 kJ/mol
# GULP energy per Si atom -12391.265667 kJ/mol
# Density = 2.663525 g / cm^3
# Si number density = 26.696015 Si / 1000 Ang^3
#
#
#
# Elastic Constant Matrix: (Units=GPa)
#
#
# Indices 1 2 3 4 5 6 
#
# 1 57.5679 17.9148 25.0925 0.0000 -5.9505 0.0000
# 2 17.9148 120.0772 34.7185 -0.0001 -12.7924 0.0000
# 3 25.0925 34.7185 149.4968 0.0000 -0.3045 0.0000
# 4 0.0000 -0.0001 0.0000 27.9393 0.0000 -5.1532
# 5 -5.9505 -12.7924 -0.3045 0.0000 57.3815 0.0000
# 6 0.0000 0.0000 0.0000 -5.1532 0.0000 39.9780
#
#
#
# Elastic Compliance Matrix: (Units=1/GPa)
#
#
# Indices 1 2 3 4 5 6 
#
# 1 0.019348 -0.001910 -0.002801 0.000000 0.001566 0.000000
# 2 -0.001910 0.009347 -0.001846 0.000000 0.001876 0.000000
# 3 -0.002801 -0.001846 0.007587 0.000000 -0.000662 0.000000
# 4 0.000000 0.000000 0.000000 0.036664 0.000000 0.004726
# 5 0.001566 0.001876 -0.000662 0.000000 0.018004 0.000000
# 6 0.000000 0.000000 0.000000 0.004726 0.000000 0.025623
#
#
# Mechanical properties :
#
#
# Convention : Reuss Voigt Hill
#
# Bulk Modulus (GPa) = 43.16454 53.62150 48.39302
# Shear Modulus (GPa) = 36.38804 41.68752 39.03778
#
# Velocity S-wave (km/s) = 3.69596 3.95595 3.82816
# Velocity P-wave (km/s) = 5.86664 6.40278 6.14057
#
# Compressibility (1/GPa) = 0.02316716
#
# Stress axis : x y z
#
# Youngs Moduli (GPa) = 51.68556 106.99112 131.81139
#
# Poissons Ratio (x) = 0.20435 0.36916
# Poissons Ratio (y) = 0.09872 0.24335
# Poissons Ratio (z) = 0.14476 0.19753
#
# Static dielectric constant tensor:
#      x y z
#    x 5.157080 0.000000 -0.720680 
#    y 0.000000 4.825100 0.000000 
#    z -0.720680 0.000000 5.648530 
# 
# 
# High freq. dielectric constant tensor:
#      x y z
#    x 2.073250 0.000000 -0.025290 
#    y 0.000000 2.054290 0.000000 
#    z -0.025290 0.000000 2.100320 
# 
# From -- ./inp_files/271980.got.cif
#   From: 2010.06.25/outbox.cif.g09.slc.cpg/sg15_136_cif.got.tgz:271980.got - 2010.06.28 07:06:18.
