data_PCOD8154452
_publ_section_title
;
Structure prediction by ZEFSAII (Michael W. Deem and Ramdas Pophale) SiO2 
 PCOD8154452
Probable space group: C 2/C
;
_chemical_formula_sum "Si O2"
_cell_formula_units_Z 48
_cell_length_a 14.174189
_cell_length_b 10.767416
_cell_length_c 13.762060
_cell_angle_alpha 90.000000
_cell_angle_beta 64.064498
_cell_angle_gamma 90.000000
_cell_volume 1888.823820
_symmetry_space_group_name_H-M "C 2/C"
_symmetry_group_IT_number 15
_symmetry_cell_setting 'monoclinic'
loop_
_space_group_symop_operation_xyz
x,y,z
-x,y,1/2-z
-x,-y,-z
x,-y,1/2+z
1/2+x,1/2+y,z
1/2-x,1/2+y,1/2-z
1/2-x,1/2-y,-z
1/2+x,1/2-y,1/2+z
loop_
_atom_site_type_symbol
_atom_site_label
_atom_site_fract_x
_atom_site_fract_y
_atom_site_fract_z
Si Si1 0.608769 0.498504 0.897835
Si Si2 0.268039 0.397509 0.984487
Si Si3 0.709945 0.293906 0.245451
Si Si4 0.370605 0.087638 0.547455
Si Si5 0.547393 0.919692 0.831353
Si Si6 0.611304 0.308537 0.733675
O O1 0.621914 0.603300 0.808706
O O2 0.614193 0.366105 0.841515
O O3 0.500000 0.500000 0.000000
O O4 0.699024 0.524165 0.935969
O O5 0.162625 0.461214 0.992780
O O6 0.359414 0.410851 0.861337
O O7 0.250000 0.250000 0.000000
O O8 0.770889 0.323756 0.116073
O O9 0.650434 0.163011 0.265895
O O10 0.795139 0.292843 0.296990
O O11 0.459762 0.151154 0.438917
O O12 0.419618 0.046697 0.629165
O O13 0.500000 0.958052 0.750000
O O14 0.500000 0.250319 0.750000
#
# Coordination Sequence:
#
# PCOD8154452 Si02
#       6
#     8   8   8   8   8   8
#     4  12  26  43  75 110 149 193 251 315 373 442
#     4  12  24  47  75 106 146 198 252 313 379 451
#     4  12  26  49  71 110 156 194 254 313 379 458
#     4  11  27  48  75 110 156 194 260 318 373 460
#     4  11  27  48  74 110 150 203 249 306 393 453
#     4  12  26  46  73 111 148 199 253 307 378 448
#
# _framework density 25.412638999999999
#
# number of rings (size 3 to 8) (size 9 to 14) (size 15 to 20)
#    0.000    0.333    6.667    0.000    7.000    6.000 
#    0.000    0.000    0.000    0.000    0.000    0.000 
#    0.000    0.000    0.000    0.000    0.000    0.000 
#
# Total GULP energy -297425.520471 kJ/mol
# GULP energy per Si atom -12392.730020 kJ/mol
# Density = 2.535480 g / cm^3
# Si number density = 25.412639 Si / 1000 Ang^3
#
#
#
# Elastic Constant Matrix: (Units=GPa)
#
#
# Indices 1 2 3 4 5 6 
#
# 1 144.6102 40.2933 46.0021 0.0000 2.7714 0.0000
# 2 40.2933 57.0393 34.9034 0.0000 -6.2533 0.0000
# 3 46.0021 34.9034 158.9684 0.0000 -15.5740 0.0000
# 4 0.0000 0.0000 0.0000 36.0039 0.0000 -4.9587
# 5 2.7714 -6.2533 -15.5740 0.0000 55.5009 0.0000
# 6 0.0000 0.0000 0.0000 -4.9587 0.0000 32.0716
#
#
#
# Elastic Compliance Matrix: (Units=1/GPa)
#
#
# Indices 1 2 3 4 5 6 
#
# 1 0.008983 -0.005579 -0.001522 0.000000 -0.001504 0.000000
# 2 -0.005579 0.023779 -0.003411 0.000000 0.002001 0.000000
# 3 -0.001522 -0.003411 0.007660 0.000000 0.001841 0.000000
# 4 0.000000 0.000000 0.000000 0.028379 0.000000 0.004388
# 5 -0.001504 0.002001 0.001841 0.000000 0.018835 0.000000
# 6 0.000000 0.000000 0.000000 0.004388 0.000000 0.031859
#
#
# Mechanical properties :
#
#
# Convention : Reuss Voigt Hill
#
# Bulk Modulus (GPa) = 51.54865 67.00170 59.27517
# Shear Modulus (GPa) = 34.01733 40.67654 37.34694
#
# Velocity S-wave (km/s) = 3.66266 4.00514 3.83772
# Velocity P-wave (km/s) = 6.18186 6.91455 6.55844
#
# Compressibility (1/GPa) = 0.01939915
#
# Stress axis : x y z
#
# Youngs Moduli (GPa) = 111.32643 42.05348 130.54613
#
# Poissons Ratio (x) = 0.23462 0.19866
# Poissons Ratio (y) = 0.62110 0.44523
# Poissons Ratio (z) = 0.16941 0.14342
#
# Static dielectric constant tensor:
#      x y z
#    x 4.904360 0.000000 -0.213540 
#    y 0.000000 4.722610 0.000000 
#    z -0.213540 0.000000 5.232370 
# 
# 
# High freq. dielectric constant tensor:
#      x y z
#    x 2.013100 0.000000 -0.011470 
#    y 0.000000 1.984360 0.000000 
#    z -0.011470 0.000000 2.041940 
# 
# From -- ./inp_files/151848.got.cif
#   From: 2010.06.25/outbox.cif.g09.slc.cpg/sg15_76_cif.got.tgz:151848.got - 2010.06.28 07:06:18.
