data_PCOD8154977
_publ_section_title
;
Structure prediction by ZEFSAII (Michael W. Deem and Ramdas Pophale) SiO2 
 PCOD8154977
Probable space group: C 2/C
;
_chemical_formula_sum "Si O2"
_cell_formula_units_Z 40
_cell_length_a 29.958914
_cell_length_b 7.752135
_cell_length_c 8.571405
_cell_angle_alpha 90.000000
_cell_angle_beta 65.934127
_cell_angle_gamma 90.000000
_cell_volume 1817.636024
_symmetry_space_group_name_H-M "C 2/C"
_symmetry_group_IT_number 15
_symmetry_cell_setting 'monoclinic'
loop_
_space_group_symop_operation_xyz
x,y,z
-x,y,1/2-z
-x,-y,-z
x,-y,1/2+z
1/2+x,1/2+y,z
1/2-x,1/2+y,1/2-z
1/2-x,1/2-y,-z
1/2+x,1/2-y,1/2+z
loop_
_atom_site_type_symbol
_atom_site_label
_atom_site_fract_x
_atom_site_fract_y
_atom_site_fract_z
Si Si1 0.396887 0.328303 0.850851
Si Si2 0.198381 0.314448 0.510609
Si Si3 0.539206 0.017769 0.815822
Si Si4 0.399386 0.313003 0.220052
Si Si5 0.301462 0.808954 0.362706
O O1 0.422505 0.172956 0.720283
O O2 0.420575 0.507410 0.757547
O O3 0.340553 0.324592 0.877124
O O4 0.402166 0.305258 0.028878
O O5 0.250000 0.250000 0.500000
O O6 0.156363 0.194140 0.641298
O O7 0.197732 0.307481 0.325052
O O8 0.186289 0.503982 0.588510
O O9 0.500000 0.076025 0.750000
O O10 0.569105 0.840638 0.748148
O O11 0.500000 0.000000 0.000000
O O12 0.250000 0.750000 0.500000
#
# Coordination Sequence:
#
# PCOD8154977 Si02
#       5
#     8   8   8   8   8
#     4  12  27  47  75 109 147 193 245 304 367 438
#     4  12  25  44  71 104 147 192 240 299 364 437
#     4  12  28  50  76 107 147 194 248 306 371 431
#     4  12  27  47  75 108 149 191 246 303 368 438
#     4  12  25  44  71 104 147 191 242 297 366 436
#
# _framework density 22.006608
#
# number of rings (size 3 to 8) (size 9 to 14) (size 15 to 20)
#    0.000    0.000    4.000    6.000    5.600    1.600 
#    0.000    0.000    0.000    0.000    0.000    0.000 
#    0.000    0.000    0.000    0.000    0.000    0.000 
#
# Total GULP energy -247913.561838 kJ/mol
# GULP energy per Si atom -12395.678092 kJ/mol
# Density = 2.195652 g / cm^3
# Si number density = 22.006608 Si / 1000 Ang^3
#
#
#
# Elastic Constant Matrix: (Units=GPa)
#
#
# Indices 1 2 3 4 5 6 
#
# 1 81.3195 23.8754 13.8948 0.0000 -20.5919 0.0000
# 2 23.8754 158.5929 30.4757 0.0000 -18.6432 0.0000
# 3 13.8948 30.4757 142.0985 0.0000 -7.6112 0.0000
# 4 0.0000 0.0000 0.0000 37.1733 0.0000 4.9615
# 5 -20.5919 -18.6432 -7.6112 0.0000 42.6896 0.0000
# 6 0.0000 0.0000 0.0000 4.9615 0.0000 28.6934
#
#
#
# Elastic Compliance Matrix: (Units=1/GPa)
#
#
# Indices 1 2 3 4 5 6 
#
# 1 0.014389 -0.001279 -0.000798 0.000000 0.006240 0.000000
# 2 -0.001279 0.007000 -0.001258 0.000000 0.002216 0.000000
# 3 -0.000798 -0.001258 0.007406 0.000000 0.000386 0.000000
# 4 0.000000 0.000000 0.000000 0.027537 0.000000 -0.004761
# 5 0.006240 0.002216 0.000386 0.000000 0.027471 0.000000
# 6 0.000000 0.000000 0.000000 -0.004761 0.000000 0.035675
#
#
# Mechanical properties :
#
#
# Convention : Reuss Voigt Hill
#
# Bulk Modulus (GPa) = 45.19829 57.61139 51.40484
# Shear Modulus (GPa) = 37.44669 42.62891 40.03780
#
# Velocity S-wave (km/s) = 4.12953 4.40602 4.27002
# Velocity P-wave (km/s) = 6.58183 7.21942 6.90798
#
# Compressibility (1/GPa) = 0.02212473
#
# Stress axis : x y z
#
# Youngs Moduli (GPa) = 69.49627 142.85367 135.02880
#
# Poissons Ratio (x) = 0.18275 0.10781
# Poissons Ratio (y) = 0.08891 0.16980
# Poissons Ratio (z) = 0.05549 0.17964
#
# Static dielectric constant tensor:
#      x y z
#    x 4.132910 0.000000 -0.137830 
#    y 0.000000 4.616310 0.000000 
#    z -0.137830 0.000000 4.113040 
# 
# 
# High freq. dielectric constant tensor:
#      x y z
#    x 1.876280 0.000000 -0.001700 
#    y 0.000000 1.880850 0.000000 
#    z -0.001700 0.000000 1.884620 
# 
# From -- ./inp_files/68263.got.cif
#   From: 2010.06.25/outbox.cif.g09.slc.cpg/sg15_35_cif.got.tgz:68263.got - 2010.06.28 07:06:18.
