data_PCOD8154892
_publ_section_title
;
Structure prediction by ZEFSAII (Michael W. Deem and Ramdas Pophale) SiO2 
 PCOD8154892
Probable space group: C 2/C
;
_chemical_formula_sum "Si O2"
_cell_formula_units_Z 40
_cell_length_a 29.518520
_cell_length_b 8.827508
_cell_length_c 14.362176
_cell_angle_alpha 90.000000
_cell_angle_beta 152.657925
_cell_angle_gamma 90.000000
_cell_volume 1718.902586
_symmetry_space_group_name_H-M "C 2/C"
_symmetry_group_IT_number 15
_symmetry_cell_setting 'monoclinic'
loop_
_space_group_symop_operation_xyz
x,y,z
-x,y,1/2-z
-x,-y,-z
x,-y,1/2+z
1/2+x,1/2+y,z
1/2-x,1/2+y,1/2-z
1/2-x,1/2-y,-z
1/2+x,1/2-y,1/2+z
loop_
_atom_site_type_symbol
_atom_site_label
_atom_site_fract_x
_atom_site_fract_y
_atom_site_fract_z
Si Si1 0.227076 0.398349 0.015061
Si Si2 0.399415 0.565566 0.285463
Si Si3 0.404268 0.903449 0.346920
Si Si4 0.619370 0.469342 0.958611
Si Si5 0.689853 0.797471 0.141043
O O1 0.182305 0.510397 0.859345
O O2 0.250000 0.250000 0.000000
O O3 0.325040 0.490657 0.224883
O O4 0.163104 0.364948 0.990329
O O5 0.500000 0.500000 0.500000
O O6 0.408768 0.744305 0.303923
O O7 0.364887 0.507292 0.121927
O O8 0.380052 0.883025 0.412200
O O9 0.500000 0.000000 0.500000
O O10 0.500000 0.437228 0.750000
O O11 0.659244 0.620222 0.084226
O O12 0.692202 0.328640 0.123388
#
# Coordination Sequence:
#
# PCOD8154892 Si02
#       5
#     8   8   8   8   8
#     4  12  24  46  77 110 153 202 259 327 398 476
#     4  12  25  49  75 109 158 205 260 330 397 475
#     4  12  28  47  76 114 157 206 265 332 398 481
#     4  12  28  49  80 114 157 210 262 333 404 480
#     4  12  26  49  79 113 158 206 268 328 404 484
#
# _framework density 23.270659999999999
#
# number of rings (size 3 to 8) (size 9 to 14) (size 15 to 20)
#    0.000    0.000    4.000    5.400    5.600    1.600 
#    0.000    1.000    0.000    0.000    0.000    0.000 
#    0.000    0.000    0.000    0.000    0.000    0.000 
#
# Total GULP energy -247781.621842 kJ/mol
# GULP energy per Si atom -12389.081092 kJ/mol
# Density = 2.321769 g / cm^3
# Si number density = 23.270660 Si / 1000 Ang^3
#
#
#
# Elastic Constant Matrix: (Units=GPa)
#
#
# Indices 1 2 3 4 5 6 
#
# 1 162.2997 50.5293 49.0197 0.0000 -4.1714 0.0000
# 2 50.5293 162.7583 77.3340 0.0000 9.1720 0.0000
# 3 49.0197 77.3340 119.3193 0.0000 18.8665 0.0000
# 4 0.0000 0.0000 0.0000 52.8371 0.0000 -1.6635
# 5 -4.1714 9.1720 18.8665 0.0000 49.8023 0.0000
# 6 0.0000 0.0000 0.0000 -1.6635 0.0000 39.6728
#
#
#
# Elastic Compliance Matrix: (Units=1/GPa)
#
#
# Indices 1 2 3 4 5 6 
#
# 1 0.007339 -0.001174 -0.002538 0.000000 0.001792 0.000000
# 2 -0.001174 0.009082 -0.005450 0.000000 0.000294 0.000000
# 3 -0.002538 -0.005450 0.013648 0.000000 -0.004379 0.000000
# 4 0.000000 0.000000 0.000000 0.018951 0.000000 0.000795
# 5 0.001792 0.000294 -0.004379 0.000000 0.021834 0.000000
# 6 0.000000 0.000000 0.000000 0.000795 0.000000 0.025240
#
#
# Mechanical properties :
#
#
# Convention : Reuss Voigt Hill
#
# Bulk Modulus (GPa) = 85.13819 88.68259 86.91039
# Shear Modulus (GPa) = 42.25341 46.29539 44.27440
#
# Velocity S-wave (km/s) = 4.26577 4.46514 4.36659
# Velocity P-wave (km/s) = 7.80563 8.04831 7.92790
#
# Compressibility (1/GPa) = 0.01174561
#
# Stress axis : x y z
#
# Youngs Moduli (GPa) = 136.24979 110.11284 73.26828
#
# Poissons Ratio (x) = 0.12924 0.18595
# Poissons Ratio (y) = 0.15991 0.39933
# Poissons Ratio (z) = 0.34580 0.60015
#
# Static dielectric constant tensor:
#      x y z
#    x 4.508150 0.000000 -0.133690 
#    y 0.000000 4.705780 0.000000 
#    z -0.133690 0.000000 4.952070 
# 
# 
# High freq. dielectric constant tensor:
#      x y z
#    x 1.943740 0.000000 -0.005290 
#    y 0.000000 1.926350 0.000000 
#    z -0.005290 0.000000 1.927980 
# 
# From -- ./inp_files/181280.got.cif
#   From: 2010.06.25/outbox.cif.g09.slc.cpg/sg15_91_cif.got.tgz:181280.got - 2010.06.28 07:06:18.
