data_PCOD8154288
_publ_section_title
;
Structure prediction by ZEFSAII (Michael W. Deem and Ramdas Pophale) SiO2 
 PCOD8154288
Probable space group: C 2/C
;
_chemical_formula_sum "Si O2"
_cell_formula_units_Z 44
_cell_length_a 10.406420
_cell_length_b 8.717465
_cell_length_c 23.897936
_cell_angle_alpha 90.000000
_cell_angle_beta 62.133971
_cell_angle_gamma 90.000000
_cell_volume 1916.572723
_symmetry_space_group_name_H-M "C 2/C"
_symmetry_group_IT_number 15
_symmetry_cell_setting 'monoclinic'
loop_
_space_group_symop_operation_xyz
x,y,z
-x,y,1/2-z
-x,-y,-z
x,-y,1/2+z
1/2+x,1/2+y,z
1/2-x,1/2+y,1/2-z
1/2-x,1/2-y,-z
1/2+x,1/2-y,1/2+z
loop_
_atom_site_type_symbol
_atom_site_label
_atom_site_fract_x
_atom_site_fract_y
_atom_site_fract_z
Si Si1 0.329984 0.073977 0.795641
Si Si2 0.663944 0.593281 0.029441
Si Si3 0.000000 0.827961 0.250000
Si Si4 0.253476 0.556237 0.874349
Si Si5 0.823891 0.630821 0.202038
Si Si6 0.176168 0.894631 0.922543
O O1 0.500000 0.050894 0.750000
O O2 0.293811 0.252071 0.798897
O O3 0.247372 0.978533 0.763835
O O4 0.275634 0.005061 0.864840
O O5 0.702241 0.554080 0.084870
O O6 0.491451 0.605777 0.060186
O O7 0.750000 0.750000 0.000000
O O8 0.708226 0.455692 0.978442
O O9 0.876195 0.933618 0.301352
O O10 0.953429 0.721763 0.206455
O O11 0.125704 0.472735 0.862763
O O12 0.218564 0.718627 0.907971
#
# Coordination Sequence:
#
# PCOD8154288 Si02
#       6
#     8   8   4   8   8   8
#     4  12  24  42  70 104 142 184 233 296 360 430
#     4  11  27  48  75 104 143 195 243 295 352 428
#     4  12  24  44  68 106 148 182 230 300 366 424
#     4  12  26  44  73 105 144 187 236 294 362 423
#     4  12  24  40  66 104 141 187 228 287 360 427
#     4  11  25  49  71 105 143 187 242 292 356 431
#
# _framework density 22.957646
#
# number of rings (size 3 to 8) (size 9 to 14) (size 15 to 20)
#    0.000    0.364    4.545    2.727    1.273    8.000 
#    0.000    0.000    0.000    0.000    0.000    0.000 
#    0.000    0.000    0.000    0.000    0.000    0.000 
#
# Total GULP energy -272593.198258 kJ/mol
# GULP energy per Si atom -12390.599921 kJ/mol
# Density = 2.290539 g / cm^3
# Si number density = 22.957646 Si / 1000 Ang^3
#
#
#
# Elastic Constant Matrix: (Units=GPa)
#
#
# Indices 1 2 3 4 5 6 
#
# 1 91.2435 35.5564 66.8118 0.0000 15.1222 0.0000
# 2 35.5564 134.7432 41.6073 0.0000 6.5192 0.0000
# 3 66.8118 41.6073 106.7668 0.0000 12.2277 0.0000
# 4 0.0000 0.0000 0.0000 32.8253 0.0000 15.6629
# 5 15.1222 6.5192 12.2277 0.0000 48.4112 0.0000
# 6 0.0000 0.0000 0.0000 15.6629 0.0000 31.7559
#
#
#
# Elastic Compliance Matrix: (Units=1/GPa)
#
#
# Indices 1 2 3 4 5 6 
#
# 1 0.021041 -0.001641 -0.012151 0.000000 -0.003282 0.000000
# 2 -0.001641 0.008569 -0.002306 0.000000 -0.000059 0.000000
# 3 -0.012151 -0.002306 0.017917 0.000000 -0.000419 0.000000
# 4 0.000000 0.000000 0.000000 0.039841 0.000000 -0.019651
# 5 -0.003282 -0.000059 -0.000419 0.000000 0.021795 0.000000
# 6 0.000000 0.000000 0.000000 -0.019651 0.000000 0.041182
#
#
# Mechanical properties :
#
#
# Convention : Reuss Voigt Hill
#
# Bulk Modulus (GPa) = 65.22966 68.96716 67.09841
# Shear Modulus (GPa) = 26.64500 35.18370 30.91435
#
# Velocity S-wave (km/s) = 3.41048 3.91902 3.67356
# Velocity P-wave (km/s) = 6.63198 7.11228 6.87633
#
# Compressibility (1/GPa) = 0.01533045
#
# Stress axis : x y z
#
# Youngs Moduli (GPa) = 47.52653 116.69335 55.81387
#
# Poissons Ratio (x) = 0.19153 0.67821
# Poissons Ratio (y) = 0.07801 0.12869
# Poissons Ratio (z) = 0.57751 0.26906
#
# Static dielectric constant tensor:
#      x y z
#    x 2.888860 0.000000 -0.019810 
#    y 0.000000 4.399260 0.000000 
#    z -0.019810 0.000000 4.194350 
# 
# 
# High freq. dielectric constant tensor:
#      x y z
#    x 1.904190 0.000000 0.024790 
#    y 0.000000 1.934440 0.000000 
#    z 0.024790 0.000000 1.907050 
# 
# From -- ./inp_files/267976.got.cif
#   From: 2010.06.25/outbox.cif.g09.slc.cpg/sg15_134_cif.got.tgz:267976.got - 2010.06.28 07:06:18.
