data_PCOD8154131
_publ_section_title
;
Structure prediction by ZEFSAII (Michael W. Deem and Ramdas Pophale) SiO2 
 PCOD8154131
Probable space group: C 2/C
;
_chemical_formula_sum "Si O2"
_cell_formula_units_Z 48
_cell_length_a 20.071924
_cell_length_b 18.407819
_cell_length_c 16.640224
_cell_angle_alpha 90.000000
_cell_angle_beta 160.046283
_cell_angle_gamma 90.000000
_cell_volume 2098.152793
_symmetry_space_group_name_H-M "C 2/C"
_symmetry_group_IT_number 15
_symmetry_cell_setting 'monoclinic'
loop_
_space_group_symop_operation_xyz
x,y,z
-x,y,1/2-z
-x,-y,-z
x,-y,1/2+z
1/2+x,1/2+y,z
1/2-x,1/2+y,1/2-z
1/2-x,1/2-y,-z
1/2+x,1/2-y,1/2+z
loop_
_atom_site_type_symbol
_atom_site_label
_atom_site_fract_x
_atom_site_fract_y
_atom_site_fract_z
Si Si1 0.875147 0.320602 0.033461
Si Si2 0.044041 0.084756 0.950064
Si Si3 0.186138 0.324435 0.260935
Si Si4 0.777054 0.697448 0.953538
Si Si5 0.956544 0.080589 0.360244
Si Si6 0.904269 0.330569 0.801200
O O1 0.000000 0.290486 0.250000
O O2 0.019764 0.352041 0.131526
O O3 0.739206 0.258454 0.841229
O O4 0.738682 0.388457 0.903224
O O5 0.874675 0.131418 0.715269
O O6 0.057744 0.096634 0.060839
O O7 0.252550 0.103341 0.144187
O O8 0.986159 0.002042 0.868577
O O9 0.368385 0.375561 0.480271
O O10 0.100371 0.336514 0.075229
O O11 0.708866 0.755199 0.806598
O O12 0.750000 0.750000 0.000000
O O13 0.999381 0.669637 0.181290
#
# Coordination Sequence:
#
# PCOD8154131 Si02
#       6
#     8   8   8   8   8   8
#     4  12  25  42  70 105 141 177 233 298 361 431
#     4  11  25  45  70 102 143 187 242 306 358 431
#     4  12  23  41  72 104 133 185 239 289 354 439
#     4  12  25  42  69 105 143 184 242 305 364 436
#     4  11  25  45  70 104 144 187 242 302 363 432
#     4  12  23  41  72 102 134 189 244 291 358 437
#
# _framework density 22.877265999999999
#
# number of rings (size 3 to 8) (size 9 to 14) (size 15 to 20)
#    0.000    0.333    6.667    3.000    0.000    2.000 
#    0.000    5.000    0.000    0.000    0.000    0.000 
#    0.000    0.000    0.000    0.000    0.000    0.000 
#
# Total GULP energy -297512.500075 kJ/mol
# GULP energy per Si atom -12396.354170 kJ/mol
# Density = 2.282520 g / cm^3
# Si number density = 22.877266 Si / 1000 Ang^3
#
#
#
# Elastic Constant Matrix: (Units=GPa)
#
#
# Indices 1 2 3 4 5 6 
#
# 1 73.4387 69.7579 62.7824 -0.0003 22.2297 -0.0001
# 2 69.7579 140.1231 73.8816 0.0002 13.2083 0.0000
# 3 62.7824 73.8816 143.4605 0.0000 38.7340 -0.0002
# 4 -0.0003 0.0002 0.0000 36.9450 0.0000 4.5531
# 5 22.2297 13.2083 38.7340 0.0000 35.1569 -0.0001
# 6 -0.0001 0.0000 -0.0002 4.5531 -0.0001 31.6860
#
#
#
# Elastic Compliance Matrix: (Units=1/GPa)
#
#
# Indices 1 2 3 4 5 6 
#
# 1 0.033596 -0.013027 -0.005096 0.000000 -0.010735 0.000000
# 2 -0.013027 0.015028 -0.003897 0.000000 0.006885 0.000000
# 3 -0.005096 -0.003897 0.014152 0.000000 -0.010906 0.000000
# 4 0.000000 0.000000 0.000000 0.027555 0.000000 -0.003960
# 5 -0.010735 0.006885 -0.010906 0.000000 0.044661 0.000000
# 6 0.000000 0.000000 0.000000 -0.003960 0.000000 0.032129
#
#
# Mechanical properties :
#
#
# Convention : Reuss Voigt Hill
#
# Bulk Modulus (GPa) = 53.37019 85.54069 69.45544
# Shear Modulus (GPa) = 22.99859 30.79761 26.89810
#
# Velocity S-wave (km/s) = 3.17409 3.67305 3.43265
# Velocity P-wave (km/s) = 6.06735 7.44720 6.79240
#
# Compressibility (1/GPa) = 0.01873705
#
# Stress axis : x y z
#
# Youngs Moduli (GPa) = 29.76536 66.54461 70.66084
#
# Poissons Ratio (x) = 0.86685 0.36006
# Poissons Ratio (y) = 0.38774 0.27537
# Poissons Ratio (z) = 0.15167 0.25933
#
# Static dielectric constant tensor:
#      x y z
#    x 4.850750 0.000000 -0.856430 
#    y 0.000000 4.084140 0.000000 
#    z -0.856430 0.000000 5.894630 
# 
# 
# High freq. dielectric constant tensor:
#      x y z
#    x 1.912720 0.000000 0.011210 
#    y 0.000000 1.880230 0.000000 
#    z 0.011210 0.000000 1.928580 
# 
# From -- ./inp_files/216263.got.cif
#   From: 2010.06.25/outbox.cif.g09.slc.cpg/sg15_109_cif.got.tgz:216263.got - 2010.06.28 07:06:18.
