data_PCOD8154270
_publ_section_title
;
Structure prediction by ZEFSAII (Michael W. Deem and Ramdas Pophale) SiO2 
 PCOD8154270
Probable space group: C 2/C
;
_chemical_formula_sum "Si O2"
_cell_formula_units_Z 64
_cell_length_a 15.321100
_cell_length_b 14.483243
_cell_length_c 15.281314
_cell_angle_alpha 90.000000
_cell_angle_beta 130.516958
_cell_angle_gamma 90.000000
_cell_volume 2577.817476
_symmetry_space_group_name_H-M "C 2/C"
_symmetry_group_IT_number 15
_symmetry_cell_setting 'monoclinic'
loop_
_space_group_symop_operation_xyz
x,y,z
-x,y,1/2-z
-x,-y,-z
x,-y,1/2+z
1/2+x,1/2+y,z
1/2-x,1/2+y,1/2-z
1/2-x,1/2-y,-z
1/2+x,1/2-y,1/2+z
loop_
_atom_site_type_symbol
_atom_site_label
_atom_site_fract_x
_atom_site_fract_y
_atom_site_fract_z
Si Si1 0.766058 0.905152 0.548601
Si Si2 0.030690 0.857031 0.366739
Si Si3 0.027257 0.672892 0.466956
Si Si4 0.668971 0.495478 0.233738
Si Si5 0.699315 0.145918 0.262142
Si Si6 0.690594 0.177205 0.721973
Si Si7 0.379785 0.229952 0.638107
Si Si8 0.790791 0.589104 0.046570
O O1 0.664985 0.827091 0.475752
O O2 0.880057 0.840222 0.613616
O O3 0.780876 0.972044 0.640734
O O4 0.730492 0.978900 0.451936
O O5 0.959750 0.952252 0.344162
O O6 0.000000 0.823357 0.250000
O O7 0.004171 0.776837 0.418328
O O8 0.166031 0.868621 0.452754
O O9 0.063670 0.674949 0.593348
O O10 0.126513 0.618029 0.479049
O O11 0.903749 0.622227 0.373857
O O12 0.683867 0.586604 0.182553
O O13 0.754747 0.422756 0.247206
O O14 0.732505 0.253115 0.285019
O O15 0.651010 0.124670 0.326794
O O16 0.697645 0.214120 0.825697
O O17 0.500000 0.193427 0.750000
#
# Coordination Sequence:
#
# PCOD8154270 Si02
#       8
#     8   8   8   8   8   8   8   8
#     4  11  25  48  73 108 152 194 252 310 369 462
#     4  12  23  42  75 109 151 194 242 312 383 456
#     4  12  26  45  78 109 154 195 244 324 392 447
#     4  12  26  47  74 110 152 199 253 312 383 450
#     4  12  27  46  72 110 155 196 257 314 378 462
#     4  12  25  48  72 111 148 195 255 312 381 453
#     4  11  28  49  78 105 151 205 256 308 378 449
#     4  12  25  45  75 112 148 193 254 307 387 456
#
# _framework density 24.827203000000001
#
# number of rings (size 3 to 8) (size 9 to 14) (size 15 to 20)
#    0.000    0.250    6.250    2.250    3.500    3.000 
#    2.250    0.000    0.000    0.000    0.000    0.000 
#    0.000    0.000    0.000    0.000    0.000    0.000 
#
# Total GULP energy -396442.121614 kJ/mol
# GULP energy per Si atom -12388.816300 kJ/mol
# Density = 2.477070 g / cm^3
# Si number density = 24.827203 Si / 1000 Ang^3
#
#
#
# Elastic Constant Matrix: (Units=GPa)
#
#
# Indices 1 2 3 4 5 6 
#
# 1 33.7187 5.2255 3.8280 0.0000 10.3906 0.0000
# 2 5.2255 105.4748 11.3240 0.0000 -3.1743 0.0000
# 3 3.8280 11.3240 111.2776 0.0000 10.9731 0.0000
# 4 0.0000 0.0000 0.0000 42.7910 0.0000 -3.0561
# 5 10.3906 -3.1743 10.9731 0.0000 32.4673 0.0000
# 6 0.0000 0.0000 0.0000 -3.0561 0.0000 20.7572
#
#
#
# Elastic Compliance Matrix: (Units=1/GPa)
#
#
# Indices 1 2 3 4 5 6 
#
# 1 0.033310 -0.001992 0.000132 0.000000 -0.010899 0.000000
# 2 -0.001992 0.009759 -0.001119 0.000000 0.001970 0.000000
# 3 0.000132 -0.001119 0.009425 0.000000 -0.003337 0.000000
# 4 0.000000 0.000000 0.000000 0.023618 0.000000 0.003477
# 5 -0.010899 0.001970 -0.003337 0.000000 0.035609 0.000000
# 6 0.000000 0.000000 0.000000 0.003477 0.000000 0.048688
#
#
# Mechanical properties :
#
#
# Convention : Reuss Voigt Hill
#
# Bulk Modulus (GPa) = 21.48942 32.35847 26.92395
# Shear Modulus (GPa) = 27.49086 34.54269 31.01677
#
# Velocity S-wave (km/s) = 3.33120 3.73409 3.53839
# Velocity P-wave (km/s) = 4.84461 5.62610 5.24992
#
# Compressibility (1/GPa) = 0.04653452
#
# Stress axis : x y z
#
# Youngs Moduli (GPa) = 30.02130 102.46902 106.10186
#
# Poissons Ratio (x) = 0.20416 -0.01397
# Poissons Ratio (y) = 0.05981 0.11871
# Poissons Ratio (z) = -0.00395 0.11464
#
# Static dielectric constant tensor:
#      x y z
#    x 4.533230 0.000000 -0.162110 
#    y 0.000000 4.886300 0.000000 
#    z -0.162110 0.000000 4.796900 
# 
# 
# High freq. dielectric constant tensor:
#      x y z
#    x 1.961580 0.000000 -0.002690 
#    y 0.000000 2.000820 0.000000 
#    z -0.002690 0.000000 2.003970 
# 
# From -- ./inp_files/211403.got.cif
#   From: 2010.06.25/outbox.cif.g09.slc.cpg/sg15_106_cif.got.tgz:211403.got - 2010.06.28 07:06:18.
