data_PCOD8154719
_publ_section_title
;
Structure prediction by ZEFSAII (Michael W. Deem and Ramdas Pophale) SiO2 
 PCOD8154719
Probable space group: C 2/C
;
_chemical_formula_sum "Si O2"
_cell_formula_units_Z 56
_cell_length_a 27.106704
_cell_length_b 8.483569
_cell_length_c 12.090205
_cell_angle_alpha 90.000000
_cell_angle_beta 63.679955
_cell_angle_gamma 90.000000
_cell_volume 2492.054691
_symmetry_space_group_name_H-M "C 2/C"
_symmetry_group_IT_number 15
_symmetry_cell_setting 'monoclinic'
loop_
_space_group_symop_operation_xyz
x,y,z
-x,y,1/2-z
-x,-y,-z
x,-y,1/2+z
1/2+x,1/2+y,z
1/2-x,1/2+y,1/2-z
1/2-x,1/2-y,-z
1/2+x,1/2-y,1/2+z
loop_
_atom_site_type_symbol
_atom_site_label
_atom_site_fract_x
_atom_site_fract_y
_atom_site_fract_z
Si Si1 0.294749 0.296564 0.718705
Si Si2 0.046387 0.151096 0.292817
Si Si3 0.849236 0.701907 0.890767
Si Si4 0.819543 0.156793 0.641179
Si Si5 0.131910 0.637719 0.036892
Si Si6 0.515996 0.836335 0.534749
Si Si7 0.909001 0.186882 0.720544
O O1 0.311845 0.227590 0.820695
O O2 0.229810 0.269693 0.770520
O O3 0.307667 0.479727 0.691620
O O4 0.325919 0.199379 0.594784
O O5 0.086530 0.284275 0.204895
O O6 0.021697 0.204478 0.434203
O O7 0.000000 0.112403 0.250000
O O8 0.083069 0.998546 0.275741
O O9 0.843681 0.528575 0.947509
O O10 0.829690 0.831547 0.999718
O O11 0.875551 0.220606 0.641467
O O12 0.129662 0.756337 0.141665
O O13 0.071020 0.633067 0.047441
O O14 0.467296 0.777249 0.663171
O O15 0.500000 0.000000 0.500000
#
# Coordination Sequence:
#
# PCOD8154719 Si02
#       7
#     8   8   8   8   8   8   8
#     4  12  28  51  75 109 144 189 252 296 369 431
#     4  12  23  43  71 105 146 189 239 301 361 434
#     4  12  26  49  74 110 149 186 245 300 365 433
#     4  12  27  49  77 105 145 195 240 307 359 431
#     4  12  26  46  74 105 151 189 241 300 361 434
#     4  12  24  43  69 106 147 189 241 297 361 437
#     4  12  26  45  71 107 148 192 245 294 363 430
#
# _framework density 22.471416999999999
#
# number of rings (size 3 to 8) (size 9 to 14) (size 15 to 20)
#    0.000    0.000    2.857    7.286    4.000    0.571 
#    0.000    0.000    0.000    0.000    0.000    0.000 
#    0.000    0.000    0.000    0.000    0.000    0.000 
#
# Total GULP energy -347395.016245 kJ/mol
# GULP energy per Si atom -12406.964866 kJ/mol
# Density = 2.242027 g / cm^3
# Si number density = 22.471417 Si / 1000 Ang^3
#
#
#
# Elastic Constant Matrix: (Units=GPa)
#
#
# Indices 1 2 3 4 5 6 
#
# 1 82.8301 24.2596 30.5671 0.0000 -6.2340 0.0000
# 2 24.2596 93.6029 35.1593 0.0000 15.6475 0.0000
# 3 30.5671 35.1593 113.4225 0.0000 16.9737 0.0000
# 4 0.0000 0.0000 0.0000 35.3471 0.0000 -5.2014
# 5 -6.2340 15.6475 16.9737 0.0000 33.3001 0.0000
# 6 0.0000 0.0000 0.0000 -5.2014 0.0000 29.8388
#
#
#
# Elastic Compliance Matrix: (Units=1/GPa)
#
#
# Indices 1 2 3 4 5 6 
#
# 1 0.015037 -0.003500 -0.003935 0.000000 0.006465 0.000000
# 2 -0.003500 0.013441 -0.002360 0.000000 -0.005768 0.000000
# 3 -0.003935 -0.002360 0.011424 0.000000 -0.005451 0.000000
# 4 0.000000 0.000000 0.000000 0.029036 0.000000 0.005061
# 5 0.006465 -0.005768 -0.005451 0.000000 0.036729 0.000000
# 6 0.000000 0.000000 0.000000 0.005061 0.000000 0.034396
#
#
# Mechanical properties :
#
#
# Convention : Reuss Voigt Hill
#
# Bulk Modulus (GPa) = 49.23121 52.20306 50.71713
# Shear Modulus (GPa) = 30.04381 33.02185 31.53283
#
# Velocity S-wave (km/s) = 3.66044 3.83757 3.75005
# Velocity P-wave (km/s) = 6.31039 6.55112 6.43188
#
# Compressibility (1/GPa) = 0.02031232
#
# Stress axis : x y z
#
# Youngs Moduli (GPa) = 66.50404 74.39755 87.53193
#
# Poissons Ratio (x) = 0.26038 0.34444
# Poissons Ratio (y) = 0.23276 0.20659
# Poissons Ratio (z) = 0.26169 0.17559
#
# Static dielectric constant tensor:
#      x y z
#    x 2.594550 0.000000 -0.037990 
#    y 0.000000 4.029470 0.000000 
#    z -0.037990 0.000000 4.196310 
# 
# 
# High freq. dielectric constant tensor:
#      x y z
#    x 1.896780 0.000000 -0.000550 
#    y 0.000000 1.893490 0.000000 
#    z -0.000550 0.000000 1.903380 
# 
# From -- ./inp_files/121870.got.cif
#   From: 2010.06.25/outbox.cif.g09.slc.cpg/sg15_61_cif.got.tgz:121870.got - 2010.06.28 07:06:18.
