data_PCOD8154936
_publ_section_title
;
Structure prediction by ZEFSAII (Michael W. Deem and Ramdas Pophale) SiO2 
 PCOD8154936
Probable space group: C 2/C
;
_chemical_formula_sum "Si O2"
_cell_formula_units_Z 48
_cell_length_a 27.789061
_cell_length_b 10.291361
_cell_length_c 21.892464
_cell_angle_alpha 90.000000
_cell_angle_beta 161.781048
_cell_angle_gamma 90.000000
_cell_volume 1957.485488
_symmetry_space_group_name_H-M "C 2/C"
_symmetry_group_IT_number 15
_symmetry_cell_setting 'monoclinic'
loop_
_space_group_symop_operation_xyz
x,y,z
-x,y,1/2-z
-x,-y,-z
x,-y,1/2+z
1/2+x,1/2+y,z
1/2-x,1/2+y,1/2-z
1/2-x,1/2-y,-z
1/2+x,1/2-y,1/2+z
loop_
_atom_site_type_symbol
_atom_site_label
_atom_site_fract_x
_atom_site_fract_y
_atom_site_fract_z
Si Si1 0.000000 0.450347 0.750000
Si Si2 0.159363 0.131556 0.627861
Si Si3 0.013813 0.112328 0.893870
Si Si4 0.550732 0.129519 0.599495
Si Si5 0.698648 0.119554 0.904699
Si Si6 0.777717 0.326485 0.387834
Si Si7 0.000000 0.986241 0.250000
O O1 0.136370 0.533732 0.885195
O O2 0.921284 0.365567 0.602520
O O3 0.283867 0.174959 0.727597
O O4 0.248617 0.073931 0.795756
O O5 0.070791 0.253797 0.552131
O O6 0.039396 0.027086 0.456841
O O7 0.878907 0.193581 0.763392
O O8 0.955123 0.098386 0.754096
O O9 0.174102 0.190320 0.086495
O O10 0.569831 0.118894 0.696286
O O11 0.500000 0.000000 0.500000
O O12 0.750000 0.250000 0.000000
O O13 0.850549 0.069511 0.053510
#
# Coordination Sequence:
#
# PCOD8154936 Si02
#       7
#     4   8   8   8   8   8   4
#     4  12  28  46  78 112 156 210 264 330 406 482
#     4  12  27  50  81 113 160 205 267 327 402 484
#     4  12  27  50  77 113 156 208 261 333 400 482
#     4  12  28  51  82 118 162 213 266 337 403 487
#     4  12  27  48  79 115 159 205 269 329 409 486
#     4  12  28  48  76 110 155 204 265 325 401 477
#     4  12  24  48  76 106 160 196 260 326 400 476
#
# _framework density 24.521255
#
# number of rings (size 3 to 8) (size 9 to 14) (size 15 to 20)
#    0.000    0.000    3.333    5.500    4.667    2.667 
#    0.000    0.000    0.000    0.000    0.000    0.000 
#    0.000    0.000    0.000    0.000    0.000    0.000 
#
# Total GULP energy -297468.730803 kJ/mol
# GULP energy per Si atom -12394.530450 kJ/mol
# Density = 2.446544 g / cm^3
# Si number density = 24.521255 Si / 1000 Ang^3
#
#
#
# Elastic Constant Matrix: (Units=GPa)
#
#
# Indices 1 2 3 4 5 6 
#
# 1 131.6590 46.2919 44.5912 0.0002 -3.2700 -0.0001
# 2 46.2919 114.8507 43.8555 0.0006 11.6766 0.0005
# 3 44.5912 43.8555 114.2936 0.0006 -1.1109 0.0004
# 4 0.0002 0.0006 0.0006 22.6398 0.0008 -0.1992
# 5 -3.2700 11.6766 -1.1109 0.0008 73.7928 0.0004
# 6 -0.0001 0.0005 0.0004 -0.1992 0.0004 32.3760
#
#
#
# Elastic Compliance Matrix: (Units=1/GPa)
#
#
# Indices 1 2 3 4 5 6 
#
# 1 0.009524 -0.002940 -0.002579 0.000000 0.000848 0.000000
# 2 -0.002940 0.011320 -0.003216 0.000000 -0.001970 0.000000
# 3 -0.002579 -0.003216 0.010995 0.000000 0.000560 0.000000
# 4 0.000000 0.000000 0.000000 0.044172 0.000000 0.000272
# 5 0.000848 -0.001970 0.000560 0.000000 0.013909 0.000000
# 6 0.000000 0.000000 0.000000 0.000272 0.000000 0.030889
#
#
# Mechanical properties :
#
#
# Convention : Reuss Voigt Hill
#
# Bulk Modulus (GPa) = 69.59507 70.03115 69.81311
# Shear Modulus (GPa) = 34.94814 40.83271 37.89042
#
# Velocity S-wave (km/s) = 3.77930 4.08511 3.93518
# Velocity P-wave (km/s) = 6.89110 7.13247 7.01283
#
# Compressibility (1/GPa) = 0.01436883
#
# Stress axis : x y z
#
# Youngs Moduli (GPa) = 105.00069 88.33792 90.94999
#
# Poissons Ratio (x) = 0.25971 0.23459
# Poissons Ratio (y) = 0.30870 0.29247
# Poissons Ratio (z) = 0.27083 0.28407
#
# Static dielectric constant tensor:
#      x y z
#    x 4.320370 0.000000 -0.116970 
#    y 0.000000 4.240400 0.000000 
#    z -0.116970 0.000000 4.540860 
# 
# 
# High freq. dielectric constant tensor:
#      x y z
#    x 2.005630 0.000000 -0.007250 
#    y 0.000000 1.950390 0.000000 
#    z -0.007250 0.000000 1.996560 
# 
# From -- ./inp_files/257681.got.cif
#   From: 2010.06.25/outbox.cif.g09.slc.cpg/sg15_129_cif.got.tgz:257681.got - 2010.06.28 07:06:18.
