data_PCOD8154549
_publ_section_title
;
Structure prediction by ZEFSAII (Michael W. Deem and Ramdas Pophale) SiO2 
 PCOD8154549
Probable space group: C 2/C
;
_chemical_formula_sum "Si O2"
_cell_formula_units_Z 48
_cell_length_a 14.652419
_cell_length_b 9.845387
_cell_length_c 27.651217
_cell_angle_alpha 90.000000
_cell_angle_beta 37.358701
_cell_angle_gamma 90.000000
_cell_volume 2420.494708
_symmetry_space_group_name_H-M "C 2/C"
_symmetry_group_IT_number 15
_symmetry_cell_setting 'monoclinic'
loop_
_space_group_symop_operation_xyz
x,y,z
-x,y,1/2-z
-x,-y,-z
x,-y,1/2+z
1/2+x,1/2+y,z
1/2-x,1/2+y,1/2-z
1/2-x,1/2-y,-z
1/2+x,1/2-y,1/2+z
loop_
_atom_site_type_symbol
_atom_site_label
_atom_site_fract_x
_atom_site_fract_y
_atom_site_fract_z
Si Si1 0.714236 0.109678 0.540019
Si Si2 0.354821 0.717049 0.675824
Si Si3 0.115111 0.385354 0.435707
Si Si4 0.132292 0.532951 0.824176
Si Si5 0.827769 0.864646 0.435707
Si Si6 0.084292 0.140322 0.959981
O O1 0.750000 0.250000 0.500000
O O2 0.545148 0.056720 0.606524
O O3 0.757946 0.125000 0.578036
O O4 0.822358 0.003720 0.467631
O O5 0.213761 0.625000 0.750000
O O6 0.498728 0.671352 0.646343
O O7 0.385281 0.693280 0.606524
O O8 0.324526 0.875000 0.700316
O O9 0.187757 0.421352 0.353657
O O10 0.250233 0.375000 0.416511
O O11 0.000000 0.500000 0.500000
O O12 0.024751 0.246280 0.467631
O O13 0.750000 0.750000 0.500000
O O14 0.000000 0.000000 0.000000
#
# Coordination Sequence:
#
# PCOD8154549 Si02
#       6
#     8   8   8   8   8   8
#     4  12  23  40  72 104 129 172 228 278 329 398
#     4  12  28  47  66 101 143 176 221 285 344 398
#     4  12  21  44  72  98 129 179 232 273 324 404
#     4  12  28  47  66 101 143 176 221 285 344 398
#     4  12  21  44  72  98 129 179 232 273 324 404
#     4  12  23  40  72 104 129 172 228 278 329 398
#
# _framework density 19.830655
#
# number of rings (size 3 to 8) (size 9 to 14) (size 15 to 20)
#    0.000    0.000   10.000    0.000    4.667    1.333 
#    0.000    3.333    0.000    0.000    0.000    0.000 
#    0.000    0.000    0.000    0.000    0.000    0.000 
#
# Total GULP energy -297686.611827 kJ/mol
# GULP energy per Si atom -12403.608826 kJ/mol
# Density = 1.978552 g / cm^3
# Si number density = 19.830655 Si / 1000 Ang^3
#
#
#
# Elastic Constant Matrix: (Units=GPa)
#
#
# Indices 1 2 3 4 5 6 
#
# 1 150.0502 24.6131 16.9769 0.0000 5.0438 -0.0001
# 2 24.6131 178.7959 43.9191 0.0000 -1.0185 -0.0001
# 3 16.9769 43.9191 72.6534 0.0000 -0.9605 0.0000
# 4 0.0000 0.0000 0.0000 38.6101 0.0000 -0.4635
# 5 5.0438 -1.0185 -0.9605 0.0000 19.0519 0.0000
# 6 -0.0001 -0.0001 0.0000 -0.4635 0.0000 29.8251
#
#
#
# Elastic Compliance Matrix: (Units=1/GPa)
#
#
# Indices 1 2 3 4 5 6 
#
# 1 0.006981 -0.000664 -0.001256 0.000000 -0.001947 0.000000
# 2 -0.000664 0.006632 -0.003849 0.000000 0.000336 0.000000
# 3 -0.001256 -0.003849 0.016397 0.000000 0.000953 0.000000
# 4 0.000000 0.000000 0.000000 0.025905 0.000000 0.000403
# 5 -0.001947 0.000336 0.000953 0.000000 0.053070 0.000000
# 6 0.000000 0.000000 0.000000 0.000403 0.000000 0.033535
#
#
# Mechanical properties :
#
#
# Convention : Reuss Voigt Hill
#
# Bulk Modulus (GPa) = 54.13604 63.61308 58.87456
# Shear Modulus (GPa) = 31.20824 38.56344 34.88584
#
# Velocity S-wave (km/s) = 3.97134 4.41459 4.19882
# Velocity P-wave (km/s) = 6.95609 7.62447 7.29794
#
# Compressibility (1/GPa) = 0.01847198
#
# Stress axis : x y z
#
# Youngs Moduli (GPa) = 143.24980 150.78865 60.98675
#
# Poissons Ratio (x) = 0.10006 0.07659
# Poissons Ratio (y) = 0.09506 0.23476
# Poissons Ratio (z) = 0.17989 0.58045
#
# Static dielectric constant tensor:
#      x y z
#    x 5.044030 0.000000 0.084640 
#    y 0.000000 3.902860 0.000000 
#    z 0.084640 0.000000 3.439740 
# 
# 
# High freq. dielectric constant tensor:
#      x y z
#    x 1.791540 0.000000 0.002330 
#    y 0.000000 1.801960 0.000000 
#    z 0.002330 0.000000 1.747320 
# 
# From -- ./inp_files/242593.got.cif
#   From: 2010.06.25/outbox.cif.g09.slc.cpg/sg15_122_cif.got.tgz:242593.got - 2010.06.28 07:06:18.
