data_PCOD8154658
_publ_section_title
;
Structure prediction by ZEFSAII (Michael W. Deem and Ramdas Pophale) SiO2 
 PCOD8154658
Probable space group: C 2/C
;
_chemical_formula_sum "Si O2"
_cell_formula_units_Z 44
_cell_length_a 22.002024
_cell_length_b 19.078181
_cell_length_c 13.168018
_cell_angle_alpha 90.000000
_cell_angle_beta 22.144238
_cell_angle_gamma 90.000000
_cell_volume 2083.491277
_symmetry_space_group_name_H-M "C 2/C"
_symmetry_group_IT_number 15
_symmetry_cell_setting 'monoclinic'
loop_
_space_group_symop_operation_xyz
x,y,z
-x,y,1/2-z
-x,-y,-z
x,-y,1/2+z
1/2+x,1/2+y,z
1/2-x,1/2+y,1/2-z
1/2-x,1/2-y,-z
1/2+x,1/2-y,1/2+z
loop_
_atom_site_type_symbol
_atom_site_label
_atom_site_fract_x
_atom_site_fract_y
_atom_site_fract_z
Si Si1 0.516022 0.359241 0.537954
Si Si2 0.324717 0.892095 0.365660
Si Si3 0.239775 0.030335 0.796445
Si Si4 0.500000 0.013882 0.750000
Si Si5 0.602660 0.376075 0.994555
Si Si6 0.919419 0.287684 0.485145
O O1 0.599426 0.422060 0.469039
O O2 0.516502 0.378025 0.417969
O O3 0.607100 0.286705 0.419148
O O4 0.336765 0.350101 0.859041
O O5 0.298479 0.944741 0.314522
O O6 0.372686 0.936842 0.389852
O O7 0.464828 0.836000 0.123878
O O8 0.398110 0.035394 0.481621
O O9 0.175697 0.951807 0.906258
O O10 0.743929 0.321771 0.749569
O O11 0.500000 0.349976 0.250000
O O12 0.000000 0.278811 0.250000
#
# Coordination Sequence:
#
# PCOD8154658 Si02
#       6
#     8   8   8   4   8   8
#     4  12  26  44  74 101 140 184 238 286 345 419
#     4  12  22  45  72 104 134 182 237 286 347 405
#     4  12  26  43  71 104 139 182 240 283 352 410
#     4  12  24  44  72 102 142 186 224 298 342 410
#     4  12  27  46  70 101 144 184 229 293 353 408
#     4  12  24  46  73 103 137 184 233 291 342 415
#
# _framework density 21.118397999999999
#
# number of rings (size 3 to 8) (size 9 to 14) (size 15 to 20)
#    0.000    0.000    6.364    4.364    5.091    0.727 
#    1.636    0.000    0.000    0.000    0.000    0.000 
#    0.000    0.000    0.000    0.000    0.000    0.000 
#
# Total GULP energy -272958.554459 kJ/mol
# GULP energy per Si atom -12407.207021 kJ/mol
# Density = 2.107033 g / cm^3
# Si number density = 21.118398 Si / 1000 Ang^3
#
#
#
# Elastic Constant Matrix: (Units=GPa)
#
#
# Indices 1 2 3 4 5 6 
#
# 1 125.3331 45.1181 23.3067 -0.0106 1.1887 0.0008
# 2 45.1181 94.1595 19.6751 -0.0101 -3.3032 -0.0014
# 3 23.3067 19.6751 84.1369 -0.0313 6.0209 -0.0032
# 4 -0.0106 -0.0101 -0.0313 19.9151 -0.0019 -5.0232
# 5 1.1887 -3.3032 6.0209 -0.0019 37.1503 0.0009
# 6 0.0008 -0.0014 -0.0032 -5.0232 0.0009 31.2873
#
#
#
# Elastic Compliance Matrix: (Units=1/GPa)
#
#
# Indices 1 2 3 4 5 6 
#
# 1 0.009878 -0.004398 -0.001677 0.000000 -0.000435 -0.000001
# 2 -0.004398 0.013200 -0.001986 0.000002 0.001636 0.000001
# 3 -0.001677 -0.001986 0.012973 0.000019 -0.002225 0.000004
# 4 0.000000 0.000002 0.000019 0.052332 -0.000001 0.008402
# 5 -0.000435 0.001636 -0.002225 -0.000001 0.027438 -0.000001
# 6 -0.000001 0.000001 0.000004 0.008402 -0.000001 0.033311
#
#
# Mechanical properties :
#
#
# Convention : Reuss Voigt Hill
#
# Bulk Modulus (GPa) = 50.17372 53.31438 51.74405
# Shear Modulus (GPa) = 29.08726 32.03916 30.56321
#
# Velocity S-wave (km/s) = 3.71528 3.89925 3.80838
# Velocity P-wave (km/s) = 6.49725 6.75074 6.62521
#
# Compressibility (1/GPa) = 0.01993075
#
# Stress axis : x y z
#
# Youngs Moduli (GPa) = 101.23599 75.75757 77.08070
#
# Poissons Ratio (x) = 0.33319 0.12924
# Poissons Ratio (y) = 0.44525 0.15305
# Poissons Ratio (z) = 0.16974 0.15042
#
# Static dielectric constant tensor:
#      x y z
#    x 4.037540 -0.000010 -0.043300 
#    y -0.000010 3.789120 0.000030 
#    z -0.043300 0.000030 3.932030 
# 
# 
# High freq. dielectric constant tensor:
#      x y z
#    x 1.841740 0.000000 -0.009460 
#    y 0.000000 1.828310 0.000000 
#    z -0.009460 0.000000 1.826280 
# 
# From -- ./inp_files/174174.got.cif
#   From: 2010.06.25/outbox.cif.g09.slc.cpg/sg15_88_cif.got.tgz:174174.got - 2010.06.28 07:06:18.
