data_PCOD8154871
_publ_section_title
;
Structure prediction by ZEFSAII (Michael W. Deem and Ramdas Pophale) SiO2 
 PCOD8154871
Probable space group: C 2/C
;
_chemical_formula_sum "Si O2"
_cell_formula_units_Z 52
_cell_length_a 12.258331
_cell_length_b 14.695837
_cell_length_c 14.613660
_cell_angle_alpha 90.000000
_cell_angle_beta 108.917653
_cell_angle_gamma 90.000000
_cell_volume 2490.400273
_symmetry_space_group_name_H-M "C 2/C"
_symmetry_group_IT_number 15
_symmetry_cell_setting 'monoclinic'
loop_
_space_group_symop_operation_xyz
x,y,z
-x,y,1/2-z
-x,-y,-z
x,-y,1/2+z
1/2+x,1/2+y,z
1/2-x,1/2+y,1/2-z
1/2-x,1/2-y,-z
1/2+x,1/2-y,1/2+z
loop_
_atom_site_type_symbol
_atom_site_label
_atom_site_fract_x
_atom_site_fract_y
_atom_site_fract_z
Si Si1 0.502337 0.938622 0.412878
Si Si2 0.284982 0.165679 0.568819
Si Si3 0.133760 0.003377 0.011178
Si Si4 0.791603 0.673999 0.780724
Si Si5 0.500000 0.932401 0.750000
Si Si6 0.247581 0.120600 0.196672
Si Si7 0.865268 0.022235 0.700604
O O1 0.603566 0.867443 0.455395
O O2 0.383995 0.887022 0.359834
O O3 0.500000 0.000000 0.500000
O O4 0.541243 0.003590 0.342269
O O5 0.250000 0.250000 0.500000
O O6 0.321353 0.187673 0.682495
O O7 0.179190 0.096781 0.543668
O O8 0.202358 0.075509 0.091381
O O9 0.161004 0.027939 0.913983
O O10 0.000000 0.000000 0.000000
O O11 0.792326 0.775262 0.820837
O O12 0.672767 0.617648 0.762693
O O13 0.613136 0.873873 0.756257
O O14 0.199801 0.064052 0.270891
O O15 0.000000 0.007472 0.750000
#
# Coordination Sequence:
#
# PCOD8154871 Si02
#       7
#     8   8   8   8   4   8   8
#     4  12  24  47  74 100 143 193 243 306 368 434
#     4  12  25  44  71 107 142 188 250 301 358 441
#     4  12  24  46  70 103 145 185 239 299 372 432
#     4  12  26  46  70 107 145 189 248 299 370 438
#     4  12  24  50  70 100 150 190 242 310 360 438
#     4  12  27  46  73 106 145 196 240 304 371 439
#     4  12  24  47  72 100 146 192 235 303 364 430
#
# _framework density 20.880177
#
# number of rings (size 3 to 8) (size 9 to 14) (size 15 to 20)
#    0.000    0.000    7.692    1.846    5.385    1.846 
#    0.000    0.000    0.000    0.000    0.000    0.000 
#    0.000    0.000    0.000    0.000    0.000    0.000 
#
# Total GULP energy -322424.847830 kJ/mol
# GULP energy per Si atom -12400.955686 kJ/mol
# Density = 2.083265 g / cm^3
# Si number density = 20.880177 Si / 1000 Ang^3
#
#
#
# Elastic Constant Matrix: (Units=GPa)
#
#
# Indices 1 2 3 4 5 6 
#
# 1 138.5785 46.5509 51.6449 0.0000 8.6633 0.0000
# 2 46.5509 147.7385 62.0880 0.0000 -3.6984 0.0000
# 3 51.6449 62.0880 148.4176 0.0000 -13.7662 0.0000
# 4 0.0000 0.0000 0.0000 42.2722 0.0000 4.6815
# 5 8.6633 -3.6984 -13.7662 0.0000 38.8200 0.0000
# 6 0.0000 0.0000 0.0000 4.6815 0.0000 28.8716
#
#
#
# Elastic Compliance Matrix: (Units=1/GPa)
#
#
# Indices 1 2 3 4 5 6 
#
# 1 0.009011 -0.001793 -0.002676 0.000000 -0.003131 0.000000
# 2 -0.001793 0.008577 -0.002948 0.000000 0.000172 0.000000
# 3 -0.002676 -0.002948 0.009235 0.000000 0.003591 0.000000
# 4 0.000000 0.000000 0.000000 0.024089 0.000000 -0.003906
# 5 -0.003131 0.000172 0.003591 0.000000 0.027749 0.000000
# 6 0.000000 0.000000 0.000000 -0.003906 0.000000 0.035269
#
#
# Mechanical properties :
#
#
# Convention : Reuss Voigt Hill
#
# Bulk Modulus (GPa) = 83.40838 83.92247 83.66543
# Shear Modulus (GPa) = 37.66151 40.28949 38.97550
#
# Velocity S-wave (km/s) = 4.25160 4.39744 4.32513
# Velocity P-wave (km/s) = 8.00840 8.12791 8.06838
#
# Compressibility (1/GPa) = 0.01198920
#
# Stress axis : x y z
#
# Youngs Moduli (GPa) = 110.96943 116.59079 108.28019
#
# Poissons Ratio (x) = 0.20907 0.28975
# Poissons Ratio (y) = 0.19899 0.31922
# Poissons Ratio (z) = 0.29695 0.34372
#
# Static dielectric constant tensor:
#      x y z
#    x 3.950140 0.000000 -0.104240 
#    y 0.000000 3.687050 0.000000 
#    z -0.104240 0.000000 4.060660 
# 
# 
# High freq. dielectric constant tensor:
#      x y z
#    x 1.834000 0.000000 0.000640 
#    y 0.000000 1.814220 0.000000 
#    z 0.000640 0.000000 1.833660 
# 
# From -- ./inp_files/144310.got.cif
#   From: 2010.06.25/outbox.cif.g09.slc.cpg/sg15_73_cif.got.tgz:144310.got - 2010.06.28 07:06:18.
