data_PCOD8154733
_publ_section_title
;
Structure prediction by ZEFSAII (Michael W. Deem and Ramdas Pophale) SiO2 
 PCOD8154733
Probable space group: C 2/C
;
_chemical_formula_sum "Si O2"
_cell_formula_units_Z 48
_cell_length_a 25.436810
_cell_length_b 14.467447
_cell_length_c 9.332373
_cell_angle_alpha 90.000000
_cell_angle_beta 139.712763
_cell_angle_gamma 90.000000
_cell_volume 2220.729611
_symmetry_space_group_name_H-M "C 2/C"
_symmetry_group_IT_number 15
_symmetry_cell_setting 'monoclinic'
loop_
_space_group_symop_operation_xyz
x,y,z
-x,y,1/2-z
-x,-y,-z
x,-y,1/2+z
1/2+x,1/2+y,z
1/2-x,1/2+y,1/2-z
1/2-x,1/2-y,-z
1/2+x,1/2-y,1/2+z
loop_
_atom_site_type_symbol
_atom_site_label
_atom_site_fract_x
_atom_site_fract_y
_atom_site_fract_z
Si Si1 0.592491 0.645377 0.978120
Si Si2 0.341808 0.784672 0.175324
Si Si3 0.694914 0.973678 0.283586
Si Si4 0.307078 0.463848 0.261891
Si Si5 0.092902 0.355508 0.477995
Si Si6 0.658177 0.284413 0.318797
O O1 0.500000 0.624714 0.750000
O O2 0.639174 0.693425 0.943859
O O3 0.597071 0.712468 0.124469
O O4 0.632467 0.549460 0.105684
O O5 0.363351 0.795138 0.053523
O O6 0.355731 0.882617 0.282682
O O7 0.250000 0.750000 0.000000
O O8 0.730317 0.018210 0.500561
O O9 0.771135 0.944392 0.343809
O O10 0.636543 0.045991 0.083404
O O11 0.356425 0.375539 0.307566
O O12 0.099318 0.296275 0.637736
O O13 0.000000 0.376005 0.250000
O O14 0.750000 0.250000 0.500000
#
# Coordination Sequence:
#
# PCOD8154733 Si02
#       6
#     8   8   8   8   8   8
#     4  12  27  44  66 104 138 173 223 285 342 386
#     4  12  24  45  73  95 134 181 229 273 327 411
#     4  12  23  44  70  98 131 177 232 271 327 409
#     4  12  23  44  70  98 131 177 232 271 327 409
#     4  12  27  44  66 104 138 173 223 285 342 386
#     4  12  24  45  73  95 134 181 229 273 327 411
#
# _framework density 21.614518
#
# number of rings (size 3 to 8) (size 9 to 14) (size 15 to 20)
#    0.000    0.000    6.667    4.000    0.000    2.667 
#    0.000    0.000    0.000    0.000    0.000    0.000 
#    0.000    0.000    0.000    0.000    0.000    0.000 
#
# Total GULP energy -297784.696834 kJ/mol
# GULP energy per Si atom -12407.695701 kJ/mol
# Density = 2.156532 g / cm^3
# Si number density = 21.614518 Si / 1000 Ang^3
#
#
#
# Elastic Constant Matrix: (Units=GPa)
#
#
# Indices 1 2 3 4 5 6 
#
# 1 74.1562 17.8628 22.6839 0.0000 -2.1433 0.0000
# 2 17.8628 94.4784 37.6242 0.0000 -7.8143 0.0000
# 3 22.6839 37.6242 113.2073 0.0000 12.8510 0.0000
# 4 0.0000 0.0000 0.0000 43.5162 0.0000 -10.2037
# 5 -2.1433 -7.8143 12.8510 0.0000 36.0436 0.0000
# 6 0.0000 0.0000 0.0000 -10.2037 0.0000 31.0516
#
#
#
# Elastic Compliance Matrix: (Units=1/GPa)
#
#
# Indices 1 2 3 4 5 6 
#
# 1 0.014706 -0.001641 -0.002564 0.000000 0.001433 0.000000
# 2 -0.001641 0.013045 -0.004499 0.000000 0.004334 0.000000
# 3 -0.002564 -0.004499 0.011433 0.000000 -0.005204 0.000000
# 4 0.000000 0.000000 0.000000 0.024898 0.000000 0.008182
# 5 0.001433 0.004334 -0.005204 0.000000 0.030625 0.000000
# 6 0.000000 0.000000 0.000000 0.008182 0.000000 0.034893
#
#
# Mechanical properties :
#
#
# Convention : Reuss Voigt Hill
#
# Bulk Modulus (GPa) = 45.92070 48.68707 47.30389
# Shear Modulus (GPa) = 32.41165 35.70035 34.05600
#
# Velocity S-wave (km/s) = 3.87658 4.06850 3.97370
# Velocity P-wave (km/s) = 6.42873 6.68164 6.55641
#
# Compressibility (1/GPa) = 0.02177667
#
# Stress axis : x y z
#
# Youngs Moduli (GPa) = 67.99929 76.65975 87.46620
#
# Poissons Ratio (x) = 0.12579 0.22427
# Poissons Ratio (y) = 0.11158 0.39348
# Poissons Ratio (z) = 0.17435 0.34486
#
# Static dielectric constant tensor:
#      x y z
#    x 3.908680 0.000000 -0.292710 
#    y 0.000000 4.214990 0.000000 
#    z -0.292710 0.000000 3.954230 
# 
# 
# High freq. dielectric constant tensor:
#      x y z
#    x 1.843640 0.000000 -0.018080 
#    y 0.000000 1.867290 0.000000 
#    z -0.018080 0.000000 1.851490 
# 
# From -- ./inp_files/47438.got.cif
#   From: 2010.06.25/outbox.cif.g09.slc.cpg/sg15_24_cif.got.tgz:47438.got - 2010.06.28 07:06:18.
