data_PCOD8154612
_publ_section_title
;
Structure prediction by ZEFSAII (Michael W. Deem and Ramdas Pophale) SiO2 
 PCOD8154612
Probable space group: C 2/C
;
_chemical_formula_sum "Si O2"
_cell_formula_units_Z 60
_cell_length_a 9.010098
_cell_length_b 19.877346
_cell_length_c 17.111684
_cell_angle_alpha 90.000000
_cell_angle_beta 60.949687
_cell_angle_gamma 90.000000
_cell_volume 2679.096203
_symmetry_space_group_name_H-M "C 2/C"
_symmetry_group_IT_number 15
_symmetry_cell_setting 'monoclinic'
loop_
_space_group_symop_operation_xyz
x,y,z
-x,y,1/2-z
-x,-y,-z
x,-y,1/2+z
1/2+x,1/2+y,z
1/2-x,1/2+y,1/2-z
1/2-x,1/2-y,-z
1/2+x,1/2-y,1/2+z
loop_
_atom_site_type_symbol
_atom_site_label
_atom_site_fract_x
_atom_site_fract_y
_atom_site_fract_z
Si Si1 0.041272 0.912436 0.150943
Si Si2 0.746502 0.413323 0.397460
Si Si3 0.500000 0.178470 0.750000
Si Si4 0.637837 0.259309 0.104365
Si Si5 0.818381 0.178938 0.455176
Si Si6 0.639603 0.969727 0.521443
Si Si7 0.903211 0.646456 0.124428
Si Si8 0.170447 0.207998 0.294353
O O1 0.094465 0.835050 0.136420
O O2 0.000000 0.935553 0.250000
O O3 0.869527 0.928715 0.147572
O O4 0.197940 0.952838 0.073378
O O5 0.914627 0.370228 0.335700
O O6 0.632711 0.368684 0.485248
O O7 0.804591 0.481897 0.423029
O O8 0.349231 0.223586 0.751477
O O9 0.464171 0.221825 0.129540
O O10 0.728078 0.223867 0.153625
O O11 0.750000 0.250000 0.000000
O O12 0.750000 0.250000 0.500000
O O13 0.670406 0.142005 0.444053
O O14 0.979779 0.185805 0.359734
O O15 0.556788 0.906565 0.589412
O O16 0.500000 0.000000 0.500000
O O17 0.753998 0.643389 0.227935
#
# Coordination Sequence:
#
# PCOD8154612 Si02
#       8
#     8   8   4   8   8   8   8   8
#     4  12  27  51  79 109 144 191 257 317 369 445
#     4  12  27  48  74 108 146 199 251 304 374 451
#     4  12  24  44  82 108 146 188 250 310 376 442
#     4  12  24  43  76 109 148 184 237 312 385 434
#     4  12  22  41  74 106 150 186 240 303 377 430
#     4  12  29  52  73 102 152 205 249 297 374 456
#     4  12  24  47  68 108 148 191 238 305 371 442
#     4  12  24  43  72 117 146 183 244 312 380 452
#
# _framework density 22.395613000000001
#
# number of rings (size 3 to 8) (size 9 to 14) (size 15 to 20)
#    0.000    0.000    5.333    5.600    3.733    0.000 
#    4.800    0.000    0.000    0.000    0.000    0.000 
#    0.000    0.000    0.000    0.000    0.000    0.000 
#
# Total GULP energy -372023.307779 kJ/mol
# GULP energy per Si atom -12400.776926 kJ/mol
# Density = 2.234464 g / cm^3
# Si number density = 22.395613 Si / 1000 Ang^3
#
#
#
# Elastic Constant Matrix: (Units=GPa)
#
#
# Indices 1 2 3 4 5 6 
#
# 1 124.9182 33.4073 47.3530 0.0000 16.5154 0.0000
# 2 33.4073 89.6991 61.8629 0.0000 -3.4661 0.0000
# 3 47.3530 61.8629 159.0270 0.0000 -0.8894 0.0000
# 4 0.0000 0.0000 0.0000 37.7801 0.0000 -0.1994
# 5 16.5154 -3.4661 -0.8894 0.0000 48.2995 0.0000
# 6 0.0000 0.0000 0.0000 -0.1994 0.0000 38.5182
#
#
#
# Elastic Compliance Matrix: (Units=1/GPa)
#
#
# Indices 1 2 3 4 5 6 
#
# 1 0.009897 -0.002431 -0.002022 0.000000 -0.003596 0.000000
# 2 -0.002431 0.015880 -0.005443 0.000000 0.001871 0.000000
# 3 -0.002022 -0.005443 0.009010 0.000000 0.000467 0.000000
# 4 0.000000 0.000000 0.000000 0.026470 0.000000 0.000137
# 5 -0.003596 0.001871 0.000467 0.000000 0.022077 0.000000
# 6 0.000000 0.000000 0.000000 0.000137 0.000000 0.025962
#
#
# Mechanical properties :
#
#
# Convention : Reuss Voigt Hill
#
# Bulk Modulus (GPa) = 66.68324 73.21005 69.94665
# Shear Modulus (GPa) = 37.28959 40.32096 38.80527
#
# Velocity S-wave (km/s) = 4.08492 4.24771 4.16711
# Velocity P-wave (km/s) = 7.21724 7.53776 7.37924
#
# Compressibility (1/GPa) = 0.01499627
#
# Stress axis : x y z
#
# Youngs Moduli (GPa) = 101.04054 62.97231 110.98490
#
# Poissons Ratio (x) = 0.15307 0.22436
# Poissons Ratio (y) = 0.24561 0.60411
# Poissons Ratio (z) = 0.20426 0.34277
#
# Static dielectric constant tensor:
#      x y z
#    x 4.051160 0.000000 -0.005990 
#    y 0.000000 3.998930 0.000000 
#    z -0.005990 0.000000 4.390880 
# 
# 
# High freq. dielectric constant tensor:
#      x y z
#    x 1.897620 0.000000 -0.001200 
#    y 0.000000 1.869490 0.000000 
#    z -0.001200 0.000000 1.903540 
# 
# From -- ./inp_files/192524.got.cif
#   From: 2010.06.25/outbox.cif.g09.slc.cpg/sg15_97_cif.got.tgz:192524.got - 2010.06.28 07:06:18.
