data_PCOD8154768
_publ_section_title
;
Structure prediction by ZEFSAII (Michael W. Deem and Ramdas Pophale) SiO2 
 PCOD8154768
Probable space group: C 2/C
;
_chemical_formula_sum "Si O2"
_cell_formula_units_Z 40
_cell_length_a 12.324758
_cell_length_b 8.137148
_cell_length_c 17.060342
_cell_angle_alpha 90.000000
_cell_angle_beta 80.039342
_cell_angle_gamma 90.000000
_cell_volume 1685.164432
_symmetry_space_group_name_H-M "C 2/C"
_symmetry_group_IT_number 15
_symmetry_cell_setting 'monoclinic'
loop_
_space_group_symop_operation_xyz
x,y,z
-x,y,1/2-z
-x,-y,-z
x,-y,1/2+z
1/2+x,1/2+y,z
1/2-x,1/2+y,1/2-z
1/2-x,1/2-y,-z
1/2+x,1/2-y,1/2+z
loop_
_atom_site_type_symbol
_atom_site_label
_atom_site_fract_x
_atom_site_fract_y
_atom_site_fract_z
Si Si1 0.261936 0.385182 0.930970
Si Si2 0.026137 0.061891 0.582509
Si Si3 0.098950 0.577098 0.036758
Si Si4 0.618562 0.016443 0.208080
Si Si5 0.173243 0.189519 0.801130
O O1 0.386773 0.432197 0.891988
O O2 0.196706 0.327042 0.863223
O O3 0.250000 0.250000 0.000000
O O4 0.206869 0.554086 0.969727
O O5 0.078160 0.239181 0.564778
O O6 0.921250 0.067358 0.653742
O O7 0.000000 0.000000 0.500000
O O8 0.122538 0.481336 0.115028
O O9 0.000000 0.500000 0.000000
O O10 0.500000 0.949712 0.250000
O O11 0.631386 0.209929 0.230056
O O12 0.718253 0.913634 0.234813
#
# Coordination Sequence:
#
# PCOD8154768 Si02
#       5
#     8   8   8   8   8
#     4  12  23  46  73 107 141 187 252 308 359 444
#     4  12  24  44  75 107 145 184 251 312 368 431
#     4  12  23  47  77 106 148 195 250 311 366 439
#     4  12  27  50  72 103 155 198 242 306 378 446
#     4  12  28  48  71 108 149 194 249 302 379 444
#
# _framework density 23.736556
#
# number of rings (size 3 to 8) (size 9 to 14) (size 15 to 20)
#    0.000    0.000    8.000    0.600    2.800    1.600 
#    3.600    0.000    0.000    0.000    0.000    0.000 
#    0.000    0.000    0.000    0.000    0.000    0.000 
#
# Total GULP energy -248006.939578 kJ/mol
# GULP energy per Si atom -12400.346979 kJ/mol
# Density = 2.368253 g / cm^3
# Si number density = 23.736556 Si / 1000 Ang^3
#
#
#
# Elastic Constant Matrix: (Units=GPa)
#
#
# Indices 1 2 3 4 5 6 
#
# 1 161.8690 39.0407 45.0499 0.0000 -32.1039 0.0000
# 2 39.0407 65.2327 13.7270 0.0000 -17.9853 0.0000
# 3 45.0499 13.7270 91.5846 0.0000 -4.2453 0.0000
# 4 0.0000 0.0000 0.0000 44.5657 0.0000 -3.3380
# 5 -32.1039 -17.9853 -4.2453 0.0000 50.0593 0.0000
# 6 0.0000 0.0000 0.0000 -3.3380 0.0000 58.1286
#
#
#
# Elastic Compliance Matrix: (Units=1/GPa)
#
#
# Indices 1 2 3 4 5 6 
#
# 1 0.008827 -0.003375 -0.003644 0.000000 0.004139 0.000000
# 2 -0.003375 0.018791 -0.000948 0.000000 0.004507 0.000000
# 3 -0.003644 -0.000948 0.012780 0.000000 -0.001594 0.000000
# 4 0.000000 0.000000 0.000000 0.022536 0.000000 0.001294
# 5 0.004139 0.004507 -0.001594 0.000000 0.024115 0.000000
# 6 0.000000 0.000000 0.000000 0.001294 0.000000 0.017278
#
#
# Mechanical properties :
#
#
# Convention : Reuss Voigt Hill
#
# Bulk Modulus (GPa) = 40.87491 57.14682 49.01087
# Shear Modulus (GPa) = 38.93650 45.27531 42.10591
#
# Velocity S-wave (km/s) = 4.05453 4.37213 4.21632
# Velocity P-wave (km/s) = 6.25912 7.04379 6.66302
#
# Compressibility (1/GPa) = 0.02446488
#
# Stress axis : x y z
#
# Youngs Moduli (GPa) = 113.28922 53.21587 78.24966
#
# Poissons Ratio (x) = 0.17959 0.28516
# Poissons Ratio (y) = 0.38231 0.07415
# Poissons Ratio (z) = 0.41285 0.05043
#
# Static dielectric constant tensor:
#      x y z
#    x 4.691710 0.000000 -0.008530 
#    y 0.000000 4.262870 0.000000 
#    z -0.008530 0.000000 4.167300 
# 
# 
# High freq. dielectric constant tensor:
#      x y z
#    x 1.961490 0.000000 0.004430 
#    y 0.000000 1.931670 0.000000 
#    z 0.004430 0.000000 1.939960 
# 
# From -- ./inp_files/195077.got.cif
#   From: 2010.06.25/outbox.cif.g09.slc.cpg/sg15_98_cif.got.tgz:195077.got - 2010.06.28 07:06:18.
