data_PCOD8154578
_publ_section_title
;
Structure prediction by ZEFSAII (Michael W. Deem and Ramdas Pophale) SiO2 
 PCOD8154578
Probable space group: C 2/C
;
_chemical_formula_sum "Si O2"
_cell_formula_units_Z 48
_cell_length_a 18.047979
_cell_length_b 17.609713
_cell_length_c 19.844103
_cell_angle_alpha 90.000000
_cell_angle_beta 159.007784
_cell_angle_gamma 90.000000
_cell_volume 2259.372058
_symmetry_space_group_name_H-M "C 2/C"
_symmetry_group_IT_number 15
_symmetry_cell_setting 'monoclinic'
loop_
_space_group_symop_operation_xyz
x,y,z
-x,y,1/2-z
-x,-y,-z
x,-y,1/2+z
1/2+x,1/2+y,z
1/2-x,1/2+y,1/2-z
1/2-x,1/2-y,-z
1/2+x,1/2-y,1/2+z
loop_
_atom_site_type_symbol
_atom_site_label
_atom_site_fract_x
_atom_site_fract_y
_atom_site_fract_z
Si Si1 0.378773 0.343314 0.002630
Si Si2 0.232602 0.099547 0.955073
Si Si3 0.968213 0.456150 0.293285
Si Si4 0.506987 0.500756 0.426898
Si Si5 0.901850 0.425684 0.950911
Si Si6 0.990231 0.678235 0.407465
O O1 0.203322 0.355583 0.797342
O O2 0.262908 0.343696 0.976583
O O3 0.537700 0.414441 0.134975
O O4 0.514298 0.269207 0.100969
O O5 0.000000 0.067194 0.750000
O O6 0.294397 0.150042 0.942592
O O7 0.391280 0.030759 0.095272
O O8 0.023872 0.411774 0.409178
O O9 0.000000 0.408499 0.250000
O O10 0.730184 0.477517 0.090036
O O11 0.500000 0.500000 0.500000
O O12 0.343994 0.559904 0.256972
O O13 0.966375 0.350903 0.963991
O O14 0.000000 0.500000 0.000000
#
# Coordination Sequence:
#
# PCOD8154578 Si02
#       6
#     8   8   8   8   8   8
#     4  12  24  39  61  90 136 172 219 267 337 395
#     4  12  22  39  59  92 138 182 216 261 322 410
#     4  12  24  40  66  98 132 172 227 279 331 396
#     4  12  22  42  66  92 134 175 217 281 330 393
#     4  12  24  41  65  92 129 177 233 277 322 390
#     4  12  25  40  58  95 131 183 226 262 328 400
#
# _framework density 21.244841000000001
#
# number of rings (size 3 to 8) (size 9 to 14) (size 15 to 20)
#    0.000    0.000    8.333    3.000    2.333    0.000 
#    0.000    0.000    0.000    0.000    0.000    4.667 
#    0.000    0.000    0.000    0.000    0.000    0.000 
#
# Total GULP energy -297559.623356 kJ/mol
# GULP energy per Si atom -12398.317640 kJ/mol
# Density = 2.119649 g / cm^3
# Si number density = 21.244841 Si / 1000 Ang^3
#
#
#
# Elastic Constant Matrix: (Units=GPa)
#
#
# Indices 1 2 3 4 5 6 
#
# 1 185.0144 58.4630 38.8030 0.0178 -13.7462 -0.0012
# 2 58.4630 81.7922 21.4366 0.0276 7.7190 0.0116
# 3 38.8030 21.4366 94.3372 0.1003 9.5900 0.0219
# 4 0.0178 0.0276 0.1003 24.7758 0.0311 3.7344
# 5 -13.7462 7.7190 9.5900 0.0311 39.8993 0.0029
# 6 -0.0012 0.0116 0.0219 3.7344 0.0029 36.6421
#
#
#
# Elastic Compliance Matrix: (Units=1/GPa)
#
#
# Indices 1 2 3 4 5 6 
#
# 1 0.007983 -0.005469 -0.002489 0.000004 0.004406 0.000003
# 2 -0.005469 0.016882 -0.001090 -0.000004 -0.004888 -0.000004
# 3 -0.002489 -0.001090 0.012236 -0.000042 -0.003588 -0.000003
# 4 0.000004 -0.000004 -0.000042 0.040992 -0.000019 -0.004178
# 5 0.004406 -0.004888 -0.003588 -0.000019 0.028389 0.000004
# 6 0.000003 -0.000004 -0.000003 -0.004178 0.000004 0.027717
#
#
# Mechanical properties :
#
#
# Convention : Reuss Voigt Hill
#
# Bulk Modulus (GPa) = 52.61466 66.50545 59.56006
# Shear Modulus (GPa) = 31.52001 36.42620 33.97310
#
# Velocity S-wave (km/s) = 3.85600 4.14525 4.00324
# Velocity P-wave (km/s) = 6.68166 7.36770 7.03305
#
# Compressibility (1/GPa) = 0.01900611
#
# Stress axis : x y z
#
# Youngs Moduli (GPa) = 125.27310 59.23335 81.72474
#
# Poissons Ratio (x) = 0.32397 0.20337
# Poissons Ratio (y) = 0.68516 0.08905
# Poissons Ratio (z) = 0.31175 0.06454
#
# Static dielectric constant tensor:
#      x y z
#    x 4.533180 -0.000010 0.043760 
#    y -0.000010 3.443570 -0.000170 
#    z 0.043760 -0.000170 4.120130 
# 
# 
# High freq. dielectric constant tensor:
#      x y z
#    x 1.847340 -0.000010 -0.004620 
#    y -0.000010 1.772420 -0.000020 
#    z -0.004620 -0.000020 1.857810 
# 
# From -- ./inp_files/216298.got.cif
#   From: 2010.06.25/outbox.cif.g09.slc.cpg/sg15_109_cif.got.tgz:216298.got - 2010.06.28 07:06:18.
