data_PCOD8154891
_publ_section_title
;
Structure prediction by ZEFSAII (Michael W. Deem and Ramdas Pophale) SiO2 
 PCOD8154891
Probable space group: C 2/C
;
_chemical_formula_sum "Si O2"
_cell_formula_units_Z 40
_cell_length_a 8.783198
_cell_length_b 16.404479
_cell_length_c 11.782921
_cell_angle_alpha 90.000000
_cell_angle_beta 99.438783
_cell_angle_gamma 90.000000
_cell_volume 1674.742992
_symmetry_space_group_name_H-M "C 2/C"
_symmetry_group_IT_number 15
_symmetry_cell_setting 'monoclinic'
loop_
_space_group_symop_operation_xyz
x,y,z
-x,y,1/2-z
-x,-y,-z
x,-y,1/2+z
1/2+x,1/2+y,z
1/2-x,1/2+y,1/2-z
1/2-x,1/2-y,-z
1/2+x,1/2-y,1/2+z
loop_
_atom_site_type_symbol
_atom_site_label
_atom_site_fract_x
_atom_site_fract_y
_atom_site_fract_z
Si Si1 0.151154 0.173140 0.533213
Si Si2 0.642621 0.535306 0.347122
Si Si3 0.174878 0.372814 0.786197
Si Si4 0.824457 0.709011 0.762021
Si Si5 0.180961 0.863659 0.458581
O O1 0.250000 0.250000 0.500000
O O2 0.163439 0.093911 0.457268
O O3 0.219632 0.153311 0.666208
O O4 0.967351 0.191591 0.524231
O O5 0.500000 0.560770 0.250000
O O6 0.793253 0.545562 0.284363
O O7 0.621146 0.444730 0.389884
O O8 0.282368 0.303841 0.741606
O O9 0.000000 0.344994 0.750000
O O10 0.215367 0.388161 0.921792
O O11 0.789839 0.687350 0.888200
O O12 0.000000 0.694502 0.750000
#
# Coordination Sequence:
#
# PCOD8154891 Si02
#       5
#     8   8   8   8   8
#     4  12  24  46  77 108 148 198 254 313 376 458
#     4  12  26  49  77 111 154 203 255 314 393 466
#     4  12  27  48  74 110 154 198 257 325 383 454
#     4  12  27  47  75 111 151 202 259 319 386 463
#     4  12  28  48  79 109 156 206 260 316 392 463
#
# _framework density 23.884262
#
# number of rings (size 3 to 8) (size 9 to 14) (size 15 to 20)
#    0.000    0.000    4.000    6.000    5.600    1.600 
#    0.000    0.000    0.000    0.000    0.000    0.000 
#    0.000    0.000    0.000    0.000    0.000    0.000 
#
# Total GULP energy -248030.925783 kJ/mol
# GULP energy per Si atom -12401.546289 kJ/mol
# Density = 2.382990 g / cm^3
# Si number density = 23.884262 Si / 1000 Ang^3
#
#
#
# Elastic Constant Matrix: (Units=GPa)
#
#
# Indices 1 2 3 4 5 6 
#
# 1 167.6071 35.1208 58.0162 0.0000 -12.6567 0.0000
# 2 35.1208 90.8813 17.9112 0.0000 -3.8711 0.0000
# 3 58.0162 17.9112 142.2896 0.0000 6.1824 0.0000
# 4 0.0000 0.0000 0.0000 29.1820 0.0000 3.0243
# 5 -12.6567 -3.8711 6.1824 0.0000 48.2007 0.0000
# 6 0.0000 0.0000 0.0000 3.0243 0.0000 27.8369
#
#
#
# Elastic Compliance Matrix: (Units=1/GPa)
#
#
# Indices 1 2 3 4 5 6 
#
# 1 0.007618 -0.002276 -0.002915 0.000000 0.002191 0.000000
# 2 -0.002276 0.012021 -0.000605 0.000000 0.000445 0.000000
# 3 -0.002915 -0.000605 0.008374 0.000000 -0.001888 0.000000
# 4 0.000000 0.000000 0.000000 0.034658 0.000000 -0.003765
# 5 0.002191 0.000445 -0.001888 0.000000 0.021600 0.000000
# 6 0.000000 0.000000 0.000000 -0.003765 0.000000 0.036333
#
#
# Mechanical properties :
#
#
# Convention : Reuss Voigt Hill
#
# Bulk Modulus (GPa) = 60.89143 69.20826 65.04984
# Shear Modulus (GPa) = 36.31919 40.35924 38.33921
#
# Velocity S-wave (km/s) = 3.90376 4.11516 4.01085
# Velocity P-wave (km/s) = 6.77265 7.18462 6.98168
#
# Compressibility (1/GPa) = 0.01642267
#
# Stress axis : x y z
#
# Youngs Moduli (GPa) = 131.27441 83.18749 119.41074
#
# Poissons Ratio (x) = 0.18934 0.34804
# Poissons Ratio (y) = 0.29879 0.07219
# Poissons Ratio (z) = 0.38262 0.05029
#
# Static dielectric constant tensor:
#      x y z
#    x 4.308910 0.000000 -0.115810 
#    y 0.000000 4.135700 0.000000 
#    z -0.115810 0.000000 4.892320 
# 
# 
# High freq. dielectric constant tensor:
#      x y z
#    x 1.947940 0.000000 -0.007100 
#    y 0.000000 1.932850 0.000000 
#    z -0.007100 0.000000 1.980880 
# 
# From -- ./inp_files/76911.got.cif
#   From: 2010.06.25/outbox.cif.g09.slc.cpg/sg15_39_cif.got.tgz:76911.got - 2010.06.28 07:06:18.
