data_PCOD8154345
_publ_section_title
;
Structure prediction by ZEFSAII (Michael W. Deem and Ramdas Pophale) SiO2 
 PCOD8154345
Probable space group: C 2/C
;
_chemical_formula_sum "Si O2"
_cell_formula_units_Z 48
_cell_length_a 11.570071
_cell_length_b 10.047583
_cell_length_c 17.890062
_cell_angle_alpha 90.000000
_cell_angle_beta 87.483094
_cell_angle_gamma 90.000000
_cell_volume 2077.735735
_symmetry_space_group_name_H-M "C 2/C"
_symmetry_group_IT_number 15
_symmetry_cell_setting 'monoclinic'
loop_
_space_group_symop_operation_xyz
x,y,z
-x,y,1/2-z
-x,-y,-z
x,-y,1/2+z
1/2+x,1/2+y,z
1/2-x,1/2+y,1/2-z
1/2-x,1/2-y,-z
1/2+x,1/2-y,1/2+z
loop_
_atom_site_type_symbol
_atom_site_label
_atom_site_fract_x
_atom_site_fract_y
_atom_site_fract_z
Si Si1 0.383727 0.763754 0.626384
Si Si2 0.811986 0.104785 0.005186
Si Si3 0.612410 0.917933 0.018709
Si Si4 0.500000 0.060432 0.250000
Si Si5 0.993945 0.009595 0.903170
Si Si6 0.500000 0.380841 0.750000
Si Si7 0.145712 0.663942 0.675006
O O1 0.338475 0.847613 0.556738
O O2 0.451507 0.852043 0.684207
O O3 0.467668 0.660731 0.583911
O O4 0.283122 0.678879 0.668777
O O5 0.856575 0.027662 0.927942
O O6 0.712731 0.016083 0.045549
O O7 0.750000 0.250000 0.000000
O O8 0.930919 0.098654 0.051095
O O9 0.589797 0.824989 0.092442
O O10 0.500000 0.000000 0.000000
O O11 0.393999 0.971625 0.283865
O O12 0.021594 0.978314 0.817452
O O13 0.607775 0.288227 0.726429
#
# Coordination Sequence:
#
# PCOD8154345 Si02
#       7
#     8   8   8   4   8   4   8
#     4  12  25  45  76  99 142 185 238 295 354 431
#     4  11  26  45  75 106 143 185 243 301 355 426
#     4  12  24  46  75 104 137 191 239 296 357 424
#     4  11  27  48  66 108 143 189 236 294 364 439
#     4  11  26  47  70 109 143 187 238 295 363 430
#     4  11  27  48  68 102 147 185 228 294 362 433
#     4  11  26  46  72 101 143 187 237 290 362 432
#
# _framework density 23.102070999999999
#
# number of rings (size 3 to 8) (size 9 to 14) (size 15 to 20)
#    0.000    0.667    3.333    3.000    9.333    0.000 
#    6.000    0.000    0.000    0.000    0.000    0.000 
#    0.000    0.000    0.000    0.000    0.000    0.000 
#
# Total GULP energy -297322.276835 kJ/mol
# GULP energy per Si atom -12388.428201 kJ/mol
# Density = 2.304949 g / cm^3
# Si number density = 23.102071 Si / 1000 Ang^3
#
#
#
# Elastic Constant Matrix: (Units=GPa)
#
#
# Indices 1 2 3 4 5 6 
#
# 1 97.5103 42.0654 24.7341 0.0000 -19.6737 0.0000
# 2 42.0654 101.3734 46.5351 0.0000 -0.2575 0.0000
# 3 24.7341 46.5351 146.8547 0.0000 -6.1954 0.0000
# 4 0.0000 0.0000 0.0000 38.1187 0.0000 -3.1777
# 5 -19.6737 -0.2575 -6.1954 0.0000 33.3724 0.0000
# 6 0.0000 0.0000 0.0000 -3.1777 0.0000 32.1295
#
#
#
# Elastic Compliance Matrix: (Units=1/GPa)
#
#
# Indices 1 2 3 4 5 6 
#
# 1 0.014587 -0.005931 -0.000218 0.000000 0.008513 0.000000
# 2 -0.005931 0.013967 -0.003598 0.000000 -0.004057 0.000000
# 3 -0.000218 -0.003598 0.008043 0.000000 0.001337 0.000000
# 4 0.000000 0.000000 0.000000 0.026452 0.000000 0.002616
# 5 0.008513 -0.004057 0.001337 0.000000 0.035200 0.000000
# 6 0.000000 0.000000 0.000000 0.002616 0.000000 0.031383
#
#
# Mechanical properties :
#
#
# Convention : Reuss Voigt Hill
#
# Bulk Modulus (GPa) = 58.47297 63.60085 61.03691
# Shear Modulus (GPa) = 32.29406 36.21770 34.25588
#
# Velocity S-wave (km/s) = 3.74289 3.96375 3.85490
# Velocity P-wave (km/s) = 6.63661 6.96696 6.80379
#
# Compressibility (1/GPa) = 0.01710192
#
# Stress axis : x y z
#
# Youngs Moduli (GPa) = 68.55456 71.59711 124.33567
#
# Poissons Ratio (x) = 0.42465 0.02713
# Poissons Ratio (y) = 0.40661 0.44737
# Poissons Ratio (z) = 0.01496 0.25761
#
# Static dielectric constant tensor:
#      x y z
#    x 4.042770 0.000000 -0.248700 
#    y 0.000000 4.272070 0.000000 
#    z -0.248700 0.000000 4.353610 
# 
# 
# High freq. dielectric constant tensor:
#      x y z
#    x 1.910150 0.000000 -0.023090 
#    y 0.000000 1.923240 0.000000 
#    z -0.023090 0.000000 1.923690 
# 
# From -- ./inp_files/196075.got.cif
#   From: 2010.06.25/outbox.cif.g09.slc.cpg/sg15_99_cif.got.tgz:196075.got - 2010.06.28 07:06:18.
