data_PCOD8154645
_publ_section_title
;
Structure prediction by ZEFSAII (Michael W. Deem and Ramdas Pophale) SiO2 
 PCOD8154645
Probable space group: C 2/C
;
_chemical_formula_sum "Si O2"
_cell_formula_units_Z 52
_cell_length_a 15.948350
_cell_length_b 18.748260
_cell_length_c 8.031626
_cell_angle_alpha 90.000000
_cell_angle_beta 62.166655
_cell_angle_gamma 90.000000
_cell_volume 2123.657340
_symmetry_space_group_name_H-M "C 2/C"
_symmetry_group_IT_number 15
_symmetry_cell_setting 'monoclinic'
loop_
_space_group_symop_operation_xyz
x,y,z
-x,y,1/2-z
-x,-y,-z
x,-y,1/2+z
1/2+x,1/2+y,z
1/2-x,1/2+y,1/2-z
1/2-x,1/2-y,-z
1/2+x,1/2-y,1/2+z
loop_
_atom_site_type_symbol
_atom_site_label
_atom_site_fract_x
_atom_site_fract_y
_atom_site_fract_z
Si Si1 0.031877 0.707060 0.399576
Si Si2 0.045224 0.430556 0.385791
Si Si3 0.000000 0.067534 0.750000
Si Si4 0.351819 0.446307 0.913438
Si Si5 0.063687 0.160530 0.401407
Si Si6 0.755018 0.446992 0.170269
Si Si7 0.261930 0.822358 0.892663
O O1 0.143245 0.687433 0.307891
O O2 0.000000 0.738755 0.250000
O O3 0.972468 0.635483 0.476970
O O4 0.994956 0.765564 0.569398
O O5 0.156628 0.446058 0.284848
O O6 0.000000 0.412275 0.250000
O O7 0.000000 0.500000 0.500000
O O8 0.998524 0.114808 0.585533
O O9 0.905988 0.021406 0.849806
O O10 0.418489 0.382067 0.787416
O O11 0.260080 0.471474 0.887036
O O12 0.329992 0.426409 0.124200
O O13 0.171068 0.171570 0.361339
O O14 0.767687 0.389963 0.010595
O O15 0.250000 0.750000 0.000000
#
# Coordination Sequence:
#
# PCOD8154645 Si02
#       7
#     8   8   4   8   8   8   8
#     4  12  25  48  72 105 142 195 248 294 378 435
#     4  12  28  47  74 104 145 189 245 311 363 439
#     4  12  22  44  72 108 148 192 244 292 370 436
#     4  12  27  43  73 110 152 189 245 305 373 441
#     4  12  25  47  74 106 150 195 245 308 366 447
#     4  12  25  46  70 111 144 191 246 302 373 433
#     4  12  24  46  77 100 141 196 241 300 364 445
#
# _framework density 24.486060999999999
#
# number of rings (size 3 to 8) (size 9 to 14) (size 15 to 20)
#    0.000    0.000    6.923    1.846    6.462    0.000 
#    4.154    1.538    0.000    0.000    0.000    0.000 
#    0.000    0.000    0.000    0.000    0.000    0.000 
#
# Total GULP energy -322288.250183 kJ/mol
# GULP energy per Si atom -12395.701930 kJ/mol
# Density = 2.443033 g / cm^3
# Si number density = 24.486061 Si / 1000 Ang^3
#
#
#
# Elastic Constant Matrix: (Units=GPa)
#
#
# Indices 1 2 3 4 5 6 
#
# 1 111.2840 12.8308 24.9813 0.0000 -25.3758 0.0000
# 2 12.8308 150.1582 54.8044 0.0000 -21.8682 0.0000
# 3 24.9813 54.8044 130.9322 0.0000 -21.7360 0.0000
# 4 0.0000 0.0000 0.0000 45.5930 0.0000 -14.3808
# 5 -25.3758 -21.8682 -21.7360 0.0000 35.6600 0.0000
# 6 0.0000 0.0000 0.0000 -14.3808 0.0000 34.7631
#
#
#
# Elastic Compliance Matrix: (Units=1/GPa)
#
#
# Indices 1 2 3 4 5 6 
#
# 1 0.010851 0.000541 -0.001068 0.000000 0.007403 0.000000
# 2 0.000541 0.008215 -0.002939 0.000000 0.003631 0.000000
# 3 -0.001068 -0.002939 0.009619 0.000000 0.003301 0.000000
# 4 0.000000 0.000000 0.000000 0.025224 0.000000 0.010435
# 5 0.007403 0.003631 0.003301 0.000000 0.037549 0.000000
# 6 0.000000 0.000000 0.000000 0.010435 0.000000 0.033083
#
#
# Mechanical properties :
#
#
# Convention : Reuss Voigt Hill
#
# Bulk Modulus (GPa) = 45.96955 64.17859 55.07407
# Shear Modulus (GPa) = 36.04239 43.18709 39.61474
#
# Velocity S-wave (km/s) = 3.84077 4.20425 4.02661
# Velocity P-wave (km/s) = 6.20348 7.05937 6.64522
#
# Compressibility (1/GPa) = 0.02175353
#
# Stress axis : x y z
#
# Youngs Moduli (GPa) = 92.15431 121.73046 103.95613
#
# Poissons Ratio (x) = -0.06580 0.11100
# Poissons Ratio (y) = -0.04981 0.30551
# Poissons Ratio (z) = 0.09840 0.35775
#
# Static dielectric constant tensor:
#      x y z
#    x 2.980610 0.000000 -1.392350 
#    y 0.000000 4.777560 0.000000 
#    z -1.392350 0.000000 3.773560 
# 
# 
# High freq. dielectric constant tensor:
#      x y z
#    x 1.990030 0.000000 -0.015760 
#    y 0.000000 1.977610 0.000000 
#    z -0.015760 0.000000 1.971640 
# 
# From -- ./inp_files/48940.got.cif
#   From: 2010.06.25/outbox.cif.g09.slc.cpg/sg15_25_cif.got.tgz:48940.got - 2010.06.28 07:06:18.
