data_PCOD8154466
_publ_section_title
;
Structure prediction by ZEFSAII (Michael W. Deem and Ramdas Pophale) SiO2 
 PCOD8154466
Probable space group: C 2/C
;
_chemical_formula_sum "Si O2"
_cell_formula_units_Z 28
_cell_length_a 16.566191
_cell_length_b 7.530824
_cell_length_c 18.085651
_cell_angle_alpha 90.000000
_cell_angle_beta 151.549384
_cell_angle_gamma 90.000000
_cell_volume 1074.909945
_symmetry_space_group_name_H-M "C 2/C"
_symmetry_group_IT_number 15
_symmetry_cell_setting 'monoclinic'
loop_
_space_group_symop_operation_xyz
x,y,z
-x,y,1/2-z
-x,-y,-z
x,-y,1/2+z
1/2+x,1/2+y,z
1/2-x,1/2+y,1/2-z
1/2-x,1/2-y,-z
1/2+x,1/2-y,1/2+z
loop_
_atom_site_type_symbol
_atom_site_label
_atom_site_fract_x
_atom_site_fract_y
_atom_site_fract_z
Si Si1 0.909823 0.869742 0.834405
Si Si2 0.372597 0.952614 0.000703
Si Si3 0.182283 0.846367 0.580490
Si Si4 0.500000 0.048956 0.250000
O O1 0.800694 0.872540 0.671599
O O2 0.799053 0.909568 0.818910
O O3 0.975094 0.671904 0.903189
O O4 0.059449 0.011773 0.942428
O O5 0.400782 0.152691 0.994971
O O6 0.380312 0.939519 0.096876
O O7 0.368387 0.836192 0.693181
#
# Coordination Sequence:
#
# PCOD8154466 Si02
#       4
#     8   8   8   4
#     4  11  28  47  82 109 149 206 261 300 380 451
#     4  12  27  49  77 111 156 197 253 316 370 461
#     4  11  27  50  76 115 149 201 254 317 375 455
#     4  12  28  48  80 114 158 198 248 320 398 428
#
# _framework density 26.048694000000001
#
# number of rings (size 3 to 8) (size 9 to 14) (size 15 to 20)
#    0.000    0.571    0.000    5.143   16.000    5.714 
#    0.000    1.429    0.000    0.000    0.000    0.000 
#    0.000    0.000    0.000    0.000    0.000    0.000 
#
# Total GULP energy -173525.724670 kJ/mol
# GULP energy per Si atom -12394.694619 kJ/mol
# Density = 2.598941 g / cm^3
# Si number density = 26.048694 Si / 1000 Ang^3
#
#
#
# Elastic Constant Matrix: (Units=GPa)
#
#
# Indices 1 2 3 4 5 6 
#
# 1 110.3479 59.6550 69.4302 0.0000 14.9411 0.0000
# 2 59.6550 139.1094 77.7093 0.0001 7.7777 0.0000
# 3 69.4302 77.7093 234.2297 0.0002 -32.8597 0.0000
# 4 0.0000 0.0001 0.0002 30.5254 0.0003 -2.8050
# 5 14.9411 7.7777 -32.8597 0.0003 36.4916 0.0001
# 6 0.0000 0.0000 0.0000 -2.8050 0.0001 20.8861
#
#
#
# Elastic Compliance Matrix: (Units=1/GPa)
#
#
# Indices 1 2 3 4 5 6 
#
# 1 0.015183 -0.003286 -0.004789 0.000000 -0.009828 0.000000
# 2 -0.003286 0.010478 -0.003007 0.000000 -0.003595 0.000000
# 3 -0.004789 -0.003007 0.008071 0.000000 0.009869 0.000000
# 4 0.000000 0.000000 0.000000 0.033169 -0.000001 0.004455
# 5 -0.009828 -0.003595 0.009869 -0.000001 0.041081 0.000000
# 6 0.000000 0.000000 0.000000 0.004455 0.000000 0.048477
#
#
# Mechanical properties :
#
#
# Convention : Reuss Voigt Hill
#
# Bulk Modulus (GPa) = 86.44244 99.69732 93.06988
# Shear Modulus (GPa) = 27.40043 36.04012 31.72027
#
# Velocity S-wave (km/s) = 3.24681 3.72367 3.49338
# Velocity P-wave (km/s) = 6.87842 7.53951 7.21654
#
# Compressibility (1/GPa) = 0.01156839
#
# Stress axis : x y z
#
# Youngs Moduli (GPa) = 65.86409 95.43440 123.90119
#
# Poissons Ratio (x) = 0.31361 0.59337
# Poissons Ratio (y) = 0.21644 0.37253
# Poissons Ratio (z) = 0.31543 0.28694
#
# Static dielectric constant tensor:
#      x y z
#    x 4.491260 0.000000 -0.403780 
#    y 0.000000 4.618000 0.000000 
#    z -0.403780 0.000000 5.024790 
# 
# 
# High freq. dielectric constant tensor:
#      x y z
#    x 2.029460 0.000000 -0.014080 
#    y 0.000000 2.041190 0.000000 
#    z -0.014080 0.000000 2.063530 
# 
# From -- ./inp_files/53331.got.cif
#   From: 2010.06.25/outbox.cif.g09.slc.cpg/sg15_27_cif.got.tgz:53331.got - 2010.06.28 07:06:18.
