data_PCOD8154194
_publ_section_title
;
Structure prediction by ZEFSAII (Michael W. Deem and Ramdas Pophale) SiO2 
 PCOD8154194
Probable space group: C 2/C
;
_chemical_formula_sum "Si O2"
_cell_formula_units_Z 36
_cell_length_a 11.093750
_cell_length_b 17.734243
_cell_length_c 7.985645
_cell_angle_alpha 90.000000
_cell_angle_beta 76.104758
_cell_angle_gamma 90.000000
_cell_volume 1525.114172
_symmetry_space_group_name_H-M "C 2/C"
_symmetry_group_IT_number 15
_symmetry_cell_setting 'monoclinic'
loop_
_space_group_symop_operation_xyz
x,y,z
-x,y,1/2-z
-x,-y,-z
x,-y,1/2+z
1/2+x,1/2+y,z
1/2-x,1/2+y,1/2-z
1/2-x,1/2-y,-z
1/2+x,1/2-y,1/2+z
loop_
_atom_site_type_symbol
_atom_site_label
_atom_site_fract_x
_atom_site_fract_y
_atom_site_fract_z
Si Si1 0.750716 0.438193 0.483307
Si Si2 0.562531 0.179383 0.070665
Si Si3 0.000000 0.397824 0.250000
Si Si4 0.785159 0.097980 0.129731
Si Si5 0.024919 0.150998 0.922720
O O1 0.880941 0.446251 0.341564
O O2 0.700379 0.522605 0.486898
O O3 0.772115 0.416756 0.668970
O O4 0.662937 0.373268 0.433147
O O5 0.500000 0.134988 0.250000
O O6 0.709685 0.164760 0.056835
O O7 0.497908 0.260619 0.093021
O O8 0.533602 0.151542 0.897212
O O9 0.927387 0.124633 0.096755
O O10 0.000000 0.112326 0.750000
#
# Coordination Sequence:
#
# PCOD8154194 Si02
#       5
#     8   8   4   8   8
#     4  12  27  44  76 105 145 192 245 298 364 432
#     4  11  25  46  72 107 146 191 239 297 363 435
#     4  12  26  46  74 106 144 190 242 296 360 430
#     4  12  25  47  73 108 144 190 242 304 361 435
#     4  11  25  47  70 107 146 190 238 300 366 432
#
# _framework density 23.604792
#
# number of rings (size 3 to 8) (size 9 to 14) (size 15 to 20)
#    0.000    0.444    2.222    6.000    4.667    4.444 
#    0.000    0.000    0.000    0.000    0.000    0.000 
#    0.000    0.000    0.000    0.000    0.000    0.000 
#
# Total GULP energy -222993.258476 kJ/mol
# GULP energy per Si atom -12388.514360 kJ/mol
# Density = 2.355107 g / cm^3
# Si number density = 23.604792 Si / 1000 Ang^3
#
#
#
# Elastic Constant Matrix: (Units=GPa)
#
#
# Indices 1 2 3 4 5 6 
#
# 1 117.2348 18.7864 26.2799 0.0000 9.4603 0.0000
# 2 18.7864 61.2177 5.2593 0.0000 20.5369 0.0000
# 3 26.2799 5.2593 139.6962 0.0000 12.3172 0.0000
# 4 0.0000 0.0000 0.0000 27.2951 0.0000 -7.0695
# 5 9.4603 20.5369 12.3172 0.0000 44.3942 0.0000
# 6 0.0000 0.0000 0.0000 -7.0695 0.0000 31.2351
#
#
#
# Elastic Compliance Matrix: (Units=1/GPa)
#
#
# Indices 1 2 3 4 5 6 
#
# 1 0.009341 -0.002617 -0.001630 0.000000 -0.000328 0.000000
# 2 -0.002617 0.020069 0.000519 0.000000 -0.008871 0.000000
# 3 -0.001630 0.000519 0.007622 0.000000 -0.002008 0.000000
# 4 0.000000 0.000000 0.000000 0.038918 0.000000 0.008808
# 5 -0.000328 -0.008871 -0.002008 0.000000 0.027256 0.000000
# 6 0.000000 0.000000 0.000000 0.008808 0.000000 0.034009
#
#
# Mechanical properties :
#
#
# Convention : Reuss Voigt Hill
#
# Bulk Modulus (GPa) = 33.80921 46.53330 40.17125
# Shear Modulus (GPa) = 32.35617 38.43974 35.39795
#
# Velocity S-wave (km/s) = 3.70637 4.03981 3.87668
# Velocity P-wave (km/s) = 5.71580 6.44332 6.09043
#
# Compressibility (1/GPa) = 0.02957774
#
# Stress axis : x y z
#
# Youngs Moduli (GPa) = 107.05509 49.82720 131.19105
#
# Poissons Ratio (x) = 0.13037 0.21382
# Poissons Ratio (y) = 0.28011 -0.06806
# Poissons Ratio (z) = 0.17448 -0.02585
#
# Static dielectric constant tensor:
#      x y z
#    x 4.411990 0.000000 -0.123540 
#    y 0.000000 3.977830 0.000000 
#    z -0.123540 0.000000 5.141150 
# 
# 
# High freq. dielectric constant tensor:
#      x y z
#    x 1.939580 0.000000 -0.002230 
#    y 0.000000 1.917430 0.000000 
#    z -0.002230 0.000000 1.963090 
# 
# From -- ./inp_files/28972.got.cif
#   From: 2010.06.25/outbox.cif.g09.slc.cpg/sg15_15_cif.got.tgz:28972.got - 2010.06.28 07:06:18.
