data_PCOD8154483
_publ_section_title
;
Structure prediction by ZEFSAII (Michael W. Deem and Ramdas Pophale) SiO2 
 PCOD8154483
Probable space group: C 2/C
;
_chemical_formula_sum "Si O2"
_cell_formula_units_Z 48
_cell_length_a 18.156938
_cell_length_b 28.799309
_cell_length_c 5.106415
_cell_angle_alpha 90.000000
_cell_angle_beta 105.417563
_cell_angle_gamma 90.000000
_cell_volume 2574.092251
_symmetry_space_group_name_H-M "C 2/C"
_symmetry_group_IT_number 15
_symmetry_cell_setting 'monoclinic'
loop_
_space_group_symop_operation_xyz
x,y,z
-x,y,1/2-z
-x,-y,-z
x,-y,1/2+z
1/2+x,1/2+y,z
1/2-x,1/2+y,1/2-z
1/2-x,1/2-y,-z
1/2+x,1/2-y,1/2+z
loop_
_atom_site_type_symbol
_atom_site_label
_atom_site_fract_x
_atom_site_fract_y
_atom_site_fract_z
Si Si1 0.000000 0.046234 0.250000
Si Si2 0.168957 0.973182 0.836372
Si Si3 0.127076 0.165714 0.852353
Si Si4 0.500000 0.399843 0.250000
Si Si5 0.795460 0.134808 0.086960
Si Si6 0.816504 0.289747 0.056791
Si Si7 0.412380 0.769714 0.652359
O O1 0.923795 0.020065 0.277581
O O2 0.032459 0.072528 0.533666
O O3 0.201861 0.920691 0.871997
O O4 0.202344 0.998892 0.613931
O O5 0.067744 0.130657 0.932092
O O6 0.143324 0.148723 0.574375
O O7 0.089161 0.215296 0.792204
O O8 0.195278 0.162286 0.126579
O O9 0.716328 0.158325 0.915208
O O10 0.879363 0.279612 0.335312
O O11 0.750000 0.250000 0.000000
O O12 0.859158 0.293133 0.819894
O O13 0.500000 0.787411 0.750000
#
# Coordination Sequence:
#
# PCOD8154483 Si02
#       7
#     4   8   8   4   8   8   8
#     4  12  22  37  54  76 108 154 194 254 288 325
#     4  12  24  39  54  78 109 149 198 246 290 337
#     4  12  20  35  55  81 111 154 192 239 276 334
#     4  12  20  33  52  80 110 148 206 230 282 333
#     4  12  24  38  59  78 113 150 198 240 284 334
#     4  12  23  40  61  89 119 157 202 240 290 355
#     4  12  24  38  59  89 124 157 195 245 291 348
#
# _framework density 18.647351
#
# number of rings (size 3 to 8) (size 9 to 14) (size 15 to 20)
#    0.000    0.000    7.500    4.500    0.000    0.000 
#    0.000    0.000    0.000    0.000    0.000    0.000 
#    0.000   13.333    0.000    0.000    0.000    0.000 
#
# Total GULP energy -297417.210017 kJ/mol
# GULP energy per Si atom -12392.383751 kJ/mol
# Density = 1.860491 g / cm^3
# Si number density = 18.647351 Si / 1000 Ang^3
#
#
#
# Elastic Constant Matrix: (Units=GPa)
#
#
# Indices 1 2 3 4 5 6 
#
# 1 71.6924 30.2405 17.9457 0.0000 2.3146 0.0000
# 2 30.2405 96.7914 25.0398 0.0000 2.5168 0.0000
# 3 17.9457 25.0398 101.1705 0.0000 -6.5059 0.0000
# 4 0.0000 0.0000 0.0000 15.3704 0.0000 6.9870
# 5 2.3146 2.5168 -6.5059 0.0000 31.8710 0.0000
# 6 0.0000 0.0000 0.0000 6.9870 0.0000 -9.1244
#
#
#
# Elastic Compliance Matrix: (Units=1/GPa)
#
#
# Indices 1 2 3 4 5 6 
#
# 1 0.016395 -0.004614 -0.001844 0.000000 -0.001203 0.000000
# 2 -0.004614 0.012403 -0.002323 0.000000 -0.001119 0.000000
# 3 -0.001844 -0.002323 0.010950 0.000000 0.002553 0.000000
# 4 0.000000 0.000000 0.000000 0.048261 0.000000 0.036956
# 5 -0.001203 -0.001119 0.002553 0.000000 0.032073 0.000000
# 6 0.000000 0.000000 0.000000 0.036956 0.000000 -0.081298
#
#
# Mechanical properties :
#
#
# Convention : Reuss Voigt Hill
#
# Bulk Modulus (GPa) = 45.07161 46.23402 45.65282
# Shear Modulus (GPa) = 78.44024 20.71861 49.57943
#
# Velocity S-wave (km/s) = 6.49280 3.33690 5.16194
# Velocity P-wave (km/s) = 8.96836 6.30033 7.75002
#
# Compressibility (1/GPa) = 0.02218692
#
# Stress axis : x y z
#
# Youngs Moduli (GPa) = 60.99408 80.62436 91.32019
#
# Poissons Ratio (x) = 0.37201 0.16835
# Poissons Ratio (y) = 0.28143 0.21216
# Poissons Ratio (z) = 0.11244 0.18731
#
# Static dielectric constant tensor:
#      x y z
#    x 3.230400 0.000000 -0.166110 
#    y 0.000000 3.409140 0.000000 
#    z -0.166110 0.000000 3.922920 
# 
# 
# High freq. dielectric constant tensor:
#      x y z
#    x 1.685940 0.000000 -0.022610 
#    y 0.000000 1.713660 0.000000 
#    z -0.022610 0.000000 1.750600 
# 
# From -- ./inp_files/8680.got.cif
#   From: 2010.06.25/outbox.cif.g09.slc.cpg/sg15_5_cif.got.tgz:8680.got - 2010.06.28 07:06:18.
