data_PCOD8154158
_publ_section_title
;
Structure prediction by ZEFSAII (Michael W. Deem and Ramdas Pophale) SiO2 
 PCOD8154158
Probable space group: C 2/C
;
_chemical_formula_sum "Si O2"
_cell_formula_units_Z 44
_cell_length_a 5.056989
_cell_length_b 29.904247
_cell_length_c 13.814140
_cell_angle_alpha 90.000000
_cell_angle_beta 64.432551
_cell_angle_gamma 90.000000
_cell_volume 1884.485310
_symmetry_space_group_name_H-M "C 2/C"
_symmetry_group_IT_number 15
_symmetry_cell_setting 'monoclinic'
loop_
_space_group_symop_operation_xyz
x,y,z
-x,y,1/2-z
-x,-y,-z
x,-y,1/2+z
1/2+x,1/2+y,z
1/2-x,1/2+y,1/2-z
1/2-x,1/2-y,-z
1/2+x,1/2-y,1/2+z
loop_
_atom_site_type_symbol
_atom_site_label
_atom_site_fract_x
_atom_site_fract_y
_atom_site_fract_z
Si Si1 0.550847 0.164968 0.631400
Si Si2 0.701265 0.698093 0.521107
Si Si3 0.983563 0.621138 0.367800
Si Si4 0.455728 0.565336 0.412899
Si Si5 0.996836 0.560642 0.864687
Si Si6 0.500000 0.502174 0.750000
O O1 0.500000 0.175456 0.750000
O O2 0.288056 0.189663 0.618432
O O3 0.503775 0.113114 0.612680
O O4 0.870505 0.182676 0.549478
O O5 0.750000 0.750000 0.500000
O O6 0.932382 0.670706 0.418482
O O7 0.698878 0.591399 0.436380
O O8 0.000000 0.625007 0.250000
O O9 0.264924 0.598556 0.373759
O O10 0.261471 0.541003 0.527119
O O11 0.622841 0.529812 0.316618
O O12 0.000000 0.550696 0.750000
O O13 0.286177 0.533578 0.847325
#
# Coordination Sequence:
#
# PCOD8154158 Si02
#       6
#     8   8   8   8   8   4
#     4  11  25  45  73 106 149 189 230 294 375 427
#     4  12  25  47  76 111 138 187 246 299 357 450
#     4  12  24  47  73 101 143 195 233 299 372 426
#     4  12  26  48  71 102 148 189 248 298 360 432
#     4  11  27  44  72 107 146 196 242 302 366 432
#     4  12  28  44  72 112 138 198 256 298 354 440
#
# _framework density 23.348551
#
# number of rings (size 3 to 8) (size 9 to 14) (size 15 to 20)
#    0.000    0.364    5.455    1.636   10.182    2.182 
#    0.000    0.000    0.000    0.000    0.000    0.000 
#    0.000    0.000    0.000    0.000    0.000    0.000 
#
# Total GULP energy -272638.885029 kJ/mol
# GULP energy per Si atom -12392.676592 kJ/mol
# Density = 2.329541 g / cm^3
# Si number density = 23.348551 Si / 1000 Ang^3
#
#
#
# Elastic Constant Matrix: (Units=GPa)
#
#
# Indices 1 2 3 4 5 6 
#
# 1 88.2529 40.2310 -6.6608 0.0000 -1.9410 0.0000
# 2 40.2310 142.7078 39.7330 0.0000 -13.6222 0.0000
# 3 -6.6608 39.7330 105.6979 0.0000 -7.0201 0.0000
# 4 0.0000 0.0000 0.0000 40.9339 0.0000 -3.1347
# 5 -1.9410 -13.6222 -7.0201 0.0000 41.8111 0.0000
# 6 0.0000 0.0000 0.0000 -3.1347 0.0000 22.0774
#
#
#
# Elastic Compliance Matrix: (Units=1/GPa)
#
#
# Indices 1 2 3 4 5 6 
#
# 1 0.013606 -0.004588 0.002553 0.000000 -0.000434 0.000000
# 2 -0.004588 0.009556 -0.003730 0.000000 0.002274 0.000000
# 3 0.002553 -0.003730 0.011075 0.000000 0.000763 0.000000
# 4 0.000000 0.000000 0.000000 0.024698 0.000000 0.003507
# 5 -0.000434 0.002274 0.000763 0.000000 0.024766 0.000000
# 6 0.000000 0.000000 0.000000 0.003507 0.000000 0.045793
#
#
# Mechanical properties :
#
#
# Convention : Reuss Voigt Hill
#
# Bulk Modulus (GPa) = 44.04022 53.69612 48.86817
# Shear Modulus (GPa) = 33.64890 38.52152 36.08521
#
# Velocity S-wave (km/s) = 3.80037 4.06624 3.93555
# Velocity P-wave (km/s) = 6.17739 6.71515 6.45188
#
# Compressibility (1/GPa) = 0.02270652
#
# Stress axis : x y z
#
# Youngs Moduli (GPa) = 73.49877 104.64150 90.29522
#
# Poissons Ratio (x) = 0.48009 -0.23054
# Poissons Ratio (y) = 0.33721 0.33684
# Poissons Ratio (z) = -0.18766 0.39036
#
# Static dielectric constant tensor:
#      x y z
#    x 4.318640 0.000000 0.007290 
#    y 0.000000 4.123950 0.000000 
#    z 0.007290 0.000000 4.467350 
# 
# 
# High freq. dielectric constant tensor:
#      x y z
#    x 1.923830 0.000000 0.008160 
#    y 0.000000 1.916660 0.000000 
#    z 0.008160 0.000000 1.942810 
# 
# From -- ./inp_files/129967.got.cif
#   From: 2010.06.25/outbox.cif.g09.slc.cpg/sg15_65_cif.got.tgz:129967.got - 2010.06.28 07:06:18.
