data_PCOD8154409
_publ_section_title
;
Structure prediction by ZEFSAII (Michael W. Deem and Ramdas Pophale) SiO2 
 PCOD8154409
Probable space group: C 2/C
;
_chemical_formula_sum "Si O2"
_cell_formula_units_Z 44
_cell_length_a 23.959638
_cell_length_b 8.551746
_cell_length_c 10.560586
_cell_angle_alpha 90.000000
_cell_angle_beta 61.378966
_cell_angle_gamma 90.000000
_cell_volume 1899.425188
_symmetry_space_group_name_H-M "C 2/C"
_symmetry_group_IT_number 15
_symmetry_cell_setting 'monoclinic'
loop_
_space_group_symop_operation_xyz
x,y,z
-x,y,1/2-z
-x,-y,-z
x,-y,1/2+z
1/2+x,1/2+y,z
1/2-x,1/2+y,1/2-z
1/2-x,1/2-y,-z
1/2+x,1/2-y,1/2+z
loop_
_atom_site_type_symbol
_atom_site_label
_atom_site_fract_x
_atom_site_fract_y
_atom_site_fract_z
Si Si1 0.189647 0.337213 0.398598
Si Si2 0.170322 0.870218 0.158701
Si Si3 0.183473 0.210573 0.132693
Si Si4 0.902869 0.406103 0.440046
Si Si5 0.460047 0.661644 0.563545
Si Si6 0.000000 0.646643 0.250000
O O1 0.163475 0.256478 0.555081
O O2 0.264873 0.361815 0.331619
O O3 0.181574 0.224878 0.286896
O O4 0.151984 0.502890 0.417084
O O5 0.112582 0.864185 0.319082
O O6 0.166996 0.039432 0.099410
O O7 0.129072 0.319729 0.140707
O O8 0.250000 0.250000 0.000000
O O9 0.951836 0.287143 0.457531
O O10 0.938861 0.540760 0.327028
O O11 0.500000 0.500000 0.500000
O O12 0.500158 0.745154 0.627343
#
# Coordination Sequence:
#
# PCOD8154409 Si02
#       6
#     8   8   8   8   8   4
#     4  11  26  48  77 108 152 190 246 317 371 454
#     4  11  27  47  74 110 151 194 252 308 381 446
#     4  12  27  44  76 111 146 190 239 308 388 445
#     4  12  27  49  75 109 147 195 251 303 379 452
#     4  12  30  49  77 110 152 199 254 315 372 453
#     4  12  28  52  72 106 148 206 250 302 376 448
#
# _framework density 23.164901
#
# number of rings (size 3 to 8) (size 9 to 14) (size 15 to 20)
#    0.000    0.364    3.636    2.727   12.727    0.000 
#    0.000    0.000    0.000    0.000    0.000    0.000 
#    0.000    0.000    0.000    0.000    0.000    0.000 
#
# Total GULP energy -272664.901730 kJ/mol
# GULP energy per Si atom -12393.859170 kJ/mol
# Density = 2.311218 g / cm^3
# Si number density = 23.164901 Si / 1000 Ang^3
#
#
#
# Elastic Constant Matrix: (Units=GPa)
#
#
# Indices 1 2 3 4 5 6 
#
# 1 129.9761 67.7399 43.3373 0.0000 4.1519 0.0000
# 2 67.7399 154.3714 36.1558 0.0000 -1.9156 0.0000
# 3 43.3373 36.1558 83.6588 0.0000 -0.3725 0.0000
# 4 0.0000 0.0000 0.0000 25.7829 0.0000 -14.4633
# 5 4.1519 -1.9156 -0.3725 0.0000 38.8727 0.0000
# 6 0.0000 0.0000 0.0000 -14.4633 0.0000 54.9207
#
#
#
# Elastic Compliance Matrix: (Units=1/GPa)
#
#
# Indices 1 2 3 4 5 6 
#
# 1 0.011163 -0.003961 -0.004077 0.000000 -0.001427 0.000000
# 2 -0.003961 0.008617 -0.001668 0.000000 0.000832 0.000000
# 3 -0.004077 -0.001668 0.014789 0.000000 0.000495 0.000000
# 4 0.000000 0.000000 0.000000 0.045508 0.000000 0.011985
# 5 -0.001427 0.000832 0.000495 0.000000 0.025923 0.000000
# 6 0.000000 0.000000 0.000000 0.011985 0.000000 0.021364
#
#
# Mechanical properties :
#
#
# Convention : Reuss Voigt Hill
#
# Bulk Modulus (GPa) = 65.98367 73.60803 69.79585
# Shear Modulus (GPa) = 32.93149 38.63349 35.78249
#
# Velocity S-wave (km/s) = 3.77452 4.08825 3.93451
# Velocity P-wave (km/s) = 6.89508 7.35729 7.12993
#
# Compressibility (1/GPa) = 0.01515526
#
# Stress axis : x y z
#
# Youngs Moduli (GPa) = 89.57951 116.04620 67.61930
#
# Poissons Ratio (x) = 0.45970 0.27570
# Poissons Ratio (y) = 0.35485 0.11282
# Poissons Ratio (z) = 0.36523 0.19362
#
# Static dielectric constant tensor:
#      x y z
#    x 4.313510 0.000000 -0.166220 
#    y 0.000000 4.644110 0.000000 
#    z -0.166220 0.000000 4.136910 
# 
# 
# High freq. dielectric constant tensor:
#      x y z
#    x 1.931260 0.000000 -0.010440 
#    y 0.000000 1.937640 0.000000 
#    z -0.010440 0.000000 1.910470 
# 
# From -- ./inp_files/116676.got.cif
#   From: 2010.06.25/outbox.cif.g09.slc.cpg/sg15_59_cif.got.tgz:116676.got - 2010.06.28 07:06:18.
