data_PCOD8154311
_publ_section_title
;
Structure prediction by ZEFSAII (Michael W. Deem and Ramdas Pophale) SiO2 
 PCOD8154311
Probable space group: C 2/C
;
_chemical_formula_sum "Si O2"
_cell_formula_units_Z 28
_cell_length_a 7.462016
_cell_length_b 16.099881
_cell_length_c 15.010892
_cell_angle_alpha 90.000000
_cell_angle_beta 145.923158
_cell_angle_gamma 90.000000
_cell_volume 1010.437061
_symmetry_space_group_name_H-M "C 2/C"
_symmetry_group_IT_number 15
_symmetry_cell_setting 'monoclinic'
loop_
_space_group_symop_operation_xyz
x,y,z
-x,y,1/2-z
-x,-y,-z
x,-y,1/2+z
1/2+x,1/2+y,z
1/2-x,1/2+y,1/2-z
1/2-x,1/2-y,-z
1/2+x,1/2-y,1/2+z
loop_
_atom_site_type_symbol
_atom_site_label
_atom_site_fract_x
_atom_site_fract_y
_atom_site_fract_z
Si Si1 0.156319 0.924745 0.951135
Si Si2 0.749900 0.400781 0.427579
Si Si3 0.000000 0.338819 0.250000
Si Si4 0.392232 0.794091 0.802959
O O1 0.403007 0.913302 0.971919
O O2 0.281188 0.897303 0.098954
O O3 0.833411 0.875782 0.795444
O O4 0.102953 0.024267 0.926943
O O5 0.500000 0.376454 0.250000
O O6 0.793634 0.321032 0.510426
O O7 0.204257 0.282639 0.267724
O O8 0.500000 0.766049 0.750000
#
# Coordination Sequence:
#
# PCOD8154311 Si02
#       4
#     8   8   4   8
#     4  11  25  50  80 114 163 208 267 326 395 472
#     4  11  25  50  84 118 153 208 272 332 389 470
#     4  12  28  52  80 120 166 210 254 340 396 472
#     4  12  28  50  81 120 163 210 265 321 404 477
#
# _framework density 27.71078
#
# number of rings (size 3 to 8) (size 9 to 14) (size 15 to 20)
#    0.000    0.571    2.857    4.286    6.000    3.429 
#    0.000    0.000    0.000    0.000    0.000    0.000 
#    0.000    0.000    0.000    0.000    0.000    0.000 
#
# Total GULP energy -173673.561233 kJ/mol
# GULP energy per Si atom -12405.254374 kJ/mol
# Density = 2.764771 g / cm^3
# Si number density = 27.710780 Si / 1000 Ang^3
#
#
#
# Elastic Constant Matrix: (Units=GPa)
#
#
# Indices 1 2 3 4 5 6 
#
# 1 180.3407 66.0792 57.4049 -0.6898 -16.7131 -0.3293
# 2 66.0792 185.4424 63.2398 -0.6782 -26.1283 -0.3257
# 3 57.4049 63.2398 180.7324 -1.0134 -47.1971 -0.4891
# 4 -0.6898 -0.6782 -1.0134 -956.8792 -0.7817 -485.9648
# 5 -16.7131 -26.1283 -47.1971 -0.7817 60.8793 -0.3761
# 6 -0.3293 -0.3257 -0.4891 -485.9648 -0.3761 -183.1934
#
#
#
# Elastic Compliance Matrix: (Units=1/GPa)
#
#
# Indices 1 2 3 4 5 6 
#
# 1 0.006705 -0.001896 -0.001502 -0.000001 -0.000138 -0.000001
# 2 -0.001896 0.006732 -0.001423 -0.000002 0.001266 -0.000001
# 3 -0.001502 -0.001423 0.007825 -0.000008 0.005043 -0.000004
# 4 -0.000001 -0.000002 -0.000008 0.003010 -0.000018 -0.007984
# 5 -0.000138 0.001266 0.005043 -0.000018 0.020841 -0.000009
# 6 -0.000001 -0.000001 -0.000004 -0.007984 -0.000009 0.015721
#
#
# Mechanical properties :
#
#
# Convention : Reuss Voigt Hill
#
# Bulk Modulus (GPa) = 86.06274 102.21813 94.14044
# Shear Modulus (GPa) = 67.25056 -191.85256 -62.30100
#
# Velocity S-wave (km/s) = 4.93168 -8.32972 -4.74672
# Velocity P-wave (km/s) = 7.97204 7.45283 2.00110
#
# Compressibility (1/GPa) = 0.01161943
#
# Stress axis : x y z
#
# Youngs Moduli (GPa) = 149.13492 148.55000 127.79695
#
# Poissons Ratio (x) = 0.28172 0.19197
# Poissons Ratio (y) = 0.28283 0.18181
# Poissons Ratio (z) = 0.22402 0.21134
#
# Static dielectric constant tensor:
#      x y z
#    x 5.357530 -0.000010 0.175610 
#    y -0.000010 5.387930 -0.000020 
#    z 0.175610 -0.000020 5.292780 
# 
# 
# High freq. dielectric constant tensor:
#      x y z
#    x 2.133190 0.000000 -0.002030 
#    y 0.000000 2.149710 0.000000 
#    z -0.002030 0.000000 2.136900 
# 
# From -- ./inp_files/190764.got.cif
#   From: 2010.06.25/outbox.cif.g09.slc.cpg/sg15_96_cif.got.tgz:190764.got - 2010.06.28 07:06:18.
