data_PCOD8154896
_publ_section_title
;
Structure prediction by ZEFSAII (Michael W. Deem and Ramdas Pophale) SiO2 
 PCOD8154896
Probable space group: C 2/C
;
_chemical_formula_sum "Si O2"
_cell_formula_units_Z 40
_cell_length_a 19.737201
_cell_length_b 14.716360
_cell_length_c 15.115968
_cell_angle_alpha 90.000000
_cell_angle_beta 20.209290
_cell_angle_gamma 90.000000
_cell_volume 1516.727580
_symmetry_space_group_name_H-M "C 2/C"
_symmetry_group_IT_number 15
_symmetry_cell_setting 'monoclinic'
loop_
_space_group_symop_operation_xyz
x,y,z
-x,y,1/2-z
-x,-y,-z
x,-y,1/2+z
1/2+x,1/2+y,z
1/2-x,1/2+y,1/2-z
1/2-x,1/2-y,-z
1/2+x,1/2-y,1/2+z
loop_
_atom_site_type_symbol
_atom_site_label
_atom_site_fract_x
_atom_site_fract_y
_atom_site_fract_z
Si Si1 0.165331 0.937417 0.836677
Si Si2 0.001316 0.336594 0.348142
Si Si3 0.226216 0.988835 0.448129
Si Si4 0.977234 0.651364 0.180940
Si Si5 0.613642 0.284586 0.348762
O O1 0.340339 0.917538 0.553520
O O2 0.259752 0.984280 0.805559
O O3 0.064977 0.839573 0.978292
O O4 0.000000 0.000000 0.000000
O O5 0.959919 0.254634 0.466873
O O6 0.000000 0.297245 0.250000
O O7 0.210528 0.384366 0.112713
O O8 0.370395 0.054817 0.327220
O O9 0.000000 0.002383 0.750000
O O10 0.839907 0.706336 0.280162
O O11 0.000000 0.696677 0.250000
O O12 0.197534 0.649508 0.868326
#
# Coordination Sequence:
#
# PCOD8154896 Si02
#       5
#     8   8   8   8   8
#     4  12  26  47  77 108 151 202 259 323 378 459
#     4  12  27  50  75 110 160 208 260 312 382 469
#     4  12  26  50  77 114 151 205 262 317 388 457
#     4  12  24  46  79 112 158 194 254 325 389 460
#     4  12  26  47  73 119 154 198 255 314 397 451
#
# _framework density 26.372567
#
# number of rings (size 3 to 8) (size 9 to 14) (size 15 to 20)
#    0.000    0.000    4.000    5.400    2.800    2.400 
#    0.000    2.000    0.000    0.000    0.000    0.000 
#    0.000    0.000    0.000    0.000    0.000    0.000 
#
# Total GULP energy -248009.353307 kJ/mol
# GULP energy per Si atom -12400.467665 kJ/mol
# Density = 2.631254 g / cm^3
# Si number density = 26.372567 Si / 1000 Ang^3
#
#
#
# Elastic Constant Matrix: (Units=GPa)
#
#
# Indices 1 2 3 4 5 6 
#
# 1 152.8960 32.4572 45.7291 0.0132 18.3026 -0.0312
# 2 32.4572 61.4896 39.1458 -0.0203 -0.6849 -0.0307
# 3 45.7291 39.1458 144.1987 0.0258 -6.5503 -0.0488
# 4 0.0132 -0.0203 0.0258 37.5725 -0.0145 -10.7153
# 5 18.3026 -0.6849 -6.5503 -0.0145 50.5471 0.0278
# 6 -0.0312 -0.0307 -0.0488 -10.7153 0.0278 8.9857
#
#
#
# Elastic Compliance Matrix: (Units=1/GPa)
#
#
# Indices 1 2 3 4 5 6 
#
# 1 0.008158 -0.003145 -0.001881 0.000001 -0.003240 0.000018
# 2 -0.003145 0.020883 -0.004634 0.000038 0.000821 0.000078
# 3 -0.001881 -0.004634 0.008870 -0.000002 0.001768 0.000018
# 4 0.000001 0.000038 -0.000002 0.040331 -0.000015 0.048094
# 5 -0.003240 0.000821 0.001768 -0.000015 0.021197 -0.000082
# 6 0.000018 0.000078 0.000018 0.048094 -0.000082 0.168639
#
#
# Mechanical properties :
#
#
# Convention : Reuss Voigt Hill
#
# Bulk Modulus (GPa) = 53.79111 65.91651 59.85381
# Shear Modulus (GPa) = 17.03026 35.50455 26.26740
#
# Velocity S-wave (km/s) = 2.54393 3.67313 3.15939
# Velocity P-wave (km/s) = 5.39163 6.56032 6.00448
#
# Compressibility (1/GPa) = 0.01859043
#
# Stress axis : x y z
#
# Youngs Moduli (GPa) = 122.57242 47.88671 112.74441
#
# Poissons Ratio (x) = 0.15062 0.21203
# Poissons Ratio (y) = 0.38552 0.52249
# Poissons Ratio (z) = 0.23051 0.22192
#
# Static dielectric constant tensor:
#      x y z
#    x 5.385020 0.000100 -0.162240 
#    y 0.000100 4.922690 0.000070 
#    z -0.162240 0.000070 4.853480 
# 
# 
# High freq. dielectric constant tensor:
#      x y z
#    x 2.065350 0.000000 -0.015070 
#    y 0.000000 2.050790 0.000000 
#    z -0.015070 0.000000 2.064640 
# 
# From -- ./inp_files/29251.got.cif
#   From: 2010.06.25/outbox.cif.g09.slc.cpg/sg15_15_cif.got.tgz:29251.got - 2010.06.28 07:06:18.
