data_PCOD8154399
_publ_section_title
;
Structure prediction by ZEFSAII (Michael W. Deem and Ramdas Pophale) SiO2 
 PCOD8154399
Probable space group: C 2/C
;
_chemical_formula_sum "Si O2"
_cell_formula_units_Z 52
_cell_length_a 8.361482
_cell_length_b 15.685169
_cell_length_c 17.868589
_cell_angle_alpha 90.000000
_cell_angle_beta 109.602934
_cell_angle_gamma 90.000000
_cell_volume 2207.660012
_symmetry_space_group_name_H-M "C 2/C"
_symmetry_group_IT_number 15
_symmetry_cell_setting 'monoclinic'
loop_
_space_group_symop_operation_xyz
x,y,z
-x,y,1/2-z
-x,-y,-z
x,-y,1/2+z
1/2+x,1/2+y,z
1/2-x,1/2+y,1/2-z
1/2-x,1/2-y,-z
1/2+x,1/2-y,1/2+z
loop_
_atom_site_type_symbol
_atom_site_label
_atom_site_fract_x
_atom_site_fract_y
_atom_site_fract_z
Si Si1 0.685216 0.477665 0.673166
Si Si2 0.000000 0.862854 0.750000
Si Si3 0.913248 0.272031 0.116624
Si Si4 0.640429 0.584544 0.914262
Si Si5 0.902102 0.423599 0.577176
Si Si6 0.625225 0.930415 0.179512
Si Si7 0.974050 0.245102 0.959253
O O1 0.647505 0.421990 0.740626
O O2 0.521378 0.522147 0.610402
O O3 0.771186 0.416371 0.625848
O O4 0.821486 0.545813 0.726806
O O5 0.924677 0.810481 0.669830
O O6 0.715041 0.292047 0.077365
O O7 0.000452 0.351316 0.170027
O O8 0.008771 0.256583 0.052907
O O9 0.704732 0.596644 0.839373
O O10 0.601362 0.676627 0.944060
O O11 0.793477 0.545469 0.988110
O O12 0.039519 0.494786 0.618048
O O13 0.997934 0.334432 0.578700
#
# Coordination Sequence:
#
# PCOD8154399 Si02
#       7
#     8   4   8   8   8   8   8
#     4  12  27  49  72 107 153 191 249 302 374 441
#     4  12  26  46  72 104 140 198 234 298 362 442
#     4  11  27  46  76 100 154 186 248 299 372 434
#     4  12  25  47  74 108 145 189 249 305 363 434
#     4  12  26  46  77 107 146 194 253 300 368 438
#     4  12  26  48  71 108 150 195 236 308 369 437
#     4  11  26  48  73 111 138 194 247 307 361 433
#
# _framework density 23.554351
#
# number of rings (size 3 to 8) (size 9 to 14) (size 15 to 20)
#    0.000    0.308    3.077    4.615    6.462    1.231 
#    0.000    1.538    0.000    0.000    0.000    0.000 
#    0.000    0.000    0.000    0.000    0.000    0.000 
#
# Total GULP energy -322542.468609 kJ/mol
# GULP energy per Si atom -12405.479562 kJ/mol
# Density = 2.350074 g / cm^3
# Si number density = 23.554351 Si / 1000 Ang^3
#
#
#
# Elastic Constant Matrix: (Units=GPa)
#
#
# Indices 1 2 3 4 5 6 
#
# 1 89.1569 34.7221 20.8283 0.0000 -9.4791 0.0000
# 2 34.7221 101.0803 28.7912 0.0000 -13.7625 0.0000
# 3 20.8283 28.7912 95.4066 0.0000 0.0669 0.0000
# 4 0.0000 0.0000 0.0000 40.2322 0.0000 0.0329
# 5 -9.4791 -13.7625 0.0669 0.0000 42.0504 0.0000
# 6 0.0000 0.0000 0.0000 0.0329 0.0000 46.8480
#
#
#
# Elastic Compliance Matrix: (Units=1/GPa)
#
#
# Indices 1 2 3 4 5 6 
#
# 1 0.013304 -0.003834 -0.001749 0.000000 0.001747 0.000000
# 2 -0.003834 0.012485 -0.002933 0.000000 0.003226 0.000000
# 3 -0.001749 -0.002933 0.011749 0.000000 -0.001373 0.000000
# 4 0.000000 0.000000 0.000000 0.024856 0.000000 -0.000017
# 5 0.001747 0.003226 -0.001373 0.000000 0.025233 0.000000
# 6 0.000000 0.000000 0.000000 -0.000017 0.000000 0.021346
#
#
# Mechanical properties :
#
#
# Convention : Reuss Voigt Hill
#
# Bulk Modulus (GPa) = 48.76436 50.48078 49.62257
# Shear Modulus (GPa) = 37.63977 39.24626 38.44302
#
# Velocity S-wave (km/s) = 4.00183 4.08634 4.04431
# Velocity P-wave (km/s) = 6.48851 6.61380 6.55145
#
# Compressibility (1/GPa) = 0.02050678
#
# Stress axis : x y z
#
# Youngs Moduli (GPa) = 75.16797 80.09730 85.11223
#
# Poissons Ratio (x) = 0.30709 0.14882
# Poissons Ratio (y) = 0.28819 0.24962
# Poissons Ratio (z) = 0.13143 0.23491
#
# Static dielectric constant tensor:
#      x y z
#    x 4.439570 0.000000 -0.054290 
#    y 0.000000 4.099550 0.000000 
#    z -0.054290 0.000000 4.299490 
# 
# 
# High freq. dielectric constant tensor:
#      x y z
#    x 1.956230 0.000000 -0.007920 
#    y 0.000000 1.927910 0.000000 
#    z -0.007920 0.000000 1.941050 
# 
# From -- ./inp_files/191137.got.cif
#   From: 2010.06.25/outbox.cif.g09.slc.cpg/sg15_96_cif.got.tgz:191137.got - 2010.06.28 07:06:18.
