data_PCOD8154684
_publ_section_title
;
Structure prediction by ZEFSAII (Michael W. Deem and Ramdas Pophale) SiO2 
 PCOD8154684
Probable space group: C 2/C
;
_chemical_formula_sum "Si O2"
_cell_formula_units_Z 56
_cell_length_a 21.935588
_cell_length_b 13.611518
_cell_length_c 21.819082
_cell_angle_alpha 90.000000
_cell_angle_beta 22.890487
_cell_angle_gamma 90.000000
_cell_volume 2534.017077
_symmetry_space_group_name_H-M "C 2/C"
_symmetry_group_IT_number 15
_symmetry_cell_setting 'monoclinic'
loop_
_space_group_symop_operation_xyz
x,y,z
-x,y,1/2-z
-x,-y,-z
x,-y,1/2+z
1/2+x,1/2+y,z
1/2-x,1/2+y,1/2-z
1/2-x,1/2-y,-z
1/2+x,1/2-y,1/2+z
loop_
_atom_site_type_symbol
_atom_site_label
_atom_site_fract_x
_atom_site_fract_y
_atom_site_fract_z
Si Si1 0.795576 0.143293 0.984144
Si Si2 0.165421 0.515217 0.812151
Si Si3 0.150153 0.118409 0.272800
Si Si4 0.451007 0.302614 0.155938
Si Si5 0.433231 0.083766 0.215095
Si Si6 0.215379 0.041632 0.623212
Si Si7 0.858124 0.802033 0.107985
O O1 0.872330 0.081170 0.856914
O O2 0.901065 0.146609 0.947702
O O3 0.750000 0.250000 0.000000
O O4 0.645962 0.078554 0.144425
O O5 0.306450 0.464597 0.718135
O O6 0.167773 0.468881 0.743039
O O7 0.210066 0.628919 0.760975
O O8 0.000000 0.500000 0.000000
O O9 0.283730 0.201656 0.151846
O O10 0.974517 0.156675 0.447954
O O11 0.151889 0.064654 0.204492
O O12 0.430155 0.199293 0.206414
O O13 0.304000 0.374801 0.305915
O O14 0.465994 0.287407 0.068881
O O15 0.601463 0.033457 0.060331
#
# Coordination Sequence:
#
# PCOD8154684 Si02
#       7
#     8   8   8   8   8   8   8
#     4  12  25  41  65 103 143 186 225 283 355 425
#     4  12  23  43  68 104 139 182 232 292 368 428
#     4  12  26  44  68 101 143 186 237 296 360 425
#     4  12  23  40  67 103 142 182 224 289 358 423
#     4  12  23  39  68 100 139 181 224 283 362 426
#     4  12  26  42  63 100 143 185 237 278 346 438
#     4  12  27  44  70 104 143 186 237 298 361 432
#
# _framework density 22.099298999999998
#
# number of rings (size 3 to 8) (size 9 to 14) (size 15 to 20)
#    0.000    0.000    7.143    3.000    4.000    0.000 
#    0.000    0.000    0.000    0.857    0.000    0.000 
#    0.000    0.000    0.000    0.000    0.000    0.000 
#
# Total GULP energy -347088.288029 kJ/mol
# GULP energy per Si atom -12396.010287 kJ/mol
# Density = 2.204900 g / cm^3
# Si number density = 22.099299 Si / 1000 Ang^3
#
#
#
# Elastic Constant Matrix: (Units=GPa)
#
#
# Indices 1 2 3 4 5 6 
#
# 1 99.8120 47.7015 42.2745 0.0108 11.0104 0.0237
# 2 47.7015 109.1765 37.3937 0.0064 14.9900 0.0266
# 3 42.2745 37.3937 96.2928 0.0649 16.6980 0.0708
# 4 0.0108 0.0064 0.0649 249.8327 -0.0468 353.6983
# 5 11.0104 14.9900 16.6980 -0.0468 35.4275 -0.0693
# 6 0.0237 0.0266 0.0708 353.6983 -0.0693 615.8214
#
#
#
# Elastic Compliance Matrix: (Units=1/GPa)
#
#
# Indices 1 2 3 4 5 6 
#
# 1 0.014107 -0.004628 -0.004329 0.000002 -0.000386 -0.000001
# 2 -0.004628 0.012337 -0.002291 0.000003 -0.002702 -0.000002
# 3 -0.004329 -0.002291 0.013911 -0.000009 -0.004242 0.000003
# 4 0.000002 0.000003 -0.000009 0.021420 0.000006 -0.012303
# 5 -0.000386 -0.002702 -0.004242 0.000006 0.031489 0.000000
# 6 -0.000001 -0.000002 0.000003 -0.012303 0.000000 0.008690
#
#
# Mechanical properties :
#
#
# Convention : Reuss Voigt Hill
#
# Bulk Modulus (GPa) = 55.99322 62.22451 59.10887
# Shear Modulus (GPa) = 38.34317 192.07711 115.21014
#
# Velocity S-wave (km/s) = 4.16990 9.33296 7.22815
# Velocity P-wave (km/s) = 6.96966 12.01486 9.82174
#
# Compressibility (1/GPa) = 0.01785930
#
# Stress axis : x y z
#
# Youngs Moduli (GPa) = 70.88885 81.05696 71.88733
#
# Poissons Ratio (x) = 0.37511 0.31121
# Poissons Ratio (y) = 0.32806 0.16467
# Poissons Ratio (z) = 0.30688 0.18567
#
# Static dielectric constant tensor:
#      x y z
#    x 4.188020 -0.000010 0.153170 
#    y -0.000010 3.991310 0.000030 
#    z 0.153170 0.000030 4.228950 
# 
# 
# High freq. dielectric constant tensor:
#      x y z
#    x 1.860920 0.000000 0.001640 
#    y 0.000000 1.849060 0.000000 
#    z 0.001640 0.000000 1.883900 
# 
# From -- ./inp_files/282088.got.cif
#   From: 2010.06.25/outbox.cif.g09.slc.cpg/sg15_142_cif.got.tgz:282088.got - 2010.06.28 07:06:18.
