data_PCOD8154739
_publ_section_title
;
Structure prediction by ZEFSAII (Michael W. Deem and Ramdas Pophale) SiO2 
 PCOD8154739
Probable space group: C 2/C
;
_chemical_formula_sum "Si O2"
_cell_formula_units_Z 28
_cell_length_a 28.382635
_cell_length_b 10.634733
_cell_length_c 21.937549
_cell_angle_alpha 90.000000
_cell_angle_beta 169.223552
_cell_angle_gamma 90.000000
_cell_volume 1238.103073
_symmetry_space_group_name_H-M "C 2/C"
_symmetry_group_IT_number 15
_symmetry_cell_setting 'monoclinic'
loop_
_space_group_symop_operation_xyz
x,y,z
-x,y,1/2-z
-x,-y,-z
x,-y,1/2+z
1/2+x,1/2+y,z
1/2-x,1/2+y,1/2-z
1/2-x,1/2-y,-z
1/2+x,1/2-y,1/2+z
loop_
_atom_site_type_symbol
_atom_site_label
_atom_site_fract_x
_atom_site_fract_y
_atom_site_fract_z
Si Si1 0.162242 0.874683 0.216685
Si Si2 0.000000 0.445592 0.750000
Si Si3 0.129887 0.624607 0.642074
Si Si4 0.374003 0.616052 0.155351
O O1 0.383413 0.873280 0.447861
O O2 0.293237 0.864885 0.449712
O O3 0.994930 0.751278 0.991138
O O4 0.000000 0.000000 0.000000
O O5 0.850993 0.522426 0.612533
O O6 0.000000 0.500000 0.500000
O O7 0.418665 0.614889 0.028763
O O8 0.500000 0.583223 0.250000
O O9 0.250000 0.750000 0.000000
#
# Coordination Sequence:
#
# PCOD8154739 Si02
#       4
#     8   4   8   8
#     4  12  25  48  73 106 148 187 245 301 364 434
#     4  12  26  46  72 108 146 192 242 306 366 432
#     4  12  26  48  74 103 147 194 239 301 367 435
#     4  12  23  44  73 105 143 190 249 298 358 439
#
# _framework density 22.61524
#
# number of rings (size 3 to 8) (size 9 to 14) (size 15 to 20)
#    0.000    0.000    4.286    6.857    0.000    1.143 
#    2.571    0.000    0.000    0.000    0.000    0.000 
#    0.000    0.000    0.000    0.000    0.000    0.000 
#
# Total GULP energy -173594.709775 kJ/mol
# GULP energy per Si atom -12399.622127 kJ/mol
# Density = 2.256377 g / cm^3
# Si number density = 22.615240 Si / 1000 Ang^3
#
#
#
# Elastic Constant Matrix: (Units=GPa)
#
#
# Indices 1 2 3 4 5 6 
#
# 1 138.1669 23.9131 26.4410 0.0269 21.6863 0.0696
# 2 23.9131 146.7542 42.5884 0.0988 12.6297 0.1290
# 3 26.4410 42.5884 106.2648 0.3290 -3.7679 0.2217
# 4 0.0269 0.0988 0.3290 30.2031 0.1309 -2.7403
# 5 21.6863 12.6297 -3.7679 0.1309 61.0467 0.1061
# 6 0.0696 0.1290 0.2217 -2.7403 0.1061 30.0949
#
#
#
# Elastic Compliance Matrix: (Units=1/GPa)
#
#
# Indices 1 2 3 4 5 6 
#
# 1 0.008152 -0.000520 -0.001923 0.000029 -0.002907 0.000010
# 2 -0.000520 0.007944 -0.003113 0.000015 -0.001651 -0.000003
# 3 -0.001923 -0.003113 0.011209 -0.000127 0.002019 -0.000083
# 4 0.000029 0.000015 -0.000127 0.033387 -0.000098 0.003041
# 5 -0.002907 -0.001651 0.002019 -0.000098 0.017880 -0.000073
# 6 0.000010 -0.000003 -0.000083 0.003041 -0.000073 0.033506
#
#
# Mechanical properties :
#
#
# Convention : Reuss Voigt Hill
#
# Bulk Modulus (GPa) = 61.75698 64.11897 62.93798
# Shear Modulus (GPa) = 38.88385 44.15186 41.51785
#
# Velocity S-wave (km/s) = 4.15102 4.42328 4.28931
# Velocity P-wave (km/s) = 7.09518 7.38247 7.24025
#
# Compressibility (1/GPa) = 0.01619250
#
# Stress axis : x y z
#
# Youngs Moduli (GPa) = 122.67016 125.87545 89.21565
#
# Poissons Ratio (x) = 0.06547 0.17157
# Poissons Ratio (y) = 0.06380 0.27774
# Poissons Ratio (z) = 0.23591 0.39186
#
# Static dielectric constant tensor:
#      x y z
#    x 4.486980 -0.000370 0.319940 
#    y -0.000370 4.023910 -0.000500 
#    z 0.319940 -0.000500 4.176440 
# 
# 
# High freq. dielectric constant tensor:
#      x y z
#    x 1.912420 -0.000020 0.004330 
#    y -0.000020 1.888470 -0.000030 
#    z 0.004330 -0.000030 1.903720 
# 
# From -- ./inp_files/53673.got.cif
#   From: 2010.06.25/outbox.cif.g09.slc.cpg/sg15_27_cif.got.tgz:53673.got - 2010.06.28 07:06:18.
