data_PCOD8154093
_publ_section_title
;
Structure prediction by ZEFSAII (Michael W. Deem and Ramdas Pophale) SiO2 
 PCOD8154093
Probable space group: C 2/C
;
_chemical_formula_sum "Si O2"
_cell_formula_units_Z 44
_cell_length_a 11.380268
_cell_length_b 20.801367
_cell_length_c 8.821369
_cell_angle_alpha 90.000000
_cell_angle_beta 75.113721
_cell_angle_gamma 90.000000
_cell_volume 2018.153457
_symmetry_space_group_name_H-M "C 2/C"
_symmetry_group_IT_number 15
_symmetry_cell_setting 'monoclinic'
loop_
_space_group_symop_operation_xyz
x,y,z
-x,y,1/2-z
-x,-y,-z
x,-y,1/2+z
1/2+x,1/2+y,z
1/2-x,1/2+y,1/2-z
1/2-x,1/2-y,-z
1/2+x,1/2-y,1/2+z
loop_
_atom_site_type_symbol
_atom_site_label
_atom_site_fract_x
_atom_site_fract_y
_atom_site_fract_z
Si Si1 0.024824 0.568439 0.065877
Si Si2 0.868835 0.063952 0.323837
Si Si3 0.792445 0.053189 0.012405
Si Si4 0.085597 0.318078 0.081905
Si Si5 0.500000 0.617233 0.750000
Si Si6 0.866356 0.181632 0.530820
O O1 0.167958 0.585230 0.992333
O O2 0.000000 0.561046 0.250000
O O3 0.000000 0.500000 0.000000
O O4 0.938183 0.624755 0.030087
O O5 0.795223 0.065564 0.191136
O O6 0.894489 0.134661 0.380991
O O7 0.000000 0.031199 0.250000
O O8 0.792313 0.023335 0.473850
O O9 0.912862 0.077927 0.890406
O O10 0.222429 0.313907 0.095629
O O11 0.000000 0.332845 0.250000
O O12 0.061240 0.248273 0.018254
O O13 0.412334 0.659176 0.677172
#
# Coordination Sequence:
#
# PCOD8154093 Si02
#       6
#     8   8   8   8   4   8
#     4  12  26  47  71 101 136 178 227 278 339 406
#     4  12  22  43  64 104 139 175 224 274 345 397
#     4  12  24  40  71 102 138 174 225 287 335 405
#     4  11  25  47  68  98 133 184 225 273 341 401
#     4  12  24  42  64 108 130 174 224 278 344 390
#     4  11  25  44  69  95 140 178 226 280 332 409
#
# _framework density 21.802108
#
# number of rings (size 3 to 8) (size 9 to 14) (size 15 to 20)
#    0.000    0.364    2.727    7.091    1.273    0.000 
#    0.000    1.818    0.000    0.000    0.000    0.000 
#    0.000    0.000    0.000    0.000    0.000    0.000 
#
# Total GULP energy -272796.491003 kJ/mol
# GULP energy per Si atom -12399.840500 kJ/mol
# Density = 2.175249 g / cm^3
# Si number density = 21.802108 Si / 1000 Ang^3
#
#
#
# Elastic Constant Matrix: (Units=GPa)
#
#
# Indices 1 2 3 4 5 6 
#
# 1 90.2966 25.3708 20.6946 0.0000 10.9760 0.0000
# 2 25.3708 147.1414 59.0190 0.0000 25.3187 0.0000
# 3 20.6946 59.0190 131.3385 0.0000 19.6942 0.0000
# 4 0.0000 0.0000 0.0000 -648.0770 0.0000 -121.4556
# 5 10.9760 25.3187 19.6942 0.0000 42.4822 0.0000
# 6 0.0000 0.0000 0.0000 -121.4556 0.0000 11.7659
#
#
#
# Elastic Compliance Matrix: (Units=1/GPa)
#
#
# Indices 1 2 3 4 5 6 
#
# 1 0.011901 -0.001338 -0.001002 0.000000 -0.001813 0.000000
# 2 -0.001338 0.008941 -0.003288 0.000000 -0.003459 0.000000
# 3 -0.001002 -0.003288 0.009583 0.000000 -0.002224 0.000000
# 4 0.000000 0.000000 0.000000 -0.000526 0.000000 -0.005428
# 5 -0.001813 -0.003459 -0.002224 0.000000 0.027100 0.000000
# 6 0.000000 0.000000 0.000000 -0.005428 0.000000 0.028962
#
#
# Mechanical properties :
#
#
# Convention : Reuss Voigt Hill
#
# Bulk Modulus (GPa) = 52.17145 64.32724 58.24934
# Shear Modulus (GPa) = 48.25943 -101.18629 -26.46343
#
# Velocity S-wave (km/s) = 4.70991 -6.81997 -3.48775
# Velocity P-wave (km/s) = 7.31841 5.69622 3.24902
#
# Compressibility (1/GPa) = 0.01916757
#
# Stress axis : x y z
#
# Youngs Moduli (GPa) = 84.02950 111.84456 104.35230
#
# Poissons Ratio (x) = 0.14966 0.10456
# Poissons Ratio (y) = 0.11244 0.34314
# Poissons Ratio (z) = 0.08420 0.36778
#
# Static dielectric constant tensor:
#      x y z
#    x 4.232240 0.000000 -0.062300 
#    y 0.000000 4.050010 0.000000 
#    z -0.062300 0.000000 3.965730 
# 
# 
# High freq. dielectric constant tensor:
#      x y z
#    x 1.876080 0.000000 -0.003870 
#    y 0.000000 1.852990 0.000000 
#    z -0.003870 0.000000 1.863410 
# 
# From -- ./inp_files/30686.got.cif
#   From: 2010.06.25/outbox.cif.g09.slc.cpg/sg15_16_cif.got.tgz:30686.got - 2010.06.28 07:06:18.
