data_PCOD8154560
_publ_section_title
;
Structure prediction by ZEFSAII (Michael W. Deem and Ramdas Pophale) SiO2 
 PCOD8154560
Probable space group: C 2/C
;
_chemical_formula_sum "Si O2"
_cell_formula_units_Z 28
_cell_length_a 16.632212
_cell_length_b 12.517077
_cell_length_c 13.928737
_cell_angle_alpha 90.000000
_cell_angle_beta 153.934459
_cell_angle_gamma 90.000000
_cell_volume 1274.159317
_symmetry_space_group_name_H-M "C 2/C"
_symmetry_group_IT_number 15
_symmetry_cell_setting 'monoclinic'
loop_
_space_group_symop_operation_xyz
x,y,z
-x,y,1/2-z
-x,-y,-z
x,-y,1/2+z
1/2+x,1/2+y,z
1/2-x,1/2+y,1/2-z
1/2-x,1/2-y,-z
1/2+x,1/2-y,1/2+z
loop_
_atom_site_type_symbol
_atom_site_label
_atom_site_fract_x
_atom_site_fract_y
_atom_site_fract_z
Si Si1 0.992619 0.884352 0.554854
Si Si2 0.230281 0.877073 0.634419
Si Si3 0.000000 0.002660 0.750000
Si Si4 0.610524 0.824275 0.098623
O O1 0.770633 0.899333 0.312541
O O2 0.098927 0.935117 0.575137
O O3 0.033400 0.756441 0.598019
O O4 0.071589 0.930258 0.738998
O O5 0.194892 0.748771 0.602225
O O6 0.168921 0.922720 0.465692
O O7 0.445505 0.898781 0.882891
#
# Coordination Sequence:
#
# PCOD8154560 Si02
#       4
#     8   8   4   8
#     4   9  19  38  55  78 104 143 171 223 249 320
#     4   9  19  38  55  78 104 143 171 223 249 320
#     4  12  22  30  58  84 112 126 178 220 278 286
#     4   8  18  40  60  66 108 146 182 196 268 310
#
# _framework density 21.975273999999999
#
# number of rings (size 3 to 8) (size 9 to 14) (size 15 to 20)
#    1.714    1.143    0.000    0.857    0.000    3.429 
#    0.000    2.857    0.000    0.000    0.000    0.000 
#    0.000    0.000    0.000    0.000    0.000    0.000 
#
# Total GULP energy -173512.394153 kJ/mol
# GULP energy per Si atom -12393.742439 kJ/mol
# Density = 2.192526 g / cm^3
# Si number density = 21.975274 Si / 1000 Ang^3
#
#
#
# Elastic Constant Matrix: (Units=GPa)
#
#
# Indices 1 2 3 4 5 6 
#
# 1 71.5146 29.9701 85.4489 -0.0023 -1.7874 -0.0012
# 2 29.9701 48.8541 55.6192 -0.0016 -10.6145 -0.0013
# 3 85.4489 55.6192 175.9635 -0.0039 2.7182 -0.0028
# 4 -0.0023 -0.0016 -0.0039 47.5965 -0.0023 -6.6417
# 5 -1.7874 -10.6145 2.7182 -0.0023 47.6675 -0.0016
# 6 -0.0012 -0.0013 -0.0028 -6.6417 -0.0016 24.9299
#
#
#
# Elastic Compliance Matrix: (Units=1/GPa)
#
#
# Indices 1 2 3 4 5 6 
#
# 1 0.033732 -0.002618 -0.015577 0.000000 0.001570 0.000000
# 2 -0.002618 0.035279 -0.010009 0.000001 0.008328 0.000001
# 3 -0.015577 -0.010009 0.016469 0.000000 -0.003752 0.000000
# 4 0.000000 0.000001 0.000000 0.021821 0.000001 0.005813
# 5 0.001570 0.008328 -0.003752 0.000001 0.023106 0.000002
# 6 0.000000 0.000001 0.000000 0.005813 0.000002 0.041661
#
#
# Mechanical properties :
#
#
# Convention : Reuss Voigt Hill
#
# Bulk Modulus (GPa) = 34.39659 70.93428 52.66544
# Shear Modulus (GPa) = 20.99378 32.39172 26.69275
#
# Velocity S-wave (km/s) = 3.09421 3.84345 3.48900
# Velocity P-wave (km/s) = 5.33403 7.21424 6.34418
#
# Compressibility (1/GPa) = 0.02907265
#
# Stress axis : x y z
#
# Youngs Moduli (GPa) = 29.64572 28.34550 60.72066
#
# Poissons Ratio (x) = 0.07420 0.94585
# Poissons Ratio (y) = 0.07760 0.60773
# Poissons Ratio (z) = 0.46180 0.28370
#
# Static dielectric constant tensor:
#      x y z
#    x 3.520150 0.000000 0.197280 
#    y 0.000000 3.890250 0.000000 
#    z 0.197280 0.000000 3.713030 
# 
# 
# High freq. dielectric constant tensor:
#      x y z
#    x 1.820360 0.000000 0.021550 
#    y 0.000000 1.889300 0.000000 
#    z 0.021550 0.000000 1.856530 
# 
# From -- ./inp_files/27278.got.cif
#   From: 2010.06.25/outbox.cif.g09.slc.cpg/sg15_14_cif.got.tgz:27278.got - 2010.06.28 07:06:18.
