data_PCOD8154706
_publ_section_title
;
Structure prediction by ZEFSAII (Michael W. Deem and Ramdas Pophale) SiO2 
 PCOD8154706
Probable space group: C 2/C
;
_chemical_formula_sum "Si O2"
_cell_formula_units_Z 48
_cell_length_a 12.587837
_cell_length_b 18.791975
_cell_length_c 13.828406
_cell_angle_alpha 90.000000
_cell_angle_beta 139.600523
_cell_angle_gamma 90.000000
_cell_volume 2120.051239
_symmetry_space_group_name_H-M "C 2/C"
_symmetry_group_IT_number 15
_symmetry_cell_setting 'monoclinic'
loop_
_space_group_symop_operation_xyz
x,y,z
-x,y,1/2-z
-x,-y,-z
x,-y,1/2+z
1/2+x,1/2+y,z
1/2-x,1/2+y,1/2-z
1/2-x,1/2-y,-z
1/2+x,1/2-y,1/2+z
loop_
_atom_site_type_symbol
_atom_site_label
_atom_site_fract_x
_atom_site_fract_y
_atom_site_fract_z
Si Si1 0.149603 0.388414 0.475397
Si Si2 0.162503 0.175938 0.558445
Si Si3 0.186003 0.969494 0.395738
Si Si4 0.707382 0.311505 0.748453
Si Si5 0.294682 0.055221 0.757997
Si Si6 0.819024 0.592347 0.164602
O O1 0.202032 0.328963 0.433448
O O2 0.222511 0.463706 0.492259
O O3 0.230865 0.370701 0.633956
O O4 0.954721 0.397094 0.345037
O O5 0.214672 0.236056 0.670638
O O6 0.148543 0.100706 0.606805
O O7 0.989091 0.194083 0.389335
O O8 0.275909 0.946131 0.360232
O O9 0.199228 0.909755 0.488045
O O10 0.000000 0.990356 0.250000
O O11 0.772361 0.335876 0.688806
O O12 0.300464 0.975536 0.722364
O O13 0.000000 0.598303 0.250000
#
# Coordination Sequence:
#
# PCOD8154706 Si02
#       6
#     8   8   8   8   8   8
#     4  12  23  42  70 104 143 180 229 289 355 414
#     4  12  26  46  68 102 140 189 234 288 355 420
#     4  12  24  40  68 109 142 179 230 291 348 414
#     4  12  27  45  69 103 145 187 235 290 354 423
#     4  12  24  45  73 105 146 183 234 291 355 416
#     4  12  24  45  72 105 139 189 237 291 352 422
#
# _framework density 22.640961000000001
#
# number of rings (size 3 to 8) (size 9 to 14) (size 15 to 20)
#    0.000    0.000    5.000    6.000    0.000    2.667 
#    0.000    4.167    0.000    0.000    0.000    0.000 
#    0.000    0.000    0.000    0.000    0.000    0.000 
#
# Total GULP energy -297710.007702 kJ/mol
# GULP energy per Si atom -12404.583654 kJ/mol
# Density = 2.258943 g / cm^3
# Si number density = 22.640961 Si / 1000 Ang^3
#
#
#
# Elastic Constant Matrix: (Units=GPa)
#
#
# Indices 1 2 3 4 5 6 
#
# 1 112.1373 24.3654 15.2620 -0.0001 -21.0253 0.0000
# 2 24.3654 49.4258 1.4933 -0.0001 3.8270 0.0000
# 3 15.2620 1.4933 86.4726 -0.0001 2.3768 -0.0001
# 4 -0.0001 -0.0001 -0.0001 35.8532 -0.0001 -12.7357
# 5 -21.0253 3.8270 2.3768 -0.0001 35.9915 0.0000
# 6 0.0000 0.0000 -0.0001 -12.7357 0.0000 33.6036
#
#
#
# Elastic Compliance Matrix: (Units=1/GPa)
#
#
# Indices 1 2 3 4 5 6 
#
# 1 0.012127 -0.006524 -0.002246 0.000000 0.007926 0.000000
# 2 -0.006524 0.023918 0.000915 0.000000 -0.006415 0.000000
# 3 -0.002246 0.000915 0.012005 0.000000 -0.002202 0.000000
# 4 0.000000 0.000000 0.000000 0.032231 0.000000 0.012215
# 5 0.007926 -0.006415 -0.002202 0.000000 0.033242 0.000000
# 6 0.000000 0.000000 0.000000 0.012215 0.000000 0.034388
#
#
# Mechanical properties :
#
#
# Convention : Reuss Voigt Hill
#
# Bulk Modulus (GPa) = 30.92131 36.69745 33.80938
# Shear Modulus (GPa) = 28.66960 34.88401 31.77680
#
# Velocity S-wave (km/s) = 3.56233 3.92949 3.75041
# Velocity P-wave (km/s) = 5.53237 6.06890 5.80684
#
# Compressibility (1/GPa) = 0.03234016
#
# Stress axis : x y z
#
# Youngs Moduli (GPa) = 82.46097 41.81032 83.29581
#
# Poissons Ratio (x) = 0.27277 0.18704
# Poissons Ratio (y) = 0.53798 -0.07619
# Poissons Ratio (z) = 0.18517 -0.03825
#
# Static dielectric constant tensor:
#      x y z
#    x 4.168850 0.000000 -0.210610 
#    y 0.000000 3.932870 0.000000 
#    z -0.210610 0.000000 4.285020 
# 
# 
# High freq. dielectric constant tensor:
#      x y z
#    x 1.897650 0.000000 -0.010840 
#    y 0.000000 1.878460 0.000000 
#    z -0.010840 0.000000 1.912570 
# 
# From -- ./inp_files/147438.got.cif
#   From: 2010.06.25/outbox.cif.g09.slc.cpg/sg15_74_cif.got.tgz:147438.got - 2010.06.28 07:06:18.
