data_PCOD8154069
_publ_section_title
;
Structure prediction by ZEFSAII (Michael W. Deem and Ramdas Pophale) SiO2 
 PCOD8154069
Probable space group: C 2/C
;
_chemical_formula_sum "Si O2"
_cell_formula_units_Z 56
_cell_length_a 5.087506
_cell_length_b 29.071765
_cell_length_c 17.695782
_cell_angle_alpha 90.000000
_cell_angle_beta 63.662385
_cell_angle_gamma 90.000000
_cell_volume 2345.572081
_symmetry_space_group_name_H-M "C 2/C"
_symmetry_group_IT_number 15
_symmetry_cell_setting 'monoclinic'
loop_
_space_group_symop_operation_xyz
x,y,z
-x,y,1/2-z
-x,-y,-z
x,-y,1/2+z
1/2+x,1/2+y,z
1/2-x,1/2+y,1/2-z
1/2-x,1/2-y,-z
1/2+x,1/2-y,1/2+z
loop_
_atom_site_type_symbol
_atom_site_label
_atom_site_fract_x
_atom_site_fract_y
_atom_site_fract_z
Si Si1 0.700996 0.059265 0.154116
Si Si2 0.794187 0.504936 0.097611
Si Si3 0.655204 0.858259 0.157567
Si Si4 0.612858 0.281979 0.454228
Si Si5 0.337124 0.782339 0.689960
Si Si6 0.634917 0.855434 0.564260
Si Si7 0.732148 0.097581 0.902449
O O1 0.500000 0.073588 0.250000
O O2 0.511755 0.020406 0.135882
O O3 0.778838 0.105787 0.098896
O O4 0.022598 0.039794 0.131324
O O5 0.654444 0.454294 0.119380
O O6 0.000000 0.500000 0.000000
O O7 0.500000 0.838106 0.250000
O O8 0.635145 0.818375 0.097658
O O9 0.477166 0.900119 0.143971
O O10 0.984615 0.870456 0.138035
O O11 0.750000 0.250000 0.500000
O O12 0.532132 0.255118 0.386707
O O13 0.340344 0.311329 0.520770
O O14 0.500000 0.780199 0.750000
O O15 0.364230 0.832401 0.644639
O O16 0.000000 0.772773 0.750000
O O17 0.550489 0.885362 0.500125
#
# Coordination Sequence:
#
# PCOD8154069 Si02
#       7
#     8   8   8   8   8   8   8
#     4  12  28  47  74 111 147 188 241 304 362 425
#     4  12  26  47  76 104 146 194 243 289 357 430
#     4  11  25  43  68 103 141 179 234 298 355 414
#     4  11  25  46  75 103 141 191 247 290 360 437
#     4  12  27  47  73 106 146 190 240 304 366 427
#     4  11  26  47  72 106 145 190 240 293 362 432
#     4  11  25  44  73 101 138 189 237 286 351 432
#
# _framework density 23.874775
#
# number of rings (size 3 to 8) (size 9 to 14) (size 15 to 20)
#    0.000    0.571    1.429    5.143    4.000   13.714 
#    0.000    0.000    0.000    0.000    0.000    0.000 
#    0.000    0.000    0.000    0.000    0.000    0.000 
#
# Total GULP energy -346888.516522 kJ/mol
# GULP energy per Si atom -12388.875590 kJ/mol
# Density = 2.382043 g / cm^3
# Si number density = 23.874775 Si / 1000 Ang^3
#
#
#
# Elastic Constant Matrix: (Units=GPa)
#
#
# Indices 1 2 3 4 5 6 
#
# 1 101.5233 13.9899 36.2373 0.0000 -0.9358 0.0000
# 2 13.9899 119.1396 34.8716 0.0000 -8.1069 0.0000
# 3 36.2373 34.8716 130.0911 0.0000 -4.4458 0.0000
# 4 0.0000 0.0000 0.0000 11.1025 0.0000 -6.1730
# 5 -0.9358 -8.1069 -4.4458 0.0000 32.4520 0.0000
# 6 0.0000 0.0000 0.0000 -6.1730 0.0000 31.7934
#
#
#
# Elastic Compliance Matrix: (Units=1/GPa)
#
#
# Indices 1 2 3 4 5 6 
#
# 1 0.010959 -0.000439 -0.002942 0.000000 -0.000197 0.000000
# 2 -0.000439 0.009250 -0.002289 0.000000 0.001985 0.000000
# 3 -0.002942 -0.002289 0.009140 0.000000 0.000595 0.000000
# 4 0.000000 0.000000 0.000000 0.100970 0.000000 0.019604
# 5 -0.000197 0.001985 0.000595 0.000000 0.031386 0.000000
# 6 0.000000 0.000000 0.000000 0.019604 0.000000 0.035259
#
#
# Mechanical properties :
#
#
# Convention : Reuss Voigt Hill
#
# Bulk Modulus (GPa) = 55.52831 57.88352 56.70591
# Shear Modulus (GPa) = 23.33091 32.77992 28.05542
#
# Velocity S-wave (km/s) = 3.12944 3.70941 3.43170
# Velocity P-wave (km/s) = 6.03047 6.53021 6.28531
#
# Compressibility (1/GPa) = 0.01800883
#
# Stress axis : x y z
#
# Youngs Moduli (GPa) = 91.25245 108.10543 109.40523
#
# Poissons Ratio (x) = 0.04748 0.32182
# Poissons Ratio (y) = 0.04008 0.25047
# Poissons Ratio (z) = 0.26842 0.24750
#
# Static dielectric constant tensor:
#      x y z
#    x 4.082560 0.000000 0.051080 
#    y 0.000000 3.711860 0.000000 
#    z 0.051080 0.000000 4.835700 
# 
# 
# High freq. dielectric constant tensor:
#      x y z
#    x 1.934990 0.000000 -0.002880 
#    y 0.000000 1.966640 0.000000 
#    z -0.002880 0.000000 1.965580 
# 
# From -- ./inp_files/186125.got.cif
#   From: 2010.06.25/outbox.cif.g09.slc.cpg/sg15_94_cif.got.tgz:186125.got - 2010.06.28 07:06:18.
