data_PCOD8154393
_publ_section_title
;
Structure prediction by ZEFSAII (Michael W. Deem and Ramdas Pophale) SiO2 
 PCOD8154393
Probable space group: C 2/C
;
_chemical_formula_sum "Si O2"
_cell_formula_units_Z 32
_cell_length_a 15.517777
_cell_length_b 8.705787
_cell_length_c 10.156784
_cell_angle_alpha 90.000000
_cell_angle_beta 106.316752
_cell_angle_gamma 90.000000
_cell_volume 1316.860435
_symmetry_space_group_name_H-M "C 2/C"
_symmetry_group_IT_number 15
_symmetry_cell_setting 'monoclinic'
loop_
_space_group_symop_operation_xyz
x,y,z
-x,y,1/2-z
-x,-y,-z
x,-y,1/2+z
1/2+x,1/2+y,z
1/2-x,1/2+y,1/2-z
1/2-x,1/2-y,-z
1/2+x,1/2-y,1/2+z
loop_
_atom_site_type_symbol
_atom_site_label
_atom_site_fract_x
_atom_site_fract_y
_atom_site_fract_z
Si Si1 0.639489 0.585774 0.636281
Si Si2 0.406437 0.079070 0.985695
Si Si3 0.494149 0.662653 0.386963
Si Si4 0.686404 0.903097 0.779632
O O1 0.597181 0.656273 0.483621
O O2 0.551426 0.503969 0.662408
O O3 0.680763 0.721538 0.744128
O O4 0.714048 0.456646 0.636211
O O5 0.424685 0.255907 0.957017
O O6 0.334848 0.002055 0.858557
O O7 0.378239 0.063004 0.125077
O O8 0.500000 0.000000 0.000000
O O9 0.500000 0.751707 0.250000
#
# Coordination Sequence:
#
# PCOD8154393 Si02
#       4
#     8   8   8   8
#     4  11  28  47  77 111 152 197 253 311 377 443
#     4  12  26  48  78 110 151 199 251 307 377 447
#     4  11  26  47  77 109 153 199 251 308 376 450
#     4  12  28  48  78 112 152 196 253 314 373 448
#
# _framework density 24.300221000000001
#
# number of rings (size 3 to 8) (size 9 to 14) (size 15 to 20)
#    0.000    0.500    2.500    3.750   10.500    3.000 
#    0.000    0.000    0.000    0.000    0.000    0.000 
#    0.000    0.000    0.000    0.000    0.000    0.000 
#
# Total GULP energy -198291.504710 kJ/mol
# GULP energy per Si atom -12393.219044 kJ/mol
# Density = 2.424491 g / cm^3
# Si number density = 24.300221 Si / 1000 Ang^3
#
#
#
# Elastic Constant Matrix: (Units=GPa)
#
#
# Indices 1 2 3 4 5 6 
#
# 1 121.6292 50.2195 53.7509 0.0000 7.4891 0.0000
# 2 50.2195 123.1871 46.4727 0.0000 9.3541 0.0000
# 3 53.7509 46.4727 113.4584 0.0000 -14.1653 0.0000
# 4 0.0000 0.0000 0.0000 28.5232 0.0000 20.7767
# 5 7.4891 9.3541 -14.1653 0.0000 40.0721 0.0000
# 6 0.0000 0.0000 0.0000 20.7767 0.0000 50.3035
#
#
#
# Elastic Compliance Matrix: (Units=1/GPa)
#
#
# Indices 1 2 3 4 5 6 
#
# 1 0.011668 -0.002685 -0.004835 0.000000 -0.003263 0.000000
# 2 -0.002685 0.010806 -0.003564 0.000000 -0.003280 0.000000
# 3 -0.004835 -0.003564 0.013371 0.000000 0.006462 0.000000
# 4 0.000000 0.000000 0.000000 0.050146 0.000000 -0.020712
# 5 -0.003263 -0.003280 0.006462 0.000000 0.028615 0.000000
# 6 0.000000 0.000000 0.000000 -0.020712 0.000000 0.028434
#
#
# Mechanical properties :
#
#
# Convention : Reuss Voigt Hill
#
# Bulk Modulus (GPa) = 73.11510 73.24010 73.17760
# Shear Modulus (GPa) = 29.45221 37.63519 33.54370
#
# Velocity S-wave (km/s) = 3.48518 3.93970 3.71939
# Velocity P-wave (km/s) = 6.80800 7.13443 6.97312
#
# Compressibility (1/GPa) = 0.01367707
#
# Stress axis : x y z
#
# Youngs Moduli (GPa) = 85.70418 92.54364 74.78800
#
# Poissons Ratio (x) = 0.24845 0.36164
# Poissons Ratio (y) = 0.23009 0.26652
# Poissons Ratio (z) = 0.41442 0.32980
#
# Static dielectric constant tensor:
#      x y z
#    x 4.471050 0.000000 0.254610 
#    y 0.000000 3.740260 0.000000 
#    z 0.254610 0.000000 4.715900 
# 
# 
# High freq. dielectric constant tensor:
#      x y z
#    x 1.958560 0.000000 0.017080 
#    y 0.000000 1.978860 0.000000 
#    z 0.017080 0.000000 1.971250 
# 
# From -- ./inp_files/93574.got.cif
#   From: 2010.06.25/outbox.cif.g09.slc.cpg/sg15_47_cif.got.tgz:93574.got - 2010.06.28 07:06:18.
