data_PCOD8154787
_publ_section_title
;
Structure prediction by ZEFSAII (Michael W. Deem and Ramdas Pophale) SiO2 
 PCOD8154787
Probable space group: C 2/C
;
_chemical_formula_sum "Si O2"
_cell_formula_units_Z 44
_cell_length_a 23.082233
_cell_length_b 10.683447
_cell_length_c 12.915807
_cell_angle_alpha 90.000000
_cell_angle_beta 142.186536
_cell_angle_gamma 90.000000
_cell_volume 1952.706283
_symmetry_space_group_name_H-M "C 2/C"
_symmetry_group_IT_number 15
_symmetry_cell_setting 'monoclinic'
loop_
_space_group_symop_operation_xyz
x,y,z
-x,y,1/2-z
-x,-y,-z
x,-y,1/2+z
1/2+x,1/2+y,z
1/2-x,1/2+y,1/2-z
1/2-x,1/2-y,-z
1/2+x,1/2-y,1/2+z
loop_
_atom_site_type_symbol
_atom_site_label
_atom_site_fract_x
_atom_site_fract_y
_atom_site_fract_z
Si Si1 0.199974 0.617144 0.434910
Si Si2 0.000000 0.878898 0.250000
Si Si3 0.927208 0.258974 0.060044
Si Si4 0.356022 0.028438 0.926895
Si Si5 0.315928 0.467167 0.456127
Si Si6 0.519726 0.800829 0.587628
O O1 0.250000 0.750000 0.500000
O O2 0.166519 0.608662 0.504420
O O3 0.270460 0.502327 0.503748
O O4 0.111222 0.608615 0.229517
O O5 0.968418 0.795547 0.301816
O O6 0.084957 0.962040 0.414777
O O7 0.000000 0.217767 0.250000
O O8 0.909051 0.405637 0.040789
O O9 0.832934 0.179570 0.955468
O O10 0.970937 0.227453 0.008431
O O11 0.259851 0.986482 0.735272
O O12 0.424513 0.116347 0.954222
#
# Coordination Sequence:
#
# PCOD8154787 Si02
#       6
#     8   4   8   8   8   8
#     4  12  23  47  76 108 142 194 254 301 355 458
#     4  12  26  50  76 104 144 200 250 304 362 452
#     4  12  28  47  68 111 155 187 233 314 381 424
#     4  12  27  45  77 108 141 196 249 307 365 444
#     4  12  28  46  70 113 149 188 246 302 382 434
#     4  12  24  48  80 103 146 198 258 295 363 459
#
# _framework density 22.532831999999999
#
# number of rings (size 3 to 8) (size 9 to 14) (size 15 to 20)
#    0.000    0.000    6.364    2.727    5.091    2.909 
#    0.000    0.000    0.000    0.000    0.000    0.000 
#    0.000    0.000    0.000    0.000    0.000    0.000 
#
# Total GULP energy -272808.738663 kJ/mol
# GULP energy per Si atom -12400.397212 kJ/mol
# Density = 2.248155 g / cm^3
# Si number density = 22.532832 Si / 1000 Ang^3
#
#
#
# Elastic Constant Matrix: (Units=GPa)
#
#
# Indices 1 2 3 4 5 6 
#
# 1 140.3801 49.3131 54.2883 0.0000 -8.3532 0.0000
# 2 49.3131 88.3575 20.6444 0.0000 -2.7120 0.0000
# 3 54.2883 20.6444 134.0659 0.0000 4.5706 0.0000
# 4 0.0000 0.0000 0.0000 28.4027 0.0000 9.0530
# 5 -8.3532 -2.7120 4.5706 0.0000 39.0614 0.0000
# 6 0.0000 0.0000 0.0000 9.0530 0.0000 47.1532
#
#
#
# Elastic Compliance Matrix: (Units=1/GPa)
#
#
# Indices 1 2 3 4 5 6 
#
# 1 0.010329 -0.004875 -0.003510 0.000000 0.002281 0.000000
# 2 -0.004875 0.014082 -0.000193 0.000000 -0.000042 0.000000
# 3 -0.003510 -0.000193 0.008972 0.000000 -0.001814 0.000000
# 4 0.000000 0.000000 0.000000 0.037503 0.000000 -0.007200
# 5 0.002281 -0.000042 -0.001814 0.000000 0.026298 0.000000
# 6 0.000000 0.000000 0.000000 -0.007200 0.000000 0.022590
#
#
# Mechanical properties :
#
#
# Convention : Reuss Voigt Hill
#
# Bulk Modulus (GPa) = 61.62220 67.92168 64.77194
# Shear Modulus (GPa) = 35.12780 38.82732 36.97756
#
# Velocity S-wave (km/s) = 3.95265 4.15558 4.05539
# Velocity P-wave (km/s) = 6.94539 7.29616 7.12293
#
# Compressibility (1/GPa) = 0.01622792
#
# Stress axis : x y z
#
# Youngs Moduli (GPa) = 96.81581 71.01248 111.46040
#
# Poissons Ratio (x) = 0.34616 0.39119
# Poissons Ratio (y) = 0.47194 0.02152
# Poissons Ratio (z) = 0.33979 0.01371
#
# Static dielectric constant tensor:
#      x y z
#    x 4.376560 0.000000 0.067460 
#    y 0.000000 3.950240 0.000000 
#    z 0.067460 0.000000 4.126530 
# 
# 
# High freq. dielectric constant tensor:
#      x y z
#    x 1.899890 0.000000 0.005340 
#    y 0.000000 1.883440 0.000000 
#    z 0.005340 0.000000 1.898690 
# 
# From -- ./inp_files/118115.got.cif
#   From: 2010.06.25/outbox.cif.g09.slc.cpg/sg15_60_cif.got.tgz:118115.got - 2010.06.28 07:06:18.
