data_PCOD8154992
_publ_section_title
;
Structure prediction by ZEFSAII (Michael W. Deem and Ramdas Pophale) SiO2 
 PCOD8154992
Probable space group: C 2/C
;
_chemical_formula_sum "Si O2"
_cell_formula_units_Z 40
_cell_length_a 20.964156
_cell_length_b 9.270255
_cell_length_c 8.707586
_cell_angle_alpha 90.000000
_cell_angle_beta 97.652258
_cell_angle_gamma 90.000000
_cell_volume 1677.188601
_symmetry_space_group_name_H-M "C 2/C"
_symmetry_group_IT_number 15
_symmetry_cell_setting 'monoclinic'
loop_
_space_group_symop_operation_xyz
x,y,z
-x,y,1/2-z
-x,-y,-z
x,-y,1/2+z
1/2+x,1/2+y,z
1/2-x,1/2+y,1/2-z
1/2-x,1/2-y,-z
1/2+x,1/2-y,1/2+z
loop_
_atom_site_type_symbol
_atom_site_label
_atom_site_fract_x
_atom_site_fract_y
_atom_site_fract_z
Si Si1 0.804871 0.847876 0.456523
Si Si2 0.480668 0.654118 0.565880
Si Si3 0.243859 0.879392 0.384829
Si Si4 0.108627 0.637111 0.589131
Si Si5 0.076372 0.658318 0.919963
O O1 0.750000 0.750000 0.500000
O O2 0.803503 0.853741 0.272257
O O3 0.872373 0.783215 0.527036
O O4 0.790867 0.999800 0.527701
O O5 0.500000 0.651063 0.750000
O O6 0.500000 0.500000 0.500000
O O7 0.406413 0.711142 0.511734
O O8 0.513610 0.785406 0.485966
O O9 0.250000 0.750000 0.500000
O O10 0.316740 0.897739 0.346052
O O11 0.068921 0.646590 0.734895
O O12 0.089243 0.501029 0.482244
#
# Coordination Sequence:
#
# PCOD8154992 Si02
#       5
#     8   8   8   8   8
#     4  12  25  46  70 110 145 193 240 296 361 431
#     4  12  29  50  76 107 143 190 244 305 366 429
#     4  12  27  43  73 106 150 190 240 296 363 430
#     4  12  25  48  73 106 143 194 241 296 360 431
#     4  12  27  47  77 104 151 190 248 297 360 438
#
# _framework density 23.849435
#
# number of rings (size 3 to 8) (size 9 to 14) (size 15 to 20)
#    0.000    0.000    4.000    4.800    8.400    0.000 
#    0.000    0.000    0.000    0.000    0.000    0.000 
#    0.000    0.000    0.000    0.000    0.000    0.000 
#
# Total GULP energy -247848.939686 kJ/mol
# GULP energy per Si atom -12392.446984 kJ/mol
# Density = 2.379515 g / cm^3
# Si number density = 23.849435 Si / 1000 Ang^3
#
#
#
# Elastic Constant Matrix: (Units=GPa)
#
#
# Indices 1 2 3 4 5 6 
#
# 1 45.1966 11.7040 9.5214 0.0000 4.6484 0.0000
# 2 11.7040 160.3738 58.1912 0.0000 5.5512 0.0000
# 3 9.5214 58.1912 205.1879 0.0000 3.6524 0.0000
# 4 0.0000 0.0000 0.0000 50.2267 0.0000 -11.1952
# 5 4.6484 5.5512 3.6524 0.0000 35.0184 0.0000
# 6 0.0000 0.0000 0.0000 -11.1952 0.0000 41.9448
#
#
#
# Elastic Compliance Matrix: (Units=1/GPa)
#
#
# Indices 1 2 3 4 5 6 
#
# 1 0.022891 -0.001346 -0.000631 0.000000 -0.002759 0.000000
# 2 -0.001346 0.007058 -0.001926 0.000000 -0.000739 0.000000
# 3 -0.000631 -0.001926 0.005452 0.000000 -0.000180 0.000000
# 4 0.000000 0.000000 0.000000 0.021169 0.000000 0.005650
# 5 -0.002759 -0.000739 -0.000180 0.000000 0.029059 0.000000
# 6 0.000000 0.000000 0.000000 0.005650 0.000000 0.025349
#
#
# Mechanical properties :
#
#
# Convention : Reuss Voigt Hill
#
# Bulk Modulus (GPa) = 36.23908 63.28793 49.76351
# Shear Modulus (GPa) = 39.06773 47.52742 43.29758
#
# Velocity S-wave (km/s) = 4.05173 4.46893 4.26544
# Velocity P-wave (km/s) = 6.09234 7.29538 6.72083
#
# Compressibility (1/GPa) = 0.02759452
#
# Stress axis : x y z
#
# Youngs Moduli (GPa) = 43.68548 141.68087 183.40861
#
# Poissons Ratio (x) = 0.19070 0.11580
# Poissons Ratio (y) = 0.05880 0.35326
# Poissons Ratio (z) = 0.02758 0.27289
#
# Static dielectric constant tensor:
#      x y z
#    x 5.234700 0.000000 0.599350 
#    y 0.000000 4.278160 0.000000 
#    z 0.599350 0.000000 4.644300 
# 
# 
# High freq. dielectric constant tensor:
#      x y z
#    x 1.961390 0.000000 0.002790 
#    y 0.000000 1.959190 0.000000 
#    z 0.002790 0.000000 1.965020 
# 
# From -- ./inp_files/60022.got.cif
#   From: 2010.06.25/outbox.cif.g09.slc.cpg/sg15_31_cif.got.tgz:60022.got - 2010.06.28 07:06:18.
