data_PCOD8154952
_publ_section_title
;
Structure prediction by ZEFSAII (Michael W. Deem and Ramdas Pophale) SiO2 
 PCOD8154952
Probable space group: C 2/C
;
_chemical_formula_sum "Si O2"
_cell_formula_units_Z 48
_cell_length_a 11.596877
_cell_length_b 9.071560
_cell_length_c 20.806315
_cell_angle_alpha 90.000000
_cell_angle_beta 79.690526
_cell_angle_gamma 90.000000
_cell_volume 2153.522915
_symmetry_space_group_name_H-M "C 2/C"
_symmetry_group_IT_number 15
_symmetry_cell_setting 'monoclinic'
loop_
_space_group_symop_operation_xyz
x,y,z
-x,y,1/2-z
-x,-y,-z
x,-y,1/2+z
1/2+x,1/2+y,z
1/2-x,1/2+y,1/2-z
1/2-x,1/2-y,-z
1/2+x,1/2-y,1/2+z
loop_
_atom_site_type_symbol
_atom_site_label
_atom_site_fract_x
_atom_site_fract_y
_atom_site_fract_z
Si Si1 0.653301 0.137872 0.986720
Si Si2 0.149857 0.256446 0.818634
Si Si3 0.287534 0.429332 0.701488
Si Si4 0.514767 0.244774 0.881404
Si Si5 0.930106 0.432141 0.867500
Si Si6 0.735022 0.340385 0.566060
O O1 0.578213 0.081942 0.054664
O O2 0.750000 0.250000 0.000000
O O3 0.566495 0.218895 0.946902
O O4 0.717712 0.005092 0.944224
O O5 0.228677 0.372951 0.772394
O O6 0.190400 0.254346 0.888193
O O7 0.013999 0.306941 0.828851
O O8 0.165034 0.093148 0.788954
O O9 0.396637 0.327182 0.674045
O O10 0.196903 0.420220 0.651564
O O11 0.400909 0.347149 0.900738
O O12 0.483894 0.092633 0.848358
O O13 0.750000 0.250000 0.500000
#
# Coordination Sequence:
#
# PCOD8154952 Si02
#       6
#     8   8   8   8   8   8
#     4  12  25  43  74 108 146 184 242 294 355 428
#     4  12  27  48  75 101 148 187 246 299 357 434
#     4  12  28  48  70 108 139 194 242 294 362 432
#     4  12  25  45  75 102 149 189 237 296 363 425
#     4  12  24  50  71 104 145 190 234 302 359 424
#     4  12  25  47  74 108 145 193 235 297 370 426
#
# _framework density 22.289058000000001
#
# number of rings (size 3 to 8) (size 9 to 14) (size 15 to 20)
#    0.000    0.000    6.667    3.000    2.333    1.333 
#    3.000    0.000    0.000    0.000    0.000    0.000 
#    0.000    0.000    0.000    0.000    0.000    0.000 
#
# Total GULP energy -297828.997661 kJ/mol
# GULP energy per Si atom -12409.541569 kJ/mol
# Density = 2.223833 g / cm^3
# Si number density = 22.289058 Si / 1000 Ang^3
#
#
#
# Elastic Constant Matrix: (Units=GPa)
#
#
# Indices 1 2 3 4 5 6 
#
# 1 91.5875 25.7460 2.5285 0.0000 -28.2739 0.0000
# 2 25.7460 124.7151 24.2312 0.0000 -20.6997 0.0000
# 3 2.5285 24.2312 75.3294 0.0000 -15.4016 0.0000
# 4 0.0000 0.0000 0.0000 42.5103 0.0000 -9.5917
# 5 -28.2739 -20.6997 -15.4016 0.0000 40.7306 0.0000
# 6 0.0000 0.0000 0.0000 -9.5917 0.0000 46.0704
#
#
#
# Elastic Compliance Matrix: (Units=1/GPa)
#
#
# Indices 1 2 3 4 5 6 
#
# 1 0.014410 -0.001738 0.002102 0.000000 0.009915 0.000000
# 2 -0.001738 0.009274 -0.002393 0.000000 0.002602 0.000000
# 3 0.002102 -0.002393 0.015199 0.000000 0.005991 0.000000
# 4 0.000000 0.000000 0.000000 0.024683 0.000000 0.005139
# 5 0.009915 0.002602 0.005991 0.000000 0.035022 0.000000
# 6 0.000000 0.000000 0.000000 0.005139 0.000000 0.022776
#
#
# Mechanical properties :
#
#
# Convention : Reuss Voigt Hill
#
# Bulk Modulus (GPa) = 28.71381 44.07149 36.39265
# Shear Modulus (GPa) = 36.48891 41.80399 39.14645
#
# Velocity S-wave (km/s) = 4.05047 4.33545 4.19538
# Velocity P-wave (km/s) = 5.89792 6.69904 6.31120
#
# Compressibility (1/GPa) = 0.03482645
#
# Stress axis : x y z
#
# Youngs Moduli (GPa) = 69.39777 107.83115 65.79398
#
# Poissons Ratio (x) = 0.18737 -0.13832
# Poissons Ratio (y) = 0.12058 0.15743
# Poissons Ratio (z) = -0.14590 0.25801
#
# Static dielectric constant tensor:
#      x y z
#    x 4.580020 0.000000 -0.410450 
#    y 0.000000 4.362960 0.000000 
#    z -0.410450 0.000000 4.357580 
# 
# 
# High freq. dielectric constant tensor:
#      x y z
#    x 1.893690 0.000000 -0.004650 
#    y 0.000000 1.882880 0.000000 
#    z -0.004650 0.000000 1.884330 
# 
# From -- ./inp_files/267637.got.cif
#   From: 2010.06.25/outbox.cif.g09.slc.cpg/sg15_134_cif.got.tgz:267637.got - 2010.06.28 07:06:18.
