data_PCOD8154874
_publ_section_title
;
Structure prediction by ZEFSAII (Michael W. Deem and Ramdas Pophale) SiO2 
 PCOD8154874
Probable space group: C 2/C
;
_chemical_formula_sum "Si O2"
_cell_formula_units_Z 36
_cell_length_a 8.444543
_cell_length_b 26.319821
_cell_length_c 13.322659
_cell_angle_alpha 90.000000
_cell_angle_beta 32.344423
_cell_angle_gamma 90.000000
_cell_volume 1584.199604
_symmetry_space_group_name_H-M "C 2/C"
_symmetry_group_IT_number 15
_symmetry_cell_setting 'monoclinic'
loop_
_space_group_symop_operation_xyz
x,y,z
-x,y,1/2-z
-x,-y,-z
x,-y,1/2+z
1/2+x,1/2+y,z
1/2-x,1/2+y,1/2-z
1/2-x,1/2-y,-z
1/2+x,1/2-y,1/2+z
loop_
_atom_site_type_symbol
_atom_site_label
_atom_site_fract_x
_atom_site_fract_y
_atom_site_fract_z
Si Si1 0.251113 0.272786 0.696074
Si Si2 0.347398 0.449189 0.544935
Si Si3 0.000000 0.906004 0.250000
Si Si4 0.516556 0.172061 0.517096
Si Si5 0.826908 0.856944 0.033685
O O1 0.377937 0.217723 0.658812
O O2 0.512140 0.306944 0.507532
O O3 0.000000 0.262749 0.750000
O O4 0.119117 0.304240 0.858306
O O5 0.500000 0.500000 0.500000
O O6 0.419938 0.440818 0.388518
O O7 0.469989 0.404492 0.549124
O O8 0.000000 0.453083 0.750000
O O9 0.279677 0.871771 0.127069
O O10 0.793293 0.149162 0.430953
O O11 0.500000 0.864644 0.250000
#
# Coordination Sequence:
#
# PCOD8154874 Si02
#       5
#     8   8   4   8   8
#     4  12  25  43  69 110 154 206 254 304 369 444
#     4  12  29  55  83 113 150 192 252 323 385 455
#     4  12  26  50  80 114 148 206 248 306 390 448
#     4  12  25  43  73 108 154 204 253 304 369 448
#     4  12  24  46  72 105 152 196 253 312 371 439
#
# _framework density 22.724408
#
# number of rings (size 3 to 8) (size 9 to 14) (size 15 to 20)
#    0.000    0.000    3.333    7.333    0.000    0.889 
#    4.000    0.000    0.000    0.000    0.000    0.000 
#    0.000    0.000    0.000    0.000    0.000    0.000 
#
# Total GULP energy -223208.093018 kJ/mol
# GULP energy per Si atom -12400.449612 kJ/mol
# Density = 2.267269 g / cm^3
# Si number density = 22.724408 Si / 1000 Ang^3
#
#
#
# Elastic Constant Matrix: (Units=GPa)
#
#
# Indices 1 2 3 4 5 6 
#
# 1 134.3517 75.6631 51.1962 0.0000 -7.3501 0.0000
# 2 75.6631 141.2958 57.8308 0.0000 -3.5008 0.0000
# 3 51.1962 57.8308 143.4707 0.0000 2.4517 0.0000
# 4 0.0000 0.0000 0.0000 29.1303 0.0000 -4.3717
# 5 -7.3501 -3.5008 2.4517 0.0000 50.4453 0.0000
# 6 0.0000 0.0000 0.0000 -4.3717 0.0000 40.6400
#
#
#
# Elastic Compliance Matrix: (Units=1/GPa)
#
#
# Indices 1 2 3 4 5 6 
#
# 1 0.011152 -0.005149 -0.001927 0.000000 0.001361 0.000000
# 2 -0.005149 0.010882 -0.002551 0.000000 0.000129 0.000000
# 3 -0.001927 -0.002551 0.008701 0.000000 -0.000881 0.000000
# 4 0.000000 0.000000 0.000000 0.034892 0.000000 0.003753
# 5 0.001361 0.000129 -0.000881 0.000000 0.020074 0.000000
# 6 0.000000 0.000000 0.000000 0.003753 0.000000 0.025010
#
#
# Mechanical properties :
#
#
# Convention : Reuss Voigt Hill
#
# Bulk Modulus (GPa) = 87.10778 87.61093 87.35936
# Shear Modulus (GPa) = 37.37135 39.67166 38.52150
#
# Velocity S-wave (km/s) = 4.05970 4.18278 4.12170
# Velocity P-wave (km/s) = 7.77112 7.87178 7.82161
#
# Compressibility (1/GPa) = 0.01148003
#
# Stress axis : x y z
#
# Youngs Moduli (GPa) = 89.67063 91.89381 114.92790
#
# Poissons Ratio (x) = 0.47319 0.22148
# Poissons Ratio (y) = 0.46174 0.29320
# Poissons Ratio (z) = 0.17281 0.23443
#
# Static dielectric constant tensor:
#      x y z
#    x 4.379130 0.000000 -0.168650 
#    y 0.000000 4.206030 0.000000 
#    z -0.168650 0.000000 4.413380 
# 
# 
# High freq. dielectric constant tensor:
#      x y z
#    x 1.916590 0.000000 -0.008620 
#    y 0.000000 1.891130 0.000000 
#    z -0.008620 0.000000 1.919040 
# 
# From -- ./inp_files/138862.got.cif
#   From: 2010.06.25/outbox.cif.g09.slc.cpg/sg15_70_cif.got.tgz:138862.got - 2010.06.28 07:06:18.
