data_PCOD8154836
_publ_section_title
;
Structure prediction by ZEFSAII (Michael W. Deem and Ramdas Pophale) SiO2 
 PCOD8154836
Probable space group: C 2/C
;
_chemical_formula_sum "Si O2"
_cell_formula_units_Z 36
_cell_length_a 6.991471
_cell_length_b 16.661243
_cell_length_c 17.958548
_cell_angle_alpha 90.000000
_cell_angle_beta 128.885504
_cell_angle_gamma 90.000000
_cell_volume 1628.362611
_symmetry_space_group_name_H-M "C 2/C"
_symmetry_group_IT_number 15
_symmetry_cell_setting 'monoclinic'
loop_
_space_group_symop_operation_xyz
x,y,z
-x,y,1/2-z
-x,-y,-z
x,-y,1/2+z
1/2+x,1/2+y,z
1/2-x,1/2+y,1/2-z
1/2-x,1/2-y,-z
1/2+x,1/2-y,1/2+z
loop_
_atom_site_type_symbol
_atom_site_label
_atom_site_fract_x
_atom_site_fract_y
_atom_site_fract_z
Si Si1 0.198594 0.844181 0.493947
Si Si2 0.000000 0.169309 0.250000
Si Si3 0.769479 0.595737 0.848361
Si Si4 0.192055 0.291975 0.409080
Si Si5 0.431363 0.064141 0.315402
O O1 0.250000 0.750000 0.500000
O O2 0.269444 0.891564 0.436716
O O3 0.349533 0.881662 0.598896
O O4 0.908461 0.854172 0.440147
O O5 0.175226 0.221796 0.344778
O O6 0.181556 0.114893 0.245320
O O7 0.500000 0.606061 0.750000
O O8 0.882611 0.509067 0.859348
O O9 0.934889 0.662116 0.848411
O O10 0.250000 0.250000 0.500000
O O11 0.500000 0.032678 0.250000
#
# Coordination Sequence:
#
# PCOD8154836 Si02
#       5
#     8   4   8   8   8
#     4  12  25  47  75 106 141 187 240 293 354 422
#     4  12  24  44  72 100 146 180 240 292 348 422
#     4  12  28  47  72 105 147 187 236 292 362 423
#     4  12  25  43  75 108 137 186 240 293 350 419
#     4  12  28  47  71 105 145 190 236 293 358 425
#
# _framework density 22.108098999999999
#
# number of rings (size 3 to 8) (size 9 to 14) (size 15 to 20)
#    0.000    0.000    5.556    3.333    4.667    0.889 
#    0.000    0.000    0.000    0.000    0.000    0.000 
#    0.000    0.000    0.000    0.000    0.000    0.000 
#
# Total GULP energy -223337.308693 kJ/mol
# GULP energy per Si atom -12407.628261 kJ/mol
# Density = 2.205778 g / cm^3
# Si number density = 22.108099 Si / 1000 Ang^3
#
#
#
# Elastic Constant Matrix: (Units=GPa)
#
#
# Indices 1 2 3 4 5 6 
#
# 1 147.3437 52.2804 42.7547 0.0000 -2.7287 0.0000
# 2 52.2804 118.7538 49.1477 0.0000 -1.7395 0.0000
# 3 42.7547 49.1477 114.1003 0.0000 -12.6986 0.0000
# 4 0.0000 0.0000 0.0000 32.5659 0.0000 0.2105
# 5 -2.7287 -1.7395 -12.6986 0.0000 43.6949 0.0000
# 6 0.0000 0.0000 0.0000 0.2105 0.0000 40.8912
#
#
#
# Elastic Compliance Matrix: (Units=1/GPa)
#
#
# Indices 1 2 3 4 5 6 
#
# 1 0.008364 -0.002897 -0.001903 0.000000 -0.000146 0.000000
# 2 -0.002897 0.011286 -0.003871 0.000000 -0.000857 0.000000
# 3 -0.001903 -0.003871 0.011486 0.000000 0.003065 0.000000
# 4 0.000000 0.000000 0.000000 0.030708 0.000000 -0.000158
# 5 -0.000146 -0.000857 0.003065 0.000000 0.023734 0.000000
# 6 0.000000 0.000000 0.000000 -0.000158 0.000000 0.024456
#
#
# Mechanical properties :
#
#
# Convention : Reuss Voigt Hill
#
# Bulk Modulus (GPa) = 72.49321 74.28482 73.38902
# Shear Modulus (GPa) = 37.88683 39.16475 38.52579
#
# Velocity S-wave (km/s) = 4.14419 4.21350 4.17899
# Velocity P-wave (km/s) = 7.46730 7.57265 7.52016
#
# Compressibility (1/GPa) = 0.01379440
#
# Stress axis : x y z
#
# Youngs Moduli (GPa) = 119.55840 88.60784 87.06533
#
# Poissons Ratio (x) = 0.25670 0.16564
# Poissons Ratio (y) = 0.34636 0.33703
# Poissons Ratio (z) = 0.22746 0.34300
#
# Static dielectric constant tensor:
#      x y z
#    x 4.531150 0.000000 0.099600 
#    y 0.000000 4.194370 0.000000 
#    z 0.099600 0.000000 3.912010 
# 
# 
# High freq. dielectric constant tensor:
#      x y z
#    x 1.893490 0.000000 0.006550 
#    y 0.000000 1.870490 0.000000 
#    z 0.006550 0.000000 1.876800 
# 
# From -- ./inp_files/184452.got.cif
#   From: 2010.06.25/outbox.cif.g09.slc.cpg/sg15_93_cif.got.tgz:184452.got - 2010.06.28 07:06:18.
