data_PCOD8154246
_publ_section_title
;
Structure prediction by ZEFSAII (Michael W. Deem and Ramdas Pophale) SiO2 
 PCOD8154246
Probable space group: C 2/C
;
_chemical_formula_sum "Si O2"
_cell_formula_units_Z 36
_cell_length_a 27.449144
_cell_length_b 5.153848
_cell_length_c 15.744027
_cell_angle_alpha 90.000000
_cell_angle_beta 139.063046
_cell_angle_gamma 90.000000
_cell_volume 1459.381392
_symmetry_space_group_name_H-M "C 2/C"
_symmetry_group_IT_number 15
_symmetry_cell_setting 'monoclinic'
loop_
_space_group_symop_operation_xyz
x,y,z
-x,y,1/2-z
-x,-y,-z
x,-y,1/2+z
1/2+x,1/2+y,z
1/2-x,1/2+y,1/2-z
1/2-x,1/2-y,-z
1/2+x,1/2-y,1/2+z
loop_
_atom_site_type_symbol
_atom_site_label
_atom_site_fract_x
_atom_site_fract_y
_atom_site_fract_z
Si Si1 0.511442 0.317379 0.936611
Si Si2 0.616577 0.079824 0.640917
Si Si3 0.231665 0.205562 0.572577
Si Si4 0.000000 0.863105 0.250000
Si Si5 0.644592 0.216113 0.501979
O O1 0.500086 0.451479 0.831821
O O2 0.442313 0.117343 0.860337
O O3 0.500000 0.500000 0.000000
O O4 0.591787 0.177514 0.054313
O O5 0.698433 0.077022 0.787588
O O6 0.621374 0.287131 0.569204
O O7 0.250000 0.250000 0.500000
O O8 0.203190 0.478836 0.574540
O O9 0.170644 0.984439 0.495660
O O10 0.069738 0.664302 0.348326
#
# Coordination Sequence:
#
# PCOD8154246 Si02
#       5
#     8   8   8   4   8
#     4  11  25  47  76 114 154 211 251 336 385 473
#     4  11  26  46  75 110 156 199 268 314 401 463
#     4  12  28  47  75 109 153 203 260 319 390 465
#     4  12  26  48  80 112 162 196 280 310 408 466
#     4  12  27  46  75 109 150 208 250 325 383 463
#
# _framework density 24.667987
#
# number of rings (size 3 to 8) (size 9 to 14) (size 15 to 20)
#    0.000    0.444    2.222    4.667    6.222    3.556 
#    0.000    0.000    0.000    0.000    0.000    0.000 
#    0.000    0.000    0.000    0.000    0.000    0.000 
#
# Total GULP energy -223013.016896 kJ/mol
# GULP energy per Si atom -12389.612050 kJ/mol
# Density = 2.461184 g / cm^3
# Si number density = 24.667987 Si / 1000 Ang^3
#
#
#
# Elastic Constant Matrix: (Units=GPa)
#
#
# Indices 1 2 3 4 5 6 
#
# 1 125.5196 32.9504 56.2383 0.0009 -20.4356 0.0015
# 2 32.9504 89.0283 22.8681 0.0035 1.0758 0.0039
# 3 56.2383 22.8681 175.6608 0.0005 3.4707 0.0001
# 4 0.0009 0.0035 0.0005 49.6173 0.0019 5.9019
# 5 -20.4356 1.0758 3.4707 0.0019 48.8748 0.0019
# 6 0.0015 0.0039 0.0001 5.9019 0.0019 36.5656
#
#
#
# Elastic Compliance Matrix: (Units=1/GPa)
#
#
# Indices 1 2 3 4 5 6 
#
# 1 0.011086 -0.003338 -0.003212 0.000000 0.004937 0.000000
# 2 -0.003338 0.012627 -0.000543 -0.000001 -0.001635 -0.000001
# 3 -0.003212 -0.000543 0.006828 0.000000 -0.001816 0.000000
# 4 0.000000 -0.000001 0.000000 0.020549 -0.000001 -0.003317
# 5 0.004937 -0.001635 -0.001816 -0.000001 0.022690 -0.000001
# 6 0.000000 -0.000001 0.000000 -0.003317 -0.000001 0.027883
#
#
# Mechanical properties :
#
#
# Convention : Reuss Voigt Hill
#
# Bulk Modulus (GPa) = 61.14332 68.25804 64.70068
# Shear Modulus (GPa) = 41.22013 45.55500 43.38756
#
# Velocity S-wave (km/s) = 4.09222 4.30202 4.19843
# Velocity P-wave (km/s) = 6.86794 7.23928 7.05606
#
# Compressibility (1/GPa) = 0.01635502
#
# Stress axis : x y z
#
# Youngs Moduli (GPa) = 90.20333 79.19604 146.46054
#
# Poissons Ratio (x) = 0.26433 0.47047
# Poissons Ratio (y) = 0.30106 0.07952
# Poissons Ratio (z) = 0.28976 0.04300
#
# Static dielectric constant tensor:
#      x y z
#    x -18.753540 0.004060 -1.816620 
#    y 0.004060 4.803270 0.000530 
#    z -1.816620 0.000530 4.578570 
# 
# 
# High freq. dielectric constant tensor:
#      x y z
#    x 2.005280 0.000000 0.001080 
#    y 0.000000 1.978410 0.000000 
#    z 0.001080 0.000000 1.991340 
# 
# From -- ./inp_files/180254.got.cif
#   From: 2010.06.25/outbox.cif.g09.slc.cpg/sg15_91_cif.got.tgz:180254.got - 2010.06.28 07:06:18.
