data_PCOD8154775
_publ_section_title
;
Structure prediction by ZEFSAII (Michael W. Deem and Ramdas Pophale) SiO2 
 PCOD8154775
Probable space group: C 2/C
;
_chemical_formula_sum "Si O2"
_cell_formula_units_Z 44
_cell_length_a 19.646693
_cell_length_b 6.552861
_cell_length_c 16.397308
_cell_angle_alpha 90.000000
_cell_angle_beta 61.891796
_cell_angle_gamma 90.000000
_cell_volume 1862.047728
_symmetry_space_group_name_H-M "C 2/C"
_symmetry_group_IT_number 15
_symmetry_cell_setting 'monoclinic'
loop_
_space_group_symop_operation_xyz
x,y,z
-x,y,1/2-z
-x,-y,-z
x,-y,1/2+z
1/2+x,1/2+y,z
1/2-x,1/2+y,1/2-z
1/2-x,1/2-y,-z
1/2+x,1/2-y,1/2+z
loop_
_atom_site_type_symbol
_atom_site_label
_atom_site_fract_x
_atom_site_fract_y
_atom_site_fract_z
Si Si1 0.942169 0.609917 0.593373
Si Si2 0.500000 0.480849 0.250000
Si Si3 0.350787 0.504835 0.089147
Si Si4 0.913961 0.251901 0.406731
Si Si5 0.701500 0.103465 0.086494
Si Si6 0.112151 0.241474 0.783279
O O1 0.891371 0.773338 0.571592
O O2 0.884610 0.452626 0.669245
O O3 0.000000 0.500000 0.500000
O O4 0.995841 0.687987 0.636497
O O5 0.422556 0.606193 0.322777
O O6 0.474156 0.340141 0.187718
O O7 0.263493 0.494455 0.108145
O O8 0.345908 0.422199 0.183546
O O9 0.397812 0.363260 0.000572
O O10 0.852038 0.434508 0.428856
O O11 0.650502 0.244712 0.172902
O O12 0.750000 0.250000 0.000000
#
# Coordination Sequence:
#
# PCOD8154775 Si02
#       6
#     8   4   8   8   8   8
#     4  12  23  46  75 108 142 188 249 313 371 446
#     4  12  24  46  76 110 150 194 254 318 388 446
#     4  12  27  46  76 107 147 199 250 309 378 460
#     4  12  24  48  75 106 149 196 249 315 379 452
#     4  12  29  48  72 107 156 200 250 310 386 454
#     4  12  27  46  76 107 149 196 251 311 382 459
#
# _framework density 23.629898000000001
#
# number of rings (size 3 to 8) (size 9 to 14) (size 15 to 20)
#    0.000    0.000    3.636    6.545    2.545    0.000 
#    0.000    0.000    0.000    0.000    0.000    0.000 
#    0.000    0.000    0.000    0.000    0.000    0.000 
#
# Total GULP energy -272666.282223 kJ/mol
# GULP energy per Si atom -12393.921919 kJ/mol
# Density = 2.357612 g / cm^3
# Si number density = 23.629898 Si / 1000 Ang^3
#
#
#
# Elastic Constant Matrix: (Units=GPa)
#
#
# Indices 1 2 3 4 5 6 
#
# 1 103.7213 28.2426 19.8700 -0.0001 10.4241 0.0003
# 2 28.2426 117.0244 66.6326 0.0010 0.3884 0.0027
# 3 19.8700 66.6326 135.3439 0.0005 0.8387 0.0003
# 4 -0.0001 0.0010 0.0005 37.1605 0.0002 10.5039
# 5 10.4241 0.3884 0.8387 0.0002 36.5522 0.0007
# 6 0.0003 0.0027 0.0003 10.5039 0.0007 53.8068
#
#
#
# Elastic Compliance Matrix: (Units=1/GPa)
#
#
# Indices 1 2 3 4 5 6 
#
# 1 0.010655 -0.002336 -0.000395 0.000000 -0.003005 0.000000
# 2 -0.002336 0.012386 -0.005759 0.000000 0.000667 -0.000001
# 3 -0.000395 -0.005759 0.010282 0.000000 -0.000062 0.000000
# 4 0.000000 0.000000 0.000000 0.028482 0.000000 -0.005560
# 5 -0.003005 0.000667 -0.000062 0.000000 0.028209 0.000000
# 6 0.000000 -0.000001 0.000000 -0.005560 0.000000 0.019670
#
#
# Mechanical properties :
#
#
# Convention : Reuss Voigt Hill
#
# Bulk Modulus (GPa) = 61.19272 65.06442 63.12857
# Shear Modulus (GPa) = 37.84608 41.59353 39.71981
#
# Velocity S-wave (km/s) = 4.00636 4.20003 4.10434
# Velocity P-wave (km/s) = 6.88141 7.14947 7.01672
#
# Compressibility (1/GPa) = 0.01634181
#
# Stress axis : x y z
#
# Youngs Moduli (GPa) = 93.85147 80.73628 97.25446
#
# Poissons Ratio (x) = 0.18863 0.03846
# Poissons Ratio (y) = 0.21927 0.56009
# Poissons Ratio (z) = 0.03711 0.46496
#
# Static dielectric constant tensor:
#      x y z
#    x 4.715980 -0.000020 0.133390 
#    y -0.000020 4.751030 0.000010 
#    z 0.133390 0.000010 4.392320 
# 
# 
# High freq. dielectric constant tensor:
#      x y z
#    x 1.939360 0.000000 0.014270 
#    y 0.000000 1.946620 0.000000 
#    z 0.014270 0.000000 1.946530 
# 
# From -- ./inp_files/212857.got.cif
#   From: 2010.06.25/outbox.cif.g09.slc.cpg/sg15_107_cif.got.tgz:212857.got - 2010.06.28 07:06:18.
