data_PCOD8154089
_publ_section_title
;
Structure prediction by ZEFSAII (Michael W. Deem and Ramdas Pophale) SiO2 
 PCOD8154089
Probable space group: C 2/C
;
_chemical_formula_sum "Si O2"
_cell_formula_units_Z 44
_cell_length_a 19.035970
_cell_length_b 14.178102
_cell_length_c 17.965740
_cell_angle_alpha 90.000000
_cell_angle_beta 22.897564
_cell_angle_gamma 90.000000
_cell_volume 1886.611451
_symmetry_space_group_name_H-M "C 2/C"
_symmetry_group_IT_number 15
_symmetry_cell_setting 'monoclinic'
loop_
_space_group_symop_operation_xyz
x,y,z
-x,y,1/2-z
-x,-y,-z
x,-y,1/2+z
1/2+x,1/2+y,z
1/2-x,1/2+y,1/2-z
1/2-x,1/2-y,-z
1/2+x,1/2-y,1/2+z
loop_
_atom_site_type_symbol
_atom_site_label
_atom_site_fract_x
_atom_site_fract_y
_atom_site_fract_z
Si Si1 0.437527 0.829532 0.390016
Si Si2 0.282541 0.311072 0.576995
Si Si3 0.500000 0.186189 0.250000
Si Si4 0.615281 0.471430 0.707860
Si Si5 0.125952 0.866871 0.302596
Si Si6 0.813672 0.143054 0.586380
O O1 0.500000 0.782792 0.250000
O O2 0.280925 0.904356 0.523261
O O3 0.142084 0.747638 0.475381
O O4 0.611719 0.880688 0.255799
O O5 0.400284 0.254904 0.403505
O O6 0.140127 0.373092 0.665128
O O7 0.179349 0.239743 0.731855
O O8 0.407188 0.377663 0.506412
O O9 0.500000 0.509801 0.750000
O O10 0.707085 0.557050 0.665163
O O11 0.471528 0.417768 0.898047
O O12 0.187151 0.884058 0.326227
#
# Coordination Sequence:
#
# PCOD8154089 Si02
#       6
#     8   8   4   8   8   8
#     4  12  24  46  77 108 137 188 246 292 358 426
#     4   9  19  38  62  90 135 184 232 272 347 415
#     4   8  16  32  58  86 116 180 228 270 306 406
#     4  12  27  46  71 106 144 184 239 306 349 418
#     4  11  25  44  66 106 144 185 232 291 366 425
#     4  12  24  46  74 102 144 185 235 293 367 427
#
# _framework density 23.322237999999999
#
# number of rings (size 3 to 8) (size 9 to 14) (size 15 to 20)
#    0.000    1.091    3.636    2.727    7.636    0.727 
#    8.182    0.000    0.000    0.000    0.000    0.000 
#    0.000    0.000    0.000    0.000    0.000    0.000 
#
# Total GULP energy -272580.706714 kJ/mol
# GULP energy per Si atom -12390.032123 kJ/mol
# Density = 2.326916 g / cm^3
# Si number density = 23.322238 Si / 1000 Ang^3
#
#
#
# Elastic Constant Matrix: (Units=GPa)
#
#
# Indices 1 2 3 4 5 6 
#
# 1 177.8599 13.4427 39.6165 -0.0066 -3.3866 -0.0042
# 2 13.4427 51.8802 1.8849 -0.0081 1.1137 0.0110
# 3 39.6165 1.8849 79.8002 -0.0163 -11.6354 0.0106
# 4 -0.0066 -0.0081 -0.0163 25.0289 0.0082 -0.1922
# 5 -3.3866 1.1137 -11.6354 0.0082 42.5293 -0.0026
# 6 -0.0042 0.0110 0.0106 -0.1922 -0.0026 32.0574
#
#
#
# Elastic Compliance Matrix: (Units=1/GPa)
#
#
# Indices 1 2 3 4 5 6 
#
# 1 0.006449 -0.001547 -0.003212 -0.000001 -0.000325 0.000002
# 2 -0.001547 0.019681 0.000219 0.000006 -0.000579 -0.000007
# 3 -0.003212 0.000219 0.014668 0.000008 0.003751 -0.000005
# 4 -0.000001 0.000006 0.000008 0.039956 -0.000006 0.000240
# 5 -0.000325 -0.000579 0.003751 -0.000006 0.024529 0.000001
# 6 0.000002 -0.000007 -0.000005 0.000240 0.000001 0.031195
#
#
# Mechanical properties :
#
#
# Convention : Reuss Voigt Hill
#
# Bulk Modulus (GPa) = 31.52996 46.60315 39.06656
# Shear Modulus (GPa) = 32.02460 36.89621 34.46041
#
# Velocity S-wave (km/s) = 3.70960 3.98177 3.84810
# Velocity P-wave (km/s) = 5.64773 6.41600 6.04408
#
# Compressibility (1/GPa) = 0.03171587
#
# Stress axis : x y z
#
# Youngs Moduli (GPa) = 155.07128 50.81157 68.17655
#
# Poissons Ratio (x) = 0.07862 0.21900
# Poissons Ratio (y) = 0.23993 -0.01492
# Poissons Ratio (z) = 0.49812 -0.01112
#
# Static dielectric constant tensor:
#      x y z
#    x 4.837420 -0.000070 -0.516780 
#    y -0.000070 3.851480 0.000050 
#    z -0.516780 0.000050 4.667570 
# 
# 
# High freq. dielectric constant tensor:
#      x y z
#    x 1.941470 0.000000 -0.014540 
#    y 0.000000 1.883410 0.000000 
#    z -0.014540 0.000000 1.934320 
# 
# From -- ./inp_files/211165.got.cif
#   From: 2010.06.25/outbox.cif.g09.slc.cpg/sg15_106_cif.got.tgz:211165.got - 2010.06.28 07:06:18.
