data_PCOD8154054
_publ_section_title
;
Structure prediction by ZEFSAII (Michael W. Deem and Ramdas Pophale) SiO2 
 PCOD8154054
Probable space group: C 2/C
;
_chemical_formula_sum "Si O2"
_cell_formula_units_Z 56
_cell_length_a 8.901793
_cell_length_b 10.866728
_cell_length_c 26.826790
_cell_angle_alpha 90.000000
_cell_angle_beta 113.884290
_cell_angle_gamma 90.000000
_cell_volume 2372.818908
_symmetry_space_group_name_H-M "C 2/C"
_symmetry_group_IT_number 15
_symmetry_cell_setting 'monoclinic'
loop_
_space_group_symop_operation_xyz
x,y,z
-x,y,1/2-z
-x,-y,-z
x,-y,1/2+z
1/2+x,1/2+y,z
1/2-x,1/2+y,1/2-z
1/2-x,1/2-y,-z
1/2+x,1/2-y,1/2+z
loop_
_atom_site_type_symbol
_atom_site_label
_atom_site_fract_x
_atom_site_fract_y
_atom_site_fract_z
Si Si1 0.500000 0.998285 0.250000
Si Si2 0.754272 0.565065 0.947034
Si Si3 0.524801 0.754798 0.880390
Si Si4 0.955592 0.098661 0.150579
Si Si5 0.000000 0.923948 0.250000
Si Si6 0.702524 0.790632 0.801472
Si Si7 0.689140 0.153138 0.854908
Si Si8 0.927494 0.508296 0.566841
O O1 0.348109 0.092536 0.240243
O O2 0.446473 0.913600 0.197126
O O3 0.673080 0.699196 0.933167
O O4 0.625121 0.467247 0.907270
O O5 0.922489 0.579642 0.938449
O O6 0.788683 0.526125 0.008079
O O7 0.579608 0.779009 0.831535
O O8 0.379472 0.649530 0.862770
O O9 0.486766 0.887519 0.898519
O O10 0.830831 0.201102 0.152597
O O11 0.114023 0.181457 0.155860
O O12 0.992186 0.004712 0.199676
O O13 0.832497 0.838638 0.231966
O O14 0.666374 0.095601 0.906539
#
# Coordination Sequence:
#
# PCOD8154054 Si02
#       8
#     4   8   8   8   4   8   8   8
#     4  11  25  42  66 106 139 183 238 294 348 435
#     4  11  25  49  75 106 146 188 243 299 367 423
#     4  12  24  51  71 107 142 190 239 297 366 428
#     4  12  26  46  72 107 144 193 237 300 357 435
#     4  11  27  46  70 106 143 187 242 298 358 429
#     4  11  26  45  74 101 148 190 236 299 364 424
#     4  12  27  45  73 106 145 190 242 295 365 431
#     4  11  26  50  74 106 146 187 241 308 354 437
#
# _framework density 23.600621
#
# number of rings (size 3 to 8) (size 9 to 14) (size 15 to 20)
#    0.000    0.571    4.286    2.571    2.000    4.571 
#    2.571    0.000    0.000    0.000    0.000    0.000 
#    0.000    0.000    0.000    0.000    0.000    0.000 
#
# Total GULP energy -346990.695532 kJ/mol
# GULP energy per Si atom -12392.524840 kJ/mol
# Density = 2.354690 g / cm^3
# Si number density = 23.600621 Si / 1000 Ang^3
#
#
#
# Elastic Constant Matrix: (Units=GPa)
#
#
# Indices 1 2 3 4 5 6 
#
# 1 81.8233 16.9552 32.5466 0.0000 7.2024 0.0000
# 2 16.9552 119.1218 42.9455 0.0000 -3.2249 0.0000
# 3 32.5466 42.9455 138.3564 0.0000 3.1411 0.0000
# 4 0.0000 0.0000 0.0000 22.0128 0.0000 2.8444
# 5 7.2024 -3.2249 3.1411 0.0000 31.5550 0.0000
# 6 0.0000 0.0000 0.0000 2.8444 0.0000 28.2727
#
#
#
# Elastic Compliance Matrix: (Units=1/GPa)
#
#
# Indices 1 2 3 4 5 6 
#
# 1 0.013836 -0.001014 -0.002872 0.000000 -0.002976 0.000000
# 2 -0.001014 0.009577 -0.002768 0.000000 0.001486 0.000000
# 3 -0.002872 -0.002768 0.008774 0.000000 -0.000501 0.000000
# 4 0.000000 0.000000 0.000000 0.046026 0.000000 -0.004630
# 5 -0.002976 0.001486 -0.000501 0.000000 0.032572 0.000000
# 6 0.000000 0.000000 0.000000 -0.004630 0.000000 0.035836
#
#
# Mechanical properties :
#
#
# Convention : Reuss Voigt Hill
#
# Bulk Modulus (GPa) = 52.97158 58.24401 55.60779
# Shear Modulus (GPa) = 30.08009 32.82504 31.45256
#
# Velocity S-wave (km/s) = 3.57395 3.73346 3.65458
# Velocity P-wave (km/s) = 6.28686 6.58161 6.43592
#
# Compressibility (1/GPa) = 0.01887805
#
# Stress axis : x y z
#
# Youngs Moduli (GPa) = 72.27460 104.41414 113.97442
#
# Poissons Ratio (x) = 0.10592 0.32737
# Poissons Ratio (y) = 0.07332 0.31547
# Poissons Ratio (z) = 0.20760 0.28900
#
# Static dielectric constant tensor:
#      x y z
#    x 4.221500 0.000000 0.272800 
#    y 0.000000 4.633130 0.000000 
#    z 0.272800 0.000000 4.371680 
# 
# 
# High freq. dielectric constant tensor:
#      x y z
#    x 1.929370 0.000000 0.019460 
#    y 0.000000 1.954700 0.000000 
#    z 0.019460 0.000000 1.934950 
# 
# From -- ./inp_files/288109.got.cif
#   From: 2010.06.25/outbox.cif.g09.slc.cpg/sg15_145_cif.got.tgz:288109.got - 2010.06.28 07:06:18.
