data_PCOD8154800
_publ_section_title
;
Structure prediction by ZEFSAII (Michael W. Deem and Ramdas Pophale) SiO2 
 PCOD8154800
Probable space group: C 2/C
;
_chemical_formula_sum "Si O2"
_cell_formula_units_Z 52
_cell_length_a 20.265095
_cell_length_b 10.222734
_cell_length_c 17.870648
_cell_angle_alpha 90.000000
_cell_angle_beta 43.589727
_cell_angle_gamma 90.000000
_cell_volume 2552.605976
_symmetry_space_group_name_H-M "C 2/C"
_symmetry_group_IT_number 15
_symmetry_cell_setting 'monoclinic'
loop_
_space_group_symop_operation_xyz
x,y,z
-x,y,1/2-z
-x,-y,-z
x,-y,1/2+z
1/2+x,1/2+y,z
1/2-x,1/2+y,1/2-z
1/2-x,1/2-y,-z
1/2+x,1/2-y,1/2+z
loop_
_atom_site_type_symbol
_atom_site_label
_atom_site_fract_x
_atom_site_fract_y
_atom_site_fract_z
Si Si1 0.082191 0.278312 0.483509
Si Si2 0.667848 0.062854 0.418217
Si Si3 0.500000 0.678027 0.250000
Si Si4 0.387444 0.881714 0.694477
Si Si5 0.527210 0.834195 0.370070
Si Si6 0.759458 0.853042 0.558898
Si Si7 0.204972 0.889986 0.556363
O O1 0.141534 0.411394 0.439018
O O2 0.064062 0.248330 0.410555
O O3 0.142058 0.165148 0.475515
O O4 0.980723 0.291080 0.608992
O O5 0.678031 0.122932 0.326645
O O6 0.585951 0.142361 0.529455
O O7 0.766866 0.078553 0.381021
O O8 0.548238 0.762478 0.275700
O O9 0.410321 0.597049 0.356060
O O10 0.329284 0.828698 0.812768
O O11 0.417662 0.030396 0.680125
O O12 0.750000 0.750000 0.500000
O O13 0.752966 0.000625 0.533879
O O14 0.250000 0.750000 0.500000
#
# Coordination Sequence:
#
# PCOD8154800 Si02
#       7
#     8   8   4   8   8   8   8
#     4   9  20  41  65  93 125 157 222 268 304 376
#     4   9  18  42  65  91 122 162 218 263 302 383
#     4  12  24  36  64  92 132 172 192 264 332 356
#     4   9  21  38  69  92 121 175 212 259 320 371
#     4   9  19  39  66  95 121 167 220 257 309 388
#     4  12  25  42  62  98 131 167 214 263 319 377
#     4  12  25  42  62  95 132 164 213 262 313 393
#
# _framework density 20.371338000000002
#
# number of rings (size 3 to 8) (size 9 to 14) (size 15 to 20)
#    0.000    1.846    3.077    2.769    2.154    1.846 
#    0.000    0.769    0.000    0.000    0.000    0.000 
#    0.000    0.000    0.000    0.000    0.000    0.000 
#
# Total GULP energy -322352.681966 kJ/mol
# GULP energy per Si atom -12398.180076 kJ/mol
# Density = 2.032497 g / cm^3
# Si number density = 20.371338 Si / 1000 Ang^3
#
#
#
# Elastic Constant Matrix: (Units=GPa)
#
#
# Indices 1 2 3 4 5 6 
#
# 1 140.3136 36.2074 48.8156 0.0000 7.1570 0.0000
# 2 36.2074 70.7497 33.5655 -0.0001 8.3376 0.0001
# 3 48.8156 33.5655 130.0298 0.0000 10.5863 0.0000
# 4 0.0000 -0.0001 0.0000 21.9526 0.0000 1.0028
# 5 7.1570 8.3376 10.5863 0.0000 36.0539 0.0000
# 6 0.0000 0.0001 0.0000 1.0028 0.0000 28.3416
#
#
#
# Elastic Compliance Matrix: (Units=1/GPa)
#
#
# Indices 1 2 3 4 5 6 
#
# 1 0.008851 -0.003341 -0.002439 0.000000 -0.000268 0.000000
# 2 -0.003341 0.017603 -0.003086 0.000000 -0.002501 0.000000
# 3 -0.002439 -0.003086 0.009533 0.000000 -0.001601 0.000000
# 4 0.000000 0.000000 0.000000 0.045626 0.000000 -0.001614
# 5 -0.000268 -0.002501 -0.001601 0.000000 0.028838 0.000000
# 6 0.000000 0.000000 0.000000 -0.001614 0.000000 0.035341
#
#
# Mechanical properties :
#
#
# Convention : Reuss Voigt Hill
#
# Bulk Modulus (GPa) = 54.77723 64.25220 59.51472
# Shear Modulus (GPa) = 29.47947 32.10327 30.79137
#
# Velocity S-wave (km/s) = 3.80821 3.97407 3.89202
# Velocity P-wave (km/s) = 6.80326 7.25718 7.03388
#
# Compressibility (1/GPa) = 0.01825576
#
# Stress axis : x y z
#
# Youngs Moduli (GPa) = 112.97974 56.80809 104.89859
#
# Poissons Ratio (x) = 0.18981 0.25580
# Poissons Ratio (y) = 0.37749 0.32372
# Poissons Ratio (z) = 0.27551 0.17531
#
# Static dielectric constant tensor:
#      x y z
#    x 4.014160 0.000000 0.113810 
#    y 0.000000 3.387960 0.000000 
#    z 0.113810 0.000000 3.653600 
# 
# 
# High freq. dielectric constant tensor:
#      x y z
#    x 1.813760 0.000000 0.007470 
#    y 0.000000 1.766730 0.000000 
#    z 0.007470 0.000000 1.792160 
# 
# From -- ./inp_files/215016.got.cif
#   From: 2010.06.25/outbox.cif.g09.slc.cpg/sg15_108_cif.got.tgz:215016.got - 2010.06.28 07:06:18.
