data_PCOD8154138
_publ_section_title
;
Structure prediction by ZEFSAII (Michael W. Deem and Ramdas Pophale) SiO2 
 PCOD8154138
Probable space group: C 2/C
;
_chemical_formula_sum "Si O2"
_cell_formula_units_Z 44
_cell_length_a 21.361425
_cell_length_b 6.556986
_cell_length_c 14.795195
_cell_angle_alpha 90.000000
_cell_angle_beta 74.736865
_cell_angle_gamma 90.000000
_cell_volume 1999.215469
_symmetry_space_group_name_H-M "C 2/C"
_symmetry_group_IT_number 15
_symmetry_cell_setting 'monoclinic'
loop_
_space_group_symop_operation_xyz
x,y,z
-x,y,1/2-z
-x,-y,-z
x,-y,1/2+z
1/2+x,1/2+y,z
1/2-x,1/2+y,1/2-z
1/2-x,1/2-y,-z
1/2+x,1/2-y,1/2+z
loop_
_atom_site_type_symbol
_atom_site_label
_atom_site_fract_x
_atom_site_fract_y
_atom_site_fract_z
Si Si1 0.294132 0.447770 0.984279
Si Si2 0.520669 0.970678 0.390024
Si Si3 0.153590 0.414864 0.264656
Si Si4 0.760254 0.736477 0.346677
Si Si5 0.918660 0.842915 0.854902
Si Si6 0.500000 0.309526 0.250000
O O1 0.279743 0.569323 0.897765
O O2 0.371251 0.396419 0.957147
O O3 0.250000 0.250000 0.000000
O O4 0.279357 0.575144 0.078777
O O5 0.508973 0.171989 0.335230
O O6 0.500000 0.000000 0.500000
O O7 0.597685 0.930389 0.361655
O O8 0.482744 0.777238 0.362800
O O9 0.175087 0.636814 0.220090
O O10 0.215290 0.299568 0.280605
O O11 0.125284 0.298424 0.190262
O O12 0.938377 0.046979 0.793798
#
# Coordination Sequence:
#
# PCOD8154138 Si02
#       6
#     8   8   8   8   8   4
#     4  11  25  45  71 106 144 188 247 298 364 435
#     4  12  29  46  75 108 145 190 248 306 361 449
#     4  12  24  49  68 106 146 184 247 294 368 438
#     4  11  27  43  74 105 142 196 235 308 359 438
#     4  12  25  47  73 105 143 193 243 299 371 435
#     4  12  24  50  74 100 148 200 230 308 368 424
#
# _framework density 22.008631000000001
#
# number of rings (size 3 to 8) (size 9 to 14) (size 15 to 20)
#    0.000    0.364    5.455    2.182    5.091    2.182 
#    0.000    0.000    0.000    0.000    0.000    0.000 
#    0.000    0.000    0.000    0.000    0.000    0.000 
#
# Total GULP energy -272871.050376 kJ/mol
# GULP energy per Si atom -12403.229563 kJ/mol
# Density = 2.195854 g / cm^3
# Si number density = 22.008631 Si / 1000 Ang^3
#
#
#
# Elastic Constant Matrix: (Units=GPa)
#
#
# Indices 1 2 3 4 5 6 
#
# 1 108.8261 53.3315 40.8023 0.0000 -23.8714 0.0000
# 2 53.3315 132.9348 51.0034 0.0000 -12.1987 0.0000
# 3 40.8023 51.0034 124.3666 0.0000 -15.4082 0.0000
# 4 0.0000 0.0000 0.0000 39.6710 0.0000 -9.7710
# 5 -23.8714 -12.1987 -15.4082 0.0000 51.6837 0.0000
# 6 0.0000 0.0000 0.0000 -9.7710 0.0000 47.4053
#
#
#
# Elastic Compliance Matrix: (Units=1/GPa)
#
#
# Indices 1 2 3 4 5 6 
#
# 1 0.012868 -0.003974 -0.002048 0.000000 0.004395 0.000000
# 2 -0.003974 0.010210 -0.002920 0.000000 -0.000296 0.000000
# 3 -0.002048 -0.002920 0.010080 0.000000 0.001370 0.000000
# 4 0.000000 0.000000 0.000000 0.026555 0.000000 0.005474
# 5 0.004395 -0.000296 0.001370 0.000000 0.021717 0.000000
# 6 0.000000 0.000000 0.000000 0.005474 0.000000 0.022223
#
#
# Mechanical properties :
#
#
# Convention : Reuss Voigt Hill
#
# Bulk Modulus (GPa) = 65.46624 72.93353 69.19989
# Shear Modulus (GPa) = 39.48589 42.48467 40.98528
#
# Velocity S-wave (km/s) = 4.24029 4.39836 4.32005
# Velocity P-wave (km/s) = 7.33374 7.68145 7.50960
#
# Compressibility (1/GPa) = 0.01527505
#
# Stress axis : x y z
#
# Youngs Moduli (GPa) = 77.71170 97.94485 99.20776
#
# Poissons Ratio (x) = 0.38919 0.20314
# Poissons Ratio (y) = 0.30879 0.28970
# Poissons Ratio (z) = 0.15913 0.28601
#
# Static dielectric constant tensor:
#      x y z
#    x 4.617700 0.000000 -0.501850 
#    y 0.000000 4.416770 0.000000 
#    z -0.501850 0.000000 4.177200 
# 
# 
# High freq. dielectric constant tensor:
#      x y z
#    x 1.872580 0.000000 -0.022280 
#    y 0.000000 1.882200 0.000000 
#    z -0.022280 0.000000 1.871430 
# 
# From -- ./inp_files/170815.got.cif
#   From: 2010.06.25/outbox.cif.g09.slc.cpg/sg15_86_cif.got.tgz:170815.got - 2010.06.28 07:06:18.
