data_PCOD8154324
_publ_section_title
;
Structure prediction by ZEFSAII (Michael W. Deem and Ramdas Pophale) SiO2 
 PCOD8154324
Probable space group: C 2/C
;
_chemical_formula_sum "Si O2"
_cell_formula_units_Z 40
_cell_length_a 20.060774
_cell_length_b 5.258531
_cell_length_c 16.863342
_cell_angle_alpha 90.000000
_cell_angle_beta 106.337377
_cell_angle_gamma 90.000000
_cell_volume 1707.088218
_symmetry_space_group_name_H-M "C 2/C"
_symmetry_group_IT_number 15
_symmetry_cell_setting 'monoclinic'
loop_
_space_group_symop_operation_xyz
x,y,z
-x,y,1/2-z
-x,-y,-z
x,-y,1/2+z
1/2+x,1/2+y,z
1/2-x,1/2+y,1/2-z
1/2-x,1/2-y,-z
1/2+x,1/2-y,1/2+z
loop_
_atom_site_type_symbol
_atom_site_label
_atom_site_fract_x
_atom_site_fract_y
_atom_site_fract_z
Si Si1 0.787878 0.394765 0.245522
Si Si2 0.760787 0.549214 0.569489
Si Si3 0.428071 0.904373 0.379904
Si Si4 0.002581 0.098614 0.846613
Si Si5 0.130664 0.221420 0.983742
O O1 0.746890 0.661624 0.220499
O O2 0.791171 0.303010 0.155720
O O3 0.860051 0.469162 0.307454
O O4 0.750000 0.750000 0.500000
O O5 0.819978 0.355793 0.562995
O O6 0.682981 0.437206 0.557810
O O7 0.455519 0.630457 0.361508
O O8 0.412376 0.901408 0.469268
O O9 0.480156 0.130749 0.375854
O O10 0.000000 0.106749 0.750000
O O11 0.079001 0.055809 0.910517
#
# Coordination Sequence:
#
# PCOD8154324 Si02
#       5
#     8   8   8   8   8
#     4  12  25  46  72 106 145 183 241 292 356 420
#     4  11  26  43  77 103 148 187 238 300 351 429
#     4  12  26  47  74 104 141 188 236 291 355 426
#     4  12  28  47  74 102 145 188 237 293 353 428
#     4  11  26  47  68 110 140 190 237 291 360 415
#
# _framework density 23.431712000000001
#
# number of rings (size 3 to 8) (size 9 to 14) (size 15 to 20)
#    0.000    0.400    2.000    5.400   11.200    0.000 
#    0.000    0.000    0.000    0.000    0.000    0.000 
#    0.000    0.000    0.000    0.000    0.000    0.000 
#
# Total GULP energy -247893.329883 kJ/mol
# GULP energy per Si atom -12394.666494 kJ/mol
# Density = 2.337838 g / cm^3
# Si number density = 23.431712 Si / 1000 Ang^3
#
#
#
# Elastic Constant Matrix: (Units=GPa)
#
#
# Indices 1 2 3 4 5 6 
#
# 1 93.8205 19.6976 38.5125 0.0000 -1.1556 0.0000
# 2 19.6976 87.5612 6.8539 0.0000 -1.6557 0.0000
# 3 38.5125 6.8539 149.4937 0.0000 11.1785 0.0000
# 4 0.0000 0.0000 0.0000 33.6906 0.0000 2.9682
# 5 -1.1556 -1.6557 11.1785 0.0000 31.7037 0.0000
# 6 0.0000 0.0000 0.0000 2.9682 0.0000 9.7346
#
#
#
# Elastic Compliance Matrix: (Units=1/GPa)
#
#
# Indices 1 2 3 4 5 6 
#
# 1 0.012532 -0.002539 -0.003221 0.000000 0.001460 0.000000
# 2 -0.002539 0.011996 0.000066 0.000000 0.000511 0.000000
# 3 -0.003221 0.000066 0.007728 0.000000 -0.002839 0.000000
# 4 0.000000 0.000000 0.000000 0.030501 0.000000 -0.009300
# 5 0.001460 0.000511 -0.002839 0.000000 0.032623 0.000000
# 6 0.000000 0.000000 0.000000 -0.009300 0.000000 0.105562
#
#
# Mechanical properties :
#
#
# Convention : Reuss Voigt Hill
#
# Bulk Modulus (GPa) = 47.92153 51.22259 49.57206
# Shear Modulus (GPa) = 22.80108 32.74653 27.77380
#
# Velocity S-wave (km/s) = 3.12282 3.74241 3.44657
# Velocity P-wave (km/s) = 5.78780 6.37040 6.08608
#
# Compressibility (1/GPa) = 0.02086745
#
# Stress axis : x y z
#
# Youngs Moduli (GPa) = 79.79512 83.35877 129.39353
#
# Poissons Ratio (x) = 0.21168 0.41681
# Poissons Ratio (y) = 0.20264 -0.00854
# Poissons Ratio (z) = 0.25704 -0.00550
#
# Static dielectric constant tensor:
#      x y z
#    x 3.872040 0.000000 0.073490 
#    y 0.000000 3.644030 0.000000 
#    z 0.073490 0.000000 4.317140 
# 
# 
# High freq. dielectric constant tensor:
#      x y z
#    x 1.935140 0.000000 0.011500 
#    y 0.000000 1.921320 0.000000 
#    z 0.011500 0.000000 1.957770 
# 
# From -- ./inp_files/208104.got.cif
#   From: 2010.06.25/outbox.cif.g09.slc.cpg/sg15_105_cif.got.tgz:208104.got - 2010.06.28 07:06:18.
