data_PCOD8154786
_publ_section_title
;
Structure prediction by ZEFSAII (Michael W. Deem and Ramdas Pophale) SiO2 
 PCOD8154786
Probable space group: C 2/C
;
_chemical_formula_sum "Si O2"
_cell_formula_units_Z 44
_cell_length_a 22.274679
_cell_length_b 5.238699
_cell_length_c 18.532507
_cell_angle_alpha 90.000000
_cell_angle_beta 114.233874
_cell_angle_gamma 90.000000
_cell_volume 1971.994152
_symmetry_space_group_name_H-M "C 2/C"
_symmetry_group_IT_number 15
_symmetry_cell_setting 'monoclinic'
loop_
_space_group_symop_operation_xyz
x,y,z
-x,y,1/2-z
-x,-y,-z
x,-y,1/2+z
1/2+x,1/2+y,z
1/2-x,1/2+y,1/2-z
1/2-x,1/2-y,-z
1/2+x,1/2-y,1/2+z
loop_
_atom_site_type_symbol
_atom_site_label
_atom_site_fract_x
_atom_site_fract_y
_atom_site_fract_z
Si Si1 0.059728 0.688133 0.172913
Si Si2 0.000000 0.671765 0.750000
Si Si3 0.755715 0.497341 0.954463
Si Si4 0.397362 0.939643 0.958729
Si Si5 0.120987 0.956576 0.330102
Si Si6 0.941549 0.079164 0.556499
O O1 0.101062 0.577476 0.127046
O O2 0.110667 0.751891 0.261858
O O3 0.006269 0.493283 0.180054
O O4 0.015878 0.934664 0.126423
O O5 0.068233 0.820122 0.793370
O O6 0.822984 0.498138 0.943550
O O7 0.697696 0.469673 0.865932
O O8 0.750000 0.750000 0.000000
O O9 0.750000 0.250000 0.000000
O O10 0.424119 0.680733 0.007650
O O11 0.442814 0.180090 0.002643
O O12 0.110197 0.850822 0.405913
#
# Coordination Sequence:
#
# PCOD8154786 Si02
#       6
#     8   4   8   8   8   8
#     4  12  27  44  73 111 146 190 241 310 368 427
#     4  12  24  46  72 102 152 180 242 292 376 424
#     4  12  26  49  75 102 143 193 243 291 358 438
#     4  12  27  47  74 110 144 189 244 302 355 435
#     4  12  25  44  76 101 144 195 241 292 366 436
#     4  12  23  47  75 107 145 187 239 297 366 431
#
# _framework density 22.312441
#
# number of rings (size 3 to 8) (size 9 to 14) (size 15 to 20)
#    0.000    0.000    7.273    2.182    5.091    0.000 
#    3.273    0.000    0.000    0.000    0.000    0.000 
#    0.000    0.000    0.000    0.000    0.000    0.000 
#
# Total GULP energy -272769.498528 kJ/mol
# GULP energy per Si atom -12398.613569 kJ/mol
# Density = 2.226166 g / cm^3
# Si number density = 22.312441 Si / 1000 Ang^3
#
#
#
# Elastic Constant Matrix: (Units=GPa)
#
#
# Indices 1 2 3 4 5 6 
#
# 1 96.2444 35.1738 48.8498 0.0001 -14.3158 0.0000
# 2 35.1738 137.7572 59.9530 0.0004 -1.4555 -0.0003
# 3 48.8498 59.9530 134.6451 0.0001 -9.7996 0.0000
# 4 0.0001 0.0004 0.0001 20.8370 0.0000 2.3312
# 5 -14.3158 -1.4555 -9.7996 0.0000 59.8111 0.0000
# 6 0.0000 -0.0003 0.0000 2.3312 0.0000 20.6258
#
#
#
# Elastic Compliance Matrix: (Units=1/GPa)
#
#
# Indices 1 2 3 4 5 6 
#
# 1 0.013368 -0.001681 -0.003918 0.000000 0.002517 0.000000
# 2 -0.001681 0.009227 -0.003554 0.000000 -0.000760 0.000000
# 3 -0.003918 -0.003554 0.010481 0.000000 0.000693 0.000000
# 4 0.000000 0.000000 0.000000 0.048606 0.000000 -0.005494
# 5 0.002517 -0.000760 0.000693 0.000000 0.017417 0.000000
# 6 0.000000 0.000000 0.000000 -0.005494 0.000000 0.049104
#
#
# Mechanical properties :
#
#
# Convention : Reuss Voigt Hill
#
# Bulk Modulus (GPa) = 67.70710 72.95554 70.33132
# Shear Modulus (GPa) = 29.16602 35.23280 32.19941
#
# Velocity S-wave (km/s) = 3.61939 3.97806 3.80296
# Velocity P-wave (km/s) = 6.91936 7.33949 7.13252
#
# Compressibility (1/GPa) = 0.01476950
#
# Stress axis : x y z
#
# Youngs Moduli (GPa) = 74.80722 108.37657 95.40878
#
# Poissons Ratio (x) = 0.18223 0.37381
# Poissons Ratio (y) = 0.12579 0.33906
# Poissons Ratio (z) = 0.29309 0.38515
#
# Static dielectric constant tensor:
#      x y z
#    x 4.156620 0.000000 -0.058900 
#    y 0.000000 4.043090 0.000000 
#    z -0.058900 0.000000 4.375890 
# 
# 
# High freq. dielectric constant tensor:
#      x y z
#    x 1.878260 0.000000 -0.001120 
#    y 0.000000 1.882380 0.000000 
#    z -0.001120 0.000000 1.888360 
# 
# From -- ./inp_files/212820.got.cif
#   From: 2010.06.25/outbox.cif.g09.slc.cpg/sg15_107_cif.got.tgz:212820.got - 2010.06.28 07:06:18.
