data_PCOD8154490
_publ_section_title
;
Structure prediction by ZEFSAII (Michael W. Deem and Ramdas Pophale) SiO2 
 PCOD8154490
Probable space group: C 2/C
;
_chemical_formula_sum "Si O2"
_cell_formula_units_Z 36
_cell_length_a 18.414635
_cell_length_b 9.060932
_cell_length_c 10.855218
_cell_angle_alpha 90.000000
_cell_angle_beta 81.009528
_cell_angle_gamma 90.000000
_cell_volume 1788.981689
_symmetry_space_group_name_H-M "C 2/C"
_symmetry_group_IT_number 15
_symmetry_cell_setting 'monoclinic'
loop_
_space_group_symop_operation_xyz
x,y,z
-x,y,1/2-z
-x,-y,-z
x,-y,1/2+z
1/2+x,1/2+y,z
1/2-x,1/2+y,1/2-z
1/2-x,1/2-y,-z
1/2+x,1/2-y,1/2+z
loop_
_atom_site_type_symbol
_atom_site_label
_atom_site_fract_x
_atom_site_fract_y
_atom_site_fract_z
Si Si1 0.164617 0.723379 0.036565
Si Si2 0.422464 0.059409 0.982669
Si Si3 0.566469 0.428557 0.909275
Si Si4 0.500000 0.804421 0.250000
Si Si5 0.419994 0.726756 0.707507
O O1 0.142963 0.715856 0.185402
O O2 0.250000 0.750000 0.000000
O O3 0.140169 0.565780 0.985070
O O4 0.126940 0.867390 0.986834
O O5 0.407006 0.194819 0.079239
O O6 0.434372 0.104305 0.835397
O O7 0.500000 0.000000 0.000000
O O8 0.539972 0.288268 0.842494
O O9 0.596175 0.553210 0.809015
O O10 0.500000 0.500000 0.000000
O O11 0.500000 0.754704 0.750000
#
# Coordination Sequence:
#
# PCOD8154490 Si02
#       5
#     8   8   8   4   8
#     4  12  28  45  64 100 144 172 218 288 345 388
#     4  12  22  39  70 100 128 177 226 274 325 401
#     4  12  21  42  71 100 128 182 225 277 325 402
#     4  12  20  36  74 104 126 166 246 274 318 394
#     4  12  22  41  71  99 129 175 232 272 326 405
#
# _framework density 20.123182
#
# number of rings (size 3 to 8) (size 9 to 14) (size 15 to 20)
#    0.000    0.000   10.000    1.333    0.000    1.778 
#    0.000    1.111    0.000    0.000    0.000    0.000 
#    0.000    0.000    0.000    0.000    0.000    0.000 
#
# Total GULP energy -223135.527466 kJ/mol
# GULP energy per Si atom -12396.418193 kJ/mol
# Density = 2.007738 g / cm^3
# Si number density = 20.123182 Si / 1000 Ang^3
#
#
#
# Elastic Constant Matrix: (Units=GPa)
#
#
# Indices 1 2 3 4 5 6 
#
# 1 124.7603 55.6579 50.8695 0.0000 -17.8125 0.0000
# 2 55.6579 111.3022 36.2526 0.0000 -5.0942 0.0000
# 3 50.8695 36.2526 123.2466 0.0000 -8.8144 0.0000
# 4 0.0000 0.0000 0.0000 49.1538 0.0000 5.3701
# 5 -17.8125 -5.0942 -8.8144 0.0000 26.7336 0.0000
# 6 0.0000 0.0000 0.0000 5.3701 0.0000 32.2478
#
#
#
# Elastic Compliance Matrix: (Units=1/GPa)
#
#
# Indices 1 2 3 4 5 6 
#
# 1 0.012398 -0.004858 -0.003240 0.000000 0.006267 0.000000
# 2 -0.004858 0.011864 -0.001592 0.000000 -0.001501 0.000000
# 3 -0.003240 -0.001592 0.009979 0.000000 0.000828 0.000000
# 4 0.000000 0.000000 0.000000 0.020721 0.000000 -0.003451
# 5 0.006267 -0.001501 0.000828 0.000000 0.041569 0.000000
# 6 0.000000 0.000000 0.000000 -0.003451 0.000000 0.031584
#
#
# Mechanical properties :
#
#
# Convention : Reuss Voigt Hill
#
# Bulk Modulus (GPa) = 67.29165 71.65213 69.47189
# Shear Modulus (GPa) = 32.79790 36.06231 34.43010
#
# Velocity S-wave (km/s) = 4.04153 4.23789 4.14087
# Velocity P-wave (km/s) = 7.43580 7.72207 7.58028
#
# Compressibility (1/GPa) = 0.01486068
#
# Stress axis : x y z
#
# Youngs Moduli (GPa) = 80.65517 84.29183 100.21343
#
# Poissons Ratio (x) = 0.40947 0.32472
# Poissons Ratio (y) = 0.39180 0.15954
# Poissons Ratio (z) = 0.26135 0.13419
#
# Static dielectric constant tensor:
#      x y z
#    x 3.240070 0.000000 0.047500 
#    y 0.000000 5.095310 0.000000 
#    z 0.047500 0.000000 3.293410 
# 
# 
# High freq. dielectric constant tensor:
#      x y z
#    x 1.736030 0.000000 0.011220 
#    y 0.000000 1.809830 0.000000 
#    z 0.011220 0.000000 1.805940 
# 
# From -- ./inp_files/102418.got.cif
#   From: 2010.06.25/outbox.cif.g09.slc.cpg/sg15_52_cif.got.tgz:102418.got - 2010.06.28 07:06:18.
