data_PCOD8154499
_publ_section_title
;
Structure prediction by ZEFSAII (Michael W. Deem and Ramdas Pophale) SiO2 
 PCOD8154499
Probable space group: C 2/C
;
_chemical_formula_sum "Si O2"
_cell_formula_units_Z 60
_cell_length_a 11.987292
_cell_length_b 17.013897
_cell_length_c 14.212340
_cell_angle_alpha 90.000000
_cell_angle_beta 105.402428
_cell_angle_gamma 90.000000
_cell_volume 2794.508373
_symmetry_space_group_name_H-M "C 2/C"
_symmetry_group_IT_number 15
_symmetry_cell_setting 'monoclinic'
loop_
_space_group_symop_operation_xyz
x,y,z
-x,y,1/2-z
-x,-y,-z
x,-y,1/2+z
1/2+x,1/2+y,z
1/2-x,1/2+y,1/2-z
1/2-x,1/2-y,-z
1/2+x,1/2-y,1/2+z
loop_
_atom_site_type_symbol
_atom_site_label
_atom_site_fract_x
_atom_site_fract_y
_atom_site_fract_z
Si Si1 0.000000 0.237760 0.750000
Si Si2 0.377771 0.272523 0.760756
Si Si3 0.255261 0.592852 0.533046
Si Si4 0.226149 0.325063 0.560355
Si Si5 0.062247 0.162263 0.037115
Si Si6 0.662582 0.439604 0.047959
Si Si7 0.474317 0.179766 0.058748
Si Si8 0.209626 0.131212 0.754340
O O1 0.944094 0.292440 0.657473
O O2 0.905807 0.182867 0.778162
O O3 0.500000 0.243527 0.750000
O O4 0.313222 0.320105 0.665876
O O5 0.389618 0.337709 0.845952
O O6 0.315182 0.192134 0.777099
O O7 0.334533 0.665568 0.517577
O O8 0.315602 0.529765 0.475768
O O9 0.119564 0.612378 0.488203
O O10 0.280110 0.577974 0.649157
O O11 0.250000 0.250000 0.500000
O O12 0.248339 0.398821 0.500752
O O13 0.104828 0.350375 0.580262
O O14 0.011709 0.249430 0.013009
O O15 0.967750 0.092747 0.999273
O O16 0.704063 0.427274 0.164591
#
# Coordination Sequence:
#
# PCOD8154499 Si02
#       8
#     4   8   8   8   8   8   8   8
#     4  12  20  40  72 102 130 186 236 290 346 404
#     4  12  22  38  73 109 127 173 244 294 336 411
#     4  12  28  43  67 105 147 180 234 291 359 433
#     4  12  22  43  70 100 137 182 237 289 343 414
#     4  12  22  43  71 103 136 181 239 294 342 412
#     4  12  26  46  68  99 146 189 222 292 369 423
#     4  12  23  41  72 102 138 180 234 295 343 412
#     4  12  23  42  70  97 135 188 233 286 360 418
#
# _framework density 21.470680999999999
#
# number of rings (size 3 to 8) (size 9 to 14) (size 15 to 20)
#    0.000    0.000    9.333    1.600    0.000    1.600 
#    0.000    0.000    0.000    0.000    0.000    0.000 
#    0.000    0.000    0.000    0.000    0.000    0.000 
#
# Total GULP energy -371788.485119 kJ/mol
# GULP energy per Si atom -12392.949504 kJ/mol
# Density = 2.142181 g / cm^3
# Si number density = 21.470681 Si / 1000 Ang^3
#
#
#
# Elastic Constant Matrix: (Units=GPa)
#
#
# Indices 1 2 3 4 5 6 
#
# 1 144.0265 35.2903 39.4421 0.0000 6.8674 0.0000
# 2 35.2903 49.3913 45.3390 0.0000 2.3809 0.0000
# 3 39.4421 45.3390 187.9483 0.0000 -5.1622 0.0000
# 4 0.0000 0.0000 0.0000 30.0377 0.0000 -7.8592
# 5 6.8674 2.3809 -5.1622 0.0000 36.1350 0.0000
# 6 0.0000 0.0000 0.0000 -7.8592 0.0000 33.3869
#
#
#
# Elastic Compliance Matrix: (Units=1/GPa)
#
#
# Indices 1 2 3 4 5 6 
#
# 1 0.008502 -0.005575 -0.000476 0.000000 -0.001316 0.000000
# 2 -0.005575 0.029910 -0.006094 0.000000 -0.001782 0.000000
# 3 -0.000476 -0.006094 0.006931 0.000000 0.001482 0.000000
# 4 0.000000 0.000000 0.000000 0.035477 0.000000 0.008351
# 5 -0.001316 -0.001782 0.001482 0.000000 0.028253 0.000000
# 6 0.000000 0.000000 0.000000 0.008351 0.000000 0.031918
#
#
# Mechanical properties :
#
#
# Convention : Reuss Voigt Hill
#
# Bulk Modulus (GPa) = 47.49686 69.05654 58.27670
# Shear Modulus (GPa) = 29.01949 37.33156 33.17553
#
# Velocity S-wave (km/s) = 3.68038 4.17432 3.93511
# Velocity P-wave (km/s) = 6.34272 7.44757 6.91724
#
# Compressibility (1/GPa) = 0.02105402
#
# Stress axis : x y z
#
# Youngs Moduli (GPa) = 117.61732 33.43382 144.27445
#
# Poissons Ratio (x) = 0.18639 0.06861
# Poissons Ratio (y) = 0.65570 0.87924
# Poissons Ratio (z) = 0.05594 0.20375
#
# Static dielectric constant tensor:
#      x y z
#    x 4.014430 0.000000 -0.105650 
#    y 0.000000 3.294420 0.000000 
#    z -0.105650 0.000000 4.079000 
# 
# 
# High freq. dielectric constant tensor:
#      x y z
#    x 1.861330 0.000000 -0.007400 
#    y 0.000000 1.807220 0.000000 
#    z -0.007400 0.000000 1.862310 
# 
# From -- ./inp_files/146103.got.cif
#   From: 2010.06.25/outbox.cif.g09.slc.cpg/sg15_74_cif.got.tgz:146103.got - 2010.06.28 07:06:18.
