data_PCOD8154570
_publ_section_title
;
Structure prediction by ZEFSAII (Michael W. Deem and Ramdas Pophale) SiO2 
 PCOD8154570
Probable space group: C 2/C
;
_chemical_formula_sum "Si O2"
_cell_formula_units_Z 36
_cell_length_a 15.953575
_cell_length_b 21.130643
_cell_length_c 11.865679
_cell_angle_alpha 90.000000
_cell_angle_beta 154.717132
_cell_angle_gamma 90.000000
_cell_volume 1708.363178
_symmetry_space_group_name_H-M "C 2/C"
_symmetry_group_IT_number 15
_symmetry_cell_setting 'monoclinic'
loop_
_space_group_symop_operation_xyz
x,y,z
-x,y,1/2-z
-x,-y,-z
x,-y,1/2+z
1/2+x,1/2+y,z
1/2-x,1/2+y,1/2-z
1/2-x,1/2-y,-z
1/2+x,1/2-y,1/2+z
loop_
_atom_site_type_symbol
_atom_site_label
_atom_site_fract_x
_atom_site_fract_y
_atom_site_fract_z
Si Si1 0.500000 0.054655 0.750000
Si Si2 0.727628 0.449604 0.498070
Si Si3 0.755018 0.341683 0.349953
Si Si4 0.893019 0.204562 0.509026
Si Si5 0.448930 0.885492 0.952166
O O1 0.459252 0.100197 0.595726
O O2 0.305312 0.012745 0.532075
O O3 0.500000 0.457640 0.250000
O O4 0.784695 0.389779 0.489784
O O5 0.844494 0.442782 0.758058
O O6 0.886805 0.278995 0.525561
O O7 0.528612 0.318244 0.068354
O O8 0.829180 0.374895 0.325112
O O9 0.677439 0.177811 0.224365
O O10 0.000000 0.174154 0.750000
#
# Coordination Sequence:
#
# PCOD8154570 Si02
#       5
#     4   8   8   8   8
#     4  12  30  44  62  88 136 188 210 252 308 388
#     4  12  24  42  69  99 125 162 219 276 320 366
#     4  12  22  38  71 104 127 158 209 280 333 365
#     4  12  22  37  69 106 128 157 208 276 334 374
#     4  12  24  44  63  96 132 169 216 258 321 385
#
# _framework density 21.072803
#
# number of rings (size 3 to 8) (size 9 to 14) (size 15 to 20)
#    0.000    0.000    8.889    2.667    0.000    2.667 
#    0.000    1.111    0.000    0.000    0.000    0.000 
#    0.000    0.000    0.000    0.000    0.000    0.000 
#
# Total GULP energy -223095.560016 kJ/mol
# GULP energy per Si atom -12394.197779 kJ/mol
# Density = 2.102484 g / cm^3
# Si number density = 21.072803 Si / 1000 Ang^3
#
#
#
# Elastic Constant Matrix: (Units=GPa)
#
#
# Indices 1 2 3 4 5 6 
#
# 1 160.2753 55.0588 69.3290 0.0000 8.6475 0.0000
# 2 55.0588 87.5583 38.5087 0.0000 -3.6628 0.0000
# 3 69.3290 38.5087 69.3804 0.0000 18.2751 0.0000
# 4 0.0000 0.0000 0.0000 16.0327 0.0000 13.4622
# 5 8.6475 -3.6628 18.2751 0.0000 45.8170 0.0000
# 6 0.0000 0.0000 0.0000 13.4622 0.0000 33.9238
#
#
#
# Elastic Compliance Matrix: (Units=1/GPa)
#
#
# Indices 1 2 3 4 5 6 
#
# 1 0.011648 -0.002525 -0.010733 0.000000 0.001881 0.000000
# 2 -0.002525 0.016798 -0.008134 0.000000 0.005064 0.000000
# 3 -0.010733 -0.008134 0.032730 0.000000 -0.011679 0.000000
# 4 0.000000 0.000000 0.000000 0.093541 0.000000 -0.037121
# 5 0.001881 0.005064 -0.011679 0.000000 0.026534 0.000000
# 6 0.000000 0.000000 0.000000 -0.037121 0.000000 0.044209
#
#
# Mechanical properties :
#
#
# Convention : Reuss Voigt Hill
#
# Bulk Modulus (GPa) = 54.37514 71.44522 62.91018
# Shear Modulus (GPa) = 18.22320 29.44252 23.83286
#
# Velocity S-wave (km/s) = 2.94389 3.74194 3.36665
# Velocity P-wave (km/s) = 6.11677 7.25583 6.71051
#
# Compressibility (1/GPa) = 0.01839076
#
# Stress axis : x y z
#
# Youngs Moduli (GPa) = 85.85100 59.53009 30.55342
#
# Poissons Ratio (x) = 0.15034 0.32793
# Poissons Ratio (y) = 0.21681 0.24852
# Poissons Ratio (z) = 0.92145 0.48422
#
# Static dielectric constant tensor:
#      x y z
#    x 4.062490 0.000000 0.534990 
#    y 0.000000 3.723230 0.000000 
#    z 0.534990 0.000000 3.517260 
# 
# 
# High freq. dielectric constant tensor:
#      x y z
#    x 1.830770 0.000000 0.046410 
#    y 0.000000 1.826670 0.000000 
#    z 0.046410 0.000000 1.793810 
# 
# From -- ./inp_files/99639.got.cif
#   From: 2010.06.25/outbox.cif.g09.slc.cpg/sg15_50_cif.got.tgz:99639.got - 2010.06.28 07:06:18.
