data_PCOD8154183
_publ_section_title
;
Structure prediction by ZEFSAII (Michael W. Deem and Ramdas Pophale) SiO2 
 PCOD8154183
Probable space group: C 2/C
;
_chemical_formula_sum "Si O2"
_cell_formula_units_Z 40
_cell_length_a 22.101523
_cell_length_b 5.132874
_cell_length_c 13.128790
_cell_angle_alpha 90.000000
_cell_angle_beta 84.562257
_cell_angle_gamma 90.000000
_cell_volume 1482.684217
_symmetry_space_group_name_H-M "C 2/C"
_symmetry_group_IT_number 15
_symmetry_cell_setting 'monoclinic'
loop_
_space_group_symop_operation_xyz
x,y,z
-x,y,1/2-z
-x,-y,-z
x,-y,1/2+z
1/2+x,1/2+y,z
1/2-x,1/2+y,1/2-z
1/2-x,1/2-y,-z
1/2+x,1/2-y,1/2+z
loop_
_atom_site_type_symbol
_atom_site_label
_atom_site_fract_x
_atom_site_fract_y
_atom_site_fract_z
Si Si1 0.306411 0.581702 0.341600
Si Si2 0.933074 0.894130 0.270823
Si Si3 0.237608 0.925040 0.882388
Si Si4 0.611771 0.615988 0.945728
Si Si5 0.939516 0.605109 0.460997
O O1 0.380239 0.555849 0.340267
O O2 0.289215 0.859045 0.390873
O O3 0.287631 0.571797 0.227646
O O4 0.267969 0.352363 0.406028
O O5 0.904231 0.813390 0.168324
O O6 0.944541 0.635031 0.337479
O O7 0.000000 0.034957 0.250000
O O8 0.178751 0.000716 0.959168
O O9 0.566387 0.392752 0.989923
O O10 0.611529 0.892764 0.003772
O O11 0.000000 0.500000 0.500000
#
# Coordination Sequence:
#
# PCOD8154183 Si02
#       5
#     8   8   8   8   8
#     4   9  19  37  63  99 130 175 231 277 334 421
#     4  11  25  46  71 104 139 190 230 286 353 411
#     4   9  18  39  66  93 134 177 222 282 347 397
#     4  11  25  47  73 102 140 185 228 291 351 410
#     4  12  26  47  68 107 142 179 238 284 341 429
#
# _framework density 26.978097000000002
#
# number of rings (size 3 to 8) (size 9 to 14) (size 15 to 20)
#    0.000    1.600    2.000    1.800    0.000    8.000 
#    0.000    6.000    0.000    0.000    0.000    0.000 
#    0.000    0.000    0.000    0.000    0.000    0.000 
#
# Total GULP energy -247918.943166 kJ/mol
# GULP energy per Si atom -12395.947158 kJ/mol
# Density = 2.691669 g / cm^3
# Si number density = 26.978097 Si / 1000 Ang^3
#
#
#
# Elastic Constant Matrix: (Units=GPa)
#
#
# Indices 1 2 3 4 5 6 
#
# 1 191.1743 33.7603 47.2861 0.0000 -3.3544 0.0000
# 2 33.7603 145.8176 47.1148 0.0000 5.0727 0.0000
# 3 47.2861 47.1148 82.8950 0.0000 13.9246 0.0000
# 4 0.0000 0.0000 0.0000 424.8917 0.0000 -345.5308
# 5 -3.3544 5.0727 13.9246 0.0000 57.7742 0.0000
# 6 0.0000 0.0000 0.0000 -345.5308 0.0000 345.8751
#
#
#
# Elastic Compliance Matrix: (Units=1/GPa)
#
#
# Indices 1 2 3 4 5 6 
#
# 1 0.006189 -0.000328 -0.003553 0.000000 0.001245 0.000000
# 2 -0.000328 0.008428 -0.004664 0.000000 0.000365 0.000000
# 3 -0.003553 -0.004664 0.017412 0.000000 -0.003993 0.000000
# 4 0.000000 0.000000 0.000000 0.012546 0.000000 0.012534
# 5 0.001245 0.000365 -0.003993 0.000000 0.018311 0.000000
# 6 0.000000 0.000000 0.000000 0.012534 0.000000 0.015413
#
#
# Mechanical properties :
#
#
# Convention : Reuss Voigt Hill
#
# Bulk Modulus (GPa) = 66.94229 75.13436 71.03832
# Shear Modulus (GPa) = 49.81493 185.15657 117.48575
#
# Velocity S-wave (km/s) = 4.30175 8.29344 6.60629
# Velocity P-wave (km/s) = 7.03852 10.93704 9.19673
#
# Compressibility (1/GPa) = 0.01493824
#
# Stress axis : x y z
#
# Youngs Moduli (GPa) = 161.56395 118.64787 57.43090
#
# Poissons Ratio (x) = 0.03895 0.20406
# Poissons Ratio (y) = 0.05303 0.26788
# Poissons Ratio (z) = 0.57407 0.55343
#
# Static dielectric constant tensor:
#      x y z
#    x 5.286030 0.000000 -0.242820 
#    y 0.000000 5.267540 0.000000 
#    z -0.242820 0.000000 5.439270 
# 
# 
# High freq. dielectric constant tensor:
#      x y z
#    x 2.106570 0.000000 0.018570 
#    y 0.000000 2.064510 0.000000 
#    z 0.018570 0.000000 2.117470 
# 
# From -- ./inp_files/212643.got.cif
#   From: 2010.06.25/outbox.cif.g09.slc.cpg/sg15_107_cif.got.tgz:212643.got - 2010.06.28 07:06:18.
