data_PCOD8154380
_publ_section_title
;
Structure prediction by ZEFSAII (Michael W. Deem and Ramdas Pophale) SiO2 
 PCOD8154380
Probable space group: C 2/C
;
_chemical_formula_sum "Si O2"
_cell_formula_units_Z 48
_cell_length_a 21.562869
_cell_length_b 9.050932
_cell_length_c 11.265135
_cell_angle_alpha 90.000000
_cell_angle_beta 89.154998
_cell_angle_gamma 90.000000
_cell_volume 2198.310401
_symmetry_space_group_name_H-M "C 2/C"
_symmetry_group_IT_number 15
_symmetry_cell_setting 'monoclinic'
loop_
_space_group_symop_operation_xyz
x,y,z
-x,y,1/2-z
-x,-y,-z
x,-y,1/2+z
1/2+x,1/2+y,z
1/2-x,1/2+y,1/2-z
1/2-x,1/2-y,-z
1/2+x,1/2-y,1/2+z
loop_
_atom_site_type_symbol
_atom_site_label
_atom_site_fract_x
_atom_site_fract_y
_atom_site_fract_z
Si Si1 0.203311 0.771184 0.752273
Si Si2 0.436268 0.198664 0.104396
Si Si3 0.743476 0.474817 0.406821
Si Si4 0.145308 0.428996 0.450634
Si Si5 0.923447 0.767415 0.367647
Si Si6 0.875579 0.073294 0.439177
O O1 0.248222 0.675276 0.667393
O O2 0.163025 0.664221 0.835333
O O3 0.154786 0.867718 0.680106
O O4 0.248244 0.879529 0.824756
O O5 0.408190 0.258949 0.228449
O O6 0.510294 0.195493 0.106779
O O7 0.411614 0.033854 0.082720
O O8 0.417173 0.300379 0.995315
O O9 0.795585 0.476244 0.507722
O O10 0.676423 0.478769 0.467539
O O11 0.127740 0.323256 0.559537
O O12 0.920877 0.938073 0.406439
#
# Coordination Sequence:
#
# PCOD8154380 Si02
#       6
#     8   8   8   8   8   8
#     4  12  26  42  71 108 143 186 230 294 360 426
#     4  11  26  47  73 100 140 185 236 290 347 418
#     4  12  26  44  70 106 140 184 232 294 360 426
#     4  12  25  47  70 105 140 184 234 290 358 420
#     4  11  26  47  73 100 140 185 236 290 347 418
#     4  12  25  47  70 105 140 184 234 290 358 420
#
# _framework density 21.834951
#
# number of rings (size 3 to 8) (size 9 to 14) (size 15 to 20)
#    0.000    0.333    3.333    5.000    7.000    0.000 
#    0.000    0.000    0.000    0.000    0.000    0.000 
#    0.000    0.000    0.000    0.000    0.000    0.000 
#
# Total GULP energy -297813.982065 kJ/mol
# GULP energy per Si atom -12408.915919 kJ/mol
# Density = 2.178525 g / cm^3
# Si number density = 21.834951 Si / 1000 Ang^3
#
#
#
# Elastic Constant Matrix: (Units=GPa)
#
#
# Indices 1 2 3 4 5 6 
#
# 1 55.0235 17.8852 23.5870 0.0000 13.5327 0.0000
# 2 17.8852 101.2508 24.8342 0.0000 13.4702 0.0000
# 3 23.5870 24.8342 94.7806 0.0000 4.1913 0.0000
# 4 0.0000 0.0000 0.0000 48.9515 0.0000 -1.9931
# 5 13.5327 13.4702 4.1913 0.0000 31.3820 0.0000
# 6 0.0000 0.0000 0.0000 -1.9931 0.0000 47.7307
#
#
#
# Elastic Compliance Matrix: (Units=1/GPa)
#
#
# Indices 1 2 3 4 5 6 
#
# 1 0.022912 -0.001722 -0.004875 0.000000 -0.008490 0.000000
# 2 -0.001722 0.011261 -0.002355 0.000000 -0.003776 0.000000
# 3 -0.004875 -0.002355 0.012316 0.000000 0.001468 0.000000
# 4 0.000000 0.000000 0.000000 0.020463 0.000000 0.000854
# 5 -0.008490 -0.003776 0.001468 0.000000 0.036951 0.000000
# 6 0.000000 0.000000 0.000000 0.000854 0.000000 0.020987
#
#
# Mechanical properties :
#
#
# Convention : Reuss Voigt Hill
#
# Bulk Modulus (GPa) = 34.98438 42.62974 38.80706
# Shear Modulus (GPa) = 32.82527 37.92940 35.37734
#
# Velocity S-wave (km/s) = 3.88149 4.17237 4.02956
# Velocity P-wave (km/s) = 6.01207 6.54046 6.28182
#
# Compressibility (1/GPa) = 0.02858418
#
# Stress axis : x y z
#
# Youngs Moduli (GPa) = 43.64588 88.80479 81.19505
#
# Poissons Ratio (x) = 0.15292 0.39584
# Poissons Ratio (y) = 0.07516 0.19121
# Poissons Ratio (z) = 0.21278 0.20913
#
# Static dielectric constant tensor:
#      x y z
#    x 3.750260 0.000000 -0.036480 
#    y 0.000000 3.991000 0.000000 
#    z -0.036480 0.000000 4.144610 
# 
# 
# High freq. dielectric constant tensor:
#      x y z
#    x 1.854330 0.000000 -0.000240 
#    y 0.000000 1.871160 0.000000 
#    z -0.000240 0.000000 1.876090 
# 
# From -- ./inp_files/116451.got.cif
#   From: 2010.06.25/outbox.cif.g09.slc.cpg/sg15_59_cif.got.tgz:116451.got - 2010.06.28 07:06:18.
