data_PCOD8154940
_publ_section_title
;
Structure prediction by ZEFSAII (Michael W. Deem and Ramdas Pophale) SiO2 
 PCOD8154940
Probable space group: C 2/C
;
_chemical_formula_sum "Si O2"
_cell_formula_units_Z 36
_cell_length_a 18.122088
_cell_length_b 5.090860
_cell_length_c 24.235215
_cell_angle_alpha 90.000000
_cell_angle_beta 139.914402
_cell_angle_gamma 90.000000
_cell_volume 1439.745820
_symmetry_space_group_name_H-M "C 2/C"
_symmetry_group_IT_number 15
_symmetry_cell_setting 'monoclinic'
loop_
_space_group_symop_operation_xyz
x,y,z
-x,y,1/2-z
-x,-y,-z
x,-y,1/2+z
1/2+x,1/2+y,z
1/2-x,1/2+y,1/2-z
1/2-x,1/2-y,-z
1/2+x,1/2-y,1/2+z
loop_
_atom_site_type_symbol
_atom_site_label
_atom_site_fract_x
_atom_site_fract_y
_atom_site_fract_z
Si Si1 0.000000 0.972262 0.250000
Si Si2 0.476280 0.103456 0.867936
Si Si3 0.159261 0.380348 0.907625
Si Si4 0.936197 0.881626 0.412059
Si Si5 0.191845 0.640485 0.816055
O O1 0.894290 0.128731 0.215876
O O2 0.947049 0.805753 0.169507
O O3 0.435758 0.386204 0.866626
O O4 0.376218 0.986437 0.770922
O O5 0.597477 0.127181 0.903615
O O6 0.499762 0.880711 0.927510
O O7 0.221640 0.467296 0.887013
O O8 0.250000 0.250000 0.000000
O O9 0.811839 0.773304 0.358906
O O10 0.000000 0.000000 0.500000
#
# Coordination Sequence:
#
# PCOD8154940 Si02
#       5
#     4   8   8   8   8
#     4  12  24  48  78 108 166 200 276 318 416 470
#     4  12  25  50  72 112 150 206 259 322 401 469
#     4  12  27  46  79 114 159 210 268 336 398 486
#     4  12  29  47  75 111 153 202 263 329 400 475
#     4  12  26  47  74 109 150 210 259 326 396 484
#
# _framework density 25.004415999999999
#
# number of rings (size 3 to 8) (size 9 to 14) (size 15 to 20)
#    0.000    0.000    4.444    4.667    6.222    0.889 
#    0.000    0.000    0.000    0.000    0.000    0.000 
#    0.000    0.000    0.000    0.000    0.000    0.000 
#
# Total GULP energy -223101.878820 kJ/mol
# GULP energy per Si atom -12394.548823 kJ/mol
# Density = 2.494750 g / cm^3
# Si number density = 25.004416 Si / 1000 Ang^3
#
#
#
# Elastic Constant Matrix: (Units=GPa)
#
#
# Indices 1 2 3 4 5 6 
#
# 1 128.9730 32.9838 18.9519 0.0074 8.5612 -0.0148
# 2 32.9838 92.5576 -4.2816 0.0297 2.6484 -0.0117
# 3 18.9519 -4.2816 110.3643 -0.0038 -8.6101 -0.0075
# 4 0.0074 0.0297 -0.0038 23.4185 -0.0016 -10.3503
# 5 8.5612 2.6484 -8.6101 -0.0016 47.9538 0.0054
# 6 -0.0148 -0.0117 -0.0075 -10.3503 0.0054 -2.2312
#
#
#
# Elastic Compliance Matrix: (Units=1/GPa)
#
#
# Indices 1 2 3 4 5 6 
#
# 1 0.008959 -0.003226 -0.001800 -0.000006 -0.001744 -0.000015
# 2 -0.003226 0.011998 0.001027 -0.000011 0.000098 0.000007
# 3 -0.001800 0.001027 0.009564 -0.000003 0.001982 -0.000008
# 4 -0.000006 -0.000011 -0.000003 0.013999 0.000009 -0.064941
# 5 -0.001744 0.000098 0.001982 0.000009 0.021515 0.000015
# 6 -0.000015 0.000007 -0.000008 -0.064941 0.000015 -0.146936
#
#
# Mechanical properties :
#
#
# Convention : Reuss Voigt Hill
#
# Bulk Modulus (GPa) = 44.39595 47.46703 45.93149
# Shear Modulus (GPa) = -76.45863 32.77760 -21.84051
#
# Velocity S-wave (km/s) = -5.53574 3.62453 -2.95865
# Velocity P-wave (km/s) = 4.80265 6.04491 2.59571
#
# Compressibility (1/GPa) = 0.02252458
#
# Stress axis : x y z
#
# Youngs Moduli (GPa) = 111.62214 83.34459 104.55444
#
# Poissons Ratio (x) = 0.26886 0.18816
# Poissons Ratio (y) = 0.36008 -0.10738
# Poissons Ratio (z) = 0.20088 -0.08560
#
# Static dielectric constant tensor:
#      x y z
#    x 4.655580 0.000070 -0.333460 
#    y 0.000070 4.337530 0.000050 
#    z -0.333460 0.000050 4.622660 
# 
# 
# High freq. dielectric constant tensor:
#      x y z
#    x 2.022730 0.000000 -0.012840 
#    y 0.000000 1.980230 0.000000 
#    z -0.012840 0.000000 2.004050 
# 
# From -- ./inp_files/297600.got.cif
#   From: 2010.06.25/outbox.cif.g09.slc.cpg/sg15_149_cif.got.tgz:297600.got - 2010.06.28 07:06:18.
