data_PCOD8154038
_publ_section_title
;
Structure prediction by ZEFSAII (Michael W. Deem and Ramdas Pophale) SiO2 
 PCOD8154038
Probable space group: C 2/C
;
_chemical_formula_sum "Si O2"
_cell_formula_units_Z 40
_cell_length_a 12.414772
_cell_length_b 13.117601
_cell_length_c 17.043752
_cell_angle_alpha 90.000000
_cell_angle_beta 35.831330
_cell_angle_gamma 90.000000
_cell_volume 1624.844839
_symmetry_space_group_name_H-M "C 2/C"
_symmetry_group_IT_number 15
_symmetry_cell_setting 'monoclinic'
loop_
_space_group_symop_operation_xyz
x,y,z
-x,y,1/2-z
-x,-y,-z
x,-y,1/2+z
1/2+x,1/2+y,z
1/2-x,1/2+y,1/2-z
1/2-x,1/2-y,-z
1/2+x,1/2-y,1/2+z
loop_
_atom_site_type_symbol
_atom_site_label
_atom_site_fract_x
_atom_site_fract_y
_atom_site_fract_z
Si Si1 0.302956 0.830293 0.901235
Si Si2 0.530227 0.400755 0.935672
Si Si3 0.168548 0.675816 0.697157
Si Si4 0.923382 0.488392 0.428075
Si Si5 0.290418 0.887531 0.653109
O O1 0.500000 0.798560 0.750000
O O2 0.157967 0.826739 0.914580
O O3 0.311342 0.948381 0.928484
O O4 0.250000 0.750000 0.000000
O O5 0.619120 0.435653 0.800942
O O6 0.500000 0.500000 0.000000
O O7 0.325300 0.356376 0.042013
O O8 0.262994 0.767170 0.689421
O O9 0.000000 0.725919 0.750000
O O10 0.086930 0.582327 0.796244
O O11 0.788345 0.419674 0.562450
O O12 0.016067 0.576947 0.425606
#
# Coordination Sequence:
#
# PCOD8154038 Si02
#       5
#     8   8   8   8   8
#     4  12  26  47  75 111 150 198 250 312 383 451
#     4  12  24  44  72 104 141 194 242 302 375 437
#     4  12  26  47  75 106 150 196 253 310 375 450
#     4  11  24  50  73 107 158 191 254 318 369 451
#     4  11  25  44  74 106 147 199 244 306 378 445
#
# _framework density 24.617735
#
# number of rings (size 3 to 8) (size 9 to 14) (size 15 to 20)
#    0.000    0.400    4.000    4.200    0.000    8.000 
#    0.000    0.000    0.000    0.000    0.000    0.000 
#    0.000    0.000    0.000    0.000    0.000    0.000 
#
# Total GULP energy -247790.929968 kJ/mol
# GULP energy per Si atom -12389.546498 kJ/mol
# Density = 2.456170 g / cm^3
# Si number density = 24.617735 Si / 1000 Ang^3
#
#
#
# Elastic Constant Matrix: (Units=GPa)
#
#
# Indices 1 2 3 4 5 6 
#
# 1 66.0440 20.0640 47.3361 -0.0012 -7.7030 0.0004
# 2 20.0640 118.0255 42.3830 -0.0014 3.2922 0.0007
# 3 47.3361 42.3830 222.5048 -0.0032 6.8050 0.0018
# 4 -0.0012 -0.0014 -0.0032 43.2114 0.0017 4.5155
# 5 -7.7030 3.2922 6.8050 0.0017 41.3158 -0.0007
# 6 0.0004 0.0007 0.0018 4.5155 -0.0007 36.3859
#
#
#
# Elastic Compliance Matrix: (Units=1/GPa)
#
#
# Indices 1 2 3 4 5 6 
#
# 1 0.018963 -0.001984 -0.003788 0.000000 0.004317 0.000000
# 2 -0.001984 0.009310 -0.001324 0.000000 -0.000894 0.000000
# 3 -0.003788 -0.001324 0.005599 0.000000 -0.001523 0.000000
# 4 0.000000 0.000000 0.000000 0.023446 -0.000001 -0.002910
# 5 0.004317 -0.000894 -0.001523 -0.000001 0.025331 0.000001
# 6 0.000000 0.000000 0.000000 -0.002910 0.000001 0.027844
#
#
# Mechanical properties :
#
#
# Convention : Reuss Voigt Hill
#
# Bulk Modulus (GPa) = 50.81308 69.57116 60.19212
# Shear Modulus (GPa) = 38.09645 43.96871 41.03258
#
# Velocity S-wave (km/s) = 3.93812 4.23076 4.08706
# Velocity P-wave (km/s) = 6.43149 7.22411 6.83929
#
# Compressibility (1/GPa) = 0.01967997
#
# Stress axis : x y z
#
# Youngs Moduli (GPa) = 52.73455 107.40703 178.60232
#
# Poissons Ratio (x) = 0.21306 0.67662
# Poissons Ratio (y) = 0.10461 0.23649
# Poissons Ratio (z) = 0.19978 0.14222
#
# Static dielectric constant tensor:
#      x y z
#    x 8.329510 0.000020 -1.407830 
#    y 0.000020 4.794740 -0.000010 
#    z -1.407830 -0.000010 4.798850 
# 
# 
# High freq. dielectric constant tensor:
#      x y z
#    x 1.969530 0.000000 -0.002000 
#    y 0.000000 1.979360 0.000000 
#    z -0.002000 0.000000 1.998100 
# 
# From -- ./inp_files/205600.got.cif
#   From: 2010.06.25/outbox.cif.g09.slc.cpg/sg15_103_cif.got.tgz:205600.got - 2010.06.28 07:06:18.
