data_PCOD8154064
_publ_section_title
;
Structure prediction by ZEFSAII (Michael W. Deem and Ramdas Pophale) SiO2 
 PCOD8154064
Probable space group: C 2/C
;
_chemical_formula_sum "Si O2"
_cell_formula_units_Z 56
_cell_length_a 15.929459
_cell_length_b 8.484642
_cell_length_c 22.438376
_cell_angle_alpha 90.000000
_cell_angle_beta 125.923843
_cell_angle_gamma 90.000000
_cell_volume 2455.853369
_symmetry_space_group_name_H-M "C 2/C"
_symmetry_group_IT_number 15
_symmetry_cell_setting 'monoclinic'
loop_
_space_group_symop_operation_xyz
x,y,z
-x,y,1/2-z
-x,-y,-z
x,-y,1/2+z
1/2+x,1/2+y,z
1/2-x,1/2+y,1/2-z
1/2-x,1/2-y,-z
1/2+x,1/2-y,1/2+z
loop_
_atom_site_type_symbol
_atom_site_label
_atom_site_fract_x
_atom_site_fract_y
_atom_site_fract_z
Si Si1 0.900911 0.721235 0.437188
Si Si2 0.722418 0.960218 0.177590
Si Si3 0.877132 0.221838 0.274897
Si Si4 0.187133 0.628088 0.865142
Si Si5 0.085608 0.795916 0.928454
Si Si6 0.701676 0.770700 0.887388
Si Si7 0.601932 0.349276 0.457785
O O1 0.865113 0.552789 0.396791
O O2 0.804444 0.840322 0.394063
O O3 0.938181 0.695854 0.521340
O O4 0.989044 0.804063 0.434625
O O5 0.799430 0.075492 0.244636
O O6 0.664653 0.864209 0.203536
O O7 0.792405 0.847632 0.165491
O O8 0.890421 0.284469 0.212917
O O9 0.985613 0.168217 0.347078
O O10 0.169369 0.700792 0.923796
O O11 0.165682 0.443141 0.852282
O O12 0.126932 0.964579 0.968513
O O13 0.612536 0.711440 0.894834
O O14 0.813814 0.767652 0.965000
#
# Coordination Sequence:
#
# PCOD8154064 Si02
#       7
#     8   8   8   8   8   8   8
#     4  11  25  43  75 104 138 181 236 292 352 415
#     4  11  26  46  73 104 141 188 235 297 353 428
#     4  11  26  44  73  99 143 186 239 285 362 426
#     4  11  25  46  70 101 141 188 233 293 352 422
#     4  12  25  45  72 103 143 188 236 291 359 425
#     4  11  25  44  69 103 143 178 237 291 354 419
#     4  11  25  42  71 107 139 182 228 296 359 414
#
# _framework density 22.802665000000001
#
# number of rings (size 3 to 8) (size 9 to 14) (size 15 to 20)
#    0.000    0.857    1.429    4.714   12.000    1.143 
#    0.000    0.000    0.000    0.000    0.000    0.000 
#    0.000    0.000    0.000    0.000    0.000    0.000 
#
# Total GULP energy -347341.136276 kJ/mol
# GULP energy per Si atom -12405.040581 kJ/mol
# Density = 2.275076 g / cm^3
# Si number density = 22.802665 Si / 1000 Ang^3
#
#
#
# Elastic Constant Matrix: (Units=GPa)
#
#
# Indices 1 2 3 4 5 6 
#
# 1 131.2110 46.4941 18.5304 0.0000 -9.7776 0.0000
# 2 46.4941 132.4980 18.5362 0.0000 -12.5589 0.0000
# 3 18.5304 18.5362 86.2500 0.0000 -8.5762 0.0000
# 4 0.0000 0.0000 0.0000 41.7158 0.0000 -11.6461
# 5 -9.7776 -12.5589 -8.5762 0.0000 35.5475 0.0000
# 6 0.0000 0.0000 0.0000 -11.6461 0.0000 38.4753
#
#
#
# Elastic Compliance Matrix: (Units=1/GPa)
#
#
# Indices 1 2 3 4 5 6 
#
# 1 0.008881 -0.002842 -0.001183 0.000000 0.001154 0.000000
# 2 -0.002842 0.008896 -0.001093 0.000000 0.002098 0.000000
# 3 -0.001183 -0.001093 0.012308 0.000000 0.002258 0.000000
# 4 0.000000 0.000000 0.000000 0.026184 0.000000 0.007926
# 5 0.001154 0.002098 0.002258 0.000000 0.029735 0.000000
# 6 0.000000 0.000000 0.000000 0.007926 0.000000 0.028390
#
#
# Mechanical properties :
#
#
# Convention : Reuss Voigt Hill
#
# Bulk Modulus (GPa) = 50.37585 57.45338 53.91461
# Shear Modulus (GPa) = 38.09669 40.90760 39.50215
#
# Velocity S-wave (km/s) = 4.09187 4.24014 4.16666
# Velocity P-wave (km/s) = 6.66818 7.01586 6.84423
#
# Compressibility (1/GPa) = 0.01985078
#
# Stress axis : x y z
#
# Youngs Moduli (GPa) = 112.59696 112.40818 81.25017
#
# Poissons Ratio (x) = 0.31943 0.09609
# Poissons Ratio (y) = 0.31996 0.08879
# Poissons Ratio (z) = 0.13317 0.12284
#
# Static dielectric constant tensor:
#      x y z
#    x 4.070680 0.000000 -0.232330 
#    y 0.000000 4.053230 0.000000 
#    z -0.232330 0.000000 4.376510 
# 
# 
# High freq. dielectric constant tensor:
#      x y z
#    x 1.904260 0.000000 -0.010780 
#    y 0.000000 1.906710 0.000000 
#    z -0.010780 0.000000 1.906520 
# 
# From -- ./inp_files/273271.got.cif
#   From: 2010.06.25/outbox.cif.g09.slc.cpg/sg15_137_cif.got.tgz:273271.got - 2010.06.28 07:06:18.
