data_PCOD8154386
_publ_section_title
;
Structure prediction by ZEFSAII (Michael W. Deem and Ramdas Pophale) SiO2 
 PCOD8154386
Probable space group: C 2/C
;
_chemical_formula_sum "Si O2"
_cell_formula_units_Z 44
_cell_length_a 19.661762
_cell_length_b 8.615816
_cell_length_c 12.135399
_cell_angle_alpha 90.000000
_cell_angle_beta 69.093384
_cell_angle_gamma 90.000000
_cell_volume 1920.417701
_symmetry_space_group_name_H-M "C 2/C"
_symmetry_group_IT_number 15
_symmetry_cell_setting 'monoclinic'
loop_
_space_group_symop_operation_xyz
x,y,z
-x,y,1/2-z
-x,-y,-z
x,-y,1/2+z
1/2+x,1/2+y,z
1/2-x,1/2+y,1/2-z
1/2-x,1/2-y,-z
1/2+x,1/2-y,1/2+z
loop_
_atom_site_type_symbol
_atom_site_label
_atom_site_fract_x
_atom_site_fract_y
_atom_site_fract_z
Si Si1 0.576131 0.717354 0.644140
Si Si2 0.166568 0.586546 0.246031
Si Si3 0.145065 0.101257 0.102354
Si Si4 0.500000 0.259748 0.750000
Si Si5 0.758333 0.198205 0.648035
Si Si6 0.562161 0.111036 0.928608
O O1 0.500000 0.670738 0.750000
O O2 0.606311 0.870489 0.689055
O O3 0.639430 0.585616 0.610892
O O4 0.567981 0.755909 0.518495
O O5 0.202485 0.749499 0.262386
O O6 0.226735 0.474231 0.160400
O O7 0.134708 0.492913 0.370632
O O8 0.195376 0.169604 0.170923
O O9 0.059875 0.141157 0.152074
O O10 0.178020 0.189154 0.978196
O O11 0.544732 0.167850 0.815991
O O12 0.500000 0.000000 0.000000
#
# Coordination Sequence:
#
# PCOD8154386 Si02
#       6
#     8   8   8   4   8   8
#     4  12  27  46  73 113 143 190 244 302 362 429
#     4  12  26  47  73 103 150 189 245 297 362 434
#     4  11  26  47  74 104 149 186 247 297 362 429
#     4  12  24  48  76 104 142 192 236 306 358 422
#     4  11  27  47  72 108 144 199 239 295 362 435
#     4  12  25  43  74 107 144 187 238 300 365 424
#
# _framework density 22.911681999999999
#
# number of rings (size 3 to 8) (size 9 to 14) (size 15 to 20)
#    0.000    0.364    4.545    3.273    7.636    2.909 
#    0.000    0.000    0.000    0.000    0.000    0.000 
#    0.000    0.000    0.000    0.000    0.000    0.000 
#
# Total GULP energy -272613.969700 kJ/mol
# GULP energy per Si atom -12391.544077 kJ/mol
# Density = 2.285953 g / cm^3
# Si number density = 22.911682 Si / 1000 Ang^3
#
#
#
# Elastic Constant Matrix: (Units=GPa)
#
#
# Indices 1 2 3 4 5 6 
#
# 1 104.6311 40.1055 47.1105 0.0000 -7.1841 0.0000
# 2 40.1055 98.2222 32.8440 0.0000 3.8603 0.0000
# 3 47.1105 32.8440 85.0659 0.0000 2.6314 0.0000
# 4 0.0000 0.0000 0.0000 34.8923 0.0000 -3.6467
# 5 -7.1841 3.8603 2.6314 0.0000 46.8534 0.0000
# 6 0.0000 0.0000 0.0000 -3.6467 0.0000 56.5317
#
#
#
# Elastic Compliance Matrix: (Units=1/GPa)
#
#
# Indices 1 2 3 4 5 6 
#
# 1 0.014076 -0.003700 -0.006454 0.000000 0.002826 0.000000
# 2 -0.003700 0.012687 -0.002804 0.000000 -0.001455 0.000000
# 3 -0.006454 -0.002804 0.016465 0.000000 -0.001683 0.000000
# 4 0.000000 0.000000 0.000000 0.028854 0.000000 0.001861
# 5 0.002826 -0.001455 -0.001683 0.000000 0.021991 0.000000
# 6 0.000000 0.000000 0.000000 0.001861 0.000000 0.017809
#
#
# Mechanical properties :
#
#
# Convention : Reuss Voigt Hill
#
# Bulk Modulus (GPa) = 57.76902 58.67102 58.22002
# Shear Modulus (GPa) = 34.82672 38.84610 36.83641
#
# Velocity S-wave (km/s) = 3.90300 4.12208 4.01403
# Velocity P-wave (km/s) = 6.75128 6.95115 6.85194
#
# Compressibility (1/GPa) = 0.01731032
#
# Stress axis : x y z
#
# Youngs Moduli (GPa) = 71.04475 78.82273 60.73621
#
# Poissons Ratio (x) = 0.29166 0.39199
# Poissons Ratio (y) = 0.26288 0.17031
# Poissons Ratio (z) = 0.45852 0.22103
#
# Static dielectric constant tensor:
#      x y z
#    x 4.136410 0.000000 -0.296640 
#    y 0.000000 4.024600 0.000000 
#    z -0.296640 0.000000 3.420480 
# 
# 
# High freq. dielectric constant tensor:
#      x y z
#    x 1.912480 0.000000 -0.012520 
#    y 0.000000 1.907440 0.000000 
#    z -0.012520 0.000000 1.904220 
# 
# From -- ./inp_files/109932.got.cif
#   From: 2010.06.25/outbox.cif.g09.slc.cpg/sg15_55_cif.got.tgz:109932.got - 2010.06.28 07:06:18.
