data_PCOD8154566
_publ_section_title
;
Structure prediction by ZEFSAII (Michael W. Deem and Ramdas Pophale) SiO2 
 PCOD8154566
Probable space group: C 2/C
;
_chemical_formula_sum "Si O2"
_cell_formula_units_Z 44
_cell_length_a 16.015373
_cell_length_b 9.252937
_cell_length_c 18.015132
_cell_angle_alpha 90.000000
_cell_angle_beta 54.673871
_cell_angle_gamma 90.000000
_cell_volume 2178.096890
_symmetry_space_group_name_H-M "C 2/C"
_symmetry_group_IT_number 15
_symmetry_cell_setting 'monoclinic'
loop_
_space_group_symop_operation_xyz
x,y,z
-x,y,1/2-z
-x,-y,-z
x,-y,1/2+z
1/2+x,1/2+y,z
1/2-x,1/2+y,1/2-z
1/2-x,1/2-y,-z
1/2+x,1/2-y,1/2+z
loop_
_atom_site_type_symbol
_atom_site_label
_atom_site_fract_x
_atom_site_fract_y
_atom_site_fract_z
Si Si1 0.330955 0.646299 0.084487
Si Si2 0.000000 0.705282 0.750000
Si Si3 0.444211 0.668353 0.882685
Si Si4 0.247651 0.552503 0.900550
Si Si5 0.134916 0.527317 0.102386
Si Si6 0.611336 0.439710 0.784006
O O1 0.305239 0.813254 0.113265
O O2 0.232459 0.568922 0.100879
O O3 0.361943 0.569262 0.143943
O O4 0.427430 0.641286 0.979050
O O5 0.915152 0.609545 0.833497
O O6 0.953699 0.802585 0.708402
O O7 0.347782 0.599158 0.892773
O O8 0.446222 0.839417 0.861890
O O9 0.548353 0.589705 0.803233
O O10 0.283397 0.442239 0.817908
O O11 0.170117 0.482950 0.000594
#
# Coordination Sequence:
#
# PCOD8154566 Si02
#       6
#     8   4   8   8   8   8
#     4   9  21  38  64  87 113 150 205 237 286 347
#     4  12  26  36  56  90 124 150 196 248 298 340
#     4   9  18  41  64  83 111 161 198 231 286 365
#     4   9  19  40  61  83 118 157 194 232 293 357
#     4   9  22  42  62  81 112 164 198 232 288 360
#     4  12  22  37  60  95 121 146 194 251 294 333
#
# _framework density 20.201122000000002
#
# number of rings (size 3 to 8) (size 9 to 14) (size 15 to 20)
#    0.000    2.182    1.818    2.727    7.636    0.727 
#    0.000    5.455    0.000    0.000    0.000    0.000 
#    0.000    0.000    0.000    0.000    0.000    0.000 
#
# Total GULP energy -272719.640135 kJ/mol
# GULP energy per Si atom -12396.347279 kJ/mol
# Density = 2.015514 g / cm^3
# Si number density = 20.201122 Si / 1000 Ang^3
#
#
#
# Elastic Constant Matrix: (Units=GPa)
#
#
# Indices 1 2 3 4 5 6 
#
# 1 52.9936 32.2378 29.2059 0.0000 6.1802 0.0000
# 2 32.2378 83.2349 47.0968 0.0000 -2.4108 0.0001
# 3 29.2059 47.0968 110.5415 0.0000 0.9747 0.0000
# 4 0.0000 0.0000 0.0000 38.3578 0.0000 -4.2163
# 5 6.1802 -2.4108 0.9747 0.0000 28.9142 0.0000
# 6 0.0000 0.0001 0.0000 -4.2163 0.0000 22.0711
#
#
#
# Elastic Compliance Matrix: (Units=1/GPa)
#
#
# Indices 1 2 3 4 5 6 
#
# 1 0.026692 -0.008647 -0.003313 0.000000 -0.006315 0.000000
# 2 -0.008647 0.018701 -0.005715 0.000000 0.003600 0.000000
# 3 -0.003313 -0.005715 0.012358 0.000000 -0.000185 0.000000
# 4 0.000000 0.000000 0.000000 0.026629 0.000000 0.005087
# 5 -0.006315 0.003600 -0.000185 0.000000 0.036241 0.000000
# 6 0.000000 0.000000 0.000000 0.005087 0.000000 0.046280
#
#
# Mechanical properties :
#
#
# Convention : Reuss Voigt Hill
#
# Bulk Modulus (GPa) = 44.63693 51.53901 48.08797
# Shear Modulus (GPa) = 23.84147 27.08390 25.46268
#
# Velocity S-wave (km/s) = 3.43914 3.66555 3.55415
# Velocity P-wave (km/s) = 6.15747 6.59419 6.37957
#
# Compressibility (1/GPa) = 0.02240297
#
# Stress axis : x y z
#
# Youngs Moduli (GPa) = 37.46381 53.47273 80.91850
#
# Poissons Ratio (x) = 0.46237 0.26805
# Poissons Ratio (y) = 0.32394 0.46244
# Poissons Ratio (z) = 0.12410 0.30559
#
# Static dielectric constant tensor:
#      x y z
#    x 3.392780 0.000000 -0.081630 
#    y 0.000000 3.688540 0.000000 
#    z -0.081630 0.000000 4.299570 
# 
# 
# High freq. dielectric constant tensor:
#      x y z
#    x 1.764670 0.000000 0.006500 
#    y 0.000000 1.772410 0.000000 
#    z 0.006500 0.000000 1.811740 
# 
# From -- ./inp_files/159204.got.cif
#   From: 2010.06.25/outbox.cif.g09.slc.cpg/sg15_80_cif.got.tgz:159204.got - 2010.06.28 07:06:18.
