data_PCOD8154963
_publ_section_title
;
Structure prediction by ZEFSAII (Michael W. Deem and Ramdas Pophale) SiO2 
 PCOD8154963
Probable space group: C 2/C
;
_chemical_formula_sum "Si O2"
_cell_formula_units_Z 36
_cell_length_a 12.228247
_cell_length_b 18.855942
_cell_length_c 7.803874
_cell_angle_alpha 90.000000
_cell_angle_beta 52.462375
_cell_angle_gamma 90.000000
_cell_volume 1426.823832
_symmetry_space_group_name_H-M "C 2/C"
_symmetry_group_IT_number 15
_symmetry_cell_setting 'monoclinic'
loop_
_space_group_symop_operation_xyz
x,y,z
-x,y,1/2-z
-x,-y,-z
x,-y,1/2+z
1/2+x,1/2+y,z
1/2-x,1/2+y,1/2-z
1/2-x,1/2-y,-z
1/2+x,1/2-y,1/2+z
loop_
_atom_site_type_symbol
_atom_site_label
_atom_site_fract_x
_atom_site_fract_y
_atom_site_fract_z
Si Si1 0.726777 0.443606 0.861272
Si Si2 0.602897 0.824072 0.310204
Si Si3 0.655041 0.412159 0.562416
Si Si4 0.000000 0.597721 0.250000
Si Si5 0.868745 0.208752 0.980179
O O1 0.744285 0.430353 0.643914
O O2 0.875191 0.452995 0.810124
O O3 0.638499 0.514926 0.970986
O O4 0.649346 0.375330 0.010934
O O5 0.500000 0.835788 0.250000
O O6 0.541847 0.856361 0.544165
O O7 0.621771 0.739689 0.333134
O O8 0.755733 0.855428 0.129795
O O9 0.500000 0.383830 0.750000
O O10 0.000000 0.230438 0.750000
O O11 0.750000 0.250000 0.000000
#
# Coordination Sequence:
#
# PCOD8154963 Si02
#       5
#     8   8   8   4   8
#     4  12  27  48  80 113 171 211 267 336 401 489
#     4  12  26  51  83 120 158 211 275 329 402 489
#     4  12  29  49  78 123 162 215 270 335 410 481
#     4  12  24  52  76 126 154 212 266 328 410 462
#     4  12  27  49  79 113 160 212 262 333 404 474
#
# _framework density 25.230867
#
# number of rings (size 3 to 8) (size 9 to 14) (size 15 to 20)
#    0.000    0.000    5.556    2.667    4.667    3.556 
#    0.000    0.000    0.000    0.000    0.000    0.000 
#    0.000    0.000    0.000    0.000    0.000    0.000 
#
# Total GULP energy -223175.628425 kJ/mol
# GULP energy per Si atom -12398.646024 kJ/mol
# Density = 2.517344 g / cm^3
# Si number density = 25.230867 Si / 1000 Ang^3
#
#
#
# Elastic Constant Matrix: (Units=GPa)
#
#
# Indices 1 2 3 4 5 6 
#
# 1 132.0981 27.7603 65.4835 0.0000 -3.7077 0.0000
# 2 27.7603 104.8346 53.1641 0.0000 -24.3912 0.0000
# 3 65.4835 53.1641 162.8381 0.0000 -19.7448 0.0000
# 4 0.0000 0.0000 0.0000 5.2509 0.0000 14.5983
# 5 -3.7077 -24.3912 -19.7448 0.0000 49.3274 0.0000
# 6 0.0000 0.0000 0.0000 14.5983 0.0000 32.6155
#
#
#
# Elastic Compliance Matrix: (Units=1/GPa)
#
#
# Indices 1 2 3 4 5 6 
#
# 1 0.009561 -0.000949 -0.003684 0.000000 -0.001225 0.000000
# 2 -0.000949 0.012499 -0.003109 0.000000 0.004864 0.000000
# 3 -0.003684 -0.003109 0.008847 0.000000 0.001727 0.000000
# 4 0.000000 0.000000 0.000000 -0.779343 0.000000 0.348826
# 5 -0.001225 0.004864 0.001727 0.000000 0.023277 0.000000
# 6 0.000000 0.000000 0.000000 0.348826 0.000000 -0.125471
#
#
# Mechanical properties :
#
#
# Convention : Reuss Voigt Hill
#
# Bulk Modulus (GPa) = 64.83669 76.95407 70.89538
# Shear Modulus (GPa) = -6.02406 34.32962 14.15278
#
# Velocity S-wave (km/s) = -1.54685 3.69266 2.37097
# Velocity P-wave (km/s) = 4.75003 6.98192 5.97118
#
# Compressibility (1/GPa) = 0.01542337
#
# Stress axis : x y z
#
# Youngs Moduli (GPa) = 104.58918 80.00899 113.03323
#
# Poissons Ratio (x) = 0.07591 0.41638
# Poissons Ratio (y) = 0.09923 0.35145
# Poissons Ratio (z) = 0.38528 0.24877
#
# Static dielectric constant tensor:
#      x y z
#    x 4.770170 0.000000 0.192890 
#    y 0.000000 5.755210 0.000000 
#    z 0.192890 0.000000 4.460730 
# 
# 
# High freq. dielectric constant tensor:
#      x y z
#    x 2.019510 0.000000 0.004130 
#    y 0.000000 2.009500 0.000000 
#    z 0.004130 0.000000 2.014410 
# 
# From -- ./inp_files/41185.got.cif
#   From: 2010.06.25/outbox.cif.g09.slc.cpg/sg15_21_cif.got.tgz:41185.got - 2010.06.28 07:06:18.
