data_PCOD8154527
_publ_section_title
;
Structure prediction by ZEFSAII (Michael W. Deem and Ramdas Pophale) SiO2 
 PCOD8154527
Probable space group: C 2/C
;
_chemical_formula_sum "Si O2"
_cell_formula_units_Z 60
_cell_length_a 8.523424
_cell_length_b 17.053739
_cell_length_c 20.868409
_cell_angle_alpha 90.000000
_cell_angle_beta 100.888694
_cell_angle_gamma 90.000000
_cell_volume 2978.741163
_symmetry_space_group_name_H-M "C 2/C"
_symmetry_group_IT_number 15
_symmetry_cell_setting 'monoclinic'
loop_
_space_group_symop_operation_xyz
x,y,z
-x,y,1/2-z
-x,-y,-z
x,-y,1/2+z
1/2+x,1/2+y,z
1/2-x,1/2+y,1/2-z
1/2-x,1/2-y,-z
1/2+x,1/2-y,1/2+z
loop_
_atom_site_type_symbol
_atom_site_label
_atom_site_fract_x
_atom_site_fract_y
_atom_site_fract_z
Si Si1 0.905112 0.689334 0.835306
Si Si2 0.994788 0.442561 0.559171
Si Si3 0.215277 0.671014 0.532697
Si Si4 0.500000 0.324261 0.750000
Si Si5 0.994035 0.955463 0.065360
Si Si6 0.315599 0.559085 0.146466
Si Si7 0.673298 0.060034 0.860755
Si Si8 0.309009 0.569674 0.737598
O O1 0.866473 0.696048 0.907154
O O2 0.931125 0.772926 0.803354
O O3 0.756610 0.655665 0.783276
O O4 0.061892 0.635380 0.842459
O O5 0.900754 0.367825 0.527852
O O6 0.911314 0.486090 0.612381
O O7 0.000000 0.500000 0.500000
O O8 0.170972 0.410220 0.590993
O O9 0.250000 0.750000 0.500000
O O10 0.364715 0.614126 0.557947
O O11 0.629693 0.378445 0.795906
O O12 0.166848 0.915433 0.088314
O O13 0.959798 0.024133 0.114815
O O14 0.000000 0.000000 0.000000
O O15 0.238013 0.485562 0.177157
O O16 0.737456 0.033868 0.796680
O O17 0.500000 0.569901 0.750000
#
# Coordination Sequence:
#
# PCOD8154527 Si02
#       8
#     8   8   8   4   8   8   8   8
#     4  12  25  46  67 100 147 179 232 291 358 410
#     4  12  22  45  73 103 135 184 239 285 347 424
#     4  12  27  46  68 103 147 180 225 303 356 406
#     4  12  28  44  70 108 140 180 236 304 348 412
#     4  12  23  41  71 105 134 183 236 282 348 429
#     4  12  24  44  70  99 144 180 235 295 342 422
#     4  12  21  38  76 100 129 188 236 277 343 430
#     4  12  21  42  70  98 132 187 231 278 348 418
#
# _framework density 20.142737
#
# number of rings (size 3 to 8) (size 9 to 14) (size 15 to 20)
#    0.000    0.000   10.000    0.000    1.867    2.133 
#    2.400    1.333    0.000    0.000    0.000    0.000 
#    0.000    0.000    0.000    0.000    0.000    0.000 
#
# Total GULP energy -371831.750913 kJ/mol
# GULP energy per Si atom -12394.391697 kJ/mol
# Density = 2.009689 g / cm^3
# Si number density = 20.142737 Si / 1000 Ang^3
#
#
#
# Elastic Constant Matrix: (Units=GPa)
#
#
# Indices 1 2 3 4 5 6 
#
# 1 116.3136 44.6574 58.9108 0.0000 4.3200 0.0000
# 2 44.6574 103.3752 44.4027 0.0000 3.8900 0.0000
# 3 58.9108 44.4027 124.6106 0.0000 -6.3385 0.0000
# 4 0.0000 0.0000 0.0000 49.1522 0.0000 -1.6346
# 5 4.3200 3.8900 -6.3385 0.0000 52.5257 0.0000
# 6 0.0000 0.0000 0.0000 -1.6346 0.0000 21.9417
#
#
#
# Elastic Compliance Matrix: (Units=1/GPa)
#
#
# Indices 1 2 3 4 5 6 
#
# 1 0.012278 -0.003224 -0.004724 0.000000 -0.001341 0.000000
# 2 -0.003224 0.012364 -0.002932 0.000000 -0.001004 0.000000
# 3 -0.004724 -0.002932 0.011404 0.000000 0.001982 0.000000
# 4 0.000000 0.000000 0.000000 0.020395 0.000000 0.001519
# 5 -0.001341 -0.001004 0.001982 0.000000 0.019462 0.000000
# 6 0.000000 0.000000 0.000000 0.001519 0.000000 0.045689
#
#
# Mechanical properties :
#
#
# Convention : Reuss Voigt Hill
#
# Bulk Modulus (GPa) = 70.00603 71.13792 70.57197
# Shear Modulus (GPa) = 33.75785 37.81248 35.78516
#
# Velocity S-wave (km/s) = 4.09826 4.33740 4.21952
# Velocity P-wave (km/s) = 7.56470 7.77673 7.67145
#
# Compressibility (1/GPa) = 0.01428448
#
# Stress axis : x y z
#
# Youngs Moduli (GPa) = 81.44854 80.88161 87.69009
#
# Poissons Ratio (x) = 0.26080 0.41421
# Poissons Ratio (y) = 0.26263 0.25713
# Poissons Ratio (z) = 0.38473 0.23717
#
# Static dielectric constant tensor:
#      x y z
#    x 3.706180 0.000000 -0.023860 
#    y 0.000000 3.543430 0.000000 
#    z -0.023860 0.000000 4.054400 
# 
# 
# High freq. dielectric constant tensor:
#      x y z
#    x 1.797630 0.000000 -0.000120 
#    y 0.000000 1.765600 0.000000 
#    z -0.000120 0.000000 1.816370 
# 
# From -- ./inp_files/232722.got.cif
#   From: 2010.06.25/outbox.cif.g09.slc.cpg/sg15_117_cif.got.tgz:232722.got - 2010.06.28 07:06:18.
