data_PCOD8154293
_publ_section_title
;
Structure prediction by ZEFSAII (Michael W. Deem and Ramdas Pophale) SiO2 
 PCOD8154293
Probable space group: C 2/C
;
_chemical_formula_sum "Si O2"
_cell_formula_units_Z 56
_cell_length_a 20.500027
_cell_length_b 14.418413
_cell_length_c 18.878363
_cell_angle_alpha 90.000000
_cell_angle_beta 152.933608
_cell_angle_gamma 90.000000
_cell_volume 2539.038280
_symmetry_space_group_name_H-M "C 2/C"
_symmetry_group_IT_number 15
_symmetry_cell_setting 'monoclinic'
loop_
_space_group_symop_operation_xyz
x,y,z
-x,y,1/2-z
-x,-y,-z
x,-y,1/2+z
1/2+x,1/2+y,z
1/2-x,1/2+y,1/2-z
1/2-x,1/2-y,-z
1/2+x,1/2-y,1/2+z
loop_
_atom_site_type_symbol
_atom_site_label
_atom_site_fract_x
_atom_site_fract_y
_atom_site_fract_z
Si Si1 0.994759 0.329051 0.082797
Si Si2 0.230470 0.766077 0.227172
Si Si3 0.837474 0.190721 0.474928
Si Si4 0.438011 0.570196 0.883808
Si Si5 0.714809 0.032598 0.081034
Si Si6 0.368908 0.294619 0.665730
Si Si7 0.145885 0.369177 0.920475
O O1 0.119321 0.317677 0.144994
O O2 0.055068 0.282807 0.211961
O O3 0.838581 0.291328 0.904436
O O4 0.948736 0.436053 0.055688
O O5 0.252291 0.703982 0.318582
O O6 0.104560 0.838705 0.115696
O O7 0.892911 0.290777 0.557159
O O8 0.737657 0.162438 0.442745
O O9 0.956348 0.109306 0.576618
O O10 0.295110 0.518990 0.721513
O O11 0.500000 0.500000 0.000000
O O12 0.803199 0.123073 0.146481
O O13 0.721749 0.958651 0.025305
O O14 0.500000 0.339759 0.750000
O O15 0.250000 0.250000 0.500000
O O16 0.000000 0.408055 0.750000
#
# Coordination Sequence:
#
# PCOD8154293 Si02
#       7
#     8   8   8   8   8   8   8
#     4  12  25  46  76 107 147 192 243 302 376 447
#     4  12  23  47  75 104 149 196 238 300 381 441
#     4  11  25  49  75 101 148 200 240 307 382 432
#     4  12  26  45  72 110 146 186 250 305 369 447
#     4  12  27  45  70 111 138 185 254 298 359 448
#     4  12  25  46  73 100 144 194 237 299 375 435
#     4  11  27  45  72 104 143 189 252 305 362 436
#
# _framework density 22.055595
#
# number of rings (size 3 to 8) (size 9 to 14) (size 15 to 20)
#    0.000    0.286    5.714    2.571    6.000    1.714 
#    0.000    0.000    0.000    0.000    0.000    0.000 
#    0.000    0.000    0.000    0.000    0.000    0.000 
#
# Total GULP energy -346880.584536 kJ/mol
# GULP energy per Si atom -12388.592305 kJ/mol
# Density = 2.200540 g / cm^3
# Si number density = 22.055595 Si / 1000 Ang^3
#
#
#
# Elastic Constant Matrix: (Units=GPa)
#
#
# Indices 1 2 3 4 5 6 
#
# 1 105.9774 35.8820 38.5460 -0.0002 -0.4536 -0.0006
# 2 35.8820 86.6113 37.7729 -0.0001 -6.2705 -0.0011
# 3 38.5460 37.7729 134.8613 -0.0007 -15.0459 -0.0014
# 4 -0.0002 -0.0001 -0.0007 44.5945 -0.0006 14.2675
# 5 -0.4536 -6.2705 -15.0459 -0.0006 38.4348 -0.0011
# 6 -0.0006 -0.0011 -0.0014 14.2675 -0.0011 23.4942
#
#
#
# Elastic Compliance Matrix: (Units=1/GPa)
#
#
# Indices 1 2 3 4 5 6 
#
# 1 0.011611 -0.003870 -0.002395 0.000000 -0.001432 0.000000
# 2 -0.003870 0.014462 -0.002809 0.000000 0.001214 0.000001
# 3 -0.002395 -0.002809 0.009235 0.000000 0.003129 0.000000
# 4 0.000000 0.000000 0.000000 0.027832 0.000000 -0.016902
# 5 -0.001432 0.001214 0.003129 0.000000 0.027424 0.000002
# 6 0.000000 0.000001 0.000000 -0.016902 0.000002 0.052828
#
#
# Mechanical properties :
#
#
# Convention : Reuss Voigt Hill
#
# Bulk Modulus (GPa) = 58.26949 61.31685 59.79317
# Shear Modulus (GPa) = 29.89377 35.65464 32.77420
#
# Velocity S-wave (km/s) = 3.68555 4.02503 3.85902
# Velocity P-wave (km/s) = 6.67740 7.03296 6.85749
#
# Compressibility (1/GPa) = 0.01716164
#
# Stress axis : x y z
#
# Youngs Moduli (GPa) = 86.12544 69.14672 108.28026
#
# Poissons Ratio (x) = 0.26757 0.25928
# Poissons Ratio (y) = 0.33327 0.30418
# Poissons Ratio (z) = 0.20623 0.19424
#
# Static dielectric constant tensor:
#      x y z
#    x 4.309650 -0.000010 0.203050 
#    y -0.000010 4.318000 -0.000020 
#    z 0.203050 -0.000020 4.387320 
# 
# 
# High freq. dielectric constant tensor:
#      x y z
#    x 1.880020 0.000000 -0.001700 
#    y 0.000000 1.864880 0.000000 
#    z -0.001700 0.000000 1.881780 
# 
# From -- ./inp_files/215759.got.cif
#   From: 2010.06.25/outbox.cif.g09.slc.cpg/sg15_108_cif.got.tgz:215759.got - 2010.06.28 07:06:18.
