data_PCOD8154495
_publ_section_title
;
Structure prediction by ZEFSAII (Michael W. Deem and Ramdas Pophale) SiO2 
 PCOD8154495
Probable space group: C 2/C
;
_chemical_formula_sum "Si O2"
_cell_formula_units_Z 48
_cell_length_a 12.080367
_cell_length_b 21.957109
_cell_length_c 11.584147
_cell_angle_alpha 90.000000
_cell_angle_beta 133.181276
_cell_angle_gamma 90.000000
_cell_volume 2240.584965
_symmetry_space_group_name_H-M "C 2/C"
_symmetry_group_IT_number 15
_symmetry_cell_setting 'monoclinic'
loop_
_space_group_symop_operation_xyz
x,y,z
-x,y,1/2-z
-x,-y,-z
x,-y,1/2+z
1/2+x,1/2+y,z
1/2-x,1/2+y,1/2-z
1/2-x,1/2-y,-z
1/2+x,1/2-y,1/2+z
loop_
_atom_site_type_symbol
_atom_site_label
_atom_site_fract_x
_atom_site_fract_y
_atom_site_fract_z
Si Si1 0.979022 0.719732 0.509694
Si Si2 0.320879 0.081784 0.626644
Si Si3 0.648547 0.467205 0.563609
Si Si4 0.000000 0.096253 0.750000
Si Si5 0.695603 0.325205 0.222423
Si Si6 0.762189 0.124968 0.173576
Si Si7 0.000000 0.218979 0.250000
O O1 0.932261 0.775692 0.396381
O O2 0.898637 0.656820 0.415447
O O3 0.925386 0.735982 0.602370
O O4 0.158171 0.709831 0.624547
O O5 0.500000 0.092997 0.750000
O O6 0.240532 0.134707 0.643099
O O7 0.249347 0.082448 0.447408
O O8 0.286573 0.015441 0.655913
O O9 0.500000 0.500000 0.500000
O O10 0.609724 0.442744 0.409733
O O11 0.691204 0.413554 0.681930
O O12 0.876727 0.134018 0.731550
O O13 0.881697 0.178697 0.236896
#
# Coordination Sequence:
#
# PCOD8154495 Si02
#       7
#     8   8   8   4   8   8   4
#     4  12  24  42  72 106 143 184 235 291 360 420
#     4  12  25  44  74 109 142 179 239 307 352 409
#     4  12  26  48  72  99 139 194 241 289 357 426
#     4  12  28  51  70  98 146 193 240 292 352 434
#     4  12  26  47  71 108 145 192 233 292 359 425
#     4  12  24  41  73 106 140 183 238 294 356 420
#     4  12  20  39  70 108 142 183 232 302 352 414
#
# _framework density 21.422976999999999
#
# number of rings (size 3 to 8) (size 9 to 14) (size 15 to 20)
#    0.000    0.000    6.667    4.500    0.000    2.667 
#    0.000    0.000    0.000    0.000    0.000    0.000 
#    0.000    0.000    0.000    0.000    0.000    0.000 
#
# Total GULP energy -297694.191840 kJ/mol
# GULP energy per Si atom -12403.924660 kJ/mol
# Density = 2.137422 g / cm^3
# Si number density = 21.422977 Si / 1000 Ang^3
#
#
#
# Elastic Constant Matrix: (Units=GPa)
#
#
# Indices 1 2 3 4 5 6 
#
# 1 80.9676 35.1656 30.3497 0.0000 0.8330 0.0000
# 2 35.1656 111.6972 51.4176 0.0000 0.8336 0.0000
# 3 30.3497 51.4176 122.7012 0.0000 -3.0548 0.0000
# 4 0.0000 0.0000 0.0000 54.4500 0.0000 1.8182
# 5 0.8330 0.8336 -3.0548 0.0000 31.5050 0.0000
# 6 0.0000 0.0000 0.0000 1.8182 0.0000 33.4957
#
#
#
# Elastic Compliance Matrix: (Units=1/GPa)
#
#
# Indices 1 2 3 4 5 6 
#
# 1 0.014742 -0.003659 -0.002125 0.000000 -0.000499 0.000000
# 2 -0.003659 0.012018 -0.004147 0.000000 -0.000623 0.000000
# 3 -0.002125 -0.004147 0.010443 0.000000 0.001178 0.000000
# 4 0.000000 0.000000 0.000000 0.018399 0.000000 -0.000999
# 5 -0.000499 -0.000623 0.001178 0.000000 0.031885 0.000000
# 6 0.000000 0.000000 0.000000 -0.000999 0.000000 0.029909
#
#
# Mechanical properties :
#
#
# Convention : Reuss Voigt Hill
#
# Bulk Modulus (GPa) = 57.66929 61.02574 59.34751
# Shear Modulus (GPa) = 34.95592 37.11900 36.03746
#
# Velocity S-wave (km/s) = 4.04382 4.16705 4.10590
# Velocity P-wave (km/s) = 6.98434 7.19030 7.08807
#
# Compressibility (1/GPa) = 0.01734025
#
# Stress axis : x y z
#
# Youngs Moduli (GPa) = 67.83530 83.20694 95.76163
#
# Poissons Ratio (x) = 0.30445 0.20353
# Poissons Ratio (y) = 0.24821 0.39709
# Poissons Ratio (z) = 0.14418 0.34503
#
# Static dielectric constant tensor:
#      x y z
#    x 3.859890 0.000000 0.088320 
#    y 0.000000 4.232680 0.000000 
#    z 0.088320 0.000000 3.134170 
# 
# 
# High freq. dielectric constant tensor:
#      x y z
#    x 1.829100 0.000000 0.006990 
#    y 0.000000 1.857030 0.000000 
#    z 0.006990 0.000000 1.851820 
# 
# From -- ./inp_files/89808.got.cif
#   From: 2010.06.25/outbox.cif.g09.slc.cpg/sg15_45_cif.got.tgz:89808.got - 2010.06.28 07:06:18.
