data_PCOD8154422
_publ_section_title
;
Structure prediction by ZEFSAII (Michael W. Deem and Ramdas Pophale) SiO2 
 PCOD8154422
Probable space group: C 2/C
;
_chemical_formula_sum "Si O2"
_cell_formula_units_Z 32
_cell_length_a 7.413914
_cell_length_b 7.112234
_cell_length_c 27.007742
_cell_angle_alpha 90.000000
_cell_angle_beta 122.708978
_cell_angle_gamma 90.000000
_cell_volume 1198.278717
_symmetry_space_group_name_H-M "C 2/C"
_symmetry_group_IT_number 15
_symmetry_cell_setting 'monoclinic'
loop_
_space_group_symop_operation_xyz
x,y,z
-x,y,1/2-z
-x,-y,-z
x,-y,1/2+z
1/2+x,1/2+y,z
1/2-x,1/2+y,1/2-z
1/2-x,1/2-y,-z
1/2+x,1/2-y,1/2+z
loop_
_atom_site_type_symbol
_atom_site_label
_atom_site_fract_x
_atom_site_fract_y
_atom_site_fract_z
Si Si1 0.816661 0.260381 0.686367
Si Si2 0.709858 0.030969 0.999161
Si Si3 0.592468 0.189907 0.813912
Si Si4 0.446591 0.748024 0.597320
O O1 0.321107 0.932575 0.558991
O O2 0.585166 0.186902 0.669632
O O3 0.000000 0.179306 0.750000
O O4 0.857000 0.185097 0.637296
O O5 0.750000 0.250000 0.000000
O O6 0.500000 0.000000 0.000000
O O7 0.911399 0.929231 0.055408
O O8 0.500000 0.285702 0.750000
O O9 0.322419 0.984650 0.687601
O O10 0.801597 0.303482 0.862928
#
# Coordination Sequence:
#
# PCOD8154422 Si02
#       4
#     8   8   8   8
#     4  11  26  49  81 123 170 219 278 345 431 520
#     4  11  30  53  83 120 166 228 296 350 426 494
#     4  11  26  49  81 123 170 219 278 345 431 520
#     4  11  28  50  84 120 174 219 286 356 426 509
#
# _framework density 26.704974
#
# number of rings (size 3 to 8) (size 9 to 14) (size 15 to 20)
#    0.000    1.000    2.500    0.000   14.000    2.000 
#    0.000    3.750    0.000    0.000    0.000    0.000 
#    0.000    0.000    0.000    0.000    0.000    0.000 
#
# Total GULP energy -198510.627230 kJ/mol
# GULP energy per Si atom -12406.914202 kJ/mol
# Density = 2.664419 g / cm^3
# Si number density = 26.704974 Si / 1000 Ang^3
#
#
#
# Elastic Constant Matrix: (Units=GPa)
#
#
# Indices 1 2 3 4 5 6 
#
# 1 190.0741 20.8139 80.8262 0.0000 12.5136 0.0000
# 2 20.8139 150.2026 58.6233 0.0000 8.6709 0.0000
# 3 80.8262 58.6233 231.1566 0.0000 12.9788 0.0000
# 4 0.0000 0.0000 0.0000 -34.5638 0.0000 -1.1521
# 5 12.5136 8.6709 12.9788 0.0000 31.7142 0.0000
# 6 0.0000 0.0000 0.0000 -1.1521 0.0000 37.6103
#
#
#
# Elastic Compliance Matrix: (Units=1/GPa)
#
#
# Indices 1 2 3 4 5 6 
#
# 1 0.006260 0.000050 -0.002110 0.000000 -0.001620 0.000000
# 2 0.000050 0.007441 -0.001831 0.000000 -0.001305 0.000000
# 3 -0.002110 -0.001831 0.005582 0.000000 -0.000951 0.000000
# 4 0.000000 0.000000 0.000000 -0.028902 0.000000 -0.000885
# 5 -0.001620 -0.001305 -0.000951 0.000000 0.032917 0.000000
# 6 0.000000 0.000000 0.000000 -0.000885 0.000000 0.026561
#
#
# Mechanical properties :
#
#
# Convention : Reuss Voigt Hill
#
# Bulk Modulus (GPa) = 86.96714 99.10669 93.03691
# Shear Modulus (GPa) = 81.33461 34.36346 57.84904
#
# Velocity S-wave (km/s) = 5.52475 3.59107 4.65932
# Velocity P-wave (km/s) = 8.56351 7.37473 7.99126
#
# Compressibility (1/GPa) = 0.01149860
#
# Stress axis : x y z
#
# Youngs Moduli (GPa) = 159.75109 134.39413 179.15321
#
# Poissons Ratio (x) = -0.00669 0.37809
# Poissons Ratio (y) = -0.00795 0.32807
# Poissons Ratio (z) = 0.33715 0.24610
#
# Static dielectric constant tensor:
#      x y z
#    x 4.445640 0.000000 0.138400 
#    y 0.000000 4.491270 0.000000 
#    z 0.138400 0.000000 5.484520 
# 
# 
# High freq. dielectric constant tensor:
#      x y z
#    x 2.072600 0.000000 0.003050 
#    y 0.000000 2.069110 0.000000 
#    z 0.003050 0.000000 2.095170 
# 
# From -- ./inp_files/287140.got.cif
#   From: 2010.06.25/outbox.cif.g09.slc.cpg/sg15_144_cif.got.tgz:287140.got - 2010.06.28 07:06:18.
