data_PCOD8154582
_publ_section_title
;
Structure prediction by ZEFSAII (Michael W. Deem and Ramdas Pophale) SiO2 
 PCOD8154582
Probable space group: C 2/C
;
_chemical_formula_sum "Si O2"
_cell_formula_units_Z 52
_cell_length_a 10.822363
_cell_length_b 18.981412
_cell_length_c 11.866511
_cell_angle_alpha 90.000000
_cell_angle_beta 121.289088
_cell_angle_gamma 90.000000
_cell_volume 2083.123794
_symmetry_space_group_name_H-M "C 2/C"
_symmetry_group_IT_number 15
_symmetry_cell_setting 'monoclinic'
loop_
_space_group_symop_operation_xyz
x,y,z
-x,y,1/2-z
-x,-y,-z
x,-y,1/2+z
1/2+x,1/2+y,z
1/2-x,1/2+y,1/2-z
1/2-x,1/2-y,-z
1/2+x,1/2-y,1/2+z
loop_
_atom_site_type_symbol
_atom_site_label
_atom_site_fract_x
_atom_site_fract_y
_atom_site_fract_z
Si Si1 0.000000 0.749666 0.250000
Si Si2 0.610274 0.157532 0.114846
Si Si3 0.377945 0.358985 0.606701
Si Si4 0.867092 0.517023 0.260505
Si Si5 0.327483 0.111000 0.880697
Si Si6 0.553516 0.357547 0.112159
Si Si7 0.653218 0.517984 0.967377
O O1 0.883597 0.701213 0.263343
O O2 0.058241 0.803111 0.377693
O O3 0.729488 0.179120 0.077745
O O4 0.658653 0.077410 0.160336
O O5 0.448390 0.164278 0.986598
O O6 0.500000 0.333002 0.750000
O O7 0.417479 0.331135 0.500558
O O8 0.375319 0.444106 0.605915
O O9 0.910011 0.443077 0.337025
O O10 0.000000 0.543733 0.250000
O O11 0.719892 0.504659 0.121846
O O12 0.202215 0.151199 0.753381
O O13 0.265469 0.064701 0.952263
O O14 0.495734 0.437752 0.088753
#
# Coordination Sequence:
#
# PCOD8154582 Si02
#       7
#     4   8   8   8   8   8   8
#     4  12  28  54  74 100 148 202 262 282 346 448
#     4  12  26  45  71 106 145 197 244 297 360 432
#     4  12  26  46  73 108 146 182 239 314 379 427
#     4  12  22  39  69 110 146 184 236 305 375 429
#     4  12  23  42  71 112 144 186 238 305 374 428
#     4  12  27  46  74 108 148 197 243 296 364 439
#     4  12  22  42  70 109 150 182 238 301 372 436
#
# _framework density 24.962512
#
# number of rings (size 3 to 8) (size 9 to 14) (size 15 to 20)
#    0.000    0.000    6.923    3.692    0.000    1.231 
#    5.538    0.000    0.000    0.000    0.000    0.000 
#    0.000    0.000    0.000    0.000    0.000    0.000 
#
# Total GULP energy -322278.385544 kJ/mol
# GULP energy per Si atom -12395.322521 kJ/mol
# Density = 2.490570 g / cm^3
# Si number density = 24.962512 Si / 1000 Ang^3
#
#
#
# Elastic Constant Matrix: (Units=GPa)
#
#
# Indices 1 2 3 4 5 6 
#
# 1 148.8516 24.6630 67.1221 0.0000 -28.5253 0.0000
# 2 24.6630 74.2130 24.0127 0.0000 -10.6474 0.0000
# 3 67.1221 24.0127 146.1086 0.0000 -10.1510 0.0000
# 4 0.0000 0.0000 0.0000 23.1784 0.0000 -11.9343
# 5 -28.5253 -10.6474 -10.1510 0.0000 51.4947 0.0000
# 6 0.0000 0.0000 0.0000 -11.9343 0.0000 27.1584
#
#
#
# Elastic Compliance Matrix: (Units=1/GPa)
#
#
# Indices 1 2 3 4 5 6 
#
# 1 0.009477 -0.001299 -0.003847 0.000000 0.004223 0.000000
# 2 -0.001299 0.014738 -0.001687 0.000000 0.001995 0.000000
# 3 -0.003847 -0.001687 0.008838 0.000000 -0.000738 0.000000
# 4 0.000000 0.000000 0.000000 0.055760 0.000000 0.024503
# 5 0.004223 0.001995 -0.000738 0.000000 0.022026 0.000000
# 6 0.000000 0.000000 0.000000 0.024503 0.000000 0.047588
#
#
# Mechanical properties :
#
#
# Convention : Reuss Voigt Hill
#
# Bulk Modulus (GPa) = 51.57911 66.75208 59.16560
# Shear Modulus (GPa) = 28.00250 37.25800 32.63025
#
# Velocity S-wave (km/s) = 3.35293 3.86756 3.61940
# Velocity P-wave (km/s) = 5.97470 6.83688 6.42028
#
# Compressibility (1/GPa) = 0.01938769
#
# Stress axis : x y z
#
# Youngs Moduli (GPa) = 105.51493 67.84952 113.15402
#
# Poissons Ratio (x) = 0.08813 0.43530
# Poissons Ratio (y) = 0.13706 0.19088
# Poissons Ratio (z) = 0.40592 0.11445
#
# Static dielectric constant tensor:
#      x y z
#    x 4.543420 0.000000 -0.321960 
#    y 0.000000 4.367980 0.000000 
#    z -0.321960 0.000000 4.511710 
# 
# 
# High freq. dielectric constant tensor:
#      x y z
#    x 2.002000 0.000000 -0.024500 
#    y 0.000000 1.980780 0.000000 
#    z -0.024500 0.000000 1.990020 
# 
# From -- ./inp_files/89736.got.cif
#   From: 2010.06.25/outbox.cif.g09.slc.cpg/sg15_45_cif.got.tgz:89736.got - 2010.06.28 07:06:18.
