data_PCOD8154624
_publ_section_title
;
Structure prediction by ZEFSAII (Michael W. Deem and Ramdas Pophale) SiO2 
 PCOD8154624
Probable space group: C 2/C
;
_chemical_formula_sum "Si O2"
_cell_formula_units_Z 56
_cell_length_a 24.499021
_cell_length_b 18.480179
_cell_length_c 7.777467
_cell_angle_alpha 90.000000
_cell_angle_beta 45.671831
_cell_angle_gamma 90.000000
_cell_volume 2518.901721
_symmetry_space_group_name_H-M "C 2/C"
_symmetry_group_IT_number 15
_symmetry_cell_setting 'monoclinic'
loop_
_space_group_symop_operation_xyz
x,y,z
-x,y,1/2-z
-x,-y,-z
x,-y,1/2+z
1/2+x,1/2+y,z
1/2-x,1/2+y,1/2-z
1/2-x,1/2-y,-z
1/2+x,1/2-y,1/2+z
loop_
_atom_site_type_symbol
_atom_site_label
_atom_site_fract_x
_atom_site_fract_y
_atom_site_fract_z
Si Si1 0.358923 0.831953 0.289673
Si Si2 0.349258 0.919217 0.973263
Si Si3 0.585972 0.063975 0.539093
Si Si4 0.438506 0.305098 0.505889
Si Si5 0.204432 0.048097 0.601154
Si Si6 0.530100 0.576026 0.999391
Si Si7 0.207288 0.106715 0.232014
O O1 0.402303 0.875756 0.341422
O O2 0.393956 0.751504 0.224922
O O3 0.268524 0.834626 0.529272
O O4 0.371662 0.859118 0.065176
O O5 0.398869 0.908528 0.689503
O O6 0.360541 0.996168 0.039584
O O7 0.259733 0.916162 0.121421
O O8 0.500000 0.036773 0.750000
O O9 0.497717 0.358778 0.462589
O O10 0.373770 0.354747 0.559071
O O11 0.500000 0.262884 0.250000
O O12 0.236493 0.073098 0.346422
O O13 0.202075 0.960346 0.610197
O O14 0.120844 0.079428 0.810646
O O15 0.500000 0.591302 0.250000
O O16 0.500000 0.500000 0.000000
#
# Coordination Sequence:
#
# PCOD8154624 Si02
#       7
#     8   8   8   8   8   8   8
#     4  12  28  47  73 103 154 205 238 306 382 454
#     4  12  24  45  73 110 142 187 248 311 373 440
#     4  12  25  42  73 109 140 188 255 311 367 437
#     4  12  28  49  70 104 153 201 247 303 387 447
#     4  12  22  42  78 110 143 183 256 316 363 443
#     4  12  25  44  76 110 146 194 252 318 372 434
#     4  12  23  45  73 110 147 192 247 314 373 448
#
# _framework density 22.231912999999999
#
# number of rings (size 3 to 8) (size 9 to 14) (size 15 to 20)
#    0.000    0.000    7.143    3.000    4.000    0.571 
#    0.000    0.714    0.000    0.000    0.000    0.000 
#    0.000    0.000    0.000    0.000    0.000    0.000 
#
# Total GULP energy -347119.962260 kJ/mol
# GULP energy per Si atom -12397.141509 kJ/mol
# Density = 2.218131 g / cm^3
# Si number density = 22.231913 Si / 1000 Ang^3
#
#
#
# Elastic Constant Matrix: (Units=GPa)
#
#
# Indices 1 2 3 4 5 6 
#
# 1 89.7449 22.8651 48.9256 0.0000 -6.0311 0.0000
# 2 22.8651 91.0903 30.7103 0.0000 -14.7363 0.0000
# 3 48.9256 30.7103 141.4015 0.0000 -9.9287 0.0000
# 4 0.0000 0.0000 0.0000 37.3015 0.0000 -12.9929
# 5 -6.0311 -14.7363 -9.9287 0.0000 42.5585 0.0000
# 6 0.0000 0.0000 0.0000 -12.9929 0.0000 31.8704
#
#
#
# Elastic Compliance Matrix: (Units=1/GPa)
#
#
# Indices 1 2 3 4 5 6 
#
# 1 0.014079 -0.002001 -0.004418 0.000000 0.000272 0.000000
# 2 -0.002001 0.012685 -0.001804 0.000000 0.003688 0.000000
# 3 -0.004418 -0.001804 0.009053 0.000000 0.000861 0.000000
# 4 0.000000 0.000000 0.000000 0.031246 0.000000 0.012738
# 5 0.000272 0.003688 0.000861 0.000000 0.025014 0.000000
# 6 0.000000 0.000000 0.000000 0.012738 0.000000 0.036570
#
#
# Mechanical properties :
#
#
# Convention : Reuss Voigt Hill
#
# Bulk Modulus (GPa) = 51.61968 58.58208 55.10088
# Shear Modulus (GPa) = 32.99272 36.99511 34.99392
#
# Velocity S-wave (km/s) = 3.85648 4.08371 3.97172
# Velocity P-wave (km/s) = 6.56499 6.97447 6.77282
#
# Compressibility (1/GPa) = 0.01937246
#
# Stress axis : x y z
#
# Youngs Moduli (GPa) = 71.02710 78.83264 110.46187
#
# Poissons Ratio (x) = 0.15772 0.48800
# Poissons Ratio (y) = 0.14210 0.19925
# Poissons Ratio (z) = 0.31379 0.14220
#
# Static dielectric constant tensor:
#      x y z
#    x 4.242650 0.000000 -0.063080 
#    y 0.000000 3.744120 0.000000 
#    z -0.063080 0.000000 4.261190 
# 
# 
# High freq. dielectric constant tensor:
#      x y z
#    x 1.888970 0.000000 -0.009920 
#    y 0.000000 1.847910 0.000000 
#    z -0.009920 0.000000 1.900290 
# 
# From -- ./inp_files/67107.got.cif
#   From: 2010.06.25/outbox.cif.g09.slc.cpg/sg15_34_cif.got.tgz:67107.got - 2010.06.28 07:06:18.
