data_PCOD8154759
_publ_section_title
;
Structure prediction by ZEFSAII (Michael W. Deem and Ramdas Pophale) SiO2 
 PCOD8154759
Probable space group: C 2/C
;
_chemical_formula_sum "Si O2"
_cell_formula_units_Z 52
_cell_length_a 8.958259
_cell_length_b 16.518191
_cell_length_c 21.487769
_cell_angle_alpha 90.000000
_cell_angle_beta 49.658806
_cell_angle_gamma 90.000000
_cell_volume 2423.528554
_symmetry_space_group_name_H-M "C 2/C"
_symmetry_group_IT_number 15
_symmetry_cell_setting 'monoclinic'
loop_
_space_group_symop_operation_xyz
x,y,z
-x,y,1/2-z
-x,-y,-z
x,-y,1/2+z
1/2+x,1/2+y,z
1/2-x,1/2+y,1/2-z
1/2-x,1/2-y,-z
1/2+x,1/2-y,1/2+z
loop_
_atom_site_type_symbol
_atom_site_label
_atom_site_fract_x
_atom_site_fract_y
_atom_site_fract_z
Si Si1 0.601879 0.071594 0.660879
Si Si2 0.609973 0.083206 0.334059
Si Si3 0.500000 0.505267 0.250000
Si Si4 0.447586 0.796567 0.429789
Si Si5 0.184300 0.257227 0.742946
Si Si6 0.067735 0.105973 0.846953
Si Si7 0.667068 0.167218 0.994723
O O1 0.500000 0.110752 0.750000
O O2 0.595124 0.126053 0.601304
O O3 0.827765 0.064007 0.621660
O O4 0.494902 0.987662 0.675865
O O5 0.672694 0.151457 0.268674
O O6 0.450713 0.118272 0.422898
O O7 0.807218 0.058039 0.318732
O O8 0.419132 0.451645 0.215782
O O9 0.250000 0.750000 0.500000
O O10 0.612112 0.744284 0.349902
O O11 0.527464 0.821885 0.474445
O O12 0.172111 0.192236 0.802591
O O13 0.000000 0.234078 0.750000
O O14 0.843972 0.111948 0.925522
O O15 0.750000 0.250000 0.000000
#
# Coordination Sequence:
#
# PCOD8154759 Si02
#       7
#     8   8   4   8   8   8   8
#     4  12  25  47  74 108 151 189 242 304 370 431
#     4  12  28  45  74 109 148 186 244 311 362 441
#     4  12  26  44  68 110 140 196 234 298 374 432
#     4  12  27  44  76 113 150 194 251 307 368 444
#     4  12  23  45  76 103 142 198 250 290 363 450
#     4  12  23  47  78  97 146 200 237 291 372 441
#     4  12  25  49  73 109 147 191 250 305 365 432
#
# _framework density 21.456319000000001
#
# number of rings (size 3 to 8) (size 9 to 14) (size 15 to 20)
#    0.000    0.000    6.923    2.308    2.154    3.077 
#    0.000    0.000    0.000    0.000    0.000    0.000 
#    0.000    0.000    0.000    0.000    0.000    0.000 
#
# Total GULP energy -322360.087370 kJ/mol
# GULP energy per Si atom -12398.464899 kJ/mol
# Density = 2.140748 g / cm^3
# Si number density = 21.456319 Si / 1000 Ang^3
#
#
#
# Elastic Constant Matrix: (Units=GPa)
#
#
# Indices 1 2 3 4 5 6 
#
# 1 172.1355 57.6523 44.1375 0.0000 -4.2877 -0.0005
# 2 57.6523 109.2248 41.0670 -0.0002 -6.8882 -0.0007
# 3 44.1375 41.0670 130.4959 -0.0011 -23.7707 0.0003
# 4 0.0000 -0.0002 -0.0011 37.7890 0.0006 -4.9196
# 5 -4.2877 -6.8882 -23.7707 0.0006 48.9389 -0.0008
# 6 -0.0005 -0.0007 0.0003 -4.9196 -0.0008 -5.8257
#
#
#
# Elastic Compliance Matrix: (Units=1/GPa)
#
#
# Indices 1 2 3 4 5 6 
#
# 1 0.007297 -0.003312 -0.001529 0.000000 -0.000570 0.000000
# 2 -0.003312 0.011889 -0.002599 0.000000 0.000121 -0.000001
# 3 -0.001529 -0.002599 0.009772 0.000000 0.004247 0.000000
# 4 0.000000 0.000000 0.000000 0.023842 -0.000001 -0.020133
# 5 -0.000570 0.000121 0.004247 -0.000001 0.022463 -0.000002
# 6 0.000000 -0.000001 0.000000 -0.020133 -0.000002 -0.154651
#
#
# Mechanical properties :
#
#
# Convention : Reuss Voigt Hill
#
# Bulk Modulus (GPa) = 71.04451 77.50774 74.27613
# Shear Modulus (GPa) = -83.59010 34.11374 -24.73818
#
# Velocity S-wave (km/s) = -6.24843 3.99170 -3.39920
# Velocity P-wave (km/s) = 4.34442 7.57937 4.39163
#
# Compressibility (1/GPa) = 0.01407568
#
# Stress axis : x y z
#
# Youngs Moduli (GPa) = 137.04803 84.11416 102.33531
#
# Poissons Ratio (x) = 0.27862 0.15651
# Poissons Ratio (y) = 0.45395 0.26597
# Poissons Ratio (z) = 0.20959 0.21861
#
# Static dielectric constant tensor:
#      x y z
#    x 4.193570 0.000000 -0.026790 
#    y 0.000000 3.863680 0.000000 
#    z -0.026790 0.000000 3.794070 
# 
# 
# High freq. dielectric constant tensor:
#      x y z
#    x 1.867130 0.000000 -0.008830 
#    y 0.000000 1.837130 0.000000 
#    z -0.008830 0.000000 1.851100 
# 
# From -- ./inp_files/233015.got.cif
#   From: 2010.06.25/outbox.cif.g09.slc.cpg/sg15_117_cif.got.tgz:233015.got - 2010.06.28 07:06:18.
