data_PCOD8154913
_publ_section_title
;
Structure prediction by ZEFSAII (Michael W. Deem and Ramdas Pophale) SiO2 
 PCOD8154913
Probable space group: C 2/C
;
_chemical_formula_sum "Si O2"
_cell_formula_units_Z 48
_cell_length_a 19.897421
_cell_length_b 17.398604
_cell_length_c 16.418446
_cell_angle_alpha 90.000000
_cell_angle_beta 21.474948
_cell_angle_gamma 90.000000
_cell_volume 2080.828554
_symmetry_space_group_name_H-M "C 2/C"
_symmetry_group_IT_number 15
_symmetry_cell_setting 'monoclinic'
loop_
_space_group_symop_operation_xyz
x,y,z
-x,y,1/2-z
-x,-y,-z
x,-y,1/2+z
1/2+x,1/2+y,z
1/2-x,1/2+y,1/2-z
1/2-x,1/2-y,-z
1/2+x,1/2-y,1/2+z
loop_
_atom_site_type_symbol
_atom_site_label
_atom_site_fract_x
_atom_site_fract_y
_atom_site_fract_z
Si Si1 0.436306 0.074469 0.907708
Si Si2 0.783432 0.337241 0.989129
Si Si3 0.808082 0.173531 0.728290
Si Si4 0.760218 0.458345 0.881659
Si Si5 0.519510 0.448971 0.899387
Si Si6 0.575284 0.844050 0.919759
O O1 0.500000 0.108717 0.750000
O O2 0.553958 0.000218 0.799699
O O3 0.225690 0.049749 0.134636
O O4 0.462035 0.142895 0.943070
O O5 0.697822 0.397400 0.021122
O O6 0.000000 0.351742 0.750000
O O7 0.750000 0.250000 0.000000
O O8 0.677921 0.353423 0.193302
O O9 0.959089 0.136033 0.498313
O O10 0.821497 0.264682 0.709121
O O11 0.608254 0.149973 0.924499
O O12 0.794754 0.412382 0.758635
O O13 0.604294 0.521146 0.036522
O O14 0.500000 0.500000 0.000000
#
# Coordination Sequence:
#
# PCOD8154913 Si02
#       6
#     8   8   8   8   8   8
#     4  12  28  51  75 111 149 197 260 324 373 441
#     4  12  25  44  72 115 159 197 245 315 382 453
#     4  12  25  48  74 111 152 206 254 309 389 457
#     4  12  25  47  76 112 158 195 252 311 378 457
#     4  12  27  47  78 107 148 207 254 302 387 458
#     4  12  24  47  76 107 155 204 255 316 378 458
#
# _framework density 23.067734999999999
#
# number of rings (size 3 to 8) (size 9 to 14) (size 15 to 20)
#    0.000    0.000    6.667    3.000    2.333    2.000 
#    0.000    3.333    0.000    0.000    0.000    0.000 
#    0.000    0.000    0.000    0.000    0.000    0.000 
#
# Total GULP energy -297742.152202 kJ/mol
# GULP energy per Si atom -12405.923008 kJ/mol
# Density = 2.301523 g / cm^3
# Si number density = 23.067735 Si / 1000 Ang^3
#
#
#
# Elastic Constant Matrix: (Units=GPa)
#
#
# Indices 1 2 3 4 5 6 
#
# 1 160.8817 53.0679 62.2727 0.0442 24.4524 -0.0257
# 2 53.0679 73.5027 36.9097 0.0015 8.1475 -0.0459
# 3 62.2727 36.9097 120.3427 -0.1591 4.9592 -0.0001
# 4 0.0442 0.0015 -0.1591 39.1439 0.0155 1.7767
# 5 24.4524 8.1475 4.9592 0.0155 44.9360 0.0220
# 6 -0.0257 -0.0459 -0.0001 1.7767 0.0220 50.3868
#
#
#
# Elastic Compliance Matrix: (Units=1/GPa)
#
#
# Indices 1 2 3 4 5 6 
#
# 1 0.009754 -0.004897 -0.003379 -0.000023 -0.004047 0.000003
# 2 -0.004897 0.018798 -0.003215 -0.000009 -0.000389 0.000015
# 3 -0.003379 -0.003215 0.010994 0.000048 0.001208 -0.000007
# 4 -0.000023 -0.000009 0.000048 0.025588 0.000000 -0.000902
# 5 -0.004047 -0.000389 0.001208 0.000000 0.024393 -0.000013
# 6 0.000003 0.000015 -0.000007 -0.000902 -0.000013 0.019878
#
#
# Mechanical properties :
#
#
# Convention : Reuss Voigt Hill
#
# Bulk Modulus (GPa) = 60.37054 73.24753 66.80903
# Shear Modulus (GPa) = 36.25559 40.39180 38.32369
#
# Velocity S-wave (km/s) = 3.96877 4.18904 4.08039
# Velocity P-wave (km/s) = 6.87236 7.43099 7.15713
#
# Compressibility (1/GPa) = 0.01656437
#
# Stress axis : x y z
#
# Youngs Moduli (GPa) = 102.52282 53.19624 90.95553
#
# Poissons Ratio (x) = 0.26050 0.30730
# Poissons Ratio (y) = 0.50206 0.29247
# Poissons Ratio (z) = 0.34638 0.17105
#
# Static dielectric constant tensor:
#      x y z
#    x 4.426590 0.000060 0.098940 
#    y 0.000060 3.858420 0.000880 
#    z 0.098940 0.000880 3.541550 
# 
# 
# High freq. dielectric constant tensor:
#      x y z
#    x 1.924940 0.000000 -0.007830 
#    y 0.000000 1.906080 0.000010 
#    z -0.007830 0.000010 1.916270 
# 
# From -- ./inp_files/216242.got.cif
#   From: 2010.06.25/outbox.cif.g09.slc.cpg/sg15_109_cif.got.tgz:216242.got - 2010.06.28 07:06:18.
