data_PCOD8154405
_publ_section_title
;
Structure prediction by ZEFSAII (Michael W. Deem and Ramdas Pophale) SiO2 
 PCOD8154405
Probable space group: C 2/C
;
_chemical_formula_sum "Si O2"
_cell_formula_units_Z 32
_cell_length_a 21.790421
_cell_length_b 10.003698
_cell_length_c 12.600738
_cell_angle_alpha 90.000000
_cell_angle_beta 152.610785
_cell_angle_gamma 90.000000
_cell_volume 1263.603559
_symmetry_space_group_name_H-M "C 2/C"
_symmetry_group_IT_number 15
_symmetry_cell_setting 'monoclinic'
loop_
_space_group_symop_operation_xyz
x,y,z
-x,y,1/2-z
-x,-y,-z
x,-y,1/2+z
1/2+x,1/2+y,z
1/2-x,1/2+y,1/2-z
1/2-x,1/2-y,-z
1/2+x,1/2-y,1/2+z
loop_
_atom_site_type_symbol
_atom_site_label
_atom_site_fract_x
_atom_site_fract_y
_atom_site_fract_z
Si Si1 0.167514 0.455326 0.909021
Si Si2 0.389719 0.391469 0.853135
Si Si3 0.204583 0.185607 0.077124
Si Si4 0.488627 0.190495 0.612909
O O1 0.263060 0.436733 0.952980
O O2 0.028026 0.531407 0.668838
O O3 0.241878 0.549924 0.107822
O O4 0.139510 0.309452 0.914071
O O5 0.401669 0.355296 0.996126
O O6 0.406757 0.263924 0.803800
O O7 0.500000 0.500000 0.000000
O O8 0.343286 0.225872 0.345810
O O9 0.500000 0.246400 0.750000
#
# Coordination Sequence:
#
# PCOD8154405 Si02
#       4
#     8   8   8   8
#     4  11  26  48  75 109 147 200 247 315 378 455
#     4  12  27  46  75 107 153 200 245 315 383 451
#     4  11  27  49  72 112 149 190 260 312 379 456
#     4  12  26  46  77 106 147 202 250 311 382 451
#
# _framework density 25.324397000000001
#
# number of rings (size 3 to 8) (size 9 to 14) (size 15 to 20)
#    0.000    0.500    5.000    1.500    7.000    2.000 
#    0.000    0.000    0.000    0.000    0.000    0.000 
#    0.000    0.000    0.000    0.000    0.000    0.000 
#
# Total GULP energy -198475.267382 kJ/mol
# GULP energy per Si atom -12404.704211 kJ/mol
# Density = 2.526676 g / cm^3
# Si number density = 25.324397 Si / 1000 Ang^3
#
#
#
# Elastic Constant Matrix: (Units=GPa)
#
#
# Indices 1 2 3 4 5 6 
#
# 1 196.4872 49.7052 -2.2296 0.0000 -25.0021 0.0000
# 2 49.7052 97.4672 16.6098 0.0000 -2.7455 0.0000
# 3 -2.2296 16.6098 53.1967 0.0000 2.4216 0.0000
# 4 0.0000 0.0000 0.0000 47.9593 0.0000 2.4530
# 5 -25.0021 -2.7455 2.4216 0.0000 41.3440 0.0000
# 6 0.0000 0.0000 0.0000 2.4530 0.0000 37.7182
#
#
#
# Elastic Compliance Matrix: (Units=1/GPa)
#
#
# Indices 1 2 3 4 5 6 
#
# 1 0.006410 -0.003365 0.001156 0.000000 0.003585 0.000000
# 2 -0.003365 0.012638 -0.004043 0.000000 -0.000959 0.000000
# 3 0.001156 -0.004043 0.020143 0.000000 -0.000749 0.000000
# 4 0.000000 0.000000 0.000000 0.020921 0.000000 -0.001361
# 5 0.003585 -0.000959 -0.000749 0.000000 0.026336 0.000000
# 6 0.000000 0.000000 0.000000 -0.001361 0.000000 0.026601
#
#
# Mechanical properties :
#
#
# Convention : Reuss Voigt Hill
#
# Bulk Modulus (GPa) = 37.47188 52.81354 45.14271
# Shear Modulus (GPa) = 37.18912 44.27534 40.73223
#
# Velocity S-wave (km/s) = 3.83627 4.18584 4.01486
# Velocity P-wave (km/s) = 5.86954 6.65295 6.27349
#
# Compressibility (1/GPa) = 0.02668668
#
# Stress axis : x y z
#
# Youngs Moduli (GPa) = 156.00855 79.12719 49.64458
#
# Poissons Ratio (x) = 0.26625 -0.05739
# Poissons Ratio (y) = 0.52495 0.20073
# Poissons Ratio (z) = -0.18036 0.31994
#
# Static dielectric constant tensor:
#      x y z
#    x 4.962200 0.000000 -0.227360 
#    y 0.000000 4.465050 0.000000 
#    z -0.227360 0.000000 4.728570 
# 
# 
# High freq. dielectric constant tensor:
#      x y z
#    x 2.030240 0.000000 -0.007080 
#    y 0.000000 2.000710 0.000000 
#    z -0.007080 0.000000 2.010980 
# 
# From -- ./inp_files/84561.got.cif
#   From: 2010.06.25/outbox.cif.g09.slc.cpg/sg15_43_cif.got.tgz:84561.got - 2010.06.28 07:06:18.
