data_PCOD8154333
_publ_section_title
;
Structure prediction by ZEFSAII (Michael W. Deem and Ramdas Pophale) SiO2 
 PCOD8154333
Probable space group: C 2/C
;
_chemical_formula_sum "Si O2"
_cell_formula_units_Z 44
_cell_length_a 6.547194
_cell_length_b 24.224868
_cell_length_c 14.525614
_cell_angle_alpha 90.000000
_cell_angle_beta 121.585343
_cell_angle_gamma 90.000000
_cell_volume 1962.545967
_symmetry_space_group_name_H-M "C 2/C"
_symmetry_group_IT_number 15
_symmetry_cell_setting 'monoclinic'
loop_
_space_group_symop_operation_xyz
x,y,z
-x,y,1/2-z
-x,-y,-z
x,-y,1/2+z
1/2+x,1/2+y,z
1/2-x,1/2+y,1/2-z
1/2-x,1/2-y,-z
1/2+x,1/2-y,1/2+z
loop_
_atom_site_type_symbol
_atom_site_label
_atom_site_fract_x
_atom_site_fract_y
_atom_site_fract_z
Si Si1 0.031939 0.712069 0.475714
Si Si2 0.404965 0.405229 0.432926
Si Si3 0.363308 0.202583 0.627664
Si Si4 0.000000 0.928104 0.250000
Si Si5 0.987328 0.510004 0.889612
Si Si6 0.404967 0.892739 0.632118
O O1 0.250000 0.750000 0.500000
O O2 0.036555 0.651390 0.433420
O O3 0.781539 0.741001 0.388934
O O4 0.054468 0.709109 0.591242
O O5 0.305466 0.347081 0.443362
O O6 0.490183 0.396288 0.346094
O O7 0.215038 0.455128 0.404011
O O8 0.629756 0.413075 0.554729
O O9 0.500000 0.183643 0.750000
O O10 0.243000 0.961649 0.304762
O O11 0.951428 0.449715 0.838312
O O12 0.000000 0.500000 0.000000
O O13 0.500000 0.865393 0.750000
#
# Coordination Sequence:
#
# PCOD8154333 Si02
#       6
#     8   8   8   4   8   8
#     4  11  26  49  68 104 145 190 248 298 376 437
#     4  12  26  47  72 111 145 190 251 300 370 437
#     4  11  26  44  76 103 142 189 250 309 360 445
#     4  12  26  46  76 106 148 196 234 308 356 444
#     4  12  26  47  73 109 151 192 247 299 373 447
#     4  12  27  46  74 106 151 197 242 308 373 448
#
# _framework density 22.419854999999998
#
# number of rings (size 3 to 8) (size 9 to 14) (size 15 to 20)
#    0.000    0.364    3.636    4.364    7.636    0.000 
#    1.636    0.000    0.000    0.000    0.000    0.000 
#    0.000    0.000    0.000    0.000    0.000    0.000 
#
# Total GULP energy -272654.364969 kJ/mol
# GULP energy per Si atom -12393.380226 kJ/mol
# Density = 2.236883 g / cm^3
# Si number density = 22.419855 Si / 1000 Ang^3
#
#
#
# Elastic Constant Matrix: (Units=GPa)
#
#
# Indices 1 2 3 4 5 6 
#
# 1 139.7174 48.3318 54.1059 0.0000 -9.1654 0.0000
# 2 48.3318 123.5741 10.6325 0.0000 -0.9279 0.0000
# 3 54.1059 10.6325 135.5530 0.0000 -3.6359 0.0000
# 4 0.0000 0.0000 0.0000 19.9395 0.0000 -9.2265
# 5 -9.1654 -0.9279 -3.6359 0.0000 38.7635 0.0000
# 6 0.0000 0.0000 0.0000 -9.2265 0.0000 33.4020
#
#
#
# Elastic Compliance Matrix: (Units=1/GPa)
#
#
# Indices 1 2 3 4 5 6 
#
# 1 0.009917 -0.003552 -0.003628 0.000000 0.001919 0.000000
# 2 -0.003552 0.009420 0.000664 0.000000 -0.000552 0.000000
# 3 -0.003628 0.000664 0.008773 0.000000 -0.000019 0.000000
# 4 0.000000 0.000000 0.000000 0.057502 0.000000 0.015883
# 5 0.001919 -0.000552 -0.000019 0.000000 0.026236 0.000000
# 6 0.000000 0.000000 0.000000 0.015883 0.000000 0.034326
#
#
# Mechanical properties :
#
#
# Convention : Reuss Voigt Hill
#
# Bulk Modulus (GPa) = 66.32358 69.44277 67.88318
# Shear Modulus (GPa) = 30.44470 37.47261 33.95865
#
# Velocity S-wave (km/s) = 3.68901 4.09271 3.89610
# Velocity P-wave (km/s) = 6.91316 7.30580 7.11219
#
# Compressibility (1/GPa) = 0.01507759
#
# Stress axis : x y z
#
# Youngs Moduli (GPa) = 100.83641 106.15360 113.98848
#
# Poissons Ratio (x) = 0.37707 0.41358
# Poissons Ratio (y) = 0.35818 -0.07570
# Poissons Ratio (z) = 0.36586 -0.07050
#
# Static dielectric constant tensor:
#      x y z
#    x 4.529340 0.000000 -0.387370 
#    y 0.000000 4.063910 0.000000 
#    z -0.387370 0.000000 4.517390 
# 
# 
# High freq. dielectric constant tensor:
#      x y z
#    x 1.892010 0.000000 -0.003160 
#    y 0.000000 1.893010 0.000000 
#    z -0.003160 0.000000 1.893980 
# 
# From -- ./inp_files/130127.got.cif
#   From: 2010.06.25/outbox.cif.g09.slc.cpg/sg15_66_cif.got.tgz:130127.got - 2010.06.28 07:06:18.
