data_PCOD8154106
_publ_section_title
;
Structure prediction by ZEFSAII (Michael W. Deem and Ramdas Pophale) SiO2 
 PCOD8154106
Probable space group: C 2/C
;
_chemical_formula_sum "Si O2"
_cell_formula_units_Z 48
_cell_length_a 27.600615
_cell_length_b 15.945044
_cell_length_c 14.634477
_cell_angle_alpha 90.000000
_cell_angle_beta 160.600552
_cell_angle_gamma 90.000000
_cell_volume 2139.235603
_symmetry_space_group_name_H-M "C 2/C"
_symmetry_group_IT_number 15
_symmetry_cell_setting 'monoclinic'
loop_
_space_group_symop_operation_xyz
x,y,z
-x,y,1/2-z
-x,-y,-z
x,-y,1/2+z
1/2+x,1/2+y,z
1/2-x,1/2+y,1/2-z
1/2-x,1/2-y,-z
1/2+x,1/2-y,1/2+z
loop_
_atom_site_type_symbol
_atom_site_label
_atom_site_fract_x
_atom_site_fract_y
_atom_site_fract_z
Si Si1 0.813025 0.175202 0.554772
Si Si2 0.000000 0.021216 0.250000
Si Si3 0.500000 0.989628 0.250000
Si Si4 0.702092 0.629128 0.477177
Si Si5 0.762940 0.109798 0.274700
Si Si6 0.366389 0.981285 0.694859
Si Si7 0.372651 0.718818 0.325488
O O1 0.750000 0.250000 0.500000
O O2 0.777207 0.175317 0.383766
O O3 0.746026 0.089531 0.473479
O O4 0.984633 0.188396 0.867709
O O5 0.093096 0.081619 0.350471
O O6 0.109411 0.960908 0.500162
O O7 0.608524 0.936298 0.506419
O O8 0.586373 0.042147 0.325492
O O9 0.772539 0.565816 0.530065
O O10 0.613800 0.696199 0.258055
O O11 0.829345 0.682131 0.757159
O O12 0.751385 0.164235 0.162024
O O13 0.500000 0.000000 0.000000
#
# Coordination Sequence:
#
# PCOD8154106 Si02
#       7
#     8   4   4   8   8   8   8
#     4  12  26  45  71 101 147 185 238 309 371 432
#     4  12  24  47  75 108 140 198 242 300 369 445
#     4  12  26  41  77 106 142 196 250 296 367 443
#     4  11  25  44  73 101 142 185 241 298 360 444
#     4  12  24  46  72 102 146 190 244 302 367 443
#     4  12  23  47  70 104 146 189 242 299 364 444
#     4  11  25  45  68 105 141 185 240 300 367 438
#
# _framework density 22.437920999999999
#
# number of rings (size 3 to 8) (size 9 to 14) (size 15 to 20)
#    0.000    0.333    6.667    1.000    2.333    3.333 
#    6.000    0.000    0.000    0.000    0.000    0.000 
#    0.000    0.000    0.000    0.000    0.000    0.000 
#
# Total GULP energy -297401.276526 kJ/mol
# GULP energy per Si atom -12391.719855 kJ/mol
# Density = 2.238685 g / cm^3
# Si number density = 22.437921 Si / 1000 Ang^3
#
#
#
# Elastic Constant Matrix: (Units=GPa)
#
#
# Indices 1 2 3 4 5 6 
#
# 1 137.7738 47.2193 14.9442 0.0000 -5.0068 0.0000
# 2 47.2193 126.8802 27.5153 0.0000 1.6516 0.0000
# 3 14.9442 27.5153 99.4382 0.0000 -4.5424 0.0000
# 4 0.0000 0.0000 0.0000 40.4080 0.0000 -0.4637
# 5 -5.0068 1.6516 -4.5424 0.0000 33.3810 0.0000
# 6 0.0000 0.0000 0.0000 -0.4637 0.0000 28.1682
#
#
#
# Elastic Compliance Matrix: (Units=1/GPa)
#
#
# Indices 1 2 3 4 5 6 
#
# 1 0.008397 -0.003067 -0.000351 0.000000 0.001363 0.000000
# 2 -0.003067 0.009522 -0.002230 0.000000 -0.001235 0.000000
# 3 -0.000351 -0.002230 0.010796 0.000000 0.001527 0.000000
# 4 0.000000 0.000000 0.000000 0.024752 0.000000 0.000408
# 5 0.001363 -0.001235 0.001527 0.000000 0.030431 0.000000
# 6 0.000000 0.000000 0.000000 0.000408 0.000000 0.035508
#
#
# Mechanical properties :
#
#
# Convention : Reuss Voigt Hill
#
# Bulk Modulus (GPa) = 57.40769 60.38328 58.89548
# Shear Modulus (GPa) = 36.62766 38.68566 37.65666
#
# Velocity S-wave (km/s) = 4.04468 4.15676 4.10110
# Velocity P-wave (km/s) = 6.88863 7.07162 6.98073
#
# Compressibility (1/GPa) = 0.01741927
#
# Stress axis : x y z
#
# Youngs Moduli (GPa) = 119.09136 105.01477 92.62513
#
# Poissons Ratio (x) = 0.32204 0.03252
# Poissons Ratio (y) = 0.36520 0.20660
# Poissons Ratio (z) = 0.04181 0.23423
#
# Static dielectric constant tensor:
#      x y z
#    x 3.685050 0.000000 -0.040460 
#    y 0.000000 4.356400 0.000000 
#    z -0.040460 0.000000 3.820300 
# 
# 
# High freq. dielectric constant tensor:
#      x y z
#    x 1.899510 0.000000 0.004530 
#    y 0.000000 1.882190 0.000000 
#    z 0.004530 0.000000 1.886580 
# 
# From -- ./inp_files/182564.got.cif
#   From: 2010.06.25/outbox.cif.g09.slc.cpg/sg15_92_cif.got.tgz:182564.got - 2010.06.28 07:06:18.
