data_PCOD8154806
_publ_section_title
;
Structure prediction by ZEFSAII (Michael W. Deem and Ramdas Pophale) SiO2 
 PCOD8154806
Probable space group: C 2/C
;
_chemical_formula_sum "Si O2"
_cell_formula_units_Z 48
_cell_length_a 8.753468
_cell_length_b 30.321086
_cell_length_c 9.903176
_cell_angle_alpha 90.000000
_cell_angle_beta 66.360153
_cell_angle_gamma 90.000000
_cell_volume 2407.879417
_symmetry_space_group_name_H-M "C 2/C"
_symmetry_group_IT_number 15
_symmetry_cell_setting 'monoclinic'
loop_
_space_group_symop_operation_xyz
x,y,z
-x,y,1/2-z
-x,-y,-z
x,-y,1/2+z
1/2+x,1/2+y,z
1/2-x,1/2+y,1/2-z
1/2-x,1/2-y,-z
1/2+x,1/2-y,1/2+z
loop_
_atom_site_type_symbol
_atom_site_label
_atom_site_fract_x
_atom_site_fract_y
_atom_site_fract_z
Si Si1 0.390049 0.285288 0.913933
Si Si2 0.801127 0.463838 0.469092
Si Si3 0.885201 0.785452 0.409963
Si Si4 0.810370 0.634389 0.974804
Si Si5 0.698613 0.037015 0.830504
Si Si6 0.307986 0.864381 0.157228
O O1 0.500000 0.267425 0.750000
O O2 0.250000 0.250000 0.000000
O O3 0.505377 0.296076 0.999378
O O4 0.300665 0.330874 0.902781
O O5 0.747492 0.414750 0.534053
O O6 0.724833 0.500660 0.595553
O O7 0.732777 0.473619 0.343298
O O8 0.000011 0.465416 0.398320
O O9 0.750000 0.750000 0.500000
O O10 0.802965 0.830710 0.387984
O O11 0.000000 0.765519 0.250000
O O12 0.790953 0.643972 0.822552
O O13 0.000363 0.641544 0.953967
O O14 0.753719 0.086043 0.856523
#
# Coordination Sequence:
#
# PCOD8154806 Si02
#       6
#     8   8   8   8   8   8
#     4  12  26  42  62  87 118 155 192 245 303 354
#     4   8  14  27  51  80 112 149 189 235 274 337
#     4  12  24  41  63  88 115 150 199 245 288 355
#     4   9  18  36  60  85 118 156 195 234 296 343
#     4   8  14  27  50  81 113 148 190 231 283 327
#     4   9  18  35  61  87 115 156 196 240 284 351
#
# _framework density 19.934553000000001
#
# number of rings (size 3 to 8) (size 9 to 14) (size 15 to 20)
#    0.000    2.333    1.667    4.000    2.333    0.000 
#    3.000    0.000    3.667    2.000    0.000    0.000 
#    0.000    0.000    0.000    0.000    0.000    0.000 
#
# Total GULP energy -297545.264618 kJ/mol
# GULP energy per Si atom -12397.719359 kJ/mol
# Density = 1.988918 g / cm^3
# Si number density = 19.934553 Si / 1000 Ang^3
#
#
#
# Elastic Constant Matrix: (Units=GPa)
#
#
# Indices 1 2 3 4 5 6 
#
# 1 87.2078 60.2147 39.5193 0.0000 11.9672 0.0000
# 2 60.2147 167.9690 67.4113 0.0000 3.7108 0.0000
# 3 39.5193 67.4113 106.4966 0.0000 -0.8869 0.0000
# 4 0.0000 0.0000 0.0000 29.8457 0.0000 0.9952
# 5 11.9672 3.7108 -0.8869 0.0000 24.9140 0.0000
# 6 0.0000 0.0000 0.0000 0.9952 0.0000 11.1886
#
#
#
# Elastic Compliance Matrix: (Units=1/GPa)
#
#
# Indices 1 2 3 4 5 6 
#
# 1 0.017336 -0.004605 -0.003583 0.000000 -0.007769 0.000000
# 2 -0.004605 0.009251 -0.004141 0.000000 0.000687 0.000000
# 3 -0.003583 -0.004141 0.013364 0.000000 0.002814 0.000000
# 4 0.000000 0.000000 0.000000 0.033605 0.000000 -0.002989
# 5 -0.007769 0.000687 0.002814 0.000000 0.043868 0.000000
# 6 0.000000 0.000000 0.000000 -0.002989 0.000000 0.089643
#
#
# Mechanical properties :
#
#
# Convention : Reuss Voigt Hill
#
# Bulk Modulus (GPa) = 65.38890 77.32933 71.35912
# Shear Modulus (GPa) = 21.11265 26.15819 23.63542
#
# Velocity S-wave (km/s) = 3.25791 3.62636 3.44706
# Velocity P-wave (km/s) = 6.85748 7.51065 7.19148
#
# Compressibility (1/GPa) = 0.01529311
#
# Stress axis : x y z
#
# Youngs Moduli (GPa) = 57.68186 108.09298 74.82604
#
# Poissons Ratio (x) = 0.49781 0.26809
# Poissons Ratio (y) = 0.26565 0.30988
# Poissons Ratio (z) = 0.20667 0.44764
#
# Static dielectric constant tensor:
#      x y z
#    x 3.295730 0.000000 0.264600 
#    y 0.000000 3.850570 0.000000 
#    z 0.264600 0.000000 3.513540 
# 
# 
# High freq. dielectric constant tensor:
#      x y z
#    x 1.762830 0.000000 0.003960 
#    y 0.000000 1.789140 0.000000 
#    z 0.003960 0.000000 1.755880 
# 
# From -- ./inp_files/80509.got.cif
#   From: 2010.06.25/outbox.cif.g09.slc.cpg/sg15_41_cif.got.tgz:80509.got - 2010.06.28 07:06:18.
