data_PCOD8154812
_publ_section_title
;
Structure prediction by ZEFSAII (Michael W. Deem and Ramdas Pophale) SiO2 
 PCOD8154812
Probable space group: C 2/C
;
_chemical_formula_sum "Si O2"
_cell_formula_units_Z 40
_cell_length_a 12.633292
_cell_length_b 24.559154
_cell_length_c 5.532228
_cell_angle_alpha 90.000000
_cell_angle_beta 96.709500
_cell_angle_gamma 90.000000
_cell_volume 1704.690020
_symmetry_space_group_name_H-M "C 2/C"
_symmetry_group_IT_number 15
_symmetry_cell_setting 'monoclinic'
loop_
_space_group_symop_operation_xyz
x,y,z
-x,y,1/2-z
-x,-y,-z
x,-y,1/2+z
1/2+x,1/2+y,z
1/2-x,1/2+y,1/2-z
1/2-x,1/2-y,-z
1/2+x,1/2-y,1/2+z
loop_
_atom_site_type_symbol
_atom_site_label
_atom_site_fract_x
_atom_site_fract_y
_atom_site_fract_z
Si Si1 0.347364 0.726318 0.874834
Si Si2 0.690188 0.369998 0.493528
Si Si3 0.000000 0.157248 0.250000
Si Si4 0.894623 0.656070 0.336627
Si Si5 0.000000 0.404572 0.250000
Si Si6 0.308623 0.032766 0.854681
O O1 0.309470 0.687046 0.650289
O O2 0.404170 0.779689 0.786829
O O3 0.250000 0.750000 0.000000
O O4 0.428122 0.695006 0.065518
O O5 0.577111 0.378973 0.600343
O O6 0.784468 0.368422 0.714816
O O7 0.714585 0.421511 0.330250
O O8 0.908508 0.635347 0.614452
O O9 0.000000 0.628787 0.250000
O O10 0.071927 0.442313 0.094313
O O11 0.294024 0.003451 0.591768
#
# Coordination Sequence:
#
# PCOD8154812 Si02
#       6
#     8   8   4   8   4   8
#     4  12  26  44  74 111 157 200 258 309 389 478
#     4  12  27  49  72 111 157 203 260 326 377 472
#     4  12  27  46  76 104 158 208 252 317 388 454
#     4  12  24  41  73 113 160 201 243 305 397 478
#     4  12  25  46  76 122 164 196 250 331 404 488
#     4  12  28  49  81 114 154 209 270 336 405 461
#
# _framework density 23.464676999999998
#
# number of rings (size 3 to 8) (size 9 to 14) (size 15 to 20)
#    0.000    0.000    4.000    6.000    5.600    0.000 
#    0.000    1.000    0.000    0.000    0.000    0.000 
#    0.000    0.000    0.000    0.000    0.000    0.000 
#
# Total GULP energy -247853.607360 kJ/mol
# GULP energy per Si atom -12392.680368 kJ/mol
# Density = 2.341127 g / cm^3
# Si number density = 23.464677 Si / 1000 Ang^3
#
#
#
# Elastic Constant Matrix: (Units=GPa)
#
#
# Indices 1 2 3 4 5 6 
#
# 1 186.5313 52.0697 51.5711 0.0000 -21.6168 0.0000
# 2 52.0697 125.7468 49.1858 0.0000 -20.5164 0.0000
# 3 51.5711 49.1858 125.8930 0.0000 0.3670 0.0000
# 4 0.0000 0.0000 0.0000 29.4666 0.0000 19.5219
# 5 -21.6168 -20.5164 0.3670 0.0000 44.9209 0.0000
# 6 0.0000 0.0000 0.0000 19.5219 0.0000 9.9263
#
#
#
# Elastic Compliance Matrix: (Units=1/GPa)
#
#
# Indices 1 2 3 4 5 6 
#
# 1 0.006671 -0.001506 -0.002151 0.000000 0.002540 0.000000
# 2 -0.001506 0.010646 -0.003555 0.000000 0.004167 0.000000
# 3 -0.002151 -0.003555 0.010221 0.000000 -0.002742 0.000000
# 4 0.000000 0.000000 0.000000 -0.112020 0.000000 0.220310
# 5 0.002540 0.004167 -0.002742 0.000000 0.025409 0.000000
# 6 0.000000 0.000000 0.000000 0.220310 0.000000 -0.332539
#
#
# Mechanical properties :
#
#
# Convention : Reuss Voigt Hill
#
# Bulk Modulus (GPa) = 76.25639 82.64714 79.45176
# Shear Modulus (GPa) = -13.41143 35.88572 11.23714
#
# Velocity S-wave (km/s) = -2.39332 3.91493 2.19074
# Velocity P-wave (km/s) = 4.99316 7.46552 6.35081
#
# Compressibility (1/GPa) = 0.01311366
#
# Stress axis : x y z
#
# Youngs Moduli (GPa) = 149.91024 93.92840 97.83440
#
# Poissons Ratio (x) = 0.14148 0.21049
# Poissons Ratio (y) = 0.22581 0.34776
# Poissons Ratio (z) = 0.32253 0.33388
#
# Static dielectric constant tensor:
#      x y z
#    x 4.573590 0.000000 -0.215510 
#    y 0.000000 4.170000 0.000000 
#    z -0.215510 0.000000 4.385800 
# 
# 
# High freq. dielectric constant tensor:
#      x y z
#    x 1.942970 0.000000 -0.009440 
#    y 0.000000 1.923760 0.000000 
#    z -0.009440 0.000000 1.933560 
# 
# From -- ./inp_files/5102.got.cif
#   From: 2010.06.25/outbox.cif.g09.slc.cpg/sg15_3_cif.got.tgz:5102.got - 2010.06.28 07:06:18.
