data_PCOD8154198
_publ_section_title
;
Structure prediction by ZEFSAII (Michael W. Deem and Ramdas Pophale) SiO2 
 PCOD8154198
Probable space group: C 2/C
;
_chemical_formula_sum "Si O2"
_cell_formula_units_Z 52
_cell_length_a 9.056454
_cell_length_b 11.634912
_cell_length_c 25.055391
_cell_angle_alpha 90.000000
_cell_angle_beta 63.544460
_cell_angle_gamma 90.000000
_cell_volume 2363.641005
_symmetry_space_group_name_H-M "C 2/C"
_symmetry_group_IT_number 15
_symmetry_cell_setting 'monoclinic'
loop_
_space_group_symop_operation_xyz
x,y,z
-x,y,1/2-z
-x,-y,-z
x,-y,1/2+z
1/2+x,1/2+y,z
1/2-x,1/2+y,1/2-z
1/2-x,1/2-y,-z
1/2+x,1/2-y,1/2+z
loop_
_atom_site_type_symbol
_atom_site_label
_atom_site_fract_x
_atom_site_fract_y
_atom_site_fract_z
Si Si1 0.042862 0.603419 0.350088
Si Si2 0.749541 0.762765 0.436675
Si Si3 0.251947 0.209394 0.767729
Si Si4 0.500000 0.553907 0.750000
Si Si5 0.403369 0.721642 0.439266
Si Si6 0.569282 0.135677 0.665401
Si Si7 0.189832 0.983910 0.618654
O O1 0.168560 0.667358 0.289847
O O2 0.133082 0.563790 0.390108
O O3 0.888872 0.682551 0.389117
O O4 0.984076 0.496157 0.324635
O O5 0.750000 0.750000 0.500000
O O6 0.572538 0.720773 0.444746
O O7 0.788238 0.891492 0.411110
O O8 0.149374 0.132618 0.744060
O O9 0.429391 0.221135 0.711290
O O10 0.269246 0.149612 0.823383
O O11 0.566702 0.480229 0.689370
O O12 0.250000 0.750000 0.500000
O O13 0.394919 0.827041 0.399901
O O14 0.384594 0.598461 0.414316
#
# Coordination Sequence:
#
# PCOD8154198 Si02
#       7
#     8   8   8   4   8   8   8
#     4  12  25  47  75 105 152 193 243 309 368 446
#     4  12  29  49  77 113 145 199 260 308 379 454
#     4  11  25  46  72 111 148 191 249 298 379 446
#     4  12  24  46  74 112 154 190 248 304 384 442
#     4  12  28  49  77 108 150 200 255 311 380 448
#     4  11  26  47  72 112 148 197 248 307 375 450
#     4  12  27  50  76 107 156 200 241 323 374 450
#
# _framework density 21.999957999999999
#
# number of rings (size 3 to 8) (size 9 to 14) (size 15 to 20)
#    0.000    0.308    6.154    0.923    6.462    3.077 
#    0.000    0.000    0.000    0.000    0.000    0.000 
#    0.000    0.000    0.000    0.000    0.000    0.000 
#
# Total GULP energy -322471.122814 kJ/mol
# GULP energy per Si atom -12402.735493 kJ/mol
# Density = 2.194988 g / cm^3
# Si number density = 21.999958 Si / 1000 Ang^3
#
#
#
# Elastic Constant Matrix: (Units=GPa)
#
#
# Indices 1 2 3 4 5 6 
#
# 1 118.7832 53.4530 47.9151 0.0000 9.5564 0.0000
# 2 53.4530 153.7230 71.0968 0.0000 -9.5369 0.0000
# 3 47.9151 71.0968 155.2214 0.0000 -0.9513 0.0000
# 4 0.0000 0.0000 0.0000 31.2301 0.0000 6.4625
# 5 9.5564 -9.5369 -0.9513 0.0000 35.9127 0.0000
# 6 0.0000 0.0000 0.0000 6.4625 0.0000 39.4883
#
#
#
# Elastic Compliance Matrix: (Units=1/GPa)
#
#
# Indices 1 2 3 4 5 6 
#
# 1 0.010922 -0.003125 -0.001963 0.000000 -0.003788 0.000000
# 2 -0.003125 0.009308 -0.003279 0.000000 0.003216 0.000000
# 3 -0.001963 -0.003279 0.008550 0.000000 -0.000122 0.000000
# 4 0.000000 0.000000 0.000000 0.033143 0.000000 -0.005424
# 5 -0.003788 0.003216 -0.000122 0.000000 0.029704 0.000000
# 6 0.000000 0.000000 0.000000 -0.005424 0.000000 0.026212
#
#
# Mechanical properties :
#
#
# Convention : Reuss Voigt Hill
#
# Bulk Modulus (GPa) = 83.02270 85.85081 84.43676
# Shear Modulus (GPa) = 36.07851 38.34375 37.21113
#
# Velocity S-wave (km/s) = 4.05400 4.17934 4.11715
# Velocity P-wave (km/s) = 7.72870 7.89918 7.81441
#
# Compressibility (1/GPa) = 0.01204490
#
# Stress axis : x y z
#
# Youngs Moduli (GPa) = 91.56222 107.43676 116.96366
#
# Poissons Ratio (x) = 0.33570 0.22965
# Poissons Ratio (y) = 0.28610 0.38353
# Poissons Ratio (z) = 0.17977 0.35229
#
# Static dielectric constant tensor:
#      x y z
#    x 4.353050 0.000000 0.078260 
#    y 0.000000 2.966280 0.000000 
#    z 0.078260 0.000000 4.013250 
# 
# 
# High freq. dielectric constant tensor:
#      x y z
#    x 1.886310 0.000000 0.003700 
#    y 0.000000 1.872370 0.000000 
#    z 0.003700 0.000000 1.868370 
# 
# From -- ./inp_files/287892.got.cif
#   From: 2010.06.25/outbox.cif.g09.slc.cpg/sg15_144_cif.got.tgz:287892.got - 2010.06.28 07:06:18.
