data_PCOD8154012
_publ_section_title
;
Structure prediction by ZEFSAII (Michael W. Deem and Ramdas Pophale) SiO2 
 PCOD8154012
Probable space group: C 2/C
;
_chemical_formula_sum "Si O2"
_cell_formula_units_Z 40
_cell_length_a 20.133007
_cell_length_b 12.003245
_cell_length_c 8.532038
_cell_angle_alpha 90.000000
_cell_angle_beta 59.306943
_cell_angle_gamma 90.000000
_cell_volume 1773.026319
_symmetry_space_group_name_H-M "C 2/C"
_symmetry_group_IT_number 15
_symmetry_cell_setting 'monoclinic'
loop_
_space_group_symop_operation_xyz
x,y,z
-x,y,1/2-z
-x,-y,-z
x,-y,1/2+z
1/2+x,1/2+y,z
1/2-x,1/2+y,1/2-z
1/2-x,1/2-y,-z
1/2+x,1/2-y,1/2+z
loop_
_atom_site_type_symbol
_atom_site_label
_atom_site_fract_x
_atom_site_fract_y
_atom_site_fract_z
Si Si1 0.848684 0.066295 0.101451
Si Si2 0.536672 0.718508 0.373950
Si Si3 0.172064 0.381123 0.790573
Si Si4 0.612658 0.652821 0.783640
Si Si5 0.418332 0.055321 0.798081
O O1 0.890159 0.139694 0.184636
O O2 0.758039 0.084346 0.228296
O O3 0.866075 0.936791 0.109202
O O4 0.880716 0.097790 0.893522
O O5 0.500000 0.690466 0.250000
O O6 0.474131 0.697093 0.585641
O O7 0.564656 0.847141 0.348959
O O8 0.172015 0.255862 0.724029
O O9 0.138891 0.463430 0.698889
O O10 0.119445 0.384669 0.007394
O O11 0.500000 0.999783 0.750000
#
# Coordination Sequence:
#
# PCOD8154012 Si02
#       5
#     8   8   8   8   8
#     4  12  28  45  76 107 152 188 246 303 364 435
#     4  11  24  48  74 104 145 195 242 297 357 434
#     4  12  27  47  76 109 150 189 245 303 370 425
#     4  12  26  48  70 110 145 197 244 293 369 435
#     4  11  25  46  74 108 146 191 247 295 363 433
#
# _framework density 22.560296999999998
#
# number of rings (size 3 to 8) (size 9 to 14) (size 15 to 20)
#    0.000    0.400    4.000    4.800    5.600    0.800 
#    0.000    0.000    0.000    0.000    0.000    0.000 
#    0.000    0.000    0.000    0.000    0.000    0.000 
#
# Total GULP energy -248138.719679 kJ/mol
# GULP energy per Si atom -12406.935984 kJ/mol
# Density = 2.250895 g / cm^3
# Si number density = 22.560297 Si / 1000 Ang^3
#
#
#
# Elastic Constant Matrix: (Units=GPa)
#
#
# Indices 1 2 3 4 5 6 
#
# 1 122.8992 43.9186 15.7574 0.0000 -0.0552 0.0000
# 2 43.9186 152.3416 21.8830 0.0000 25.5548 0.0000
# 3 15.7574 21.8830 105.9374 0.0000 7.3681 0.0000
# 4 0.0000 0.0000 0.0000 31.5299 0.0000 4.2194
# 5 -0.0552 25.5548 7.3681 0.0000 29.4214 0.0000
# 6 0.0000 0.0000 0.0000 4.2194 0.0000 18.8228
#
#
#
# Elastic Compliance Matrix: (Units=1/GPa)
#
#
# Indices 1 2 3 4 5 6 
#
# 1 0.009349 -0.003044 -0.000964 0.000000 0.002903 0.000000
# 2 -0.003044 0.008813 -0.000850 0.000000 -0.007448 0.000000
# 3 -0.000964 -0.000850 0.009879 0.000000 -0.001738 0.000000
# 4 0.000000 0.000000 0.000000 0.032697 0.000000 -0.007330
# 5 0.002903 -0.007448 -0.001738 0.000000 0.040898 0.000000
# 6 0.000000 0.000000 0.000000 -0.007330 0.000000 0.054770
#
#
# Mechanical properties :
#
#
# Convention : Reuss Voigt Hill
#
# Bulk Modulus (GPa) = 54.56406 60.47735 57.52070
# Shear Modulus (GPa) = 29.03082 35.92945 32.48014
#
# Velocity S-wave (km/s) = 3.59111 3.99506 3.79846
# Velocity P-wave (km/s) = 6.43686 6.93872 6.69250
#
# Compressibility (1/GPa) = 0.01832708
#
# Stress axis : x y z
#
# Youngs Moduli (GPa) = 106.95948 113.46757 101.22188
#
# Poissons Ratio (x) = 0.34537 0.09756
# Poissons Ratio (y) = 0.32556 0.08601
# Poissons Ratio (z) = 0.10309 0.09642
#
# Static dielectric constant tensor:
#      x y z
#    x 4.106070 0.000000 -0.069140 
#    y 0.000000 4.203200 0.000000 
#    z -0.069140 0.000000 4.003510 
# 
# 
# High freq. dielectric constant tensor:
#      x y z
#    x 1.894310 0.000000 -0.005920 
#    y 0.000000 1.901110 0.000000 
#    z -0.005920 0.000000 1.896580 
# 
# From -- ./inp_files/54051.got.cif
#   From: 2010.06.25/outbox.cif.g09.slc.cpg/sg15_28_cif.got.tgz:54051.got - 2010.06.28 07:06:18.
