data_PCOD8154585
_publ_section_title
;
Structure prediction by ZEFSAII (Michael W. Deem and Ramdas Pophale) SiO2 
 PCOD8154585
Probable space group: C 2/C
;
_chemical_formula_sum "Si O2"
_cell_formula_units_Z 32
_cell_length_a 14.421778
_cell_length_b 18.004577
_cell_length_c 10.527212
_cell_angle_alpha 90.000000
_cell_angle_beta 149.790542
_cell_angle_gamma 90.000000
_cell_volume 1375.382383
_symmetry_space_group_name_H-M "C 2/C"
_symmetry_group_IT_number 15
_symmetry_cell_setting 'monoclinic'
loop_
_space_group_symop_operation_xyz
x,y,z
-x,y,1/2-z
-x,-y,-z
x,-y,1/2+z
1/2+x,1/2+y,z
1/2-x,1/2+y,1/2-z
1/2-x,1/2-y,-z
1/2+x,1/2-y,1/2+z
loop_
_atom_site_type_symbol
_atom_site_label
_atom_site_fract_x
_atom_site_fract_y
_atom_site_fract_z
Si Si1 0.000000 0.611219 0.250000
Si Si2 0.135670 0.847561 0.662629
Si Si3 0.000000 0.908337 0.750000
Si Si4 0.699093 0.978941 0.791783
Si Si5 0.737108 0.718167 0.843981
O O1 0.836984 0.562142 0.117250
O O2 0.087780 0.662808 0.465648
O O3 0.208698 0.925987 0.701645
O O4 0.267728 0.779555 0.774366
O O5 0.110979 0.854501 0.785049
O O6 0.941492 0.832285 0.368028
O O7 0.844020 0.954975 0.489626
O O8 0.500000 0.000000 0.500000
O O9 0.750000 0.750000 0.000000
#
# Coordination Sequence:
#
# PCOD8154585 Si02
#       5
#     4   8   4   8   8
#     4  12  22  39  72  99 136 178 252 288 354 410
#     4  12  25  45  70 104 145 182 246 296 364 427
#     4  12  28  45  70 105 150 196 234 290 376 436
#     4  12  25  46  71 104 146 192 238 297 355 435
#     4  12  22  42  72 106 135 189 240 310 349 420
#
# _framework density 23.266258000000001
#
# number of rings (size 3 to 8) (size 9 to 14) (size 15 to 20)
#    0.000    0.000    5.000    5.250    0.000    1.000 
#    0.000    0.000    0.000    0.000    0.000    0.000 
#    0.000    0.000    0.000    0.000    0.000    0.000 
#
# Total GULP energy -198354.382488 kJ/mol
# GULP energy per Si atom -12397.148906 kJ/mol
# Density = 2.321330 g / cm^3
# Si number density = 23.266258 Si / 1000 Ang^3
#
#
#
# Elastic Constant Matrix: (Units=GPa)
#
#
# Indices 1 2 3 4 5 6 
#
# 1 168.2477 57.8206 15.6047 0.0000 1.4738 0.0000
# 2 57.8206 99.6020 45.5709 0.0000 -0.0860 0.0000
# 3 15.6047 45.5709 135.7373 0.0000 11.3985 0.0000
# 4 0.0000 0.0000 0.0000 41.0015 0.0000 12.8395
# 5 1.4738 -0.0860 11.3985 0.0000 31.3318 0.0000
# 6 0.0000 0.0000 0.0000 12.8395 0.0000 42.6677
#
#
#
# Elastic Compliance Matrix: (Units=1/GPa)
#
#
# Indices 1 2 3 4 5 6 
#
# 1 0.007494 -0.004704 0.000772 0.000000 -0.000646 0.000000
# 2 -0.004704 0.014887 -0.004620 0.000000 0.001943 0.000000
# 3 0.000772 -0.004620 0.009112 0.000000 -0.003364 0.000000
# 4 0.000000 0.000000 0.000000 0.026927 0.000000 -0.008103
# 5 -0.000646 0.001943 -0.003364 0.000000 0.033176 0.000000
# 6 0.000000 0.000000 0.000000 -0.008103 0.000000 0.025875
#
#
# Mechanical properties :
#
#
# Convention : Reuss Voigt Hill
#
# Bulk Modulus (GPa) = 69.50256 71.28661 70.39458
# Shear Modulus (GPa) = 35.87526 41.97292 38.92409
#
# Velocity S-wave (km/s) = 3.93102 4.25199 4.09465
# Velocity P-wave (km/s) = 7.10925 7.40350 7.25787
#
# Compressibility (1/GPa) = 0.01438796
#
# Stress axis : x y z
#
# Youngs Moduli (GPa) = 133.43263 67.17489 109.74532
#
# Poissons Ratio (x) = 0.31602 -0.08474
# Poissons Ratio (y) = 0.62773 0.50704
# Poissons Ratio (z) = -0.10303 0.31036
#
# Static dielectric constant tensor:
#      x y z
#    x 4.711120 0.000000 0.137100 
#    y 0.000000 4.630090 0.000000 
#    z 0.137100 0.000000 4.367760 
# 
# 
# High freq. dielectric constant tensor:
#      x y z
#    x 1.927490 0.000000 0.024480 
#    y 0.000000 1.926240 0.000000 
#    z 0.024480 0.000000 1.915350 
# 
# From -- ./inp_files/28652.got.cif
#   From: 2010.06.25/outbox.cif.g09.slc.cpg/sg15_15_cif.got.tgz:28652.got - 2010.06.28 07:06:18.
