data_PCOD8154306
_publ_section_title
;
Structure prediction by ZEFSAII (Michael W. Deem and Ramdas Pophale) SiO2 
 PCOD8154306
Probable space group: C 2/C
;
_chemical_formula_sum "Si O2"
_cell_formula_units_Z 56
_cell_length_a 10.617073
_cell_length_b 8.877164
_cell_length_c 27.319251
_cell_angle_alpha 90.000000
_cell_angle_beta 63.137348
_cell_angle_gamma 90.000000
_cell_volume 2296.982071
_symmetry_space_group_name_H-M "C 2/C"
_symmetry_group_IT_number 15
_symmetry_cell_setting 'monoclinic'
loop_
_space_group_symop_operation_xyz
x,y,z
-x,y,1/2-z
-x,-y,-z
x,-y,1/2+z
1/2+x,1/2+y,z
1/2-x,1/2+y,1/2-z
1/2-x,1/2-y,-z
1/2+x,1/2-y,1/2+z
loop_
_atom_site_type_symbol
_atom_site_label
_atom_site_fract_x
_atom_site_fract_y
_atom_site_fract_z
Si Si1 0.000000 0.853850 0.250000
Si Si2 0.270316 0.374926 0.358267
Si Si3 0.173273 0.915304 0.564965
Si Si4 0.500000 0.869759 0.250000
Si Si5 0.694023 0.707096 0.796846
Si Si6 0.758542 0.082204 0.554551
Si Si7 0.856206 0.933940 0.628199
Si Si8 0.023032 0.515527 0.349563
O O1 0.080405 0.935922 0.190905
O O2 0.133262 0.769204 0.252294
O O3 0.257908 0.456377 0.412600
O O4 0.264529 0.192123 0.363649
O O5 0.142802 0.399592 0.343795
O O6 0.187326 0.976745 0.507276
O O7 0.260446 0.762886 0.555730
O O8 0.013582 0.870661 0.607654
O O9 0.637114 0.758709 0.231418
O O10 0.481086 0.977524 0.300749
O O11 0.683710 0.534970 0.817686
O O12 0.596717 0.820786 0.845339
O O13 0.866237 0.038060 0.578323
O O14 0.607142 0.005580 0.591284
#
# Coordination Sequence:
#
# PCOD8154306 Si02
#       8
#     4   8   8   4   8   8   8   8
#     4  12  25  45  70 108 147 195 238 306 359 443
#     4  12  27  44  73 107 146 190 248 297 372 442
#     4  11  26  50  74 107 143 192 241 309 363 443
#     4  12  27  47  74 108 145 197 248 304 365 447
#     4  12  27  45  77 104 152 198 247 303 373 436
#     4  11  25  50  76 103 147 187 247 302 372 435
#     4  12  25  48  72 108 142 189 242 301 364 443
#     4  12  26  48  71 110 146 194 246 306 364 441
#
# _framework density 24.379816999999999
#
# number of rings (size 3 to 8) (size 9 to 14) (size 15 to 20)
#    0.000    0.286    5.714    2.571    2.000    1.714 
#    2.571    0.000    0.000    0.000    0.000    0.000 
#    0.000    0.000    0.000    0.000    0.000    0.000 
#
# Total GULP energy -346983.624102 kJ/mol
# GULP energy per Si atom -12392.272289 kJ/mol
# Density = 2.432433 g / cm^3
# Si number density = 24.379817 Si / 1000 Ang^3
#
#
#
# Elastic Constant Matrix: (Units=GPa)
#
#
# Indices 1 2 3 4 5 6 
#
# 1 134.0683 18.8641 31.4881 0.0000 3.4516 0.0000
# 2 18.8641 86.8493 23.0716 0.0000 7.1367 0.0000
# 3 31.4881 23.0716 111.7262 0.0000 0.4113 0.0000
# 4 0.0000 0.0000 0.0000 27.4192 0.0000 -2.0297
# 5 3.4516 7.1367 0.4113 0.0000 45.8181 0.0000
# 6 0.0000 0.0000 0.0000 -2.0297 0.0000 26.1809
#
#
#
# Elastic Compliance Matrix: (Units=1/GPa)
#
#
# Indices 1 2 3 4 5 6 
#
# 1 0.008116 -0.001187 -0.002041 0.000000 -0.000408 0.000000
# 2 -0.001187 0.012519 -0.002244 0.000000 -0.001840 0.000000
# 3 -0.002041 -0.002244 0.009987 0.000000 0.000414 0.000000
# 4 0.000000 0.000000 0.000000 0.036681 0.000000 0.002844
# 5 -0.000408 -0.001840 0.000414 0.000000 0.022139 0.000000
# 6 0.000000 0.000000 0.000000 0.002844 0.000000 0.038416
#
#
# Mechanical properties :
#
#
# Convention : Reuss Voigt Hill
#
# Bulk Modulus (GPa) = 50.81521 53.27682 52.04601
# Shear Modulus (GPa) = 34.39680 37.16496 35.78088
#
# Velocity S-wave (km/s) = 3.76023 3.90861 3.83514
# Velocity P-wave (km/s) = 6.30404 6.50153 6.40355
#
# Compressibility (1/GPa) = 0.01967915
#
# Stress axis : x y z
#
# Youngs Moduli (GPa) = 123.21795 79.87610 100.12605
#
# Poissons Ratio (x) = 0.09482 0.20432
# Poissons Ratio (y) = 0.14628 0.22467
# Poissons Ratio (z) = 0.25144 0.17924
#
# Static dielectric constant tensor:
#      x y z
#    x 4.680920 0.000000 0.027510 
#    y 0.000000 4.118270 0.000000 
#    z 0.027510 0.000000 4.381850 
# 
# 
# High freq. dielectric constant tensor:
#      x y z
#    x 1.990800 0.000000 0.001010 
#    y 0.000000 1.950540 0.000000 
#    z 0.001010 0.000000 1.965730 
# 
# From -- ./inp_files/291557.got.cif
#   From: 2010.06.25/outbox.cif.g09.slc.cpg/sg15_146_cif.got.tgz:291557.got - 2010.06.28 07:06:18.
