data_PCOD8154264
_publ_section_title
;
Structure prediction by ZEFSAII (Michael W. Deem and Ramdas Pophale) SiO2 
 PCOD8154264
Probable space group: C 2/C
;
_chemical_formula_sum "Si O2"
_cell_formula_units_Z 40
_cell_length_a 17.566285
_cell_length_b 13.202648
_cell_length_c 12.359200
_cell_angle_alpha 90.000000
_cell_angle_beta 141.318190
_cell_angle_gamma 90.000000
_cell_volume 1791.462713
_symmetry_space_group_name_H-M "C 2/C"
_symmetry_group_IT_number 15
_symmetry_cell_setting 'monoclinic'
loop_
_space_group_symop_operation_xyz
x,y,z
-x,y,1/2-z
-x,-y,-z
x,-y,1/2+z
1/2+x,1/2+y,z
1/2-x,1/2+y,1/2-z
1/2-x,1/2-y,-z
1/2+x,1/2-y,1/2+z
loop_
_atom_site_type_symbol
_atom_site_label
_atom_site_fract_x
_atom_site_fract_y
_atom_site_fract_z
Si Si1 0.380097 0.059473 0.333753
Si Si2 0.218641 0.167653 0.322943
Si Si3 0.385879 0.750272 0.700804
Si Si4 0.972673 0.115809 0.980837
Si Si5 0.711985 0.612435 0.548275
O O1 0.334144 0.125493 0.385207
O O2 0.412525 0.137755 0.275127
O O3 0.500000 0.000000 0.500000
O O4 0.278978 0.980858 0.180671
O O5 0.217765 0.282985 0.359215
O O6 0.199901 0.093570 0.406126
O O7 0.102651 0.169547 0.115602
O O8 0.500000 0.722719 0.750000
O O9 0.250000 0.750000 0.500000
O O10 0.383718 0.664122 0.791938
O O11 0.917945 0.129303 0.039915
O O12 0.000000 0.000000 0.000000
#
# Coordination Sequence:
#
# PCOD8154264 Si02
#       5
#     8   8   8   8   8
#     4  12  27  46  75 103 149 194 248 303 374 446
#     4  11  25  48  71 106 144 190 243 309 364 442
#     4  12  30  49  77 112 153 195 252 313 377 445
#     4  12  25  46  75 103 149 187 241 299 368 446
#     4  11  26  45  74 104 142 190 247 296 376 439
#
# _framework density 22.328122
#
# number of rings (size 3 to 8) (size 9 to 14) (size 15 to 20)
#    0.000    0.400    4.000    3.000    8.400    0.000 
#    0.000    0.000    0.000    0.000    0.000    0.000 
#    0.000    0.000    0.000    0.000    0.000    0.000 
#
# Total GULP energy -247944.755510 kJ/mol
# GULP energy per Si atom -12397.237776 kJ/mol
# Density = 2.227730 g / cm^3
# Si number density = 22.328122 Si / 1000 Ang^3
#
#
#
# Elastic Constant Matrix: (Units=GPa)
#
#
# Indices 1 2 3 4 5 6 
#
# 1 120.5199 6.8662 27.3084 0.0000 -4.4062 0.0000
# 2 6.8662 115.8936 37.8285 0.0000 -6.5953 0.0000
# 3 27.3084 37.8285 121.0715 0.0000 8.9165 0.0000
# 4 0.0000 0.0000 0.0000 30.1298 0.0000 1.2915
# 5 -4.4062 -6.5953 8.9165 0.0000 39.1163 0.0000
# 6 0.0000 0.0000 0.0000 1.2915 0.0000 41.5909
#
#
#
# Elastic Compliance Matrix: (Units=1/GPa)
#
#
# Indices 1 2 3 4 5 6 
#
# 1 0.008835 0.000281 -0.002194 0.000000 0.001543 0.000000
# 2 0.000281 0.009833 -0.003316 0.000000 0.002445 0.000000
# 3 -0.002194 -0.003316 0.010018 0.000000 -0.003090 0.000000
# 4 0.000000 0.000000 0.000000 0.033234 0.000000 -0.001032
# 5 0.001543 0.002445 -0.003090 0.000000 0.026855 0.000000
# 6 0.000000 0.000000 0.000000 -0.001032 0.000000 0.024076
#
#
# Mechanical properties :
#
#
# Convention : Reuss Voigt Hill
#
# Bulk Modulus (GPa) = 54.86137 55.72126 55.29131
# Shear Modulus (GPa) = 38.64408 41.19953 39.92180
#
# Velocity S-wave (km/s) = 4.16472 4.30022 4.23302
# Velocity P-wave (km/s) = 6.91017 7.04739 6.97912
#
# Compressibility (1/GPa) = 0.01822776
#
# Stress axis : x y z
#
# Youngs Moduli (GPa) = 113.18694 101.69361 99.82004
#
# Poissons Ratio (x) = -0.02853 0.21901
# Poissons Ratio (y) = -0.03175 0.33098
# Poissons Ratio (z) = 0.24834 0.33720
#
# Static dielectric constant tensor:
#      x y z
#    x 4.213500 0.000000 -0.141280 
#    y 0.000000 3.053280 0.000000 
#    z -0.141280 0.000000 4.673930 
# 
# 
# High freq. dielectric constant tensor:
#      x y z
#    x 1.892450 0.000000 -0.000680 
#    y 0.000000 1.894110 0.000000 
#    z -0.000680 0.000000 1.879750 
# 
# From -- ./inp_files/96642.got.cif
#   From: 2010.06.25/outbox.cif.g09.slc.cpg/sg15_49_cif.got.tgz:96642.got - 2010.06.28 07:06:18.
