data_PCOD8154525
_publ_section_title
;
Structure prediction by ZEFSAII (Michael W. Deem and Ramdas Pophale) SiO2 
 PCOD8154525
Probable space group: C 2/C
;
_chemical_formula_sum "Si O2"
_cell_formula_units_Z 40
_cell_length_a 11.443665
_cell_length_b 17.523881
_cell_length_c 9.162267
_cell_angle_alpha 90.000000
_cell_angle_beta 82.445918
_cell_angle_gamma 90.000000
_cell_volume 1821.431215
_symmetry_space_group_name_H-M "C 2/C"
_symmetry_group_IT_number 15
_symmetry_cell_setting 'monoclinic'
loop_
_space_group_symop_operation_xyz
x,y,z
-x,y,1/2-z
-x,-y,-z
x,-y,1/2+z
1/2+x,1/2+y,z
1/2-x,1/2+y,1/2-z
1/2-x,1/2-y,-z
1/2+x,1/2-y,1/2+z
loop_
_atom_site_type_symbol
_atom_site_label
_atom_site_fract_x
_atom_site_fract_y
_atom_site_fract_z
Si Si1 0.910420 0.449123 0.921184
Si Si2 0.312152 0.054832 0.720985
Si Si3 0.500000 0.810765 0.750000
Si Si4 0.063575 0.065202 0.892816
Si Si5 0.383853 0.729926 0.520727
Si Si6 0.500000 0.181529 0.750000
O O1 0.890135 0.483421 0.764546
O O2 0.946679 0.361950 0.889396
O O3 0.795690 0.448481 0.048108
O O4 0.000000 0.500000 0.000000
O O5 0.193731 0.040480 0.826968
O O6 0.381198 0.132161 0.749565
O O7 0.402583 0.759185 0.684388
O O8 0.081720 0.140657 0.987752
O O9 0.000000 0.082168 0.750000
O O10 0.000000 0.000000 0.000000
O O11 0.250000 0.750000 0.500000
O O12 0.477101 0.766599 0.394391
#
# Coordination Sequence:
#
# PCOD8154525 Si02
#       6
#     8   8   4   8   8   4
#     4  12  21  38  70 112 147 180 241 313 386 442
#     4  12  23  43  72 106 147 191 248 316 375 455
#     4  12  23  44  73 108 154 192 250 310 383 464
#     4  12  29  53  73 105 153 206 256 307 389 474
#     4  12  27  49  76 110 153 200 253 319 388 460
#     4  12  23  44  75 108 144 190 254 322 383 442
#
# _framework density 21.960753
#
# number of rings (size 3 to 8) (size 9 to 14) (size 15 to 20)
#    0.000    0.000    9.000    1.200    1.400    1.600 
#    3.600    3.000    0.000    0.000    0.000    0.000 
#    0.000    0.000    0.000    0.000    0.000    0.000 
#
# Total GULP energy -247802.713343 kJ/mol
# GULP energy per Si atom -12390.135667 kJ/mol
# Density = 2.191077 g / cm^3
# Si number density = 21.960753 Si / 1000 Ang^3
#
#
#
# Elastic Constant Matrix: (Units=GPa)
#
#
# Indices 1 2 3 4 5 6 
#
# 1 118.4251 48.3100 47.3865 0.0000 -3.7634 0.0000
# 2 48.3100 131.6843 48.5179 0.0000 -1.3106 0.0000
# 3 47.3865 48.5179 141.4934 0.0000 -5.8190 0.0000
# 4 0.0000 0.0000 0.0000 49.7697 0.0000 -4.2000
# 5 -3.7634 -1.3106 -5.8190 0.0000 47.1314 0.0000
# 6 0.0000 0.0000 0.0000 -4.2000 0.0000 27.8046
#
#
#
# Elastic Compliance Matrix: (Units=1/GPa)
#
#
# Indices 1 2 3 4 5 6 
#
# 1 0.010691 -0.002982 -0.002539 0.000000 0.000457 0.000000
# 2 -0.002982 0.009525 -0.002278 0.000000 -0.000254 0.000000
# 3 -0.002539 -0.002278 0.008732 0.000000 0.000812 0.000000
# 4 0.000000 0.000000 0.000000 0.020352 0.000000 0.003074
# 5 0.000457 -0.000254 0.000812 0.000000 0.021347 0.000000
# 6 0.000000 0.000000 0.000000 0.003074 0.000000 0.036430
#
#
# Mechanical properties :
#
#
# Convention : Reuss Voigt Hill
#
# Bulk Modulus (GPa) = 74.90576 75.55906 75.23241
# Shear Modulus (GPa) = 39.33145 41.43369 40.38257
#
# Velocity S-wave (km/s) = 4.23660 4.34835 4.29284
# Velocity P-wave (km/s) = 7.62330 7.72605 7.67485
#
# Compressibility (1/GPa) = 0.01335011
#
# Stress axis : x y z
#
# Youngs Moduli (GPa) = 93.53468 104.99098 114.51795
#
# Poissons Ratio (x) = 0.31310 0.29078
# Poissons Ratio (y) = 0.27893 0.26084
# Poissons Ratio (z) = 0.23750 0.23914
#
# Static dielectric constant tensor:
#      x y z
#    x 3.974330 0.000000 -0.221400 
#    y 0.000000 4.012420 0.000000 
#    z -0.221400 0.000000 4.266610 
# 
# 
# High freq. dielectric constant tensor:
#      x y z
#    x 1.852280 0.000000 -0.006690 
#    y 0.000000 1.865780 0.000000 
#    z -0.006690 0.000000 1.890320 
# 
# From -- ./inp_files/29265.got.cif
#   From: 2010.06.25/outbox.cif.g09.slc.cpg/sg15_15_cif.got.tgz:29265.got - 2010.06.28 07:06:18.
