data_PCOD8154449
_publ_section_title
;
Structure prediction by ZEFSAII (Michael W. Deem and Ramdas Pophale) SiO2 
 PCOD8154449
Probable space group: C 2/C
;
_chemical_formula_sum "Si O2"
_cell_formula_units_Z 32
_cell_length_a 9.247743
_cell_length_b 14.594461
_cell_length_c 9.367547
_cell_angle_alpha 90.000000
_cell_angle_beta 95.494023
_cell_angle_gamma 90.000000
_cell_volume 1258.490759
_symmetry_space_group_name_H-M "C 2/C"
_symmetry_group_IT_number 15
_symmetry_cell_setting 'monoclinic'
loop_
_space_group_symop_operation_xyz
x,y,z
-x,y,1/2-z
-x,-y,-z
x,-y,1/2+z
1/2+x,1/2+y,z
1/2-x,1/2+y,1/2-z
1/2-x,1/2-y,-z
1/2+x,1/2-y,1/2+z
loop_
_atom_site_type_symbol
_atom_site_label
_atom_site_fract_x
_atom_site_fract_y
_atom_site_fract_z
Si Si1 0.250090 0.654820 0.683940
Si Si2 0.625611 0.346684 0.610758
Si Si3 0.848921 0.539346 0.301793
Si Si4 0.810709 0.150012 0.997932
O O1 0.352738 0.660640 0.557050
O O2 0.164205 0.750706 0.691297
O O3 0.139580 0.569035 0.666238
O O4 0.345375 0.633285 0.834478
O O5 0.720742 0.430061 0.681125
O O6 0.453008 0.365831 0.611471
O O7 0.816756 0.584602 0.453203
O O8 0.000000 0.575735 0.250000
O O9 0.750000 0.250000 0.000000
#
# Coordination Sequence:
#
# PCOD8154449 Si02
#       4
#     8   8   8   8
#     4  11  27  47  80 107 153 195 251 311 374 448
#     4  11  27  50  77 110 150 198 252 309 381 444
#     4  12  29  48  76 115 151 199 256 305 375 451
#     4  12  27  47  77 108 151 200 247 310 377 441
#
# _framework density 25.427282999999999
#
# number of rings (size 3 to 8) (size 9 to 14) (size 15 to 20)
#    0.000    0.500    2.500    3.000   10.500    8.000 
#    0.000    0.000    0.000    0.000    0.000    0.000 
#    0.000    0.000    0.000    0.000    0.000    0.000 
#
# Total GULP energy -198387.210370 kJ/mol
# GULP energy per Si atom -12399.200648 kJ/mol
# Density = 2.536941 g / cm^3
# Si number density = 25.427283 Si / 1000 Ang^3
#
#
#
# Elastic Constant Matrix: (Units=GPa)
#
#
# Indices 1 2 3 4 5 6 
#
# 1 146.4489 36.5806 28.9757 0.0000 -1.4568 0.0000
# 2 36.5806 139.0184 24.2619 0.0000 -3.7622 0.0000
# 3 28.9757 24.2619 119.7037 0.0000 12.9492 0.0000
# 4 0.0000 0.0000 0.0000 38.2925 0.0000 -2.7885
# 5 -1.4568 -3.7622 12.9492 0.0000 29.9159 0.0000
# 6 0.0000 0.0000 0.0000 -2.7885 0.0000 23.7137
#
#
#
# Elastic Compliance Matrix: (Units=1/GPa)
#
#
# Indices 1 2 3 4 5 6 
#
# 1 0.007573 -0.001694 -0.001581 0.000000 0.000840 0.000000
# 2 -0.001694 0.007916 -0.001357 0.000000 0.001500 0.000000
# 3 -0.001581 -0.001357 0.009482 0.000000 -0.004352 0.000000
# 4 0.000000 0.000000 0.000000 0.026340 0.000000 0.003097
# 5 0.000840 0.001500 -0.004352 0.000000 0.035540 0.000000
# 6 0.000000 0.000000 0.000000 0.003097 0.000000 0.042534
#
#
# Mechanical properties :
#
#
# Convention : Reuss Voigt Hill
#
# Bulk Modulus (GPa) = 63.65918 64.97860 64.31889
# Shear Modulus (GPa) = 34.75001 39.40795 37.07898
#
# Velocity S-wave (km/s) = 3.70082 3.94106 3.82283
# Velocity P-wave (km/s) = 6.58419 6.80584 6.69593
#
# Compressibility (1/GPa) = 0.01570865
#
# Stress axis : x y z
#
# Youngs Moduli (GPa) = 132.05624 126.31938 105.45924
#
# Poissons Ratio (x) = 0.21399 0.16668
# Poissons Ratio (y) = 0.22371 0.14308
# Poissons Ratio (z) = 0.20872 0.17139
#
# Static dielectric constant tensor:
#      x y z
#    x 4.246160 0.000000 0.068810 
#    y 0.000000 4.570280 0.000000 
#    z 0.068810 0.000000 4.371230 
# 
# 
# High freq. dielectric constant tensor:
#      x y z
#    x 1.993450 0.000000 -0.015100 
#    y 0.000000 2.017090 0.000000 
#    z -0.015100 0.000000 2.053150 
# 
# From -- ./inp_files/75339.got.cif
#   From: 2010.06.25/outbox.cif.g09.slc.cpg/sg15_38_cif.got.tgz:75339.got - 2010.06.28 07:06:18.
