data_PCOD8154145
_publ_section_title
;
Structure prediction by ZEFSAII (Michael W. Deem and Ramdas Pophale) SiO2 
 PCOD8154145
Probable space group: C 2/C
;
_chemical_formula_sum "Si O2"
_cell_formula_units_Z 36
_cell_length_a 14.372231
_cell_length_b 13.111588
_cell_length_c 9.259459
_cell_angle_alpha 90.000000
_cell_angle_beta 82.400496
_cell_angle_gamma 90.000000
_cell_volume 1729.552303
_symmetry_space_group_name_H-M "C 2/C"
_symmetry_group_IT_number 15
_symmetry_cell_setting 'monoclinic'
loop_
_space_group_symop_operation_xyz
x,y,z
-x,y,1/2-z
-x,-y,-z
x,-y,1/2+z
1/2+x,1/2+y,z
1/2-x,1/2+y,1/2-z
1/2-x,1/2-y,-z
1/2+x,1/2-y,1/2+z
loop_
_atom_site_type_symbol
_atom_site_label
_atom_site_fract_x
_atom_site_fract_y
_atom_site_fract_z
Si Si1 0.500000 0.747406 0.750000
Si Si2 0.894262 0.580813 0.820171
Si Si3 0.856870 0.809390 0.798858
Si Si4 0.485470 0.381546 0.528126
Si Si5 0.153326 0.604380 0.345846
O O1 0.537553 0.675027 0.615438
O O2 0.413424 0.816193 0.720208
O O3 0.857475 0.688829 0.769811
O O4 0.831005 0.494010 0.758492
O O5 0.000000 0.561539 0.750000
O O6 0.890326 0.570502 0.993179
O O7 0.920877 0.832044 0.924762
O O8 0.752796 0.844175 0.855951
O O9 0.896778 0.867655 0.651440
O O10 0.500000 0.500000 0.500000
#
# Coordination Sequence:
#
# PCOD8154145 Si02
#       5
#     4   8   8   8   8
#     4  12  24  44  70 104 138 184 236 286 344 412
#     4  12  24  48  71  99 144 185 230 285 352 411
#     4  11  25  47  69 102 142 184 230 295 342 414
#     4  11  25  45  71  99 141 186 234 287 350 408
#     4  12  28  42  74 105 139 182 236 289 345 420
#
# _framework density 20.814636
#
# number of rings (size 3 to 8) (size 9 to 14) (size 15 to 20)
#    0.000    0.444    5.556    2.667    6.222    2.667 
#    0.000    0.000    0.000    0.000    0.000    0.000 
#    0.000    0.000    0.000    0.000    0.000    0.000 
#
# Total GULP energy -223348.483287 kJ/mol
# GULP energy per Si atom -12408.249071 kJ/mol
# Density = 2.076726 g / cm^3
# Si number density = 20.814636 Si / 1000 Ang^3
#
#
#
# Elastic Constant Matrix: (Units=GPa)
#
#
# Indices 1 2 3 4 5 6 
#
# 1 102.2478 11.3460 33.5298 0.0000 -6.2804 0.0000
# 2 11.3460 145.2012 48.6647 0.0000 7.4163 0.0000
# 3 33.5298 48.6647 155.1364 0.0000 6.1047 0.0000
# 4 0.0000 0.0000 0.0000 42.5253 0.0000 7.4072
# 5 -6.2804 7.4163 6.1047 0.0000 17.4103 0.0000
# 6 0.0000 0.0000 0.0000 7.4072 0.0000 32.1744
#
#
#
# Elastic Compliance Matrix: (Units=1/GPa)
#
#
# Indices 1 2 3 4 5 6 
#
# 1 0.010923 -0.000278 -0.002467 0.000000 0.004924 0.000000
# 2 -0.000278 0.007809 -0.002286 0.000000 -0.002625 0.000000
# 3 -0.002467 -0.002286 0.007801 0.000000 -0.002651 0.000000
# 4 0.000000 0.000000 0.000000 0.024498 0.000000 -0.005640
# 5 0.004924 -0.002625 -0.002651 0.000000 0.061261 0.000000
# 6 0.000000 0.000000 0.000000 -0.005640 0.000000 0.032379
#
#
# Mechanical properties :
#
#
# Convention : Reuss Voigt Hill
#
# Bulk Modulus (GPa) = 60.71931 65.51849 63.11890
# Shear Modulus (GPa) = 31.20648 39.02497 35.11572
#
# Velocity S-wave (km/s) = 3.87622 4.33469 4.11185
# Velocity P-wave (km/s) = 7.01914 7.52317 7.27552
#
# Compressibility (1/GPa) = 0.01646923
#
# Stress axis : x y z
#
# Youngs Moduli (GPa) = 91.55408 128.05668 128.19398
#
# Poissons Ratio (x) = 0.03561 0.31628
# Poissons Ratio (y) = 0.02546 0.29308
# Poissons Ratio (z) = 0.22588 0.29277
#
# Static dielectric constant tensor:
#      x y z
#    x 3.736890 0.000000 0.193560 
#    y 0.000000 4.017400 0.000000 
#    z 0.193560 0.000000 3.525200 
# 
# 
# High freq. dielectric constant tensor:
#      x y z
#    x 1.806530 0.000000 -0.001880 
#    y 0.000000 1.836220 0.000000 
#    z -0.001880 0.000000 1.830510 
# 
# From -- ./inp_files/37520.got.cif
#   From: 2010.06.25/outbox.cif.g09.slc.cpg/sg15_19_cif.got.tgz:37520.got - 2010.06.28 07:06:18.
