data_PCOD8154166
_publ_section_title
;
Structure prediction by ZEFSAII (Michael W. Deem and Ramdas Pophale) SiO2 
 PCOD8154166
Probable space group: C 2/C
;
_chemical_formula_sum "Si O2"
_cell_formula_units_Z 52
_cell_length_a 13.735766
_cell_length_b 5.906098
_cell_length_c 28.144979
_cell_angle_alpha 90.000000
_cell_angle_beta 106.357119
_cell_angle_gamma 90.000000
_cell_volume 2190.840510
_symmetry_space_group_name_H-M "C 2/C"
_symmetry_group_IT_number 15
_symmetry_cell_setting 'monoclinic'
loop_
_space_group_symop_operation_xyz
x,y,z
-x,y,1/2-z
-x,-y,-z
x,-y,1/2+z
1/2+x,1/2+y,z
1/2-x,1/2+y,1/2-z
1/2-x,1/2-y,-z
1/2+x,1/2-y,1/2+z
loop_
_atom_site_type_symbol
_atom_site_label
_atom_site_fract_x
_atom_site_fract_y
_atom_site_fract_z
Si Si1 0.197998 0.735150 0.124153
Si Si2 0.424055 0.134149 0.644436
Si Si3 0.535560 0.419287 0.587057
Si Si4 0.871713 0.282569 0.564264
Si Si5 0.500000 0.953382 0.750000
Si Si6 0.649040 0.896858 0.040117
Si Si7 0.299551 0.158992 0.268996
O O1 0.314550 0.752119 0.125735
O O2 0.139992 0.611556 0.073043
O O3 0.186625 0.610393 0.173145
O O4 0.140952 0.972173 0.118993
O O5 0.506864 0.284351 0.630250
O O6 0.421833 0.893358 0.617410
O O7 0.455522 0.113631 0.703145
O O8 0.441334 0.573538 0.558785
O O9 0.559262 0.269308 0.544251
O O10 0.758853 0.213356 0.562548
O O11 0.867950 0.453302 0.518087
O O12 0.591894 0.802007 0.741790
O O13 0.244232 0.408692 0.255083
#
# Coordination Sequence:
#
# PCOD8154166 Si02
#       7
#     8   8   8   8   4   8   8
#     4  12  27  48  77 109 154 199 252 324 381 470
#     4  12  27  49  75 109 152 194 265 313 391 466
#     4  12  25  46  77 105 149 201 248 315 388 460
#     4  11  25  46  73 113 147 201 249 320 382 475
#     4  12  28  50  80 110 150 210 254 330 394 470
#     4  11  25  45  76 109 154 194 255 310 393 462
#     4  12  30  51  82 115 157 207 263 325 394 463
#
# _framework density 23.735185000000001
#
# number of rings (size 3 to 8) (size 9 to 14) (size 15 to 20)
#    0.000    0.308    4.615    3.231    6.462    6.154 
#    0.000    0.000    0.000    0.000    0.000    0.000 
#    0.000    0.000    0.000    0.000    0.000    0.000 
#
# Total GULP energy -322251.592123 kJ/mol
# GULP energy per Si atom -12394.292005 kJ/mol
# Density = 2.368116 g / cm^3
# Si number density = 23.735185 Si / 1000 Ang^3
#
#
#
# Elastic Constant Matrix: (Units=GPa)
#
#
# Indices 1 2 3 4 5 6 
#
# 1 146.5876 38.5793 18.8474 0.0000 -16.8336 0.0000
# 2 38.5793 83.4759 18.8976 0.0000 -2.2277 0.0000
# 3 18.8474 18.8976 108.4085 0.0000 -10.0598 0.0000
# 4 0.0000 0.0000 0.0000 19.1038 0.0000 2.1421
# 5 -16.8336 -2.2277 -10.0598 0.0000 34.5813 0.0000
# 6 0.0000 0.0000 0.0000 2.1421 0.0000 37.5998
#
#
#
# Elastic Compliance Matrix: (Units=1/GPa)
#
#
# Indices 1 2 3 4 5 6 
#
# 1 0.008251 -0.003610 -0.000467 0.000000 0.003648 0.000000
# 2 -0.003610 0.014052 -0.001954 0.000000 -0.001421 0.000000
# 3 -0.000467 -0.001954 0.009880 0.000000 0.002521 0.000000
# 4 0.000000 0.000000 0.000000 0.052682 0.000000 -0.003001
# 5 0.003648 -0.001421 0.002521 0.000000 0.031335 0.000000
# 6 0.000000 0.000000 0.000000 -0.003001 0.000000 0.026767
#
#
# Mechanical properties :
#
#
# Convention : Reuss Voigt Hill
#
# Bulk Modulus (GPa) = 49.69653 54.56894 52.13274
# Shear Modulus (GPa) = 30.91455 35.73350 33.32402
#
# Velocity S-wave (km/s) = 3.61290 3.88430 3.75105
# Velocity P-wave (km/s) = 6.19576 6.56945 6.38534
#
# Compressibility (1/GPa) = 0.02012213
#
# Stress axis : x y z
#
# Youngs Moduli (GPa) = 121.19818 71.16207 101.21441
#
# Poissons Ratio (x) = 0.25691 0.04723
# Poissons Ratio (y) = 0.43756 0.19775
# Poissons Ratio (z) = 0.05655 0.13903
#
# Static dielectric constant tensor:
#      x y z
#    x 4.637370 0.000000 -0.193040 
#    y 0.000000 4.223810 0.000000 
#    z -0.193040 0.000000 4.280910 
# 
# 
# High freq. dielectric constant tensor:
#      x y z
#    x 1.974040 0.000000 -0.011340 
#    y 0.000000 1.922570 0.000000 
#    z -0.011340 0.000000 1.947750 
# 
# From -- ./inp_files/312313.got.cif
#   From: 2010.06.25/outbox.cif.g09.slc.cpg/sg15_157_cif.got.tgz:312313.got - 2010.06.28 07:06:18.
