data_PCOD8154020
_publ_section_title
;
Structure prediction by ZEFSAII (Michael W. Deem and Ramdas Pophale) SiO2 
 PCOD8154020
Probable space group: C 2/C
;
_chemical_formula_sum "Si O2"
_cell_formula_units_Z 32
_cell_length_a 27.327869
_cell_length_b 4.843673
_cell_length_c 9.286632
_cell_angle_alpha 90.000000
_cell_angle_beta 114.747947
_cell_angle_gamma 90.000000
_cell_volume 1116.349843
_symmetry_space_group_name_H-M "C 2/C"
_symmetry_group_IT_number 15
_symmetry_cell_setting 'monoclinic'
loop_
_space_group_symop_operation_xyz
x,y,z
-x,y,1/2-z
-x,-y,-z
x,-y,1/2+z
1/2+x,1/2+y,z
1/2-x,1/2+y,1/2-z
1/2-x,1/2-y,-z
1/2+x,1/2-y,1/2+z
loop_
_atom_site_type_symbol
_atom_site_label
_atom_site_fract_x
_atom_site_fract_y
_atom_site_fract_z
Si Si1 0.708599 0.554680 0.871402
Si Si2 0.410521 0.796811 0.557622
Si Si3 0.315122 0.825548 0.925338
Si Si4 0.553704 0.683057 0.574218
O O1 0.669192 0.718336 0.714650
O O2 0.749462 0.343670 0.839937
O O3 0.750000 0.750000 0.000000
O O4 0.668779 0.391057 0.929247
O O5 0.435285 0.743129 0.745003
O O6 0.404127 0.516254 0.457330
O O7 0.348324 0.896437 0.497714
O O8 0.446804 0.027780 0.516832
O O9 0.500000 0.500000 0.500000
#
# Coordination Sequence:
#
# PCOD8154020 Si02
#       4
#     8   8   8   8
#     4  11  24  48  75 110 172 220 275 331 410 489
#     4  12  30  54  89 124 171 216 293 348 420 523
#     4  11  27  46  78 118 161 228 276 343 408 489
#     4  12  29  57  88 125 166 224 275 362 440 511
#
# _framework density 28.664847999999999
#
# number of rings (size 3 to 8) (size 9 to 14) (size 15 to 20)
#    0.000    0.500    2.500    3.000    7.000    4.000 
#    0.000    0.000    0.000    0.000    0.000    0.000 
#    0.000    0.000    0.000    0.000    0.000    0.000 
#
# Total GULP energy -198396.786341 kJ/mol
# GULP energy per Si atom -12399.799146 kJ/mol
# Density = 2.859961 g / cm^3
# Si number density = 28.664848 Si / 1000 Ang^3
#
#
#
# Elastic Constant Matrix: (Units=GPa)
#
#
# Indices 1 2 3 4 5 6 
#
# 1 91.6148 2.8070 57.2100 0.0000 -8.4075 0.0000
# 2 2.8070 149.0408 122.8243 0.0000 -17.4463 0.0000
# 3 57.2100 122.8243 239.5226 0.0000 -19.5480 0.0000
# 4 0.0000 0.0000 0.0000 67.2420 0.0000 -4.7353
# 5 -8.4075 -17.4463 -19.5480 0.0000 44.5784 0.0000
# 6 0.0000 0.0000 0.0000 -4.7353 0.0000 60.0766
#
#
#
# Elastic Compliance Matrix: (Units=1/GPa)
#
#
# Indices 1 2 3 4 5 6 
#
# 1 0.014511 0.004651 -0.005683 0.000000 0.002065 0.000000
# 2 0.004651 0.013287 -0.007704 0.000000 0.002699 0.000000
# 3 -0.005683 -0.007704 0.009489 0.000000 0.000074 0.000000
# 4 0.000000 0.000000 0.000000 0.014955 0.000000 0.001179
# 5 0.002065 0.002699 0.000074 0.000000 0.023911 0.000000
# 6 0.000000 0.000000 0.000000 0.001179 0.000000 0.016738
#
#
# Mechanical properties :
#
#
# Convention : Reuss Voigt Hill
#
# Bulk Modulus (GPa) = 50.46384 93.98451 72.22417
# Shear Modulus (GPa) = 42.74754 54.20186 48.47470
#
# Velocity S-wave (km/s) = 3.86591 4.35315 4.11674
# Velocity P-wave (km/s) = 6.12944 7.62398 6.91719
#
# Compressibility (1/GPa) = 0.01981617
#
# Stress axis : x y z
#
# Youngs Moduli (GPa) = 68.91403 75.26275 105.38699
#
# Poissons Ratio (x) = -0.35008 0.59887
# Poissons Ratio (y) = -0.32055 0.81191
# Poissons Ratio (z) = 0.39161 0.57983
#
# Static dielectric constant tensor:
#      x y z
#    x 15.034340 0.000000 0.118340 
#    y 0.000000 5.104500 0.000000 
#    z 0.118340 0.000000 5.804810 
# 
# 
# High freq. dielectric constant tensor:
#      x y z
#    x 2.188630 0.000000 -0.018210 
#    y 0.000000 2.185730 0.000000 
#    z -0.018210 0.000000 2.169150 
# 
# From -- ./inp_files/68042.got.cif
#   From: 2010.06.25/outbox.cif.g09.slc.cpg/sg15_35_cif.got.tgz:68042.got - 2010.06.28 07:06:18.
