data_PCOD8154026
_publ_section_title
;
Structure prediction by ZEFSAII (Michael W. Deem and Ramdas Pophale) SiO2 
 PCOD8154026
Probable space group: C 2/C
;
_chemical_formula_sum "Si O2"
_cell_formula_units_Z 52
_cell_length_a 7.600472
_cell_length_b 12.149655
_cell_length_c 25.180585
_cell_angle_alpha 90.000000
_cell_angle_beta 105.184456
_cell_angle_gamma 90.000000
_cell_volume 2244.073388
_symmetry_space_group_name_H-M "C 2/C"
_symmetry_group_IT_number 15
_symmetry_cell_setting 'monoclinic'
loop_
_space_group_symop_operation_xyz
x,y,z
-x,y,1/2-z
-x,-y,-z
x,-y,1/2+z
1/2+x,1/2+y,z
1/2-x,1/2+y,1/2-z
1/2-x,1/2-y,-z
1/2+x,1/2-y,1/2+z
loop_
_atom_site_type_symbol
_atom_site_label
_atom_site_fract_x
_atom_site_fract_y
_atom_site_fract_z
Si Si1 0.450075 0.127901 0.991959
Si Si2 0.886821 0.958080 0.089167
Si Si3 0.500000 0.981573 0.750000
Si Si4 0.335932 0.199166 0.173095
Si Si5 0.320868 0.566267 0.706298
Si Si6 0.044729 0.201412 0.414857
Si Si7 0.090452 0.248909 0.603161
O O1 0.245186 0.124012 0.954070
O O2 0.569441 0.206241 0.962313
O O3 0.472702 0.184905 0.050167
O O4 0.500000 0.000000 0.000000
O O5 0.817065 0.974782 0.144458
O O6 0.069606 0.884541 0.101398
O O7 0.911268 0.075960 0.061976
O O8 0.624153 0.047352 0.718128
O O9 0.654128 0.910608 0.792008
O O10 0.336312 0.302783 0.211763
O O11 0.518647 0.203563 0.152579
O O12 0.156147 0.200642 0.123563
O O13 0.500000 0.514787 0.750000
O O14 0.194352 0.229388 0.382216
#
# Coordination Sequence:
#
# PCOD8154026 Si02
#       7
#     8   8   4   8   8   8   8
#     4  12  25  46  71 107 148 188 241 294 345 430
#     4  11  25  47  72 104 146 184 240 298 348 432
#     4  12  26  46  78 100 138 190 224 298 370 404
#     4  11  26  47  72 106 140 180 244 288 352 433
#     4  11  24  49  72 106 141 179 238 294 351 427
#     4  12  25  46  71 105 141 190 235 286 358 416
#     4  11  25  46  72 101 146 190 231 293 353 418
#
# _framework density 23.172148
#
# number of rings (size 3 to 8) (size 9 to 14) (size 15 to 20)
#    0.000    0.615    5.385    2.769    0.000    5.538 
#    4.154    0.000    0.000    0.000    0.000    0.000 
#    0.000    0.000    0.000    0.000    0.000    0.000 
#
# Total GULP energy -322193.645866 kJ/mol
# GULP energy per Si atom -12392.063303 kJ/mol
# Density = 2.311941 g / cm^3
# Si number density = 23.172148 Si / 1000 Ang^3
#
#
#
# Elastic Constant Matrix: (Units=GPa)
#
#
# Indices 1 2 3 4 5 6 
#
# 1 78.6152 33.3618 -9.7260 0.0000 -2.6262 0.0000
# 2 33.3618 128.0826 23.5139 0.0000 -25.7370 0.0000
# 3 -9.7260 23.5139 54.1226 0.0000 -4.2928 0.0000
# 4 0.0000 0.0000 0.0000 31.8273 0.0000 -2.9894
# 5 -2.6262 -25.7370 -4.2928 0.0000 22.1081 0.0000
# 6 0.0000 0.0000 0.0000 -2.9894 0.0000 30.6356
#
#
#
# Elastic Compliance Matrix: (Units=1/GPa)
#
#
# Indices 1 2 3 4 5 6 
#
# 1 0.015666 -0.005786 0.005020 0.000000 -0.003900 0.000000
# 2 -0.005786 0.013043 -0.005644 0.000000 0.013401 0.000000
# 3 0.005020 -0.005644 0.021691 0.000000 -0.001762 0.000000
# 4 0.000000 0.000000 0.000000 0.031710 0.000000 0.003094
# 5 -0.003900 0.013401 -0.001762 0.000000 0.060028 0.000000
# 6 0.000000 0.000000 0.000000 0.003094 0.000000 0.032944
#
#
# Mechanical properties :
#
#
# Convention : Reuss Voigt Hill
#
# Bulk Modulus (GPa) = 26.60919 39.45772 33.03346
# Shear Modulus (GPa) = 24.94655 31.15892 28.05274
#
# Velocity S-wave (km/s) = 3.28468 3.67095 3.48318
# Velocity P-wave (km/s) = 5.08858 5.91886 5.51936
#
# Compressibility (1/GPa) = 0.03758100
#
# Stress axis : x y z
#
# Youngs Moduli (GPa) = 63.83167 76.66711 46.10264
#
# Poissons Ratio (x) = 0.44357 -0.23142
# Poissons Ratio (y) = 0.36931 0.26018
# Poissons Ratio (z) = -0.32041 0.43267
#
# Static dielectric constant tensor:
#      x y z
#    x 4.236280 0.000000 0.038030 
#    y 0.000000 4.432860 0.000000 
#    z 0.038030 0.000000 4.243710 
# 
# 
# High freq. dielectric constant tensor:
#      x y z
#    x 1.915740 0.000000 0.006040 
#    y 0.000000 1.930440 0.000000 
#    z 0.006040 0.000000 1.912010 
# 
# From -- ./inp_files/287743.got.cif
#   From: 2010.06.25/outbox.cif.g09.slc.cpg/sg15_144_cif.got.tgz:287743.got - 2010.06.28 07:06:18.
