data_PCOD8154353
_publ_section_title
;
Structure prediction by ZEFSAII (Michael W. Deem and Ramdas Pophale) SiO2 
 PCOD8154353
Probable space group: C 2/C
;
_chemical_formula_sum "Si O2"
_cell_formula_units_Z 48
_cell_length_a 17.998927
_cell_length_b 12.893669
_cell_length_c 17.612821
_cell_angle_alpha 90.000000
_cell_angle_beta 148.019358
_cell_angle_gamma 90.000000
_cell_volume 2164.845238
_symmetry_space_group_name_H-M "C 2/C"
_symmetry_group_IT_number 15
_symmetry_cell_setting 'monoclinic'
loop_
_space_group_symop_operation_xyz
x,y,z
-x,y,1/2-z
-x,-y,-z
x,-y,1/2+z
1/2+x,1/2+y,z
1/2-x,1/2+y,1/2-z
1/2-x,1/2-y,-z
1/2+x,1/2-y,1/2+z
loop_
_atom_site_type_symbol
_atom_site_label
_atom_site_fract_x
_atom_site_fract_y
_atom_site_fract_z
Si Si1 0.668405 0.444866 0.978668
Si Si2 0.448127 0.239757 0.360556
Si Si3 0.282824 0.324175 0.958292
Si Si4 0.745448 0.706262 0.679283
Si Si5 0.880216 0.573343 0.923261
Si Si6 0.844242 0.921729 0.703899
O O1 0.750774 0.554572 0.057954
O O2 0.727637 0.360259 0.087886
O O3 0.503532 0.457953 0.849951
O O4 0.699707 0.404152 0.921359
O O5 0.549546 0.326695 0.412828
O O6 0.308192 0.219332 0.190783
O O7 0.402086 0.271708 0.405821
O O8 0.551971 0.140748 0.450545
O O9 0.250000 0.250000 0.000000
O O10 0.844985 0.643926 0.821292
O O11 0.819707 0.814652 0.725814
O O12 0.744153 0.513973 0.834940
O O13 0.000000 0.500000 0.000000
#
# Coordination Sequence:
#
# PCOD8154353 Si02
#       6
#     8   8   8   8   8   8
#     4  11  27  46  72 102 146 192 238 299 364 439
#     4  12  25  44  75 106 142 189 239 306 359 430
#     4  12  27  47  74 107 146 190 244 300 367 433
#     4  12  25  46  72 105 143 189 245 296 364 431
#     4  12  24  43  71 103 141 179 240 302 356 428
#     4  11  26  46  71 104 142 194 241 296 362 433
#
# _framework density 22.172487
#
# number of rings (size 3 to 8) (size 9 to 14) (size 15 to 20)
#    0.000    0.333    3.333    5.000    4.667    1.333 
#    0.000    1.667    0.000    0.000    0.000    0.000 
#    0.000    0.000    0.000    0.000    0.000    0.000 
#
# Total GULP energy -297619.608557 kJ/mol
# GULP energy per Si atom -12400.817023 kJ/mol
# Density = 2.212202 g / cm^3
# Si number density = 22.172487 Si / 1000 Ang^3
#
#
#
# Elastic Constant Matrix: (Units=GPa)
#
#
# Indices 1 2 3 4 5 6 
#
# 1 104.7480 34.3772 27.5261 0.0000 -5.1089 0.0000
# 2 34.3772 112.6950 26.1538 0.0000 -9.6245 0.0000
# 3 27.5261 26.1538 98.2173 -0.0001 -7.4684 0.0000
# 4 0.0000 0.0000 -0.0001 40.8450 -0.0001 -7.1799
# 5 -5.1089 -9.6245 -7.4684 -0.0001 37.4215 -0.0001
# 6 0.0000 0.0000 0.0000 -7.1799 -0.0001 37.5180
#
#
#
# Elastic Compliance Matrix: (Units=1/GPa)
#
#
# Indices 1 2 3 4 5 6 
#
# 1 0.011101 -0.002816 -0.002336 0.000000 0.000325 0.000000
# 2 -0.002816 0.010316 -0.001813 0.000000 0.001907 0.000000
# 3 -0.002336 -0.001813 0.011433 0.000000 0.001497 0.000000
# 4 0.000000 0.000000 0.000000 0.025335 0.000000 0.004848
# 5 0.000325 0.001907 0.001497 0.000000 0.027556 0.000000
# 6 0.000000 0.000000 0.000000 0.004848 0.000000 0.027582
#
#
# Mechanical properties :
#
#
# Convention : Reuss Voigt Hill
#
# Bulk Modulus (GPa) = 52.85737 54.64161 53.74949
# Shear Modulus (GPa) = 37.43639 38.33045 37.88342
#
# Velocity S-wave (km/s) = 4.11349 4.16232 4.13798
# Velocity P-wave (km/s) = 6.81557 6.91356 6.86474
#
# Compressibility (1/GPa) = 0.01891884
#
# Stress axis : x y z
#
# Youngs Moduli (GPa) = 90.08343 96.93534 87.46751
#
# Poissons Ratio (x) = 0.27300 0.20436
# Poissons Ratio (y) = 0.25370 0.15856
# Poissons Ratio (z) = 0.21048 0.17572
#
# Static dielectric constant tensor:
#      x y z
#    x 4.093620 0.000000 -0.024360 
#    y 0.000000 4.527860 0.000000 
#    z -0.024360 0.000000 4.061410 
# 
# 
# High freq. dielectric constant tensor:
#      x y z
#    x 1.882610 0.000000 0.001790 
#    y 0.000000 1.889980 0.000000 
#    z 0.001790 0.000000 1.876370 
# 
# From -- ./inp_files/211444.got.cif
#   From: 2010.06.25/outbox.cif.g09.slc.cpg/sg15_106_cif.got.tgz:211444.got - 2010.06.28 07:06:18.
