data_PCOD8154441
_publ_section_title
;
Structure prediction by ZEFSAII (Michael W. Deem and Ramdas Pophale) SiO2 
 PCOD8154441
Probable space group: C 2/C
;
_chemical_formula_sum "Si O2"
_cell_formula_units_Z 44
_cell_length_a 4.997574
_cell_length_b 25.468796
_cell_length_c 14.434736
_cell_angle_alpha 90.000000
_cell_angle_beta 96.546317
_cell_angle_gamma 90.000000
_cell_volume 1825.305787
_symmetry_space_group_name_H-M "C 2/C"
_symmetry_group_IT_number 15
_symmetry_cell_setting 'monoclinic'
loop_
_space_group_symop_operation_xyz
x,y,z
-x,y,1/2-z
-x,-y,-z
x,-y,1/2+z
1/2+x,1/2+y,z
1/2-x,1/2+y,1/2-z
1/2-x,1/2-y,-z
1/2+x,1/2-y,1/2+z
loop_
_atom_site_type_symbol
_atom_site_label
_atom_site_fract_x
_atom_site_fract_y
_atom_site_fract_z
Si Si1 0.629142 0.754554 0.655996
Si Si2 0.083922 0.928476 0.547777
Si Si3 0.077417 0.639535 0.060829
Si Si4 0.500000 0.890578 0.250000
Si Si5 0.364561 0.807024 0.377440
Si Si6 0.103557 0.035004 0.648921
O O1 0.500000 0.743459 0.750000
O O2 0.648269 0.816220 0.638141
O O3 0.933727 0.734889 0.661465
O O4 0.404253 0.720491 0.588505
O O5 0.291474 0.883208 0.579383
O O6 0.790805 0.907988 0.566475
O O7 0.097186 0.941200 0.437487
O O8 0.177543 0.977682 0.613660
O O9 0.054219 0.668439 0.962728
O O10 0.293165 0.852977 0.299288
O O11 0.639995 0.926847 0.333579
O O12 0.000000 0.031156 0.750000
#
# Coordination Sequence:
#
# PCOD8154441 Si02
#       6
#     8   8   8   4   8   8
#     4  12  25  43  67 103 140 179 233 283 338 420
#     4  11  27  47  71 103 144 180 237 284 351 420
#     4  12  25  46  70  98 142 190 220 284 355 415
#     4  12  24  42  76  98 140 174 238 286 354 386
#     4  12  24  43  69 102 136 180 234 288 341 405
#     4  11  27  45  74 105 136 184 236 297 343 415
#
# _framework density 24.105550000000001
#
# number of rings (size 3 to 8) (size 9 to 14) (size 15 to 20)
#    0.000    0.364    3.636    4.364    5.091    2.909 
#    0.000    0.000    0.000    0.000    0.000    0.000 
#    0.000    0.000    0.000    0.000    0.000    0.000 
#
# Total GULP energy -272652.315567 kJ/mol
# GULP energy per Si atom -12393.287071 kJ/mol
# Density = 2.405068 g / cm^3
# Si number density = 24.105550 Si / 1000 Ang^3
#
#
#
# Elastic Constant Matrix: (Units=GPa)
#
#
# Indices 1 2 3 4 5 6 
#
# 1 84.5326 31.2811 15.4642 0.0000 -0.1060 0.0000
# 2 31.2811 144.5246 42.1554 0.0000 11.1178 0.0000
# 3 15.4642 42.1554 62.7419 0.0000 4.8180 0.0000
# 4 0.0000 0.0000 0.0000 37.8796 0.0000 6.5424
# 5 -0.1060 11.1178 4.8180 0.0000 25.9123 0.0000
# 6 0.0000 0.0000 0.0000 6.5424 0.0000 28.0410
#
#
#
# Elastic Compliance Matrix: (Units=1/GPa)
#
#
# Indices 1 2 3 4 5 6 
#
# 1 0.013043 -0.002441 -0.001683 0.000000 0.001414 0.000000
# 2 -0.002441 0.009246 -0.005382 0.000000 -0.002976 0.000000
# 3 -0.001683 -0.005382 0.020079 0.000000 -0.001431 0.000000
# 4 0.000000 0.000000 0.000000 0.027508 0.000000 -0.006418
# 5 0.001414 -0.002976 -0.001431 0.000000 0.040141 0.000000
# 6 0.000000 0.000000 0.000000 -0.006418 0.000000 0.037160
#
#
# Mechanical properties :
#
#
# Convention : Reuss Voigt Hill
#
# Bulk Modulus (GPa) = 42.81620 52.17782 47.49701
# Shear Modulus (GPa) = 28.73979 31.89313 30.31646
#
# Velocity S-wave (km/s) = 3.45664 3.64134 3.55019
# Velocity P-wave (km/s) = 5.80790 6.27469 6.04580
#
# Compressibility (1/GPa) = 0.02335565
#
# Stress axis : x y z
#
# Youngs Moduli (GPa) = 76.67152 108.14976 49.80210
#
# Poissons Ratio (x) = 0.26396 0.08383
# Poissons Ratio (y) = 0.18713 0.26806
# Poissons Ratio (z) = 0.12906 0.58211
#
# Static dielectric constant tensor:
#      x y z
#    x 4.258090 0.000000 0.158610 
#    y 0.000000 4.572820 0.000000 
#    z 0.158610 0.000000 4.461190 
# 
# 
# High freq. dielectric constant tensor:
#      x y z
#    x 1.947180 0.000000 0.004790 
#    y 0.000000 1.974070 0.000000 
#    z 0.004790 0.000000 1.954150 
# 
# From -- ./inp_files/129449.got.cif
#   From: 2010.06.25/outbox.cif.g09.slc.cpg/sg15_65_cif.got.tgz:129449.got - 2010.06.28 07:06:18.
