data_PCOD8154643
_publ_section_title
;
Structure prediction by ZEFSAII (Michael W. Deem and Ramdas Pophale) SiO2 
 PCOD8154643
Probable space group: C 2/C
;
_chemical_formula_sum "Si O2"
_cell_formula_units_Z 48
_cell_length_a 9.812487
_cell_length_b 23.527131
_cell_length_c 17.363927
_cell_angle_alpha 90.000000
_cell_angle_beta 147.181314
_cell_angle_gamma 90.000000
_cell_volume 2172.606797
_symmetry_space_group_name_H-M "C 2/C"
_symmetry_group_IT_number 15
_symmetry_cell_setting 'monoclinic'
loop_
_space_group_symop_operation_xyz
x,y,z
-x,y,1/2-z
-x,-y,-z
x,-y,1/2+z
1/2+x,1/2+y,z
1/2-x,1/2+y,1/2-z
1/2-x,1/2-y,-z
1/2+x,1/2-y,1/2+z
loop_
_atom_site_type_symbol
_atom_site_label
_atom_site_fract_x
_atom_site_fract_y
_atom_site_fract_z
Si Si1 0.000000 0.528332 0.750000
Si Si2 0.259778 0.258268 0.414320
Si Si3 0.397345 0.612635 0.967276
Si Si4 0.772169 0.218197 0.590862
Si Si5 0.000000 0.001624 0.750000
Si Si6 0.715676 0.062105 0.241874
Si Si7 0.684270 0.403347 0.448559
O O1 0.175020 0.569232 0.884894
O O2 0.175853 0.491131 0.778984
O O3 0.250000 0.250000 0.500000
O O4 0.299413 0.323814 0.412912
O O5 0.499408 0.221550 0.500956
O O6 0.000000 0.237488 0.250000
O O7 0.497373 0.593748 0.931551
O O8 0.597123 0.607440 0.130581
O O9 0.750000 0.250000 0.500000
O O10 0.855829 0.153226 0.619542
O O11 0.000000 0.245768 0.750000
O O12 0.152026 0.040730 0.881598
O O13 0.189978 0.960411 0.795395
O O14 0.464846 0.098027 0.113672
#
# Coordination Sequence:
#
# PCOD8154643 Si02
#       7
#     4   8   8   8   4   8   8
#     4  12  22  44  72 100 144 186 246 282 356 430
#     4  12  29  49  75 110 150 190 245 313 376 436
#     4  12  25  46  76 102 143 195 240 288 369 442
#     4  12  27  47  80 107 144 192 250 308 366 441
#     4  12  26  46  68 110 152 182 242 300 364 412
#     4  12  26  43  73 109 141 191 239 299 348 442
#     4  12  25  46  74 106 141 190 244 294 363 434
#
# _framework density 22.093274999999998
#
# number of rings (size 3 to 8) (size 9 to 14) (size 15 to 20)
#    0.000    0.000    6.667    3.000    4.667    2.667 
#    0.000    0.000    0.000    0.000    0.000    0.000 
#    0.000    0.000    0.000    0.000    0.000    0.000 
#
# Total GULP energy -297712.440441 kJ/mol
# GULP energy per Si atom -12404.685018 kJ/mol
# Density = 2.204299 g / cm^3
# Si number density = 22.093275 Si / 1000 Ang^3
#
#
#
# Elastic Constant Matrix: (Units=GPa)
#
#
# Indices 1 2 3 4 5 6 
#
# 1 122.9177 17.5874 28.4071 -0.0042 -7.6949 -0.0008
# 2 17.5874 56.5501 6.0700 0.0259 -3.0993 -0.0134
# 3 28.4071 6.0700 153.3150 -0.0383 5.9374 -0.0181
# 4 -0.0042 0.0259 -0.0383 24.9791 -0.0192 3.2096
# 5 -7.6949 -3.0993 5.9374 -0.0192 39.9908 0.0003
# 6 -0.0008 -0.0134 -0.0181 3.2096 0.0003 40.6414
#
#
#
# Elastic Compliance Matrix: (Units=1/GPa)
#
#
# Indices 1 2 3 4 5 6 
#
# 1 0.008985 -0.002522 -0.001634 0.000003 0.001776 -0.000002
# 2 -0.002522 0.018555 -0.000306 -0.000020 0.000998 0.000008
# 3 -0.001634 -0.000306 0.006890 0.000009 -0.001361 0.000002
# 4 0.000003 -0.000020 0.000009 0.040444 0.000017 -0.003194
# 5 0.001776 0.000998 -0.001361 0.000017 0.025627 -0.000002
# 6 -0.000002 0.000008 0.000002 -0.003194 -0.000002 0.024858
#
#
# Mechanical properties :
#
#
# Convention : Reuss Voigt Hill
#
# Bulk Modulus (GPa) = 39.20435 48.54575 43.87505
# Shear Modulus (GPa) = 35.01781 39.83682 37.42731
#
# Velocity S-wave (km/s) = 3.98552 4.25092 4.12036
# Velocity P-wave (km/s) = 6.24201 6.79077 6.52216
#
# Compressibility (1/GPa) = 0.02550737
#
# Stress axis : x y z
#
# Youngs Moduli (GPa) = 111.29547 53.89308 145.13668
#
# Poissons Ratio (x) = 0.13590 0.23712
# Poissons Ratio (y) = 0.28065 0.04442
# Poissons Ratio (z) = 0.18183 0.01649
#
# Static dielectric constant tensor:
#      x y z
#    x 3.138510 -0.002810 0.383910 
#    y -0.002810 3.845220 0.000170 
#    z 0.383910 0.000170 4.029720 
# 
# 
# High freq. dielectric constant tensor:
#      x y z
#    x 1.876880 0.000000 0.003980 
#    y 0.000000 1.869750 -0.000010 
#    z 0.003980 -0.000010 1.885370 
# 
# From -- ./inp_files/139077.got.cif
#   From: 2010.06.25/outbox.cif.g09.slc.cpg/sg15_70_cif.got.tgz:139077.got - 2010.06.28 07:06:18.
