data_PCOD8154547
_publ_section_title
;
Structure prediction by ZEFSAII (Michael W. Deem and Ramdas Pophale) SiO2 
 PCOD8154547
Probable space group: C 2/C
;
_chemical_formula_sum "Si O2"
_cell_formula_units_Z 60
_cell_length_a 22.523511
_cell_length_b 11.627255
_cell_length_c 13.510298
_cell_angle_alpha 90.000000
_cell_angle_beta 131.565092
_cell_angle_gamma 90.000000
_cell_volume 2647.264553
_symmetry_space_group_name_H-M "C 2/C"
_symmetry_group_IT_number 15
_symmetry_cell_setting 'monoclinic'
loop_
_space_group_symop_operation_xyz
x,y,z
-x,y,1/2-z
-x,-y,-z
x,-y,1/2+z
1/2+x,1/2+y,z
1/2-x,1/2+y,1/2-z
1/2-x,1/2-y,-z
1/2+x,1/2-y,1/2+z
loop_
_atom_site_type_symbol
_atom_site_label
_atom_site_fract_x
_atom_site_fract_y
_atom_site_fract_z
Si Si1 0.803668 0.410062 0.186769
Si Si2 0.500000 0.555000 0.750000
Si Si3 0.243218 0.186994 0.890519
Si Si4 0.808012 0.821798 0.789858
Si Si5 0.427250 0.670094 0.852983
Si Si6 0.878726 0.025815 0.974238
Si Si7 0.922332 0.576401 0.418882
Si Si8 0.683265 0.949223 0.525731
O O1 0.841369 0.293261 0.273880
O O2 0.847212 0.518152 0.282646
O O3 0.709462 0.421204 0.106679
O O4 0.822685 0.407431 0.092537
O O5 0.487826 0.630372 0.835415
O O6 0.577134 0.480643 0.869567
O O7 0.249789 0.281559 0.812533
O O8 0.156928 0.132722 0.785764
O O9 0.309501 0.087553 0.956977
O O10 0.250000 0.250000 0.000000
O O11 0.761482 0.893388 0.657166
O O12 0.875135 0.901235 0.914816
O O13 0.440676 0.804839 0.884509
O O14 0.433932 0.606083 0.966066
O O15 0.895961 0.592495 0.504434
O O16 0.000000 0.500000 0.500000
#
# Coordination Sequence:
#
# PCOD8154547 Si02
#       8
#     8   4   8   8   8   8   8   8
#     4  12  25  45  77 106 142 191 239 302 366 438
#     4  12  30  44  74 110 142 202 244 304 358 440
#     4  12  22  39  76 103 139 189 241 298 353 437
#     4  12  21  43  74 109 139 182 242 301 364 427
#     4  12  24  49  67 102 150 188 243 300 363 429
#     4  12  25  48  76 109 146 189 247 303 368 429
#     4  12  27  47  71 103 148 194 238 301 366 430
#     4  12  23  44  69 111 139 184 246 297 364 434
#
# _framework density 22.664902999999999
#
# number of rings (size 3 to 8) (size 9 to 14) (size 15 to 20)
#    0.000    0.000    6.667    4.000    1.867    2.667 
#    0.000    0.000    0.000    0.000    0.000    0.000 
#    0.000    0.000    0.000    0.000    0.000    0.000 
#
# Total GULP energy -371998.078009 kJ/mol
# GULP energy per Si atom -12399.935934 kJ/mol
# Density = 2.261332 g / cm^3
# Si number density = 22.664903 Si / 1000 Ang^3
#
#
#
# Elastic Constant Matrix: (Units=GPa)
#
#
# Indices 1 2 3 4 5 6 
#
# 1 114.6181 20.3546 37.9634 0.0000 -23.7642 0.0000
# 2 20.3546 110.7617 37.0521 0.0000 -9.7599 0.0000
# 3 37.9634 37.0521 107.6950 0.0000 -16.8683 0.0000
# 4 0.0000 0.0000 0.0000 33.3905 0.0000 -5.7975
# 5 -23.7642 -9.7599 -16.8683 0.0000 44.9212 0.0000
# 6 0.0000 0.0000 0.0000 -5.7975 0.0000 32.3022
#
#
#
# Elastic Compliance Matrix: (Units=1/GPa)
#
#
# Indices 1 2 3 4 5 6 
#
# 1 0.010706 -0.000617 -0.002864 0.000000 0.004454 0.000000
# 2 -0.000617 0.010277 -0.003208 0.000000 0.000702 0.000000
# 3 -0.002864 -0.003208 0.011743 0.000000 0.002197 0.000000
# 4 0.000000 0.000000 0.000000 0.030912 0.000000 0.005548
# 5 0.004454 0.000702 0.002197 0.000000 0.025595 0.000000
# 6 0.000000 0.000000 0.000000 0.005548 0.000000 0.031953
#
#
# Mechanical properties :
#
#
# Convention : Reuss Voigt Hill
#
# Bulk Modulus (GPa) = 51.68615 58.20167 54.94391
# Shear Modulus (GPa) = 35.45725 37.96974 36.71350
#
# Velocity S-wave (km/s) = 3.95956 4.09744 4.02909
# Velocity P-wave (km/s) = 6.61499 6.93688 6.77785
#
# Compressibility (1/GPa) = 0.01934754
#
# Stress axis : x y z
#
# Youngs Moduli (GPa) = 93.40231 97.30608 85.15617
#
# Poissons Ratio (x) = 0.06003 0.24390
# Poissons Ratio (y) = 0.05762 0.27321
# Poissons Ratio (z) = 0.26752 0.31219
#
# Static dielectric constant tensor:
#      x y z
#    x 4.074190 0.000000 -0.266350 
#    y 0.000000 4.026260 0.000000 
#    z -0.266350 0.000000 4.196980 
# 
# 
# High freq. dielectric constant tensor:
#      x y z
#    x 1.891640 0.000000 -0.017750 
#    y 0.000000 1.902750 0.000000 
#    z -0.017750 0.000000 1.893010 
# 
# From -- ./inp_files/173167.got.cif
#   From: 2010.06.25/outbox.cif.g09.slc.cpg/sg15_87_cif.got.tgz:173167.got - 2010.06.28 07:06:18.
