data_PCOD8154481
_publ_section_title
;
Structure prediction by ZEFSAII (Michael W. Deem and Ramdas Pophale) SiO2 
 PCOD8154481
Probable space group: C 2/C
;
_chemical_formula_sum "Si O2"
_cell_formula_units_Z 48
_cell_length_a 23.471447
_cell_length_b 12.641825
_cell_length_c 18.020642
_cell_angle_alpha 90.000000
_cell_angle_beta 156.552530
_cell_angle_gamma 90.000000
_cell_volume 2127.662310
_symmetry_space_group_name_H-M "C 2/C"
_symmetry_group_IT_number 15
_symmetry_cell_setting 'monoclinic'
loop_
_space_group_symop_operation_xyz
x,y,z
-x,y,1/2-z
-x,-y,-z
x,-y,1/2+z
1/2+x,1/2+y,z
1/2-x,1/2+y,1/2-z
1/2-x,1/2-y,-z
1/2+x,1/2-y,1/2+z
loop_
_atom_site_type_symbol
_atom_site_label
_atom_site_fract_x
_atom_site_fract_y
_atom_site_fract_z
Si Si1 0.500000 0.783767 0.750000
Si Si2 0.050811 0.359205 0.424668
Si Si3 0.799024 0.542190 0.982559
Si Si4 0.930773 0.187707 0.813344
Si Si5 0.000000 0.178874 0.250000
Si Si6 0.234349 0.529925 0.898978
Si Si7 0.753030 0.651870 0.199443
O O1 0.394718 0.856410 0.574577
O O2 0.417462 0.708857 0.709166
O O3 0.130701 0.433934 0.460670
O O4 0.005075 0.250411 0.330133
O O5 0.163293 0.347350 0.624190
O O6 0.907506 0.404363 0.290141
O O7 0.641175 0.570315 0.760969
O O8 0.801039 0.544344 0.074034
O O9 0.839829 0.274147 0.748082
O O10 0.095490 0.191155 0.034719
O O11 0.139119 0.105714 0.421168
O O12 0.269715 0.462065 0.867679
#
# Coordination Sequence:
#
# PCOD8154481 Si02
#       7
#     4   8   8   8   4   8   8
#     4  12  19  43  70 104 134 184 231 277 364 440
#     4  12  27  46  74 100 142 195 244 298 360 424
#     4  12  22  43  74 100 138 185 238 289 359 433
#     4  12  25  43  72 109 147 182 230 296 371 436
#     4  12  27  47  74 100 140 200 251 293 350 444
#     4  12  24  47  72 103 143 188 250 295 356 428
#     4  12  28  44  72 113 147 187 236 304 365 429
#
# _framework density 22.55997
#
# number of rings (size 3 to 8) (size 9 to 14) (size 15 to 20)
#    0.000    0.000    6.667    3.500    2.333    2.000 
#    0.000    0.000    0.000    0.000    0.000    0.000 
#    0.000    0.000    0.000    0.000    0.000    0.000 
#
# Total GULP energy -297490.363599 kJ/mol
# GULP energy per Si atom -12395.431817 kJ/mol
# Density = 2.250862 g / cm^3
# Si number density = 22.559970 Si / 1000 Ang^3
#
#
#
# Elastic Constant Matrix: (Units=GPa)
#
#
# Indices 1 2 3 4 5 6 
#
# 1 61.7788 28.7747 45.3263 0.0001 -6.7222 0.0000
# 2 28.7747 95.5079 55.9826 0.0000 2.8963 0.0000
# 3 45.3263 55.9826 191.4257 0.0001 8.9595 0.0001
# 4 0.0001 0.0000 0.0001 -2.9346 0.0001 -16.8445
# 5 -6.7222 2.8963 8.9595 0.0001 45.8134 0.0001
# 6 0.0000 0.0000 0.0001 -16.8445 0.0001 -5.9090
#
#
#
# Elastic Compliance Matrix: (Units=1/GPa)
#
#
# Indices 1 2 3 4 5 6 
#
# 1 0.021617 -0.004254 -0.004073 0.000000 0.004237 0.000000
# 2 -0.004254 0.013474 -0.002891 0.000000 -0.000911 0.000000
# 3 -0.004073 -0.002891 0.007118 0.000000 -0.001807 0.000000
# 4 0.000000 0.000000 0.000000 0.022181 0.000000 -0.063231
# 5 0.004237 -0.000911 -0.001807 0.000000 0.022860 0.000000
# 6 0.000000 0.000000 0.000000 -0.063231 0.000000 0.011016
#
#
# Mechanical properties :
#
#
# Convention : Reuss Voigt Hill
#
# Bulk Modulus (GPa) = 50.56973 67.65331 59.11152
# Shear Modulus (GPa) = 39.27933 21.96922 30.62428
#
# Velocity S-wave (km/s) = 4.17718 3.12398 3.68837
# Velocity P-wave (km/s) = 6.76236 6.56245 6.66315
#
# Compressibility (1/GPa) = 0.01977468
#
# Stress axis : x y z
#
# Youngs Moduli (GPa) = 46.25885 74.21734 140.48380
#
# Poissons Ratio (x) = 0.31573 0.57217
# Poissons Ratio (y) = 0.19679 0.40607
# Poissons Ratio (z) = 0.18841 0.21453
#
# Static dielectric constant tensor:
#      x y z
#    x 4.097070 0.000000 0.130460 
#    y 0.000000 4.098940 0.000000 
#    z 0.130460 0.000000 4.427610 
# 
# 
# High freq. dielectric constant tensor:
#      x y z
#    x 1.878780 0.000000 0.015110 
#    y 0.000000 1.889960 0.000000 
#    z 0.015110 0.000000 1.911800 
# 
# From -- ./inp_files/257605.got.cif
#   From: 2010.06.25/outbox.cif.g09.slc.cpg/sg15_129_cif.got.tgz:257605.got - 2010.06.28 07:06:18.
