data_PCOD8154469
_publ_section_title
;
Structure prediction by ZEFSAII (Michael W. Deem and Ramdas Pophale) SiO2 
 PCOD8154469
Probable space group: C 2/C
;
_chemical_formula_sum "Si O2"
_cell_formula_units_Z 40
_cell_length_a 18.693249
_cell_length_b 5.101011
_cell_length_c 24.306703
_cell_angle_alpha 90.000000
_cell_angle_beta 136.984372
_cell_angle_gamma 90.000000
_cell_volume 1581.165872
_symmetry_space_group_name_H-M "C 2/C"
_symmetry_group_IT_number 15
_symmetry_cell_setting 'monoclinic'
loop_
_space_group_symop_operation_xyz
x,y,z
-x,y,1/2-z
-x,-y,-z
x,-y,1/2+z
1/2+x,1/2+y,z
1/2-x,1/2+y,1/2-z
1/2-x,1/2-y,-z
1/2+x,1/2-y,1/2+z
loop_
_atom_site_type_symbol
_atom_site_label
_atom_site_fract_x
_atom_site_fract_y
_atom_site_fract_z
Si Si1 0.215561 0.220775 0.542733
Si Si2 0.468430 0.282236 0.319345
Si Si3 0.167588 0.218380 0.859696
Si Si4 0.317588 0.387941 0.790912
Si Si5 0.488123 0.105325 0.933070
O O1 0.250000 0.250000 0.500000
O O2 0.271095 0.442685 0.612065
O O3 0.090158 0.228377 0.474857
O O4 0.245889 0.933091 0.579060
O O5 0.392730 0.175769 0.228223
O O6 0.586209 0.317955 0.364454
O O7 0.412465 0.562544 0.300534
O O8 0.466100 0.108608 0.373011
O O9 0.261273 0.661797 0.774307
O O10 0.382494 0.282480 0.879914
O O11 0.500000 0.000000 0.000000
#
# Coordination Sequence:
#
# PCOD8154469 Si02
#       5
#     8   8   8   8   8
#     4  12  26  50  80 116 157 203 252 326 396 462
#     4  11  27  51  77 115 154 202 272 318 384 478
#     4  11  28  46  84 113 151 206 259 323 392 463
#     4  12  28  50  78 104 153 207 255 315 387 474
#     4  12  30  49  80 116 163 203 265 325 397 469
#
# _framework density 25.297787
#
# number of rings (size 3 to 8) (size 9 to 14) (size 15 to 20)
#    0.000    0.400    4.000    1.800    8.400    4.000 
#    0.000    0.000    0.000    0.000    0.000    0.000 
#    0.000    0.000    0.000    0.000    0.000    0.000 
#
# Total GULP energy -247889.805946 kJ/mol
# GULP energy per Si atom -12394.490297 kJ/mol
# Density = 2.524021 g / cm^3
# Si number density = 25.297787 Si / 1000 Ang^3
#
#
#
# Elastic Constant Matrix: (Units=GPa)
#
#
# Indices 1 2 3 4 5 6 
#
# 1 99.9092 49.7178 64.5656 0.0097 4.2691 0.0464
# 2 49.7178 145.6571 54.9973 0.0583 18.3502 0.1166
# 3 64.5656 54.9973 137.0688 0.0256 16.7436 0.0301
# 4 0.0097 0.0583 0.0256 26.8358 -0.0240 6.2142
# 5 4.2691 18.3502 16.7436 -0.0240 56.4358 -0.0245
# 6 0.0464 0.1166 0.0301 6.2142 -0.0245 40.6005
#
#
#
# Elastic Compliance Matrix: (Units=1/GPa)
#
#
# Indices 1 2 3 4 5 6 
#
# 1 0.015561 -0.003159 -0.006271 0.000010 0.001711 -0.000005
# 2 -0.003159 0.008899 -0.001824 -0.000014 -0.002113 -0.000020
# 3 -0.006271 -0.001824 0.011259 -0.000007 -0.002273 0.000004
# 4 0.000010 -0.000014 -0.000007 0.038633 0.000020 -0.005913
# 5 0.001711 -0.002113 -0.002273 0.000020 0.018951 0.000014
# 6 -0.000005 -0.000020 0.000004 -0.005913 0.000014 0.025535
#
#
# Mechanical properties :
#
#
# Convention : Reuss Voigt Hill
#
# Bulk Modulus (GPa) = 75.70252 80.13292 77.91772
# Shear Modulus (GPa) = 34.30508 38.99804 36.65156
#
# Velocity S-wave (km/s) = 3.68645 3.93053 3.81045
# Velocity P-wave (km/s) = 6.93610 7.23487 7.08706
#
# Compressibility (1/GPa) = 0.01320960
#
# Stress axis : x y z
#
# Youngs Moduli (GPa) = 64.26411 112.37441 88.81542
#
# Poissons Ratio (x) = 0.35499 0.55699
# Poissons Ratio (y) = 0.20301 0.16203
# Poissons Ratio (z) = 0.40302 0.20501
#
# Static dielectric constant tensor:
#      x y z
#    x 4.680870 -0.000140 0.132420 
#    y -0.000140 4.614260 -0.000010 
#    z 0.132420 -0.000010 4.967080 
# 
# 
# High freq. dielectric constant tensor:
#      x y z
#    x 2.016760 -0.000010 0.017750 
#    y -0.000010 2.006810 0.000000 
#    z 0.017750 0.000000 2.033940 
# 
# From -- ./inp_files/300013.got.cif
#   From: 2010.06.25/outbox.cif.g09.slc.cpg/sg15_151_cif.got.tgz:300013.got - 2010.06.28 07:06:18.
