data_PCOD8154021
_publ_section_title
;
Structure prediction by ZEFSAII (Michael W. Deem and Ramdas Pophale) SiO2 
 PCOD8154021
Probable space group: C 2/C
;
_chemical_formula_sum "Si O2"
_cell_formula_units_Z 60
_cell_length_a 10.967258
_cell_length_b 9.352761
_cell_length_c 27.759681
_cell_angle_alpha 90.000000
_cell_angle_beta 107.317690
_cell_angle_gamma 90.000000
_cell_volume 2718.348670
_symmetry_space_group_name_H-M "C 2/C"
_symmetry_group_IT_number 15
_symmetry_cell_setting 'monoclinic'
loop_
_space_group_symop_operation_xyz
x,y,z
-x,y,1/2-z
-x,-y,-z
x,-y,1/2+z
1/2+x,1/2+y,z
1/2-x,1/2+y,1/2-z
1/2-x,1/2-y,-z
1/2+x,1/2-y,1/2+z
loop_
_atom_site_type_symbol
_atom_site_label
_atom_site_fract_x
_atom_site_fract_y
_atom_site_fract_z
Si Si1 0.086314 0.745225 0.355479
Si Si2 0.619270 0.786335 0.127767
Si Si3 0.011877 0.449963 0.934183
Si Si4 0.912681 0.943417 0.616835
Si Si5 0.196880 0.390240 0.236731
Si Si6 0.640505 0.626235 0.284372
Si Si7 0.500000 0.894976 0.750000
Si Si8 0.694990 0.110462 0.019112
O O1 0.238719 0.742112 0.369903
O O2 0.040213 0.632838 0.389159
O O3 0.034201 0.901060 0.363467
O O4 0.020401 0.706157 0.297798
O O5 0.569975 0.908269 0.086359
O O6 0.530672 0.648081 0.111468
O O7 0.610677 0.840609 0.181650
O O8 0.926904 0.353695 0.960782
O O9 0.146772 0.495613 0.973943
O O10 0.847643 0.871673 0.656492
O O11 0.807801 0.959943 0.563136
O O12 0.323172 0.468899 0.231263
O O13 0.232584 0.251406 0.273544
O O14 0.123100 0.504579 0.260238
O O15 0.500000 0.665675 0.250000
O O16 0.750000 0.250000 0.000000
#
# Coordination Sequence:
#
# PCOD8154021 Si02
#       8
#     8   8   8   8   8   8   4   8
#     4  12  28  47  72 110 146 189 246 298 355 440
#     4  12  23  50  69 101 149 187 231 300 356 428
#     4  11  25  49  79 105 144 188 242 304 364 429
#     4  12  26  46  70 105 146 185 243 300 363 430
#     4  12  24  46  70 101 145 192 241 294 352 428
#     4  12  26  45  69 101 146 190 240 295 358 429
#     4  12  26  44  74 106 148 198 240 288 372 428
#     4  11  24  48  80 106 141 192 238 306 374 425
#
# _framework density 22.072223999999999
#
# number of rings (size 3 to 8) (size 9 to 14) (size 15 to 20)
#    0.000    0.267    7.333    0.800    0.933    1.600 
#    0.000    1.333    0.000    0.000    0.000    0.000 
#    0.000    0.000    0.000    0.000    0.000    0.000 
#
# Total GULP energy -372137.813138 kJ/mol
# GULP energy per Si atom -12404.593771 kJ/mol
# Density = 2.202199 g / cm^3
# Si number density = 22.072224 Si / 1000 Ang^3
#
#
#
# Elastic Constant Matrix: (Units=GPa)
#
#
# Indices 1 2 3 4 5 6 
#
# 1 92.4869 60.8156 31.9870 0.0000 -11.7926 0.0000
# 2 60.8156 129.7306 60.2617 0.0000 0.7948 0.0000
# 3 31.9870 60.2617 136.8846 0.0000 -4.5111 0.0000
# 4 0.0000 0.0000 0.0000 11.5834 0.0000 6.7604
# 5 -11.7926 0.7948 -4.5111 0.0000 24.5992 0.0000
# 6 0.0000 0.0000 0.0000 6.7604 0.0000 42.4362
#
#
#
# Elastic Compliance Matrix: (Units=1/GPa)
#
#
# Indices 1 2 3 4 5 6 
#
# 1 0.017258 -0.008044 -0.000212 0.000000 0.008494 0.000000
# 2 -0.008044 0.013469 -0.004217 0.000000 -0.005065 0.000000
# 3 -0.000212 -0.004217 0.009268 0.000000 0.001734 0.000000
# 4 0.000000 0.000000 0.000000 0.095180 0.000000 -0.015163
# 5 0.008494 -0.005065 0.001734 0.000000 0.045206 0.000000
# 6 0.000000 0.000000 0.000000 -0.015163 0.000000 0.025980
#
#
# Mechanical properties :
#
#
# Convention : Reuss Voigt Hill
#
# Bulk Modulus (GPa) = 66.44233 73.91451 70.17842
# Shear Modulus (GPa) = 21.15745 29.45960 25.30852
#
# Velocity S-wave (km/s) = 3.09941 3.65731 3.38986
# Velocity P-wave (km/s) = 6.55561 7.16902 6.86916
#
# Compressibility (1/GPa) = 0.01505065
#
# Stress axis : x y z
#
# Youngs Moduli (GPa) = 57.94405 74.24484 107.89348
#
# Poissons Ratio (x) = 0.59723 0.02283
# Poissons Ratio (y) = 0.46610 0.45496
# Poissons Ratio (z) = 0.01226 0.31307
#
# Static dielectric constant tensor:
#      x y z
#    x 3.966850 0.000000 -0.080060 
#    y 0.000000 4.049210 0.000000 
#    z -0.080060 0.000000 4.155560 
# 
# 
# High freq. dielectric constant tensor:
#      x y z
#    x 1.870340 0.000000 -0.002540 
#    y 0.000000 1.871000 0.000000 
#    z -0.002540 0.000000 1.875810 
# 
# From -- ./inp_files/309980.got.cif
#   From: 2010.06.25/outbox.cif.g09.slc.cpg/sg15_155_cif.got.tgz:309980.got - 2010.06.28 07:06:18.
