data_PCOD8154837
_publ_section_title
;
Structure prediction by ZEFSAII (Michael W. Deem and Ramdas Pophale) SiO2 
 PCOD8154837
Probable space group: C 2/C
;
_chemical_formula_sum "Si O2"
_cell_formula_units_Z 52
_cell_length_a 26.557364
_cell_length_b 8.969217
_cell_length_c 26.604209
_cell_angle_alpha 90.000000
_cell_angle_beta 22.674519
_cell_angle_gamma 90.000000
_cell_volume 2442.920962
_symmetry_space_group_name_H-M "C 2/C"
_symmetry_group_IT_number 15
_symmetry_cell_setting 'monoclinic'
loop_
_space_group_symop_operation_xyz
x,y,z
-x,y,1/2-z
-x,-y,-z
x,-y,1/2+z
1/2+x,1/2+y,z
1/2-x,1/2+y,1/2-z
1/2-x,1/2-y,-z
1/2+x,1/2-y,1/2+z
loop_
_atom_site_type_symbol
_atom_site_label
_atom_site_fract_x
_atom_site_fract_y
_atom_site_fract_z
Si Si1 0.273543 0.815282 0.424756
Si Si2 0.138962 0.574865 0.383395
Si Si3 0.000000 0.480582 0.750000
Si Si4 0.204583 0.035532 0.163230
Si Si5 0.674745 0.195927 0.020406
Si Si6 0.413819 0.483707 0.454347
Si Si7 0.363546 0.569886 0.610205
O O1 0.250000 0.750000 0.500000
O O2 0.393034 0.926534 0.318904
O O3 0.307739 0.696639 0.350536
O O4 0.138366 0.899550 0.538260
O O5 0.179020 0.535322 0.403487
O O6 0.244309 0.506088 0.248786
O O7 0.133315 0.753253 0.382058
O O8 0.000000 0.500000 0.500000
O O9 0.047977 0.384616 0.658673
O O10 0.069854 0.995625 0.315465
O O11 0.230986 0.916267 0.095688
O O12 0.750000 0.250000 0.000000
O O13 0.629196 0.319956 0.023086
O O14 0.342555 0.528813 0.571481
O O15 0.500000 0.500000 0.500000
#
# Coordination Sequence:
#
# PCOD8154837 Si02
#       7
#     8   8   4   8   8   8   8
#     4  12  24  46  72 105 143 194 241 300 351 440
#     4  12  29  49  81 112 149 192 250 317 373 447
#     4  12  24  44  72 104 154 188 244 296 364 420
#     4  12  27  47  75 107 144 194 249 293 374 433
#     4  12  26  47  71 111 148 191 240 302 360 437
#     4  12  27  46  77 103 147 193 240 296 369 439
#     4  12  27  52  76 113 150 190 252 312 379 444
#
# _framework density 21.285995
#
# number of rings (size 3 to 8) (size 9 to 14) (size 15 to 20)
#    0.000    0.000    6.154    2.769    4.308    2.462 
#    0.000    0.000    0.000    0.000    0.000    0.000 
#    0.000    0.000    0.000    0.000    0.000    0.000 
#
# Total GULP energy -322474.105403 kJ/mol
# GULP energy per Si atom -12402.850208 kJ/mol
# Density = 2.123755 g / cm^3
# Si number density = 21.285995 Si / 1000 Ang^3
#
#
#
# Elastic Constant Matrix: (Units=GPa)
#
#
# Indices 1 2 3 4 5 6 
#
# 1 135.8934 62.0339 58.3197 -0.0038 -3.3131 0.0032
# 2 62.0339 169.2400 72.4064 -0.0060 1.5245 0.0061
# 3 58.3197 72.4064 149.4097 -0.0046 2.4269 0.0033
# 4 -0.0038 -0.0060 -0.0046 20.1903 0.0009 18.6639
# 5 -3.3131 1.5245 2.4269 0.0009 45.9930 -0.0031
# 6 0.0032 0.0061 0.0033 18.6639 -0.0031 27.8062
#
#
#
# Elastic Compliance Matrix: (Units=1/GPa)
#
#
# Indices 1 2 3 4 5 6 
#
# 1 0.009595 -0.002418 -0.002588 0.000002 0.000908 -0.000001
# 2 -0.002418 0.008064 -0.002959 0.000006 -0.000285 -0.000005
# 3 -0.002588 -0.002959 0.009147 0.000002 -0.000571 -0.000002
# 4 0.000002 0.000006 0.000002 0.130501 -0.000009 -0.087595
# 5 0.000908 -0.000285 -0.000571 -0.000009 0.021847 0.000008
# 6 -0.000001 -0.000005 -0.000002 -0.087595 0.000008 0.094758
#
#
# Mechanical properties :
#
#
# Convention : Reuss Voigt Hill
#
# Bulk Modulus (GPa) = 91.95801 93.34035 92.64918
# Shear Modulus (GPa) = 17.03757 36.25010 26.64383
#
# Velocity S-wave (km/s) = 2.83222 4.13122 3.54179
# Velocity P-wave (km/s) = 7.34781 8.16712 7.76827
#
# Compressibility (1/GPa) = 0.01087453
#
# Stress axis : x y z
#
# Youngs Moduli (GPa) = 104.21622 124.01203 109.32790
#
# Poissons Ratio (x) = 0.29985 0.28299
# Poissons Ratio (y) = 0.25199 0.32354
# Poissons Ratio (z) = 0.26975 0.36700
#
# Static dielectric constant tensor:
#      x y z
#    x 4.296780 -0.000040 0.114300 
#    y -0.000040 4.060880 0.000160 
#    z 0.114300 0.000160 3.588470 
# 
# 
# High freq. dielectric constant tensor:
#      x y z
#    x 1.853010 0.000000 0.000250 
#    y 0.000000 1.854560 0.000000 
#    z 0.000250 0.000000 1.844370 
# 
# From -- ./inp_files/320158.got.cif
#   From: 2010.06.25/outbox.cif.g09.slc.cpg/sg15_161_cif.got.tgz:320158.got - 2010.06.28 07:06:18.
