data_PCOD8154718
_publ_section_title
;
Structure prediction by ZEFSAII (Michael W. Deem and Ramdas Pophale) SiO2 
 PCOD8154718
Probable space group: C 2/C
;
_chemical_formula_sum "Si O2"
_cell_formula_units_Z 32
_cell_length_a 28.523390
_cell_length_b 7.476182
_cell_length_c 9.426122
_cell_angle_alpha 90.000000
_cell_angle_beta 47.301247
_cell_angle_gamma 90.000000
_cell_volume 1477.269244
_symmetry_space_group_name_H-M "C 2/C"
_symmetry_group_IT_number 15
_symmetry_cell_setting 'monoclinic'
loop_
_space_group_symop_operation_xyz
x,y,z
-x,y,1/2-z
-x,-y,-z
x,-y,1/2+z
1/2+x,1/2+y,z
1/2-x,1/2+y,1/2-z
1/2-x,1/2-y,-z
1/2+x,1/2-y,1/2+z
loop_
_atom_site_type_symbol
_atom_site_label
_atom_site_fract_x
_atom_site_fract_y
_atom_site_fract_z
Si Si1 0.264744 0.556669 0.411647
Si Si2 0.424835 0.207365 0.904967
Si Si3 0.127391 0.589251 0.187963
Si Si4 0.650190 0.555056 0.520738
O O1 0.250000 0.750000 0.500000
O O2 0.203513 0.429829 0.549492
O O3 0.325395 0.480936 0.370768
O O4 0.286317 0.570430 0.204602
O O5 0.500000 0.224571 0.750000
O O6 0.397088 0.405465 0.941501
O O7 0.402193 0.088264 0.819176
O O8 0.402778 0.118434 0.096325
O O9 0.113148 0.755495 0.110493
#
# Coordination Sequence:
#
# PCOD8154718 Si02
#       4
#     8   8   8   8
#     4  12  23  43  71 105 140 173 225 288 356 411
#     4  12  28  48  69 100 140 191 239 281 338 412
#     4  12  26  46  73 102 140 182 232 290 351 410
#     4  12  25  44  69 106 140 178 228 289 354 414
#
# _framework density 21.661588999999999
#
# number of rings (size 3 to 8) (size 9 to 14) (size 15 to 20)
#    0.000    0.000    5.000    6.000    0.000    2.000 
#    0.000    0.000    0.000    0.000    0.000    0.000 
#    0.000    0.000    0.000    0.000    0.000    0.000 
#
# Total GULP energy -198495.133065 kJ/mol
# GULP energy per Si atom -12405.945817 kJ/mol
# Density = 2.161229 g / cm^3
# Si number density = 21.661589 Si / 1000 Ang^3
#
#
#
# Elastic Constant Matrix: (Units=GPa)
#
#
# Indices 1 2 3 4 5 6 
#
# 1 84.3439 21.3570 53.3444 0.0000 -10.9824 0.0000
# 2 21.3570 111.3106 33.9778 0.0000 -0.8787 0.0000
# 3 53.3444 33.9778 102.1489 0.0000 6.3953 0.0000
# 4 0.0000 0.0000 0.0000 34.3781 0.0000 8.1053
# 5 -10.9824 -0.8787 6.3953 0.0000 35.3198 0.0000
# 6 0.0000 0.0000 0.0000 8.1053 0.0000 25.6441
#
#
#
# Elastic Compliance Matrix: (Units=1/GPa)
#
#
# Indices 1 2 3 4 5 6 
#
# 1 0.019780 -0.000472 -0.010678 0.000000 0.008072 0.000000
# 2 -0.000472 0.010036 -0.003134 0.000000 0.000670 0.000000
# 3 -0.010678 -0.003134 0.016812 0.000000 -0.006442 0.000000
# 4 0.000000 0.000000 0.000000 0.031431 0.000000 -0.009934
# 5 0.008072 0.000670 -0.006442 0.000000 0.032006 0.000000
# 6 0.000000 0.000000 0.000000 -0.009934 0.000000 0.042135
#
#
# Mechanical properties :
#
#
# Convention : Reuss Voigt Hill
#
# Bulk Modulus (GPa) = 55.36958 57.24020 56.30489
# Shear Modulus (GPa) = 26.76827 31.67666 29.22246
#
# Velocity S-wave (km/s) = 3.51913 3.82821 3.67692
# Velocity P-wave (km/s) = 6.49069 6.78398 6.63895
#
# Compressibility (1/GPa) = 0.01806046
#
# Stress axis : x y z
#
# Youngs Moduli (GPa) = 50.55525 99.63786 59.48223
#
# Poissons Ratio (x) = 0.04703 0.63516
# Poissons Ratio (y) = 0.02386 0.18641
# Poissons Ratio (z) = 0.53983 0.31225
#
# Static dielectric constant tensor:
#      x y z
#    x 3.685520 0.000000 -0.127640 
#    y 0.000000 4.518110 0.000000 
#    z -0.127640 0.000000 3.719780 
# 
# 
# High freq. dielectric constant tensor:
#      x y z
#    x 1.841560 0.000000 0.014670 
#    y 0.000000 1.873570 0.000000 
#    z 0.014670 0.000000 1.860310 
# 
# From -- ./inp_files/53458.got.cif
#   From: 2010.06.25/outbox.cif.g09.slc.cpg/sg15_27_cif.got.tgz:53458.got - 2010.06.28 07:06:18.
