data_PCOD8154486
_publ_section_title
;
Structure prediction by ZEFSAII (Michael W. Deem and Ramdas Pophale) SiO2 
 PCOD8154486
Probable space group: C 2/C
;
_chemical_formula_sum "Si O2"
_cell_formula_units_Z 36
_cell_length_a 9.397591
_cell_length_b 25.086001
_cell_length_c 9.724152
_cell_angle_alpha 90.000000
_cell_angle_beta 121.905008
_cell_angle_gamma 90.000000
_cell_volume 1946.118543
_symmetry_space_group_name_H-M "C 2/C"
_symmetry_group_IT_number 15
_symmetry_cell_setting 'monoclinic'
loop_
_space_group_symop_operation_xyz
x,y,z
-x,y,1/2-z
-x,-y,-z
x,-y,1/2+z
1/2+x,1/2+y,z
1/2-x,1/2+y,1/2-z
1/2-x,1/2-y,-z
1/2+x,1/2-y,1/2+z
loop_
_atom_site_type_symbol
_atom_site_label
_atom_site_fract_x
_atom_site_fract_y
_atom_site_fract_z
Si Si1 0.000000 0.128965 0.250000
Si Si2 0.873639 0.281935 0.463729
Si Si3 0.508735 0.562183 0.528620
Si Si4 0.747913 0.722596 0.352445
Si Si5 0.823549 0.884479 0.153769
O O1 0.167290 0.164239 0.320524
O O2 0.023090 0.092059 0.392860
O O3 0.750000 0.250000 0.500000
O O4 0.865549 0.257422 0.307568
O O5 0.830973 0.344677 0.432706
O O6 0.064422 0.280051 0.613583
O O7 0.500000 0.500000 0.500000
O O8 0.672056 0.577687 0.707064
O O9 0.337539 0.579186 0.522706
O O10 0.750000 0.750000 0.500000
O O11 0.000000 0.850210 0.250000
#
# Coordination Sequence:
#
# PCOD8154486 Si02
#       5
#     4   8   8   8   8
#     4  12  20  36  58  84 116 148 194 230 294 338
#     4  12  22  38  56  83 120 160 189 228 280 354
#     4   9  19  35  60  82 106 148 199 239 277 334
#     4  12  24  36  56  84 124 152 189 235 285 341
#     4   8  19  34  56  79 112 142 198 223 280 337
#
# _framework density 18.498360999999999
#
# number of rings (size 3 to 8) (size 9 to 14) (size 15 to 20)
#    1.333    0.000    2.222    6.000    0.000    0.000 
#    0.000    0.000    0.000    8.000    0.000    0.000 
#    0.000    0.000    0.000    0.000    0.000    0.000 
#
# Total GULP energy -223010.825753 kJ/mol
# GULP energy per Si atom -12389.490320 kJ/mol
# Density = 1.845626 g / cm^3
# Si number density = 18.498361 Si / 1000 Ang^3
#
#
#
# Elastic Constant Matrix: (Units=GPa)
#
#
# Indices 1 2 3 4 5 6 
#
# 1 88.3037 45.1820 35.0944 0.0000 4.4979 0.0000
# 2 45.1820 145.3827 46.5103 0.0000 -11.2495 0.0000
# 3 35.0944 46.5103 84.4052 0.0000 -24.2086 0.0000
# 4 0.0000 0.0000 0.0000 32.5513 0.0000 -5.1533
# 5 4.4979 -11.2495 -24.2086 0.0000 40.1035 0.0000
# 6 0.0000 0.0000 0.0000 -5.1533 0.0000 25.4738
#
#
#
# Elastic Compliance Matrix: (Units=1/GPa)
#
#
# Indices 1 2 3 4 5 6 
#
# 1 0.016097 -0.003354 -0.006812 0.000000 -0.006858 0.000000
# 2 -0.003354 0.009059 -0.003338 0.000000 0.000902 0.000000
# 3 -0.006812 -0.003338 0.019918 0.000000 0.011851 0.000000
# 4 0.000000 0.000000 0.000000 0.031737 0.000000 0.006420
# 5 -0.006858 0.000902 0.011851 0.000000 0.033112 0.000000
# 6 0.000000 0.000000 0.000000 0.006420 0.000000 0.040555
#
#
# Mechanical properties :
#
#
# Convention : Reuss Voigt Hill
#
# Bulk Modulus (GPa) = 55.35284 63.51836 59.43560
# Shear Modulus (GPa) = 27.24667 32.37939 29.81303
#
# Velocity S-wave (km/s) = 3.84203 4.18831 4.01890
# Velocity P-wave (km/s) = 7.04767 7.60270 7.33044
#
# Compressibility (1/GPa) = 0.01806592
#
# Stress axis : x y z
#
# Youngs Moduli (GPa) = 62.12207 110.39257 50.20462
#
# Poissons Ratio (x) = 0.37028 0.34198
# Poissons Ratio (y) = 0.20837 0.16760
# Poissons Ratio (z) = 0.42316 0.36852
#
# Static dielectric constant tensor:
#      x y z
#    x 3.472080 0.000000 -0.068450 
#    y 0.000000 3.165850 0.000000 
#    z -0.068450 0.000000 3.567560 
# 
# 
# High freq. dielectric constant tensor:
#      x y z
#    x 1.697620 0.000000 -0.021240 
#    y 0.000000 1.705900 0.000000 
#    z -0.021240 0.000000 1.731500 
# 
# From -- ./inp_files/23842.got.cif
#   From: 2010.06.25/outbox.cif.g09.slc.cpg/sg15_12_cif.got.tgz:23842.got - 2010.06.28 07:06:18.
