data_PCOD8154115
_publ_section_title
;
Structure prediction by ZEFSAII (Michael W. Deem and Ramdas Pophale) SiO2 
 PCOD8154115
Probable space group: C 2/C
;
_chemical_formula_sum "Si O2"
_cell_formula_units_Z 36
_cell_length_a 7.864087
_cell_length_b 18.473973
_cell_length_c 10.375165
_cell_angle_alpha 90.000000
_cell_angle_beta 109.733482
_cell_angle_gamma 90.000000
_cell_volume 1418.794218
_symmetry_space_group_name_H-M "C 2/C"
_symmetry_group_IT_number 15
_symmetry_cell_setting 'monoclinic'
loop_
_space_group_symop_operation_xyz
x,y,z
-x,y,1/2-z
-x,-y,-z
x,-y,1/2+z
1/2+x,1/2+y,z
1/2-x,1/2+y,1/2-z
1/2-x,1/2-y,-z
1/2+x,1/2-y,1/2+z
loop_
_atom_site_type_symbol
_atom_site_label
_atom_site_fract_x
_atom_site_fract_y
_atom_site_fract_z
Si Si1 0.551002 0.926317 0.952182
Si Si2 0.561774 0.348410 0.003714
Si Si3 0.535544 0.807846 0.404782
Si Si4 0.206343 0.936118 0.718148
Si Si5 0.000000 0.930406 0.250000
O O1 0.370279 0.895281 0.832712
O O2 0.721410 0.945390 0.908530
O O3 0.607685 0.865341 0.072560
O O4 0.500000 0.000000 0.000000
O O5 0.776270 0.351796 0.042313
O O6 0.488694 0.380574 0.120007
O O7 0.514399 0.263317 0.986613
O O8 0.479739 0.390709 0.856834
O O9 0.500000 0.785420 0.250000
O O10 0.170074 0.014439 0.775073
#
# Coordination Sequence:
#
# PCOD8154115 Si02
#       5
#     8   8   8   8   4
#     4  11  25  45  75 112 148 196 244 304 372 445
#     4  11  27  47  75 110 144 202 253 303 382 443
#     4  11  28  49  75 104 153 197 251 315 368 448
#     4  11  25  44  75 112 150 190 249 306 370 452
#     4  12  24  46  76 108 152 190 246 312 374 442
#
# _framework density 25.373660000000001
#
# number of rings (size 3 to 8) (size 9 to 14) (size 15 to 20)
#    0.000    0.889    0.000    4.667   17.111    2.667 
#    0.000    0.000    0.000    0.000    0.000    0.000 
#    0.000    0.000    0.000    0.000    0.000    0.000 
#
# Total GULP energy -223042.526430 kJ/mol
# GULP energy per Si atom -12391.251468 kJ/mol
# Density = 2.531591 g / cm^3
# Si number density = 25.373660 Si / 1000 Ang^3
#
#
#
# Elastic Constant Matrix: (Units=GPa)
#
#
# Indices 1 2 3 4 5 6 
#
# 1 94.1132 40.6216 38.0397 0.0000 -6.2694 0.0000
# 2 40.6216 147.3411 45.2535 0.0000 -36.6963 0.0000
# 3 38.0397 45.2535 99.6221 0.0000 -24.8834 0.0000
# 4 0.0000 0.0000 0.0000 47.4489 0.0000 -21.7284
# 5 -6.2694 -36.6963 -24.8834 0.0000 58.1854 0.0000
# 6 0.0000 0.0000 0.0000 -21.7284 0.0000 38.4333
#
#
#
# Elastic Compliance Matrix: (Units=1/GPa)
#
#
# Indices 1 2 3 4 5 6 
#
# 1 0.013521 -0.002946 -0.004394 0.000000 -0.002280 0.000000
# 2 -0.002946 0.009385 -0.001947 0.000000 0.004769 0.000000
# 3 -0.004394 -0.001947 0.013631 0.000000 0.004128 0.000000
# 4 0.000000 0.000000 0.000000 0.028438 0.000000 0.016077
# 5 -0.002280 0.004769 0.004128 0.000000 0.021714 0.000000
# 6 0.000000 0.000000 0.000000 0.016077 0.000000 0.035109
#
#
# Mechanical properties :
#
#
# Convention : Reuss Voigt Hill
#
# Bulk Modulus (GPa) = 55.67073 65.43400 60.55236
# Shear Modulus (GPa) = 34.16233 43.29096 38.72665
#
# Velocity S-wave (km/s) = 3.67327 4.13502 3.91097
# Velocity P-wave (km/s) = 6.32286 6.97438 6.65660
#
# Compressibility (1/GPa) = 0.01796276
#
# Stress axis : x y z
#
# Youngs Moduli (GPa) = 73.95710 106.55415 73.35991
#
# Poissons Ratio (x) = 0.31392 0.32237
# Poissons Ratio (y) = 0.21789 0.14283
# Poissons Ratio (z) = 0.32499 0.20746
#
# Static dielectric constant tensor:
#      x y z
#    x 4.826570 0.000000 0.326800 
#    y 0.000000 4.325290 0.000000 
#    z 0.326800 0.000000 4.992330 
# 
# 
# High freq. dielectric constant tensor:
#      x y z
#    x 2.027450 0.000000 -0.009860 
#    y 0.000000 2.002340 0.000000 
#    z -0.009860 0.000000 2.030600 
# 
# From -- ./inp_files/77003.got.cif
#   From: 2010.06.25/outbox.cif.g09.slc.cpg/sg15_39_cif.got.tgz:77003.got - 2010.06.28 07:06:18.
