data_PCOD8154978
_publ_section_title
;
Structure prediction by ZEFSAII (Michael W. Deem and Ramdas Pophale) SiO2 
 PCOD8154978
Probable space group: C 2/C
;
_chemical_formula_sum "Si O2"
_cell_formula_units_Z 24
_cell_length_a 24.896329
_cell_length_b 4.788980
_cell_length_c 24.709238
_cell_angle_alpha 90.000000
_cell_angle_beta 160.402381
_cell_angle_gamma 90.000000
_cell_volume 988.136250
_symmetry_space_group_name_H-M "C 2/C"
_symmetry_group_IT_number 15
_symmetry_cell_setting 'monoclinic'
loop_
_space_group_symop_operation_xyz
x,y,z
-x,y,1/2-z
-x,-y,-z
x,-y,1/2+z
1/2+x,1/2+y,z
1/2-x,1/2+y,1/2-z
1/2-x,1/2-y,-z
1/2+x,1/2-y,1/2+z
loop_
_atom_site_type_symbol
_atom_site_label
_atom_site_fract_x
_atom_site_fract_y
_atom_site_fract_z
Si Si1 0.285961 0.134524 0.475146
Si Si2 0.348004 0.128322 0.326453
Si Si3 0.374879 0.881786 0.727446
O O1 0.250000 0.250000 0.500000
O O2 0.463524 0.016312 0.641503
O O3 0.267275 0.392200 0.415591
O O4 0.159219 0.894522 0.339538
O O5 0.301033 0.415781 0.311219
O O6 0.500000 0.000000 0.500000
O O7 0.390024 0.196658 0.304509
#
# Coordination Sequence:
#
# PCOD8154978 Si02
#       3
#     8   8   8
#     4  12  27  47  72 102 139 186 235 289 349 413
#     4  12  25  44  71 105 142 185 232 285 346 415
#     4  12  25  47  71 103 142 185 232 288 347 414
#
# _framework density 24.288150000000002
#
# number of rings (size 3 to 8) (size 9 to 14) (size 15 to 20)
#    0.000    0.000    0.000   11.000    0.000    2.667 
#    0.000    0.000    0.000    0.000    0.000    0.000 
#    0.000    0.000    0.000    0.000    0.000    0.000 
#
# Total GULP energy -148913.064472 kJ/mol
# GULP energy per Si atom -12409.422039 kJ/mol
# Density = 2.423287 g / cm^3
# Si number density = 24.288150 Si / 1000 Ang^3
#
#
#
# Elastic Constant Matrix: (Units=GPa)
#
#
# Indices 1 2 3 4 5 6 
#
# 1 167.2990 70.1256 65.0099 0.0368 -6.9101 -0.0172
# 2 70.1256 128.4816 21.9083 -0.0176 -17.5855 0.0409
# 3 65.0099 21.9083 88.5781 -0.0252 -21.9184 0.0278
# 4 0.0368 -0.0176 -0.0252 57.1987 -0.0179 -10.0430
# 5 -6.9101 -17.5855 -21.9184 -0.0179 35.8704 0.0189
# 6 -0.0172 0.0409 0.0278 -10.0430 0.0189 42.8918
#
#
#
# Elastic Compliance Matrix: (Units=1/GPa)
#
#
# Indices 1 2 3 4 5 6 
#
# 1 0.011281 -0.005508 -0.008303 -0.000012 -0.005601 0.000015
# 2 -0.005508 0.011149 0.002798 0.000007 0.006115 -0.000016
# 3 -0.008303 0.002798 0.019598 0.000015 0.011748 -0.000020
# 4 -0.000012 0.000007 0.000015 0.018233 0.000017 0.004269
# 5 -0.005601 0.006115 0.011748 0.000017 0.036975 -0.000028
# 6 0.000015 -0.000016 -0.000020 0.004269 -0.000028 0.024314
#
#
# Mechanical properties :
#
#
# Convention : Reuss Voigt Hill
#
# Bulk Modulus (GPa) = 49.99410 77.60512 63.79961
# Shear Modulus (GPa) = 33.27896 42.34651 37.81273
#
# Velocity S-wave (km/s) = 3.70560 4.18006 3.94996
# Velocity P-wave (km/s) = 6.23996 7.43763 6.86496
#
# Compressibility (1/GPa) = 0.02000236
#
# Stress axis : x y z
#
# Youngs Moduli (GPa) = 88.64222 89.69108 51.02470
#
# Poissons Ratio (x) = 0.49403 0.42367
# Poissons Ratio (y) = 0.48825 -0.14277
# Poissons Ratio (z) = 0.73602 -0.25096
#
# Static dielectric constant tensor:
#      x y z
#    x 8.858680 0.001390 -1.867480 
#    y 0.001390 4.972900 -0.000570 
#    z -1.867480 -0.000570 5.398990 
# 
# 
# High freq. dielectric constant tensor:
#      x y z
#    x 1.966630 -0.000010 -0.007600 
#    y -0.000010 1.989260 -0.000010 
#    z -0.007600 -0.000010 1.980640 
# 
# From -- ./inp_files/59458.got.cif
#   From: 2010.06.25/outbox.cif.g09.slc.cpg/sg15_30_cif.got.tgz:59458.got - 2010.06.28 07:06:18.
