data_PCOD8154778
_publ_section_title
;
Structure prediction by ZEFSAII (Michael W. Deem and Ramdas Pophale) SiO2 
 PCOD8154778
Probable space group: C 2/C
;
_chemical_formula_sum "Si O2"
_cell_formula_units_Z 60
_cell_length_a 20.449139
_cell_length_b 10.946937
_cell_length_c 18.683297
_cell_angle_alpha 90.000000
_cell_angle_beta 40.535605
_cell_angle_gamma 90.000000
_cell_volume 2718.199767
_symmetry_space_group_name_H-M "C 2/C"
_symmetry_group_IT_number 15
_symmetry_cell_setting 'monoclinic'
loop_
_space_group_symop_operation_xyz
x,y,z
-x,y,1/2-z
-x,-y,-z
x,-y,1/2+z
1/2+x,1/2+y,z
1/2-x,1/2+y,1/2-z
1/2-x,1/2-y,-z
1/2+x,1/2-y,1/2+z
loop_
_atom_site_type_symbol
_atom_site_label
_atom_site_fract_x
_atom_site_fract_y
_atom_site_fract_z
Si Si1 0.569845 0.854447 0.968612
Si Si2 0.050592 0.030564 0.531741
Si Si3 0.572770 0.414269 0.748355
Si Si4 0.083372 0.355379 0.274440
Si Si5 0.798606 0.119377 0.656475
Si Si6 0.500000 0.056150 0.250000
Si Si7 0.259336 0.956229 0.145689
Si Si8 0.565360 0.811903 0.552473
O O1 0.620907 0.723580 0.926430
O O2 0.658987 0.951197 0.891113
O O3 0.502234 0.876252 0.953427
O O4 0.507861 0.870398 0.093651
O O5 0.046517 0.167817 0.564138
O O6 0.168020 0.992986 0.422974
O O7 0.000000 0.000000 0.500000
O O8 0.987357 0.936291 0.630059
O O9 0.500000 0.473365 0.750000
O O10 0.581705 0.268909 0.730166
O O11 0.682743 0.478083 0.654205
O O12 0.184638 0.347233 0.235776
O O13 0.082934 0.466451 0.217494
O O14 0.808631 0.091330 0.732429
O O15 0.458043 0.141861 0.347999
O O16 0.317350 0.844287 0.059097
#
# Coordination Sequence:
#
# PCOD8154778 Si02
#       8
#     8   8   8   8   8   4   8   8
#     4  12  23  46  76 107 145 191 259 322 358 441
#     4  12  25  49  74 106 147 195 255 308 363 449
#     4  12  26  46  75 108 152 196 248 312 376 447
#     4  12  24  49  75 110 148 190 254 319 371 447
#     4  12  25  42  81 112 139 192 259 320 372 431
#     4  12  28  48  70 110 158 202 228 312 400 448
#     4  12  25  43  73 111 147 197 251 312 383 439
#     4  12  26  48  73 108 159 194 249 312 385 455
#
# _framework density 22.073433000000001
#
# number of rings (size 3 to 8) (size 9 to 14) (size 15 to 20)
#    0.000    0.000    8.667    1.200    2.800    1.067 
#    2.400    4.000    0.000    0.000    0.000    0.000 
#    0.000    0.000    0.000    0.000    0.000    0.000 
#
# Total GULP energy -371892.964880 kJ/mol
# GULP energy per Si atom -12396.432163 kJ/mol
# Density = 2.202319 g / cm^3
# Si number density = 22.073433 Si / 1000 Ang^3
#
#
#
# Elastic Constant Matrix: (Units=GPa)
#
#
# Indices 1 2 3 4 5 6 
#
# 1 108.2727 40.7168 42.7505 0.0000 2.2292 0.0000
# 2 40.7168 121.6832 42.1820 0.0000 0.2004 0.0000
# 3 42.7505 42.1820 101.7910 0.0000 -4.7272 0.0000
# 4 0.0000 0.0000 0.0000 35.4396 0.0000 1.5038
# 5 2.2292 0.2004 -4.7272 0.0000 32.2715 0.0000
# 6 0.0000 0.0000 0.0000 1.5038 0.0000 35.1098
#
#
#
# Elastic Compliance Matrix: (Units=1/GPa)
#
#
# Indices 1 2 3 4 5 6 
#
# 1 0.011792 -0.002574 -0.003950 0.000000 -0.001377 0.000000
# 2 -0.002574 0.010172 -0.003150 0.000000 -0.000347 0.000000
# 3 -0.003950 -0.003150 0.012889 0.000000 0.002180 0.000000
# 4 0.000000 0.000000 0.000000 0.028268 0.000000 -0.001211
# 5 -0.001377 -0.000347 0.002180 0.000000 0.031404 0.000000
# 6 0.000000 0.000000 0.000000 -0.001211 0.000000 0.028534
#
#
# Mechanical properties :
#
#
# Convention : Reuss Voigt Hill
#
# Bulk Modulus (GPa) = 64.49425 64.78282 64.63853
# Shear Modulus (GPa) = 33.88086 34.30403 34.09244
#
# Velocity S-wave (km/s) = 3.92205 3.94647 3.93428
# Velocity P-wave (km/s) = 7.05631 7.08369 7.07001
#
# Compressibility (1/GPa) = 0.01550526
#
# Stress axis : x y z
#
# Youngs Moduli (GPa) = 84.80463 98.30842 77.58263
#
# Poissons Ratio (x) = 0.25308 0.30641
# Poissons Ratio (y) = 0.21831 0.24440
# Poissons Ratio (z) = 0.33494 0.30969
#
# Static dielectric constant tensor:
#      x y z
#    x 4.112360 0.000000 -0.601670 
#    y 0.000000 4.138820 0.000000 
#    z -0.601670 0.000000 5.887290 
# 
# 
# High freq. dielectric constant tensor:
#      x y z
#    x 1.865990 0.000000 -0.005920 
#    y 0.000000 1.881170 0.000000 
#    z -0.005920 0.000000 1.874090 
# 
# From -- ./inp_files/215196.got.cif
#   From: 2010.06.25/outbox.cif.g09.slc.cpg/sg15_108_cif.got.tgz:215196.got - 2010.06.28 07:06:18.
