data_PCOD8154474
_publ_section_title
;
Structure prediction by ZEFSAII (Michael W. Deem and Ramdas Pophale) SiO2 
 PCOD8154474
Probable space group: C 2/C
;
_chemical_formula_sum "Si O2"
_cell_formula_units_Z 36
_cell_length_a 5.415094
_cell_length_b 23.658619
_cell_length_c 11.379663
_cell_angle_alpha 90.000000
_cell_angle_beta 82.382231
_cell_angle_gamma 90.000000
_cell_volume 1445.023471
_symmetry_space_group_name_H-M "C 2/C"
_symmetry_group_IT_number 15
_symmetry_cell_setting 'monoclinic'
loop_
_space_group_symop_operation_xyz
x,y,z
-x,y,1/2-z
-x,-y,-z
x,-y,1/2+z
1/2+x,1/2+y,z
1/2-x,1/2+y,1/2-z
1/2-x,1/2-y,-z
1/2+x,1/2-y,1/2+z
loop_
_atom_site_type_symbol
_atom_site_label
_atom_site_fract_x
_atom_site_fract_y
_atom_site_fract_z
Si Si1 0.000000 0.239830 0.250000
Si Si2 0.972827 0.589042 0.980782
Si Si3 0.772229 0.503023 0.171373
Si Si4 0.776598 0.188824 0.053393
Si Si5 0.170231 0.838528 0.352798
O O1 0.821627 0.198308 0.188119
O O2 0.823570 0.280220 0.338093
O O3 0.791755 0.556563 0.082288
O O4 0.050541 0.646246 0.044447
O O5 0.847353 0.607650 0.863945
O O6 0.201562 0.550780 0.918419
O O7 0.500000 0.502677 0.250000
O O8 0.000000 0.506846 0.250000
O O9 0.750000 0.250000 0.000000
O O10 0.016899 0.160948 0.981595
O O11 0.000000 0.848118 0.250000
#
# Coordination Sequence:
#
# PCOD8154474 Si02
#       5
#     4   8   8   8   8
#     4  12  26  46  70 118 162 214 264 330 398 506
#     4  11  29  50  79 120 160 211 281 342 414 501
#     4  11  30  55  86 119 160 216 282 356 424 486
#     4  12  26  46  75 115 160 210 266 324 410 494
#     4  12  25  45  78 111 158 219 268 326 406 496
#
# _framework density 24.913093
#
# number of rings (size 3 to 8) (size 9 to 14) (size 15 to 20)
#    0.000    0.444    4.444    0.667   10.889    3.556 
#    0.000    0.000    2.444    0.000    0.000    0.000 
#    0.000    0.000    0.000    0.000    0.000    0.000 
#
# Total GULP energy -223099.726366 kJ/mol
# GULP energy per Si atom -12394.429243 kJ/mol
# Density = 2.485639 g / cm^3
# Si number density = 24.913093 Si / 1000 Ang^3
#
#
#
# Elastic Constant Matrix: (Units=GPa)
#
#
# Indices 1 2 3 4 5 6 
#
# 1 135.4493 62.3785 50.1167 0.0000 4.8057 0.0000
# 2 62.3785 173.0322 65.9517 0.0000 16.5084 0.0000
# 3 50.1167 65.9517 109.4189 0.0000 5.6014 0.0000
# 4 0.0000 0.0000 0.0000 -92.4773 0.0000 89.1212
# 5 4.8057 16.5084 5.6014 0.0000 60.7582 0.0000
# 6 0.0000 0.0000 0.0000 89.1212 0.0000 -45.7944
#
#
#
# Elastic Compliance Matrix: (Units=1/GPa)
#
#
# Indices 1 2 3 4 5 6 
#
# 1 0.009550 -0.002320 -0.002983 0.000000 0.000150 0.000000
# 2 -0.002320 0.008231 -0.003811 0.000000 -0.001701 0.000000
# 3 -0.002983 -0.003811 0.012798 0.000000 0.000092 0.000000
# 4 0.000000 0.000000 0.000000 0.012351 0.000000 0.024037
# 5 0.000150 -0.001701 0.000092 0.000000 0.016901 0.000000
# 6 0.000000 0.000000 0.000000 0.024037 0.000000 0.024942
#
#
# Mechanical properties :
#
#
# Convention : Reuss Voigt Hill
#
# Bulk Modulus (GPa) = 80.97561 86.08825 83.53193
# Shear Modulus (GPa) = 46.67725 0.46086 23.56906
#
# Velocity S-wave (km/s) = 4.33321 0.43057 3.07913
# Velocity P-wave (km/s) = 7.59009 5.90573 6.80026
#
# Compressibility (1/GPa) = 0.01234940
#
# Stress axis : x y z
#
# Youngs Moduli (GPa) = 104.71459 121.49772 78.13582
#
# Poissons Ratio (x) = 0.28186 0.23311
# Poissons Ratio (y) = 0.24293 0.29780
# Poissons Ratio (z) = 0.31241 0.46306
#
# Static dielectric constant tensor:
#      x y z
#    x 4.553220 0.000000 -0.111370 
#    y 0.000000 4.907770 0.000000 
#    z -0.111370 0.000000 4.215190 
# 
# 
# High freq. dielectric constant tensor:
#      x y z
#    x 1.991300 0.000000 0.002490 
#    y 0.000000 2.005230 0.000000 
#    z 0.002490 0.000000 1.998560 
# 
# From -- ./inp_files/72444.got.cif
#   From: 2010.06.25/outbox.cif.g09.slc.cpg/sg15_37_cif.got.tgz:72444.got - 2010.06.28 07:06:18.
