data_PCOD8154447
_publ_section_title
;
Structure prediction by ZEFSAII (Michael W. Deem and Ramdas Pophale) SiO2 
 PCOD8154447
Probable space group: C 2/C
;
_chemical_formula_sum "Si O2"
_cell_formula_units_Z 40
_cell_length_a 9.683234
_cell_length_b 14.796021
_cell_length_c 12.705211
_cell_angle_alpha 90.000000
_cell_angle_beta 72.484114
_cell_angle_gamma 90.000000
_cell_volume 1735.916235
_symmetry_space_group_name_H-M "C 2/C"
_symmetry_group_IT_number 15
_symmetry_cell_setting 'monoclinic'
loop_
_space_group_symop_operation_xyz
x,y,z
-x,y,1/2-z
-x,-y,-z
x,-y,1/2+z
1/2+x,1/2+y,z
1/2-x,1/2+y,1/2-z
1/2-x,1/2-y,-z
1/2+x,1/2-y,1/2+z
loop_
_atom_site_type_symbol
_atom_site_label
_atom_site_fract_x
_atom_site_fract_y
_atom_site_fract_z
Si Si1 0.225404 0.982967 0.348806
Si Si2 0.500000 0.559886 0.250000
Si Si3 0.366179 0.169948 0.357875
Si Si4 0.407454 0.222876 0.570827
Si Si5 0.649006 0.660043 0.036839
Si Si6 0.500000 0.123983 0.750000
O O1 0.203680 0.925964 0.459670
O O2 0.358865 0.935865 0.258929
O O3 0.270549 0.083614 0.362306
O O4 0.082732 0.990916 0.309581
O O5 0.619915 0.624232 0.163643
O O6 0.500000 0.180508 0.250000
O O7 0.422935 0.160736 0.464430
O O8 0.261299 0.257252 0.365321
O O9 0.490915 0.316300 0.525421
O O10 0.504378 0.184245 0.644283
O O11 0.750000 0.750000 0.000000
#
# Coordination Sequence:
#
# PCOD8154447 Si02
#       6
#     8   4   8   8   8   4
#     4  12  28  45  76 112 149 198 249 310 379 441
#     4  12  29  50  74 109 158 196 254 311 380 450
#     4  11  27  48  73 109 151 194 248 314 375 445
#     4  11  27  47  74 107 151 193 257 298 384 454
#     4  12  27  47  75 106 147 199 249 308 373 449
#     4  12  27  48  74 113 142 202 248 307 376 450
#
# _framework density 23.042587000000001
#
# number of rings (size 3 to 8) (size 9 to 14) (size 15 to 20)
#    0.000    0.400    5.000    1.200    8.400    2.400 
#    0.000    0.000    0.000    0.000    0.000    0.000 
#    0.000    0.000    0.000    0.000    0.000    0.000 
#
# Total GULP energy -247844.718943 kJ/mol
# GULP energy per Si atom -12392.235947 kJ/mol
# Density = 2.299014 g / cm^3
# Si number density = 23.042587 Si / 1000 Ang^3
#
#
#
# Elastic Constant Matrix: (Units=GPa)
#
#
# Indices 1 2 3 4 5 6 
#
# 1 120.4667 42.7688 66.2696 0.0000 1.7109 0.0000
# 2 42.7688 80.8132 62.2095 0.0000 -4.5543 0.0000
# 3 66.2696 62.2095 154.7121 0.0000 -6.2193 0.0000
# 4 0.0000 0.0000 0.0000 47.0376 0.0000 -15.9689
# 5 1.7109 -4.5543 -6.2193 0.0000 46.0980 0.0000
# 6 0.0000 0.0000 0.0000 -15.9689 0.0000 48.9085
#
#
#
# Elastic Compliance Matrix: (Units=1/GPa)
#
#
# Indices 1 2 3 4 5 6 
#
# 1 0.011510 -0.003371 -0.003625 0.000000 -0.001249 0.000000
# 2 -0.003371 0.018939 -0.006124 0.000000 0.001170 0.000000
# 3 -0.003625 -0.006124 0.010517 0.000000 0.000948 0.000000
# 4 0.000000 0.000000 0.000000 0.023910 0.000000 0.007807
# 5 -0.001249 0.001170 0.000948 0.000000 0.021983 0.000000
# 6 0.000000 0.000000 0.000000 0.007807 0.000000 0.022995
#
#
# Mechanical properties :
#
#
# Convention : Reuss Voigt Hill
#
# Bulk Modulus (GPa) = 67.91224 77.60973 72.76098
# Shear Modulus (GPa) = 35.46056 40.72510 38.09283
#
# Velocity S-wave (km/s) = 3.92716 4.20859 4.07030
# Velocity P-wave (km/s) = 7.07813 7.57432 7.33042
#
# Compressibility (1/GPa) = 0.01472489
#
# Stress axis : x y z
#
# Youngs Moduli (GPa) = 86.88337 52.80198 95.08600
#
# Poissons Ratio (x) = 0.17802 0.34465
# Poissons Ratio (y) = 0.29292 0.58231
# Poissons Ratio (z) = 0.31492 0.32336
#
# Static dielectric constant tensor:
#      x y z
#    x 4.353970 0.000000 -0.071450 
#    y 0.000000 4.189020 0.000000 
#    z -0.071450 0.000000 4.563960 
# 
# 
# High freq. dielectric constant tensor:
#      x y z
#    x 1.922930 0.000000 -0.013870 
#    y 0.000000 1.910200 0.000000 
#    z -0.013870 0.000000 1.915790 
# 
# From -- ./inp_files/133112.got.cif
#   From: 2010.06.25/outbox.cif.g09.slc.cpg/sg15_67_cif.got.tgz:133112.got - 2010.06.28 07:06:18.
