data_PCOD8154296
_publ_section_title
;
Structure prediction by ZEFSAII (Michael W. Deem and Ramdas Pophale) SiO2 
 PCOD8154296
Probable space group: C 2/C
;
_chemical_formula_sum "Si O2"
_cell_formula_units_Z 48
_cell_length_a 10.421849
_cell_length_b 20.451369
_cell_length_c 12.039517
_cell_angle_alpha 90.000000
_cell_angle_beta 128.979665
_cell_angle_gamma 90.000000
_cell_volume 1994.819441
_symmetry_space_group_name_H-M "C 2/C"
_symmetry_group_IT_number 15
_symmetry_cell_setting 'monoclinic'
loop_
_space_group_symop_operation_xyz
x,y,z
-x,y,1/2-z
-x,-y,-z
x,-y,1/2+z
1/2+x,1/2+y,z
1/2-x,1/2+y,1/2-z
1/2-x,1/2-y,-z
1/2+x,1/2-y,1/2+z
loop_
_atom_site_type_symbol
_atom_site_label
_atom_site_fract_x
_atom_site_fract_y
_atom_site_fract_z
Si Si1 0.678730 0.970266 0.088083
Si Si2 0.907809 0.063595 0.903365
Si Si3 0.310681 0.645164 0.536863
Si Si4 0.238279 0.247259 0.168164
Si Si5 0.665132 0.598704 0.401965
Si Si6 0.132967 0.717783 0.027796
O O1 0.742545 0.954493 0.246690
O O2 0.673356 0.906533 0.005439
O O3 0.804121 0.022626 0.103798
O O4 0.500000 0.000000 0.000000
O O5 0.018285 0.105991 0.879738
O O6 0.857959 0.109703 0.979141
O O7 0.000000 0.000000 0.000000
O O8 0.329561 0.702858 0.635990
O O9 0.261470 0.675742 0.390409
O O10 0.345539 0.246679 0.337570
O O11 0.056894 0.271483 0.105709
O O12 0.500000 0.623031 0.250000
O O13 0.820843 0.640960 0.444644
O O14 0.250000 0.750000 0.000000
#
# Coordination Sequence:
#
# PCOD8154296 Si02
#       6
#     8   8   8   8   8   8
#     4  12  27  46  72 112 149 187 248 313 377 450
#     4  12  24  46  77 105 145 196 246 303 375 455
#     4  11  25  49  76 106 148 199 251 303 368 450
#     4  11  28  47  76 110 150 199 255 308 370 442
#     4  12  24  46  73 107 147 198 248 304 381 450
#     4  12  26  48  73 108 153 194 250 310 372 446
#
# _framework density 24.062328999999998
#
# number of rings (size 3 to 8) (size 9 to 14) (size 15 to 20)
#    0.000    0.333    3.333    5.000    7.000    2.667 
#    6.000    0.000    0.000    0.000    0.000    0.000 
#    0.000    0.000    0.000    0.000    0.000    0.000 
#
# Total GULP energy -297770.350317 kJ/mol
# GULP energy per Si atom -12407.097930 kJ/mol
# Density = 2.400756 g / cm^3
# Si number density = 24.062329 Si / 1000 Ang^3
#
#
#
# Elastic Constant Matrix: (Units=GPa)
#
#
# Indices 1 2 3 4 5 6 
#
# 1 111.8921 29.3627 46.3856 0.0000 -7.3815 0.0000
# 2 29.3627 113.9077 27.9150 0.0000 -4.0608 0.0000
# 3 46.3856 27.9150 114.2389 0.0000 -9.9632 0.0000
# 4 0.0000 0.0000 0.0000 27.5094 0.0000 -9.8249
# 5 -7.3815 -4.0608 -9.9632 0.0000 44.0167 0.0000
# 6 0.0000 0.0000 0.0000 -9.8249 0.0000 55.4391
#
#
#
# Elastic Compliance Matrix: (Units=1/GPa)
#
#
# Indices 1 2 3 4 5 6 
#
# 1 0.011135 -0.001863 -0.003997 0.000000 0.000791 0.000000
# 2 -0.001863 0.009655 -0.001584 0.000000 0.000220 0.000000
# 3 -0.003997 -0.001584 0.010908 0.000000 0.001653 0.000000
# 4 0.000000 0.000000 0.000000 0.038807 0.000000 0.006877
# 5 0.000791 0.000220 0.001653 0.000000 0.023246 0.000000
# 6 0.000000 0.000000 0.000000 0.006877 0.000000 0.019257
#
#
# Mechanical properties :
#
#
# Convention : Reuss Voigt Hill
#
# Bulk Modulus (GPa) = 59.48563 60.81836 60.15200
# Shear Modulus (GPa) = 37.45352 41.15140 39.30246
#
# Velocity S-wave (km/s) = 3.94956 4.13994 4.04587
# Velocity P-wave (km/s) = 6.75084 6.94135 6.84676
#
# Compressibility (1/GPa) = 0.01681078
#
# Stress axis : x y z
#
# Youngs Moduli (GPa) = 89.80519 103.57158 91.67780
#
# Poissons Ratio (x) = 0.19291 0.36646
# Poissons Ratio (y) = 0.16727 0.14520
# Poissons Ratio (z) = 0.35897 0.16404
#
# Static dielectric constant tensor:
#      x y z
#    x 4.483240 0.000000 -0.278090 
#    y 0.000000 4.730600 0.000000 
#    z -0.278090 0.000000 4.188740 
# 
# 
# High freq. dielectric constant tensor:
#      x y z
#    x 1.964310 0.000000 -0.014190 
#    y 0.000000 1.972710 0.000000 
#    z -0.014190 0.000000 1.947650 
# 
# From -- ./inp_files/89798.got.cif
#   From: 2010.06.25/outbox.cif.g09.slc.cpg/sg15_45_cif.got.tgz:89798.got - 2010.06.28 07:06:18.
