data_PCOD8154171
_publ_section_title
;
Structure prediction by ZEFSAII (Michael W. Deem and Ramdas Pophale) SiO2 
 PCOD8154171
Probable space group: C 2/C
;
_chemical_formula_sum "Si O2"
_cell_formula_units_Z 44
_cell_length_a 6.577108
_cell_length_b 25.729336
_cell_length_c 15.672699
_cell_angle_alpha 90.000000
_cell_angle_beta 48.028652
_cell_angle_gamma 90.000000
_cell_volume 1971.860797
_symmetry_space_group_name_H-M "C 2/C"
_symmetry_group_IT_number 15
_symmetry_cell_setting 'monoclinic'
loop_
_space_group_symop_operation_xyz
x,y,z
-x,y,1/2-z
-x,-y,-z
x,-y,1/2+z
1/2+x,1/2+y,z
1/2-x,1/2+y,1/2-z
1/2-x,1/2-y,-z
1/2+x,1/2-y,1/2+z
loop_
_atom_site_type_symbol
_atom_site_label
_atom_site_fract_x
_atom_site_fract_y
_atom_site_fract_z
Si Si1 0.000000 0.277017 0.250000
Si Si2 0.993485 0.351955 0.101837
Si Si3 0.784229 0.983042 0.459829
Si Si4 0.506943 0.790652 0.573412
Si Si5 0.000000 0.645046 0.250000
Si Si6 0.035464 0.913043 0.954122
Si Si7 0.000000 0.069850 0.750000
O O1 0.108232 0.310956 0.298935
O O2 0.769610 0.241101 0.354394
O O3 0.779532 0.398403 0.166184
O O4 0.299952 0.370663 0.041706
O O5 0.985395 0.329287 0.008842
O O6 0.764413 0.930416 0.523902
O O7 0.013403 0.968455 0.326367
O O8 0.500000 0.000000 0.500000
O O9 0.884343 0.034038 0.477666
O O10 0.750000 0.750000 0.500000
O O11 0.520953 0.821098 0.658642
O O12 0.273256 0.609493 0.175055
#
# Coordination Sequence:
#
# PCOD8154171 Si02
#       7
#     4   8   8   8   4   8   4
#     4  12  24  42  70  96 134 184 224 290 364 404
#     4  12  24  44  69 102 139 180 241 288 348 434
#     4  11  25  46  67 102 142 179 230 288 339 422
#     4  12  25  45  68 100 140 179 237 295 355 420
#     4  12  26  43  71 100 138 188 233 285 354 420
#     4  11  26  44  68 102 141 180 233 283 347 415
#     4  12  24  41  73  94 136 184 221 279 356 396
#
# _framework density 22.313949000000001
#
# number of rings (size 3 to 8) (size 9 to 14) (size 15 to 20)
#    0.000    0.364    1.818    7.091    2.545    0.000 
#    0.000    0.000    0.000    0.000    0.000    0.000 
#    0.000    0.000    0.000    0.000    0.000    0.000 
#
# Total GULP energy -272721.434049 kJ/mol
# GULP energy per Si atom -12396.428820 kJ/mol
# Density = 2.226316 g / cm^3
# Si number density = 22.313949 Si / 1000 Ang^3
#
#
#
# Elastic Constant Matrix: (Units=GPa)
#
#
# Indices 1 2 3 4 5 6 
#
# 1 99.5002 33.2148 39.2091 -0.0001 -1.0955 0.0000
# 2 33.2148 86.5799 45.9827 0.0002 4.5094 0.0000
# 3 39.2091 45.9827 137.5118 -0.0003 6.1074 0.0000
# 4 -0.0001 0.0002 -0.0003 41.8102 0.0004 5.9268
# 5 -1.0955 4.5094 6.1074 0.0004 55.3959 0.0000
# 6 0.0000 0.0000 0.0000 5.9268 0.0000 23.1193
#
#
#
# Elastic Compliance Matrix: (Units=1/GPa)
#
#
# Indices 1 2 3 4 5 6 
#
# 1 0.012133 -0.003453 -0.002340 0.000000 0.000779 0.000000
# 2 -0.003453 0.015049 -0.004010 0.000000 -0.000851 0.000000
# 3 -0.002340 -0.004010 0.009313 0.000000 -0.000747 0.000000
# 4 0.000000 0.000000 0.000000 0.024820 0.000000 -0.006363
# 5 0.000779 -0.000851 -0.000747 0.000000 0.018219 0.000000
# 6 0.000000 0.000000 0.000000 -0.006363 0.000000 0.044885
#
#
# Mechanical properties :
#
#
# Convention : Reuss Voigt Hill
#
# Bulk Modulus (GPa) = 59.20399 62.26723 60.73561
# Shear Modulus (GPa) = 33.41058 37.74409 35.57734
#
# Velocity S-wave (km/s) = 3.87369 4.11725 3.99732
# Velocity P-wave (km/s) = 6.82621 7.11112 6.97012
#
# Compressibility (1/GPa) = 0.01689075
#
# Stress axis : x y z
#
# Youngs Moduli (GPa) = 82.41755 66.45161 107.37427
#
# Poissons Ratio (x) = 0.22944 0.25122
# Poissons Ratio (y) = 0.28456 0.43055
# Poissons Ratio (z) = 0.19283 0.26646
#
# Static dielectric constant tensor:
#      x y z
#    x 6.359890 0.000000 1.153020 
#    y 0.000000 4.435800 0.000000 
#    z 1.153020 0.000000 4.764430 
# 
# 
# High freq. dielectric constant tensor:
#      x y z
#    x 1.881150 0.000000 -0.000790 
#    y 0.000000 1.901360 0.000000 
#    z -0.000790 0.000000 1.893600 
# 
# From -- ./inp_files/130020.got.cif
#   From: 2010.06.25/outbox.cif.g09.slc.cpg/sg15_66_cif.got.tgz:130020.got - 2010.06.28 07:06:18.
