data_PCOD8154601
_publ_section_title
;
Structure prediction by ZEFSAII (Michael W. Deem and Ramdas Pophale) SiO2 
 PCOD8154601
Probable space group: C 2/C
;
_chemical_formula_sum "Si O2"
_cell_formula_units_Z 40
_cell_length_a 16.329529
_cell_length_b 19.091213
_cell_length_c 10.538516
_cell_angle_alpha 90.000000
_cell_angle_beta 35.836379
_cell_angle_gamma 90.000000
_cell_volume 1923.504305
_symmetry_space_group_name_H-M "C 2/C"
_symmetry_group_IT_number 15
_symmetry_cell_setting 'monoclinic'
loop_
_space_group_symop_operation_xyz
x,y,z
-x,y,1/2-z
-x,-y,-z
x,-y,1/2+z
1/2+x,1/2+y,z
1/2-x,1/2+y,1/2-z
1/2-x,1/2-y,-z
1/2+x,1/2-y,1/2+z
loop_
_atom_site_type_symbol
_atom_site_label
_atom_site_fract_x
_atom_site_fract_y
_atom_site_fract_z
Si Si1 0.784666 0.605338 0.954232
Si Si2 0.859389 0.713262 0.059974
Si Si3 0.000000 0.494139 0.750000
Si Si4 0.552908 0.120746 0.993633
Si Si5 0.642927 0.246866 0.022192
Si Si6 0.500000 0.661649 0.250000
O O1 0.857011 0.540533 0.937749
O O2 0.825688 0.600189 0.756060
O O3 0.847072 0.676068 0.938888
O O4 0.615511 0.610530 0.170845
O O5 0.703901 0.721019 0.315269
O O6 0.939459 0.666814 0.062137
O O7 0.928497 0.789202 0.947838
O O8 0.989375 0.449675 0.634062
O O9 0.614342 0.164933 0.033011
O O10 0.500000 0.284653 0.250000
O O11 0.750000 0.250000 0.000000
#
# Coordination Sequence:
#
# PCOD8154601 Si02
#       6
#     8   8   4   8   8   4
#     4  12  25  40  69 102 128 181 219 278 327 396
#     4  12  22  41  71 105 130 166 222 282 347 387
#     4  12  25  44  68  92 133 186 238 252 314 412
#     4  12  22  43  69  94 135 177 227 274 315 404
#     4  12  24  39  64 100 135 173 211 274 348 394
#     4  12  23  40  68 104 137 156 214 294 342 380
#
# _framework density 20.795380000000002
#
# number of rings (size 3 to 8) (size 9 to 14) (size 15 to 20)
#    0.000    0.000    9.000    2.400    0.000    0.000 
#    0.000    1.000    8.800    0.000    0.000    0.000 
#    0.000    0.000    0.000    0.000    0.000    0.000 
#
# Total GULP energy -247905.468382 kJ/mol
# GULP energy per Si atom -12395.273419 kJ/mol
# Density = 2.074805 g / cm^3
# Si number density = 20.795380 Si / 1000 Ang^3
#
#
#
# Elastic Constant Matrix: (Units=GPa)
#
#
# Indices 1 2 3 4 5 6 
#
# 1 107.6662 46.9822 41.9184 0.0015 -16.3379 -0.0011
# 2 46.9822 91.3801 44.7628 0.0006 -7.5180 -0.0005
# 3 41.9184 44.7628 144.0934 0.0015 -1.2667 -0.0013
# 4 0.0015 0.0006 0.0015 29.1576 -0.0017 7.0220
# 5 -16.3379 -7.5180 -1.2667 -0.0017 45.1108 0.0012
# 6 -0.0011 -0.0005 -0.0013 7.0220 0.0012 29.8617
#
#
#
# Elastic Compliance Matrix: (Units=1/GPa)
#
#
# Indices 1 2 3 4 5 6 
#
# 1 0.013009 -0.005356 -0.002087 0.000000 0.003760 0.000000
# 2 -0.005356 0.015303 -0.003191 0.000000 0.000521 0.000000
# 3 -0.002087 -0.003191 0.008529 0.000000 -0.001048 0.000000
# 4 0.000000 0.000000 0.000000 0.036355 0.000002 -0.008549
# 5 0.003760 0.000521 -0.001048 0.000002 0.023587 -0.000001
# 6 0.000000 0.000000 0.000000 -0.008549 -0.000001 0.035498
#
#
# Mechanical properties :
#
#
# Convention : Reuss Voigt Hill
#
# Bulk Modulus (GPa) = 64.22038 67.82960 66.02499
# Shear Modulus (GPa) = 31.49776 34.79111 33.14444
#
# Velocity S-wave (km/s) = 3.89608 4.09470 3.99662
# Velocity P-wave (km/s) = 7.15460 7.41915 7.28808
#
# Compressibility (1/GPa) = 0.01557138
#
# Stress axis : x y z
#
# Youngs Moduli (GPa) = 76.87236 65.34537 117.24305
#
# Poissons Ratio (x) = 0.35002 0.24472
# Poissons Ratio (y) = 0.41176 0.37414
# Poissons Ratio (z) = 0.16046 0.20853
#
# Static dielectric constant tensor:
#      x y z
#    x 3.814260 0.000000 0.049260 
#    y 0.000000 3.814830 0.000000 
#    z 0.049260 0.000000 4.242700 
# 
# 
# High freq. dielectric constant tensor:
#      x y z
#    x 1.822620 0.000000 0.010880 
#    y 0.000000 1.786210 0.000000 
#    z 0.010880 0.000000 1.823120 
# 
# From -- ./inp_files/106858.got.cif
#   From: 2010.06.25/outbox.cif.g09.slc.cpg/sg15_54_cif.got.tgz:106858.got - 2010.06.28 07:06:18.
