data_PCOD8154680
_publ_section_title
;
Structure prediction by ZEFSAII (Michael W. Deem and Ramdas Pophale) SiO2 
 PCOD8154680
Probable space group: C 2/C
;
_chemical_formula_sum "Si O2"
_cell_formula_units_Z 60
_cell_length_a 12.221746
_cell_length_b 24.161557
_cell_length_c 20.926720
_cell_angle_alpha 90.000000
_cell_angle_beta 153.548808
_cell_angle_gamma 90.000000
_cell_volume 2752.605404
_symmetry_space_group_name_H-M "C 2/C"
_symmetry_group_IT_number 15
_symmetry_cell_setting 'monoclinic'
loop_
_space_group_symop_operation_xyz
x,y,z
-x,y,1/2-z
-x,-y,-z
x,-y,1/2+z
1/2+x,1/2+y,z
1/2-x,1/2+y,1/2-z
1/2-x,1/2-y,-z
1/2+x,1/2-y,1/2+z
loop_
_atom_site_type_symbol
_atom_site_label
_atom_site_fract_x
_atom_site_fract_y
_atom_site_fract_z
Si Si1 0.350769 0.990355 0.987149
Si Si2 0.483365 0.767607 0.671407
Si Si3 0.421620 0.655361 0.526378
Si Si4 0.487733 0.062043 0.171810
Si Si5 0.500000 0.430785 0.250000
Si Si6 0.737184 0.158073 0.688095
Si Si7 0.128173 0.848354 0.644766
Si Si8 0.198294 0.863841 0.908907
O O1 0.112638 0.029684 0.862779
O O2 0.272357 0.927459 0.950728
O O3 0.484124 0.009958 0.121756
O O4 0.500000 0.000000 0.000000
O O5 0.500000 0.799359 0.750000
O O6 0.194292 0.785092 0.503653
O O7 0.577424 0.706276 0.736363
O O8 0.681557 0.800497 0.732225
O O9 0.236101 0.606149 0.448744
O O10 0.682876 0.644404 0.697035
O O11 0.480414 0.662012 0.482706
O O12 0.500000 0.037805 0.250000
O O13 0.738701 0.092577 0.283658
O O14 0.716364 0.394601 0.332434
O O15 0.448112 0.172210 0.530037
O O16 0.905589 0.846250 0.577342
O O17 0.000000 0.851656 0.750000
#
# Coordination Sequence:
#
# PCOD8154680 Si02
#       8
#     8   8   8   8   4   8   8   8
#     4  12  23  41  63  92 129 172 215 274 330 377
#     4   9  19  39  69  97 123 156 211 265 332 382
#     4   9  19  40  66  95 125 157 204 273 325 373
#     4   9  19  39  65  91 121 160 211 265 320 385
#     4  12  24  38  64  96 134 158 228 278 312 378
#     4  12  23  38  65  99 124 164 220 271 319 386
#     4   9  21  42  63  87 129 170 202 255 330 397
#     4  12  27  43  60  87 130 180 215 258 330 392
#
# _framework density 21.797530999999999
#
# number of rings (size 3 to 8) (size 9 to 14) (size 15 to 20)
#    0.000    1.600    4.000    2.800    0.000    1.067 
#    7.200    1.333    0.000    0.000    0.000    0.000 
#    0.000    0.000    0.000    0.000    0.000    0.000 
#
# Total GULP energy -371767.810975 kJ/mol
# GULP energy per Si atom -12392.260366 kJ/mol
# Density = 2.174792 g / cm^3
# Si number density = 21.797531 Si / 1000 Ang^3
#
#
#
# Elastic Constant Matrix: (Units=GPa)
#
#
# Indices 1 2 3 4 5 6 
#
# 1 108.7528 25.4383 37.9813 -1.0733 -0.1720 0.6893
# 2 25.4383 68.0882 26.1514 -0.5715 -4.1935 0.2761
# 3 37.9813 26.1514 131.3767 1.0139 -0.1780 -0.7197
# 4 -1.0733 -0.5715 1.0139 1487.9012 0.7523 -753.3165
# 5 -0.1720 -4.1935 -0.1780 0.7523 32.5500 -0.4626
# 6 0.6893 0.2761 -0.7197 -753.3165 -0.4626 413.7532
#
#
#
# Elastic Compliance Matrix: (Units=1/GPa)
#
#
# Indices 1 2 3 4 5 6 
#
# 1 0.010793 -0.003092 -0.002505 -0.000025 -0.000355 -0.000067
# 2 -0.003092 0.016924 -0.002472 0.000010 0.002150 0.000011
# 3 -0.002505 -0.002472 0.008828 0.000025 -0.000283 0.000066
# 4 -0.000025 0.000010 0.000025 0.008595 0.000025 0.015649
# 5 -0.000355 0.002150 -0.000283 0.000025 0.030996 0.000079
# 6 -0.000067 0.000011 0.000066 0.015649 0.000079 0.030910
#
#
# Mechanical properties :
#
#
# Convention : Reuss Voigt Hill
#
# Bulk Modulus (GPa) = 49.00512 54.15108 51.57810
# Shear Modulus (GPa) = 38.46536 401.41733 219.94134
#
# Velocity S-wave (km/s) = 4.20535 13.58518 10.05589
# Velocity P-wave (km/s) = 6.79049 16.46125 12.59134
#
# Compressibility (1/GPa) = 0.02040603
#
# Stress axis : x y z
#
# Youngs Moduli (GPa) = 92.65242 59.08784 113.27718
#
# Poissons Ratio (x) = 0.18269 0.28381
# Poissons Ratio (y) = 0.28647 0.28003
# Poissons Ratio (z) = 0.23214 0.14607
#
# Static dielectric constant tensor:
#      x y z
#    x 3.914930 -0.000010 -0.233260 
#    y -0.000010 3.815070 -0.000170 
#    z -0.233260 -0.000170 4.189550 
# 
# 
# High freq. dielectric constant tensor:
#      x y z
#    x 1.851560 0.000000 -0.015600 
#    y 0.000000 1.849360 -0.000020 
#    z -0.015600 -0.000020 1.860490 
# 
# From -- ./inp_files/240882.got.cif
#   From: 2010.06.25/outbox.cif.g09.slc.cpg/sg15_121_cif.got.tgz:240882.got - 2010.06.28 07:06:18.
