data_PCOD8154693
_publ_section_title
;
Structure prediction by ZEFSAII (Michael W. Deem and Ramdas Pophale) SiO2 
 PCOD8154693
Probable space group: C 2/C
;
_chemical_formula_sum "Si O2"
_cell_formula_units_Z 40
_cell_length_a 14.564576
_cell_length_b 14.014678
_cell_length_c 9.996382
_cell_angle_alpha 90.000000
_cell_angle_beta 110.167268
_cell_angle_gamma 90.000000
_cell_volume 1915.340827
_symmetry_space_group_name_H-M "C 2/C"
_symmetry_group_IT_number 15
_symmetry_cell_setting 'monoclinic'
loop_
_space_group_symop_operation_xyz
x,y,z
-x,y,1/2-z
-x,-y,-z
x,-y,1/2+z
1/2+x,1/2+y,z
1/2-x,1/2+y,1/2-z
1/2-x,1/2-y,-z
1/2+x,1/2-y,1/2+z
loop_
_atom_site_type_symbol
_atom_site_label
_atom_site_fract_x
_atom_site_fract_y
_atom_site_fract_z
Si Si1 0.012236 0.246524 0.907582
Si Si2 0.798293 0.287177 0.891066
Si Si3 0.597171 0.459547 0.491246
Si Si4 0.283831 0.482735 0.684247
Si Si5 0.797434 0.307334 0.401470
O O1 0.000000 0.282202 0.750000
O O2 0.907504 0.244760 0.928597
O O3 0.071616 0.147357 0.934183
O O4 0.085332 0.318010 0.021059
O O5 0.797980 0.402635 0.889085
O O6 0.725179 0.252626 0.740621
O O7 0.750000 0.250000 0.000000
O O8 0.500000 0.500000 0.500000
O O9 0.681091 0.467072 0.646264
O O10 0.627116 0.523280 0.377593
O O11 0.240655 0.586383 0.635123
O O12 0.750000 0.250000 0.500000
#
# Coordination Sequence:
#
# PCOD8154693 Si02
#       5
#     8   8   8   8   8
#     4  12  24  44  74 100 138 195 235 275 348 433
#     4  12  26  44  68 109 147 173 229 308 357 397
#     4  12  23  40  68 102 134 177 241 282 343 415
#     4  12  24  43  69 101 137 184 225 294 350 406
#     4  12  23  46  72  98 139 188 239 281 341 435
#
# _framework density 20.884011999999998
#
# number of rings (size 3 to 8) (size 9 to 14) (size 15 to 20)
#    0.000    0.000    6.000    5.400    0.000    1.600 
#    0.000    0.000    0.000    0.000    0.000    0.000 
#    0.000    0.000    0.000    0.000    0.000    0.000 
#
# Total GULP energy -247965.321388 kJ/mol
# GULP energy per Si atom -12398.266069 kJ/mol
# Density = 2.083648 g / cm^3
# Si number density = 20.884012 Si / 1000 Ang^3
#
#
#
# Elastic Constant Matrix: (Units=GPa)
#
#
# Indices 1 2 3 4 5 6 
#
# 1 120.2938 17.1186 59.4899 0.0000 6.0787 0.0000
# 2 17.1186 117.6589 32.0351 0.0000 7.5824 0.0000
# 3 59.4899 32.0351 131.1396 0.0000 -0.5773 0.0000
# 4 0.0000 0.0000 0.0000 30.4004 0.0000 7.9493
# 5 6.0787 7.5824 -0.5773 0.0000 43.9578 0.0000
# 6 0.0000 0.0000 0.0000 7.9493 0.0000 39.4623
#
#
#
# Elastic Compliance Matrix: (Units=1/GPa)
#
#
# Indices 1 2 3 4 5 6 
#
# 1 0.010826 -0.000147 -0.004882 0.000000 -0.001536 0.000000
# 2 -0.000147 0.009221 -0.002193 0.000000 -0.001599 0.000000
# 3 -0.004882 -0.002193 0.010381 0.000000 0.001190 0.000000
# 4 0.000000 0.000000 0.000000 0.034723 0.000000 -0.006995
# 5 -0.001536 -0.001599 0.001190 0.000000 0.023253 0.000000
# 6 0.000000 0.000000 0.000000 -0.006995 0.000000 0.026750
#
#
# Mechanical properties :
#
#
# Convention : Reuss Voigt Hill
#
# Bulk Modulus (GPa) = 62.56201 65.15329 63.85765
# Shear Modulus (GPa) = 37.05779 40.12735 38.59257
#
# Velocity S-wave (km/s) = 4.21700 4.38818 4.30344
# Velocity P-wave (km/s) = 7.33026 7.54587 7.43885
#
# Compressibility (1/GPa) = 0.01598414
#
# Stress axis : x y z
#
# Youngs Moduli (GPa) = 92.37235 108.45276 96.33029
#
# Poissons Ratio (x) = 0.01593 0.47027
# Poissons Ratio (y) = 0.01357 0.21124
# Poissons Ratio (z) = 0.45095 0.23782
#
# Static dielectric constant tensor:
#      x y z
#    x 4.010560 0.000000 -0.128510 
#    y 0.000000 5.568220 0.000000 
#    z -0.128510 0.000000 4.620180 
# 
# 
# High freq. dielectric constant tensor:
#      x y z
#    x 1.817640 0.000000 -0.001440 
#    y 0.000000 1.818850 0.000000 
#    z -0.001440 0.000000 1.834410 
# 
# From -- ./inp_files/37804.got.cif
#   From: 2010.06.25/outbox.cif.g09.slc.cpg/sg15_19_cif.got.tgz:37804.got - 2010.06.28 07:06:18.
