data_PCOD8154670
_publ_section_title
;
Structure prediction by ZEFSAII (Michael W. Deem and Ramdas Pophale) SiO2 
 PCOD8154670
Probable space group: C 2/C
;
_chemical_formula_sum "Si O2"
_cell_formula_units_Z 44
_cell_length_a 23.225760
_cell_length_b 6.823092
_cell_length_c 12.831821
_cell_angle_alpha 90.000000
_cell_angle_beta 108.599286
_cell_angle_gamma 90.000000
_cell_volume 1927.274186
_symmetry_space_group_name_H-M "C 2/C"
_symmetry_group_IT_number 15
_symmetry_cell_setting 'monoclinic'
loop_
_space_group_symop_operation_xyz
x,y,z
-x,y,1/2-z
-x,-y,-z
x,-y,1/2+z
1/2+x,1/2+y,z
1/2-x,1/2+y,1/2-z
1/2-x,1/2-y,-z
1/2+x,1/2-y,1/2+z
loop_
_atom_site_type_symbol
_atom_site_label
_atom_site_fract_x
_atom_site_fract_y
_atom_site_fract_z
Si Si1 0.503706 0.944000 0.617727
Si Si2 0.367580 0.847054 0.568118
Si Si3 0.000000 0.806084 0.750000
Si Si4 0.680486 0.638706 0.157897
Si Si5 0.721430 0.865319 0.387849
Si Si6 0.095199 0.893785 0.241057
O O1 0.440254 0.859968 0.621542
O O2 0.555497 0.786726 0.673225
O O3 0.500000 0.000000 0.500000
O O4 0.514744 0.162763 0.664162
O O5 0.346541 0.799114 0.438394
O O6 0.353257 0.679262 0.646547
O O7 0.338649 0.046043 0.593865
O O8 0.058195 0.947385 0.787025
O O9 0.704619 0.734355 0.278447
O O10 0.734359 0.535220 0.126654
O O11 0.628108 0.484859 0.158740
O O12 0.750000 0.750000 0.500000
#
# Coordination Sequence:
#
# PCOD8154670 Si02
#       6
#     8   8   4   8   8   8
#     4  12  27  43  73 106 149 193 238 292 362 444
#     4  12  25  47  71 108 145 191 241 303 362 433
#     4  12  22  48  66 104 150 194 234 292 358 422
#     4  12  27  45  77 104 145 193 244 309 370 430
#     4  12  27  50  74 106 143 193 251 309 366 434
#     4  12  26  47  72 112 150 190 245 297 365 445
#
# _framework density 22.830172000000001
#
# number of rings (size 3 to 8) (size 9 to 14) (size 15 to 20)
#    0.000    0.000    3.636    6.000    7.636    1.455 
#    0.000    0.000    0.000    0.000    0.000    0.000 
#    0.000    0.000    0.000    0.000    0.000    0.000 
#
# Total GULP energy -272598.783392 kJ/mol
# GULP energy per Si atom -12390.853791 kJ/mol
# Density = 2.277821 g / cm^3
# Si number density = 22.830172 Si / 1000 Ang^3
#
#
#
# Elastic Constant Matrix: (Units=GPa)
#
#
# Indices 1 2 3 4 5 6 
#
# 1 75.8481 27.3250 15.7068 0.0000 -2.8904 0.0000
# 2 27.3250 127.4444 66.8990 0.0000 0.0063 0.0000
# 3 15.7068 66.8990 155.7649 0.0000 -9.3580 0.0000
# 4 0.0000 0.0000 0.0000 52.7171 0.0000 -4.8522
# 5 -2.8904 0.0063 -9.3580 0.0000 35.0310 0.0000
# 6 0.0000 0.0000 0.0000 -4.8522 0.0000 48.1537
#
#
#
# Elastic Compliance Matrix: (Units=1/GPa)
#
#
# Indices 1 2 3 4 5 6 
#
# 1 0.014337 -0.003036 -0.000072 0.000000 0.001164 0.000000
# 2 -0.003036 0.010822 -0.004428 0.000000 -0.001435 0.000000
# 3 -0.000072 -0.004428 0.008464 0.000000 0.002256 0.000000
# 4 0.000000 0.000000 0.000000 0.019147 0.000000 0.001929
# 5 0.001164 -0.001435 0.002256 0.000000 0.029245 0.000000
# 6 0.000000 0.000000 0.000000 0.001929 0.000000 0.020961
#
#
# Mechanical properties :
#
#
# Convention : Reuss Voigt Hill
#
# Bulk Modulus (GPa) = 53.90353 64.32432 59.11393
# Shear Modulus (GPa) = 40.24696 43.78882 42.01789
#
# Velocity S-wave (km/s) = 4.20323 4.38428 4.29471
# Velocity P-wave (km/s) = 6.87154 7.33931 7.10927
#
# Compressibility (1/GPa) = 0.01855166
#
# Stress axis : x y z
#
# Youngs Moduli (GPa) = 69.74780 92.40418 118.14131
#
# Poissons Ratio (x) = 0.28058 0.00847
# Poissons Ratio (y) = 0.21179 0.52312
# Poissons Ratio (z) = 0.00500 0.40916
#
# Static dielectric constant tensor:
#      x y z
#    x 4.182320 0.000000 -0.106910 
#    y 0.000000 4.636540 0.000000 
#    z -0.106910 0.000000 4.316300 
# 
# 
# High freq. dielectric constant tensor:
#      x y z
#    x 1.910430 0.000000 -0.011950 
#    y 0.000000 1.916050 0.000000 
#    z -0.011950 0.000000 1.920000 
# 
# From -- ./inp_files/175515.got.cif
#   From: 2010.06.25/outbox.cif.g09.slc.cpg/sg15_88_cif.got.tgz:175515.got - 2010.06.28 07:06:18.
