data_PCOD8154587
_publ_section_title
;
Structure prediction by ZEFSAII (Michael W. Deem and Ramdas Pophale) SiO2 
 PCOD8154587
Probable space group: C 2/C
;
_chemical_formula_sum "Si O2"
_cell_formula_units_Z 48
_cell_length_a 18.707746
_cell_length_b 13.888918
_cell_length_c 19.147702
_cell_angle_alpha 90.000000
_cell_angle_beta 25.938433
_cell_angle_gamma 90.000000
_cell_volume 2176.157771
_symmetry_space_group_name_H-M "C 2/C"
_symmetry_group_IT_number 15
_symmetry_cell_setting 'monoclinic'
loop_
_space_group_symop_operation_xyz
x,y,z
-x,y,1/2-z
-x,-y,-z
x,-y,1/2+z
1/2+x,1/2+y,z
1/2-x,1/2+y,1/2-z
1/2-x,1/2-y,-z
1/2+x,1/2-y,1/2+z
loop_
_atom_site_type_symbol
_atom_site_label
_atom_site_fract_x
_atom_site_fract_y
_atom_site_fract_z
Si Si1 0.781855 0.122137 0.250430
Si Si2 0.316440 0.663384 0.807562
Si Si3 0.503776 0.521612 0.327514
Si Si4 0.507817 0.158922 0.164335
Si Si5 0.208317 0.510216 0.687278
Si Si6 0.414016 0.829782 0.112213
O O1 0.850000 0.076292 0.261739
O O2 0.798385 0.047996 0.170909
O O3 0.594762 0.149461 0.426593
O O4 0.893113 0.215687 0.138563
O O5 0.463573 0.592248 0.696625
O O6 0.394412 0.767093 0.719987
O O7 0.210595 0.627277 0.835249
O O8 0.196286 0.667266 0.978946
O O9 0.500000 0.556057 0.250000
O O10 0.332553 0.539411 0.516736
O O11 0.500000 0.193707 0.250000
O O12 0.439396 0.051884 0.214622
O O13 0.127043 0.610815 0.782124
#
# Coordination Sequence:
#
# PCOD8154587 Si02
#       6
#     8   8   8   8   8   8
#     4  12  25  45  70  99 136 171 227 274 327 394
#     4  12  22  40  65  95 140 167 222 271 328 396
#     4  12  27  45  67  99 135 177 222 276 334 392
#     4  12  24  39  62  98 138 177 213 268 336 398
#     4  12  24  43  70  97 134 178 221 269 329 391
#     4  12  24  43  71 104 126 173 227 275 321 391
#
# _framework density 22.057224999999999
#
# number of rings (size 3 to 8) (size 9 to 14) (size 15 to 20)
#    0.000    0.000    5.000    6.000    2.333    0.000 
#    0.000    4.167    0.000    0.000    0.000    0.000 
#    0.000    0.000    0.000    0.000    0.000    0.000 
#
# Total GULP energy -297742.231634 kJ/mol
# GULP energy per Si atom -12405.926318 kJ/mol
# Density = 2.200702 g / cm^3
# Si number density = 22.057225 Si / 1000 Ang^3
#
#
#
# Elastic Constant Matrix: (Units=GPa)
#
#
# Indices 1 2 3 4 5 6 
#
# 1 87.7361 11.5514 15.3376 -0.0012 15.6183 0.0000
# 2 11.5514 70.4441 9.5061 0.0143 8.0289 -0.0056
# 3 15.3376 9.5061 102.3855 0.0175 22.3879 -0.0055
# 4 -0.0012 0.0143 0.0175 36.3078 -0.0092 -0.7261
# 5 15.6183 8.0289 22.3879 -0.0092 34.9623 0.0016
# 6 0.0000 -0.0056 -0.0055 -0.7261 0.0016 22.7587
#
#
#
# Elastic Compliance Matrix: (Units=1/GPa)
#
#
# Indices 1 2 3 4 5 6 
#
# 1 0.012568 -0.001415 -0.000692 0.000000 -0.004846 0.000000
# 2 -0.001415 0.014783 -0.000647 -0.000006 -0.002348 0.000003
# 3 -0.000692 -0.000647 0.011431 -0.000007 -0.006862 0.000003
# 4 0.000000 -0.000006 -0.000007 0.027560 0.000013 0.000879
# 5 -0.004846 -0.002348 -0.006862 0.000013 0.035701 -0.000004
# 6 0.000000 0.000003 0.000003 0.000879 -0.000004 0.043967
#
#
# Mechanical properties :
#
#
# Convention : Reuss Voigt Hill
#
# Bulk Modulus (GPa) = 30.05335 37.03955 33.54645
# Shear Modulus (GPa) = 30.74870 33.75047 32.24959
#
# Velocity S-wave (km/s) = 3.73774 3.91593 3.82787
# Velocity P-wave (km/s) = 5.68175 6.10532 5.89734
#
# Compressibility (1/GPa) = 0.03327416
#
# Stress axis : x y z
#
# Youngs Moduli (GPa) = 79.56864 67.64672 87.47968
#
# Poissons Ratio (x) = 0.09573 0.06050
# Poissons Ratio (y) = 0.11260 0.05660
# Poissons Ratio (z) = 0.05503 0.04377
#
# Static dielectric constant tensor:
#      x y z
#    x 3.931040 0.000000 0.070240 
#    y 0.000000 3.988900 0.000010 
#    z 0.070240 0.000010 3.968250 
# 
# 
# High freq. dielectric constant tensor:
#      x y z
#    x 1.862160 0.000000 0.000870 
#    y 0.000000 1.864680 0.000000 
#    z 0.000870 0.000000 1.881800 
# 
# From -- ./inp_files/211312.got.cif
#   From: 2010.06.25/outbox.cif.g09.slc.cpg/sg15_106_cif.got.tgz:211312.got - 2010.06.28 07:06:18.
