data_PCOD8154689
_publ_section_title
;
Structure prediction by ZEFSAII (Michael W. Deem and Ramdas Pophale) SiO2 
 PCOD8154689
Probable space group: C 2/C
;
_chemical_formula_sum "Si O2"
_cell_formula_units_Z 56
_cell_length_a 26.713173
_cell_length_b 17.065691
_cell_length_c 9.722490
_cell_angle_alpha 90.000000
_cell_angle_beta 39.258803
_cell_angle_gamma 90.000000
_cell_volume 2804.852366
_symmetry_space_group_name_H-M "C 2/C"
_symmetry_group_IT_number 15
_symmetry_cell_setting 'monoclinic'
loop_
_space_group_symop_operation_xyz
x,y,z
-x,y,1/2-z
-x,-y,-z
x,-y,1/2+z
1/2+x,1/2+y,z
1/2-x,1/2+y,1/2-z
1/2-x,1/2-y,-z
1/2+x,1/2-y,1/2+z
loop_
_atom_site_type_symbol
_atom_site_label
_atom_site_fract_x
_atom_site_fract_y
_atom_site_fract_z
Si Si1 0.804411 0.515980 0.957189
Si Si2 0.883600 0.805918 0.388893
Si Si3 0.393831 0.131724 0.353682
Si Si4 0.434614 0.132404 0.585059
Si Si5 0.562538 0.692128 0.422866
Si Si6 0.450356 0.546799 0.220422
Si Si7 0.704385 0.453709 0.925680
O O1 0.827263 0.429882 0.958486
O O2 0.881898 0.570278 0.779137
O O3 0.757585 0.504878 0.915192
O O4 0.749056 0.556530 0.186721
O O5 0.858328 0.718078 0.400467
O O6 0.887642 0.819023 0.544334
O O7 0.818161 0.866775 0.469313
O O8 0.969701 0.821599 0.144127
O O9 0.415440 0.127312 0.466285
O O10 0.472026 0.114069 0.095244
O O11 0.419262 0.220585 0.673478
O O12 0.587111 0.627066 0.259708
O O13 0.500000 0.567175 0.250000
O O14 0.378076 0.495680 0.428295
O O15 0.500000 0.500000 0.000000
#
# Coordination Sequence:
#
# PCOD8154689 Si02
#       7
#     8   8   8   8   8   8   8
#     4  12  23  41  57  94 127 164 206 248 324 367
#     4   9  18  37  62  90 117 160 204 255 314 364
#     4   9  19  39  67  86 116 165 215 254 303 373
#     4   9  19  40  65  89 118 163 213 257 302 367
#     4   9  18  37  65  89 115 157 215 258 297 359
#     4  12  23  40  65  90 124 167 213 254 299 371
#     4  12  25  37  59  91 130 162 196 257 320 373
#
# _framework density 19.965401
#
# number of rings (size 3 to 8) (size 9 to 14) (size 15 to 20)
#    0.000    1.714    2.857    4.714    0.000    0.571 
#    2.571    5.000    0.000    0.000    0.000    0.000 
#    0.000    0.000    0.000    0.000    0.000    0.000 
#
# Total GULP energy -347144.999896 kJ/mol
# GULP energy per Si atom -12398.035711 kJ/mol
# Density = 1.991996 g / cm^3
# Si number density = 19.965401 Si / 1000 Ang^3
#
#
#
# Elastic Constant Matrix: (Units=GPa)
#
#
# Indices 1 2 3 4 5 6 
#
# 1 48.6151 29.3158 15.2706 0.0000 -0.5595 0.0000
# 2 29.3158 132.6763 51.1103 0.0000 -10.2674 0.0000
# 3 15.2706 51.1103 93.4616 0.0000 -4.8087 0.0000
# 4 0.0000 0.0000 0.0000 26.2764 0.0000 -4.1800
# 5 -0.5595 -10.2674 -4.8087 0.0000 23.5028 0.0000
# 6 0.0000 0.0000 0.0000 -4.1800 0.0000 36.2233
#
#
#
# Elastic Compliance Matrix: (Units=1/GPa)
#
#
# Indices 1 2 3 4 5 6 
#
# 1 0.023931 -0.004926 -0.001312 0.000000 -0.001850 0.000000
# 2 -0.004926 0.010797 -0.004915 0.000000 0.003594 0.000000
# 3 -0.001312 -0.004915 0.013633 0.000000 0.000611 0.000000
# 4 0.000000 0.000000 0.000000 0.038769 0.000000 0.004474
# 5 -0.001850 0.003594 0.000611 0.000000 0.044199 0.000000
# 6 0.000000 0.000000 0.000000 0.004474 0.000000 0.028123
#
#
# Mechanical properties :
#
#
# Convention : Reuss Voigt Hill
#
# Bulk Modulus (GPa) = 38.37779 51.79406 45.08593
# Shear Modulus (GPa) = 26.25495 29.13760 27.69627
#
# Velocity S-wave (km/s) = 3.63026 3.82436 3.72857
# Velocity P-wave (km/s) = 6.06923 6.74531 6.41618
#
# Compressibility (1/GPa) = 0.02605673
#
# Stress axis : x y z
#
# Youngs Moduli (GPa) = 41.78739 92.61955 73.35174
#
# Poissons Ratio (x) = 0.45621 0.09621
# Poissons Ratio (y) = 0.20583 0.36050
# Poissons Ratio (z) = 0.05481 0.45519
#
# Static dielectric constant tensor:
#      x y z
#    x 3.549270 0.000000 -0.235980 
#    y 0.000000 3.934900 0.000000 
#    z -0.235980 0.000000 3.635320 
# 
# 
# High freq. dielectric constant tensor:
#      x y z
#    x 1.756240 0.000000 -0.007740 
#    y 0.000000 1.794850 0.000000 
#    z -0.007740 0.000000 1.765680 
# 
# From -- ./inp_files/67138.got.cif
#   From: 2010.06.25/outbox.cif.g09.slc.cpg/sg15_34_cif.got.tgz:67138.got - 2010.06.28 07:06:18.
