data_PCOD8154769
_publ_section_title
;
Structure prediction by ZEFSAII (Michael W. Deem and Ramdas Pophale) SiO2 
 PCOD8154769
Probable space group: C 2/C
;
_chemical_formula_sum "Si O2"
_cell_formula_units_Z 40
_cell_length_a 21.495938
_cell_length_b 9.555056
_cell_length_c 8.546127
_cell_angle_alpha 90.000000
_cell_angle_beta 94.249437
_cell_angle_gamma 90.000000
_cell_volume 1750.505270
_symmetry_space_group_name_H-M "C 2/C"
_symmetry_group_IT_number 15
_symmetry_cell_setting 'monoclinic'
loop_
_space_group_symop_operation_xyz
x,y,z
-x,y,1/2-z
-x,-y,-z
x,-y,1/2+z
1/2+x,1/2+y,z
1/2-x,1/2+y,1/2-z
1/2-x,1/2-y,-z
1/2+x,1/2-y,1/2+z
loop_
_atom_site_type_symbol
_atom_site_label
_atom_site_fract_x
_atom_site_fract_y
_atom_site_fract_z
Si Si1 0.813274 0.932067 0.288521
Si Si2 0.623753 0.808029 0.530464
Si Si3 0.497656 0.654709 0.565901
Si Si4 0.360780 0.315156 0.970538
Si Si5 0.671044 0.937674 0.224436
O O1 0.827978 0.817333 0.424535
O O2 0.831790 0.875136 0.123255
O O3 0.741290 0.976334 0.285062
O O4 0.853488 0.070523 0.331386
O O5 0.553371 0.751868 0.515806
O O6 0.635493 0.869620 0.362502
O O7 0.633449 0.924757 0.666064
O O8 0.500000 0.642182 0.750000
O O9 0.500000 0.500000 0.500000
O O10 0.433080 0.725453 0.502007
O O11 0.325628 0.172541 0.917967
#
# Coordination Sequence:
#
# PCOD8154769 Si02
#       5
#     8   8   8   8   8
#     4  12  23  46  74 105 143 189 238 289 350 431
#     4  12  26  46  71 103 147 186 237 293 355 419
#     4  12  26  48  75 101 140 183 247 289 343 427
#     4  12  24  44  74 104 142 189 238 293 350 414
#     4  12  27  45  70 109 145 185 234 294 364 418
#
# _framework density 22.850546000000001
#
# number of rings (size 3 to 8) (size 9 to 14) (size 15 to 20)
#    0.000    0.000    4.000    6.000    2.800    0.800 
#    0.000    0.000    0.000    0.000    0.000    0.000 
#    0.000    0.000    0.000    0.000    0.000    0.000 
#
# Total GULP energy -248160.346695 kJ/mol
# GULP energy per Si atom -12408.017335 kJ/mol
# Density = 2.279854 g / cm^3
# Si number density = 22.850546 Si / 1000 Ang^3
#
#
#
# Elastic Constant Matrix: (Units=GPa)
#
#
# Indices 1 2 3 4 5 6 
#
# 1 171.2637 63.6079 65.6412 0.0000 5.1763 0.0000
# 2 63.6079 118.8893 14.7698 0.0000 21.0992 0.0000
# 3 65.6412 14.7698 76.0772 0.0000 7.5799 0.0000
# 4 0.0000 0.0000 0.0000 61.3944 0.0000 16.3987
# 5 5.1763 21.0992 7.5799 0.0000 37.2081 0.0000
# 6 0.0000 0.0000 0.0000 16.3987 0.0000 45.3565
#
#
#
# Elastic Compliance Matrix: (Units=1/GPa)
#
#
# Indices 1 2 3 4 5 6 
#
# 1 0.011195 -0.005478 -0.008931 0.000000 0.003368 0.000000
# 2 -0.005478 0.012163 0.003038 0.000000 -0.006754 0.000000
# 3 -0.008931 0.003038 0.020729 0.000000 -0.004703 0.000000
# 4 0.000000 0.000000 0.000000 0.018029 0.000000 -0.006518
# 5 0.003368 -0.006754 -0.004703 0.000000 0.031195 0.000000
# 6 0.000000 0.000000 0.000000 -0.006518 0.000000 0.024404
#
#
# Mechanical properties :
#
#
# Convention : Reuss Voigt Hill
#
# Bulk Modulus (GPa) = 46.84919 72.69645 59.77282
# Shear Modulus (GPa) = 33.88160 43.60590 38.74375
#
# Velocity S-wave (km/s) = 3.85482 4.37316 4.12215
# Velocity P-wave (km/s) = 6.35294 7.57511 6.99078
#
# Compressibility (1/GPa) = 0.02134509
#
# Stress axis : x y z
#
# Youngs Moduli (GPa) = 89.32871 82.21651 48.24072
#
# Poissons Ratio (x) = 0.45034 0.43084
# Poissons Ratio (y) = 0.48930 -0.14654
# Poissons Ratio (z) = 0.79781 -0.24975
#
# Static dielectric constant tensor:
#      x y z
#    x 4.876650 0.000000 -0.067040 
#    y 0.000000 4.353710 0.000000 
#    z -0.067040 0.000000 4.527610 
# 
# 
# High freq. dielectric constant tensor:
#      x y z
#    x 1.907680 0.000000 0.012330 
#    y 0.000000 1.911270 0.000000 
#    z 0.012330 0.000000 1.919120 
# 
# From -- ./inp_files/59999.got.cif
#   From: 2010.06.25/outbox.cif.g09.slc.cpg/sg15_30_cif.got.tgz:59999.got - 2010.06.28 07:06:18.
