data_PCOD8154548
_publ_section_title
;
Structure prediction by ZEFSAII (Michael W. Deem and Ramdas Pophale) SiO2 
 PCOD8154548
Probable space group: C 2/C
;
_chemical_formula_sum "Si O2"
_cell_formula_units_Z 32
_cell_length_a 10.744804
_cell_length_b 18.191342
_cell_length_c 13.686381
_cell_angle_alpha 90.000000
_cell_angle_beta 32.950991
_cell_angle_gamma 90.000000
_cell_volume 1455.083979
_symmetry_space_group_name_H-M "C 2/C"
_symmetry_group_IT_number 15
_symmetry_cell_setting 'monoclinic'
loop_
_space_group_symop_operation_xyz
x,y,z
-x,y,1/2-z
-x,-y,-z
x,-y,1/2+z
1/2+x,1/2+y,z
1/2-x,1/2+y,1/2-z
1/2-x,1/2-y,-z
1/2+x,1/2-y,1/2+z
loop_
_atom_site_type_symbol
_atom_site_label
_atom_site_fract_x
_atom_site_fract_y
_atom_site_fract_z
Si Si1 0.395805 0.686482 0.717154
Si Si2 0.287430 0.835485 0.459259
Si Si3 0.337788 0.334373 0.645122
Si Si4 0.517870 0.913508 0.984553
O O1 0.500000 0.715126 0.750000
O O2 0.603293 0.664989 0.508647
O O3 0.241090 0.751559 0.771893
O O4 0.239661 0.615759 0.837949
O O5 0.500000 0.852811 0.250000
O O6 0.250000 0.750000 0.500000
O O7 0.319769 0.879467 0.538544
O O8 0.057670 0.863587 0.558941
O O9 0.129033 0.389289 0.807602
O O10 0.500000 0.000000 0.000000
#
# Coordination Sequence:
#
# PCOD8154548 Si02
#       4
#     8   8   8   8
#     4  12  25  44  71 107 142 191 248 299 361 444
#     4  12  21  43  76 106 136 185 252 301 348 439
#     4  12  23  44  76 100 138 192 250 295 353 443
#     4  12  28  46  69 112 148 183 241 313 377 418
#
# _framework density 21.991855999999999
#
# number of rings (size 3 to 8) (size 9 to 14) (size 15 to 20)
#    0.000    0.000    7.500    3.000    0.000    3.000 
#    4.500    0.000    0.000    0.000    0.000    0.000 
#    0.000    0.000    0.000    0.000    0.000    0.000 
#
# Total GULP energy -198471.807812 kJ/mol
# GULP energy per Si atom -12404.487988 kJ/mol
# Density = 2.194180 g / cm^3
# Si number density = 21.991856 Si / 1000 Ang^3
#
#
#
# Elastic Constant Matrix: (Units=GPa)
#
#
# Indices 1 2 3 4 5 6 
#
# 1 95.3695 26.3145 21.5891 0.0232 12.5193 -0.0056
# 2 26.3145 158.6695 71.1317 0.0215 -2.5957 -0.0077
# 3 21.5891 71.1317 182.4195 0.0020 33.3155 -0.0050
# 4 0.0232 0.0215 0.0020 30.3559 -0.0144 -2.9733
# 5 12.5193 -2.5957 33.3155 -0.0144 32.3361 0.0049
# 6 -0.0056 -0.0077 -0.0050 -2.9733 0.0049 23.3582
#
#
#
# Elastic Compliance Matrix: (Units=1/GPa)
#
#
# Indices 1 2 3 4 5 6 
#
# 1 0.011673 -0.002205 0.000414 -0.000010 -0.005123 0.000002
# 2 -0.002205 0.008635 -0.004174 -0.000001 0.005847 0.000000
# 3 0.000414 -0.004174 0.008808 -0.000002 -0.009570 0.000002
# 4 -0.000010 -0.000001 -0.000002 0.033358 0.000020 0.004246
# 5 -0.005123 0.005847 -0.009570 0.000020 0.043238 -0.000008
# 6 0.000002 0.000000 0.000002 0.004246 -0.000008 0.043352
#
#
# Mechanical properties :
#
#
# Convention : Reuss Voigt Hill
#
# Bulk Modulus (GPa) = 58.18816 74.94770 66.56793
# Shear Modulus (GPa) = 29.98969 38.37158 34.18064
#
# Velocity S-wave (km/s) = 3.69680 4.18162 3.94666
# Velocity P-wave (km/s) = 6.68866 7.58079 7.14865
#
# Compressibility (1/GPa) = 0.01718563
#
# Stress axis : x y z
#
# Youngs Moduli (GPa) = 85.66936 115.80741 113.52887
#
# Poissons Ratio (x) = 0.25539 -0.04701
# Poissons Ratio (y) = 0.18893 0.47387
# Poissons Ratio (z) = -0.03547 0.48338
#
# Static dielectric constant tensor:
#      x y z
#    x 3.966850 0.001040 0.033800 
#    y 0.001040 3.883080 -0.000650 
#    z 0.033800 -0.000650 4.446480 
# 
# 
# High freq. dielectric constant tensor:
#      x y z
#    x 1.864200 0.000000 0.001310 
#    y 0.000000 1.824990 0.000010 
#    z 0.001310 0.000010 1.896800 
# 
# From -- ./inp_files/145333.got.cif
#   From: 2010.06.25/outbox.cif.g09.slc.cpg/sg15_73_cif.got.tgz:145333.got - 2010.06.28 07:06:18.
