data_PCOD8154677
_publ_section_title
;
Structure prediction by ZEFSAII (Michael W. Deem and Ramdas Pophale) SiO2 
 PCOD8154677
Probable space group: C 2/C
;
_chemical_formula_sum "Si O2"
_cell_formula_units_Z 56
_cell_length_a 21.723242
_cell_length_b 20.966337
_cell_length_c 10.380453
_cell_angle_alpha 90.000000
_cell_angle_beta 35.760709
_cell_angle_gamma 90.000000
_cell_volume 2762.960749
_symmetry_space_group_name_H-M "C 2/C"
_symmetry_group_IT_number 15
_symmetry_cell_setting 'monoclinic'
loop_
_space_group_symop_operation_xyz
x,y,z
-x,y,1/2-z
-x,-y,-z
x,-y,1/2+z
1/2+x,1/2+y,z
1/2-x,1/2+y,1/2-z
1/2-x,1/2-y,-z
1/2+x,1/2-y,1/2+z
loop_
_atom_site_type_symbol
_atom_site_label
_atom_site_fract_x
_atom_site_fract_y
_atom_site_fract_z
Si Si1 0.878177 0.635810 0.746124
Si Si2 0.618011 0.136099 0.335992
Si Si3 0.829300 0.126794 0.541555
Si Si4 0.233917 0.072190 0.602786
Si Si5 0.119681 0.272140 0.045814
Si Si6 0.432368 0.492136 0.743544
Si Si7 0.884633 0.530622 0.945255
O O1 0.796629 0.628019 0.767728
O O2 0.831161 0.694584 0.911198
O O3 0.874996 0.571874 0.833421
O O4 0.997410 0.647676 0.493570
O O5 0.664239 0.197516 0.336514
O O6 0.628797 0.072985 0.404802
O O7 0.689840 0.125172 0.088882
O O8 0.846735 0.105276 0.659893
O O9 0.875958 0.196975 0.449759
O O10 0.893349 0.080681 0.335296
O O11 0.169499 0.037194 0.598862
O O12 0.296587 0.023144 0.587763
O O13 0.000000 0.297484 0.250000
O O14 0.500000 0.516927 0.750000
O O15 0.500000 0.500000 0.500000
O O16 0.000000 0.497928 0.750000
#
# Coordination Sequence:
#
# PCOD8154677 Si02
#       7
#     8   8   8   8   8   8   8
#     4   9  19  38  60  89 120 154 202 256 309 379
#     4   9  21  38  58  87 128 157 192 264 320 371
#     4  12  23  37  64  91 116 169 216 254 317 381
#     4  12  24  36  61  92 127 161 203 258 323 380
#     4   9  20  40  61  83 117 164 218 260 308 371
#     4  12  26  45  62  91 131 166 218 271 308 368
#     4   9  19  34  57  88 121 156 190 239 316 389
#
# _framework density 20.268111999999999
#
# number of rings (size 3 to 8) (size 9 to 14) (size 15 to 20)
#    0.000    1.714    2.857    3.429    2.000    1.714 
#    0.000    0.000    0.000    0.000    0.000    0.000 
#    0.000    0.000    0.000    0.000    0.000    0.000 
#
# Total GULP energy -347107.029048 kJ/mol
# GULP energy per Si atom -12396.679609 kJ/mol
# Density = 2.022198 g / cm^3
# Si number density = 20.268112 Si / 1000 Ang^3
#
#
#
# Elastic Constant Matrix: (Units=GPa)
#
#
# Indices 1 2 3 4 5 6 
#
# 1 93.2947 33.1926 26.3173 0.0000 -4.5134 0.0000
# 2 33.1926 107.4367 38.3371 0.0000 7.2755 0.0000
# 3 26.3173 38.3371 87.6978 0.0000 11.3432 0.0000
# 4 0.0000 0.0000 0.0000 20.7857 0.0000 -0.7014
# 5 -4.5134 7.2755 11.3432 0.0000 32.5296 0.0000
# 6 0.0000 0.0000 0.0000 -0.7014 0.0000 20.2565
#
#
#
# Elastic Compliance Matrix: (Units=1/GPa)
#
#
# Indices 1 2 3 4 5 6 
#
# 1 0.012838 -0.003160 -0.002925 0.000000 0.003508 0.000000
# 2 -0.003160 0.011827 -0.004004 0.000000 -0.001688 0.000000
# 3 -0.002925 -0.004004 0.014627 0.000000 -0.004611 0.000000
# 4 0.000000 0.000000 0.000000 0.048166 0.000000 0.001668
# 5 0.003508 -0.001688 -0.004611 0.000000 0.033213 0.000000
# 6 0.000000 0.000000 0.000000 0.001668 0.000000 0.049425
#
#
# Mechanical properties :
#
#
# Convention : Reuss Voigt Hill
#
# Bulk Modulus (GPa) = 52.31523 53.79148 53.05336
# Shear Modulus (GPa) = 25.42659 27.41984 26.42322
#
# Velocity S-wave (km/s) = 3.54575 3.68211 3.61457
# Velocity P-wave (km/s) = 6.52922 6.68392 6.60703
#
# Compressibility (1/GPa) = 0.01911489
#
# Stress axis : x y z
#
# Youngs Moduli (GPa) = 77.89507 84.55206 68.36646
#
# Poissons Ratio (x) = 0.26720 0.19996
# Poissons Ratio (y) = 0.24616 0.27371
# Poissons Ratio (z) = 0.22783 0.33851
#
# Static dielectric constant tensor:
#      x y z
#    x 3.828050 0.000000 -0.168950 
#    y 0.000000 3.488830 0.000000 
#    z -0.168950 0.000000 3.540470 
# 
# 
# High freq. dielectric constant tensor:
#      x y z
#    x 1.794030 0.000000 -0.007770 
#    y 0.000000 1.778740 0.000000 
#    z -0.007770 0.000000 1.781140 
# 
# From -- ./inp_files/119798.got.cif
#   From: 2010.06.25/outbox.cif.g09.slc.cpg/sg15_60_cif.got.tgz:119798.got - 2010.06.28 07:06:18.
