data_PCOD8154320
_publ_section_title
;
Structure prediction by ZEFSAII (Michael W. Deem and Ramdas Pophale) SiO2 
 PCOD8154320
Probable space group: C 2/C
;
_chemical_formula_sum "Si O2"
_cell_formula_units_Z 24
_cell_length_a 8.968492
_cell_length_b 25.350032
_cell_length_c 5.101605
_cell_angle_alpha 90.000000
_cell_angle_beta 122.470566
_cell_angle_gamma 90.000000
_cell_volume 978.534207
_symmetry_space_group_name_H-M "C 2/C"
_symmetry_group_IT_number 15
_symmetry_cell_setting 'monoclinic'
loop_
_space_group_symop_operation_xyz
x,y,z
-x,y,1/2-z
-x,-y,-z
x,-y,1/2+z
1/2+x,1/2+y,z
1/2-x,1/2+y,1/2-z
1/2-x,1/2-y,-z
1/2+x,1/2-y,1/2+z
loop_
_atom_site_type_symbol
_atom_site_label
_atom_site_fract_x
_atom_site_fract_y
_atom_site_fract_z
Si Si1 0.000000 0.220155 0.250000
Si Si2 0.290858 0.971199 0.021120
Si Si3 0.500000 0.791686 0.750000
Si Si4 0.693564 0.146665 0.057348
O O1 0.170291 0.183943 0.469981
O O2 0.953010 0.255623 0.456629
O O3 0.500000 0.975254 0.250000
O O4 0.231979 0.912627 0.879960
O O5 0.213181 0.988869 0.228316
O O6 0.665467 0.830450 0.827384
O O7 0.500000 0.149610 0.750000
#
# Coordination Sequence:
#
# PCOD8154320 Si02
#       4
#     4   8   4   8
#     4  12  28  44  64  98 134 168 220 268 312 384
#     4   9  20  36  62  93 123 161 210 261 315 379
#     4  12  26  44  66  98 130 174 218 264 318 384
#     4  11  26  43  70  95 131 173 215 263 327 380
#
# _framework density 24.526477
#
# number of rings (size 3 to 8) (size 9 to 14) (size 15 to 20)
#    0.000    1.333    1.667    2.000   16.333    0.000 
#    0.000    1.667    0.000    0.000    0.000    0.000 
#    0.000    0.000    0.000    0.000    0.000    0.000 
#
# Total GULP energy -148684.449410 kJ/mol
# GULP energy per Si atom -12390.370784 kJ/mol
# Density = 2.447065 g / cm^3
# Si number density = 24.526477 Si / 1000 Ang^3
#
#
#
# Elastic Constant Matrix: (Units=GPa)
#
#
# Indices 1 2 3 4 5 6 
#
# 1 66.6589 50.7333 40.8420 0.0000 -9.2029 0.0000
# 2 50.7333 224.7552 74.5025 0.0000 -24.2651 0.0000
# 3 40.8420 74.5025 104.7208 0.0000 -38.5396 0.0000
# 4 0.0000 0.0000 0.0000 16.7290 0.0000 -2.5121
# 5 -9.2029 -24.2651 -38.5396 0.0000 38.2365 0.0000
# 6 0.0000 0.0000 0.0000 -2.5121 0.0000 4.6150
#
#
#
# Elastic Compliance Matrix: (Units=1/GPa)
#
#
# Indices 1 2 3 4 5 6 
#
# 1 0.021383 -0.002610 -0.008264 0.000000 -0.004839 0.000000
# 2 -0.002610 0.006155 -0.003425 0.000000 -0.000175 0.000000
# 3 -0.008264 -0.003425 0.021742 0.000000 0.017752 0.000000
# 4 0.000000 0.000000 0.000000 0.065097 0.000000 0.035434
# 5 -0.004839 -0.000175 0.017752 0.000000 0.042770 0.000000
# 6 0.000000 0.000000 0.000000 0.035434 0.000000 0.235973
#
#
# Mechanical properties :
#
#
# Convention : Reuss Voigt Hill
#
# Bulk Modulus (GPa) = 48.34990 80.92117 64.63554
# Shear Modulus (GPa) = 11.66555 27.25325 19.45940
#
# Velocity S-wave (km/s) = 2.18326 3.33705 2.81980
# Velocity P-wave (km/s) = 5.10996 6.92191 6.08377
#
# Compressibility (1/GPa) = 0.02068256
#
# Stress axis : x y z
#
# Youngs Moduli (GPa) = 46.76568 162.47004 45.99400
#
# Poissons Ratio (x) = 0.42404 0.38008
# Poissons Ratio (y) = 0.12206 0.15754
# Poissons Ratio (z) = 0.38645 0.55650
#
# Static dielectric constant tensor:
#      x y z
#    x 4.465670 0.000000 -0.482840 
#    y 0.000000 4.926260 0.000000 
#    z -0.482840 0.000000 4.388860 
# 
# 
# High freq. dielectric constant tensor:
#      x y z
#    x 1.956980 0.000000 -0.022070 
#    y 0.000000 1.993650 0.000000 
#    z -0.022070 0.000000 1.958150 
# 
# From -- ./inp_files/1584.got.cif
#   From: 2010.06.25/outbox.cif.g09.slc.cpg/sg15_1_cif.got.tgz:1584.got - 2010.06.28 07:06:18.
