data_PCOD8154112
_publ_section_title
;
Structure prediction by ZEFSAII (Michael W. Deem and Ramdas Pophale) SiO2 
 PCOD8154112
Probable space group: C 2/C
;
_chemical_formula_sum "Si O2"
_cell_formula_units_Z 44
_cell_length_a 20.943824
_cell_length_b 17.172322
_cell_length_c 14.016518
_cell_angle_alpha 90.000000
_cell_angle_beta 22.028237
_cell_angle_gamma 90.000000
_cell_volume 1890.731821
_symmetry_space_group_name_H-M "C 2/C"
_symmetry_group_IT_number 15
_symmetry_cell_setting 'monoclinic'
loop_
_space_group_symop_operation_xyz
x,y,z
-x,y,1/2-z
-x,-y,-z
x,-y,1/2+z
1/2+x,1/2+y,z
1/2-x,1/2+y,1/2-z
1/2-x,1/2-y,-z
1/2+x,1/2-y,1/2+z
loop_
_atom_site_type_symbol
_atom_site_label
_atom_site_fract_x
_atom_site_fract_y
_atom_site_fract_z
Si Si1 0.416601 0.156651 0.457003
Si Si2 0.570994 0.420546 0.950038
Si Si3 0.000000 0.965347 0.250000
Si Si4 0.903006 0.763190 0.140985
Si Si5 0.561774 0.141664 0.559657
Si Si6 0.339881 0.944845 0.230825
O O1 0.500000 0.112379 0.250000
O O2 0.292390 0.214478 0.571917
O O3 0.545229 0.203206 0.347851
O O4 0.310922 0.095740 0.667876
O O5 0.778484 0.419859 0.667674
O O6 0.500000 0.500000 0.000000
O O7 0.488247 0.413575 0.170804
O O8 0.518379 0.340771 0.970678
O O9 0.832860 0.017046 0.494753
O O10 0.892732 0.723567 0.051255
O O11 0.500000 0.158846 0.750000
O O12 0.391971 0.114281 0.741001
O O13 0.500000 0.000000 0.000000
#
# Coordination Sequence:
#
# PCOD8154112 Si02
#       6
#     8   8   4   8   8   8
#     4  11  25  44  75 103 147 191 247 310 366 444
#     4  12  26  46  73 111 145 196 251 302 379 442
#     4  12  26  48  74 104 156 188 246 320 364 450
#     4  11  25  46  70 111 142 195 249 298 378 438
#     4  11  25  49  73 105 151 195 249 311 367 450
#     4  11  25  47  72 111 146 195 248 301 380 439
#
# _framework density 23.271412999999999
#
# number of rings (size 3 to 8) (size 9 to 14) (size 15 to 20)
#    0.000    0.727    3.636    2.727    3.818    1.455 
#    6.545    0.000    0.000    0.000    0.000    0.000 
#    0.000    0.000    0.000    0.000    0.000    0.000 
#
# Total GULP energy -272638.249307 kJ/mol
# GULP energy per Si atom -12392.647696 kJ/mol
# Density = 2.321845 g / cm^3
# Si number density = 23.271413 Si / 1000 Ang^3
#
#
#
# Elastic Constant Matrix: (Units=GPa)
#
#
# Indices 1 2 3 4 5 6 
#
# 1 103.7377 30.2239 60.3220 0.0010 8.9732 -0.0047
# 2 30.2239 90.5162 31.7146 -0.0001 4.5365 -0.0022
# 3 60.3220 31.7146 148.4421 -0.0016 8.7545 -0.0007
# 4 0.0010 -0.0001 -0.0016 30.7214 0.0011 0.2451
# 5 8.9732 4.5365 8.7545 0.0011 45.8614 0.0006
# 6 -0.0047 -0.0022 -0.0007 0.2451 0.0006 34.2033
#
#
#
# Elastic Compliance Matrix: (Units=1/GPa)
#
#
# Indices 1 2 3 4 5 6 
#
# 1 0.013313 -0.002711 -0.004747 -0.000001 -0.001431 0.000002
# 2 -0.002711 0.012516 -0.001548 0.000000 -0.000412 0.000000
# 3 -0.004747 -0.001548 0.009034 0.000001 -0.000643 -0.000001
# 4 -0.000001 0.000000 0.000001 0.032552 -0.000001 -0.000233
# 5 -0.001431 -0.000412 -0.000643 -0.000001 0.022248 -0.000001
# 6 0.000002 0.000000 -0.000001 -0.000233 -0.000001 0.029239
#
#
# Mechanical properties :
#
#
# Convention : Reuss Voigt Hill
#
# Bulk Modulus (GPa) = 59.33811 65.24632 62.29221
# Shear Modulus (GPa) = 35.08011 36.85293 35.96652
#
# Velocity S-wave (km/s) = 3.88678 3.98378 3.93558
# Velocity P-wave (km/s) = 6.75991 7.01845 6.89039
#
# Compressibility (1/GPa) = 0.01685258
#
# Stress axis : x y z
#
# Youngs Moduli (GPa) = 75.11312 79.89807 110.69087
#
# Poissons Ratio (x) = 0.21657 0.52540
# Poissons Ratio (y) = 0.20360 0.17137
# Poissons Ratio (z) = 0.35653 0.12370
#
# Static dielectric constant tensor:
#      x y z
#    x 4.735460 0.000000 -0.171490 
#    y 0.000000 4.210560 0.000010 
#    z -0.171490 0.000010 4.170740 
# 
# 
# High freq. dielectric constant tensor:
#      x y z
#    x 1.944100 0.000000 -0.007560 
#    y 0.000000 1.916090 0.000000 
#    z -0.007560 0.000000 1.919620 
# 
# From -- ./inp_files/174165.got.cif
#   From: 2010.06.25/outbox.cif.g09.slc.cpg/sg15_88_cif.got.tgz:174165.got - 2010.06.28 07:06:18.
