data_PCOD8154709
_publ_section_title
;
Structure prediction by ZEFSAII (Michael W. Deem and Ramdas Pophale) SiO2 
 PCOD8154709
Probable space group: C 2/C
;
_chemical_formula_sum "Si O2"
_cell_formula_units_Z 48
_cell_length_a 25.530200
_cell_length_b 4.872674
_cell_length_c 17.555496
_cell_angle_alpha 90.000000
_cell_angle_beta 110.552354
_cell_angle_gamma 90.000000
_cell_volume 2044.907773
_symmetry_space_group_name_H-M "C 2/C"
_symmetry_group_IT_number 15
_symmetry_cell_setting 'monoclinic'
loop_
_space_group_symop_operation_xyz
x,y,z
-x,y,1/2-z
-x,-y,-z
x,-y,1/2+z
1/2+x,1/2+y,z
1/2-x,1/2+y,1/2-z
1/2-x,1/2-y,-z
1/2+x,1/2-y,1/2+z
loop_
_atom_site_type_symbol
_atom_site_label
_atom_site_fract_x
_atom_site_fract_y
_atom_site_fract_z
Si Si1 0.652295 0.442581 0.811592
Si Si2 0.767997 0.356948 0.427232
Si Si3 0.577165 0.359079 0.913669
Si Si4 0.117480 0.575793 0.203015
Si Si5 0.006003 0.368945 0.842070
Si Si6 0.336596 0.345132 0.421922
O O1 0.717296 0.517629 0.852489
O O2 0.626982 0.346035 0.878006
O O3 0.619001 0.719988 0.775496
O O4 0.643098 0.217604 0.740172
O O5 0.750000 0.250000 0.500000
O O6 0.810756 0.606769 0.462088
O O7 0.795948 0.107727 0.394184
O O8 0.525821 0.558009 0.865791
O O9 0.552281 0.055969 0.905689
O O10 0.605066 0.437868 0.008959
O O11 0.154556 0.711794 0.156005
O O12 0.052531 0.560497 0.145922
O O13 0.000000 0.439899 0.750000
#
# Coordination Sequence:
#
# PCOD8154709 Si02
#       6
#     8   8   8   8   8   8
#     4  12  24  44  74 102 138 192 241 290 356 429
#     4  12  26  46  77 103 138 189 246 294 359 432
#     4  12  24  42  74 103 137 187 247 288 350 432
#     4  12  27  45  70 105 150 184 232 303 359 419
#     4  12  23  42  72 106 138 189 241 288 351 434
#     4  12  28  47  69 109 146 183 239 306 360 419
#
# _framework density 23.472940000000001
#
# number of rings (size 3 to 8) (size 9 to 14) (size 15 to 20)
#    0.000    0.000    5.000    5.000    2.333    4.000 
#    0.000    0.000    0.000    0.000    0.000    0.000 
#    0.000    0.000    0.000    0.000    0.000    0.000 
#
# Total GULP energy -297732.771146 kJ/mol
# GULP energy per Si atom -12405.532131 kJ/mol
# Density = 2.341951 g / cm^3
# Si number density = 23.472940 Si / 1000 Ang^3
#
#
#
# Elastic Constant Matrix: (Units=GPa)
#
#
# Indices 1 2 3 4 5 6 
#
# 1 107.2865 45.1518 40.7978 0.0000 17.4954 0.0000
# 2 45.1518 126.9826 23.3081 0.0001 17.0260 0.0001
# 3 40.7978 23.3081 75.6608 0.0000 16.1926 0.0000
# 4 0.0000 0.0001 0.0000 32.9305 0.0000 11.5668
# 5 17.4954 17.0260 16.1926 0.0000 24.0066 0.0000
# 6 0.0000 0.0001 0.0000 11.5668 0.0000 50.8985
#
#
#
# Elastic Compliance Matrix: (Units=1/GPa)
#
#
# Indices 1 2 3 4 5 6 
#
# 1 0.013357 -0.003252 -0.005389 0.000000 -0.003793 0.000000
# 2 -0.003252 0.009661 -0.000308 0.000000 -0.004274 0.000000
# 3 -0.005389 -0.000308 0.017917 0.000000 -0.007939 0.000000
# 4 0.000000 0.000000 0.000000 0.033001 0.000000 -0.007500
# 5 -0.003793 -0.004274 -0.007939 0.000000 0.052806 0.000000
# 6 0.000000 0.000000 0.000000 -0.007500 0.000000 0.021351
#
#
# Mechanical properties :
#
#
# Convention : Reuss Voigt Hill
#
# Bulk Modulus (GPa) = 43.40737 58.71612 51.06175
# Shear Modulus (GPa) = 28.79029 34.94526 31.86778
#
# Velocity S-wave (km/s) = 3.50599 3.86261 3.68861
# Velocity P-wave (km/s) = 5.90948 6.70535 6.31995
#
# Compressibility (1/GPa) = 0.02303756
#
# Stress axis : x y z
#
# Youngs Moduli (GPa) = 74.86637 103.50943 55.81395
#
# Poissons Ratio (x) = 0.33658 0.30077
# Poissons Ratio (y) = 0.24344 0.01719
# Poissons Ratio (z) = 0.40345 0.03188
#
# Static dielectric constant tensor:
#      x y z
#    x 4.295250 0.000000 0.174800 
#    y 0.000000 4.372530 0.000000 
#    z 0.174800 0.000000 3.951160 
# 
# 
# High freq. dielectric constant tensor:
#      x y z
#    x 1.934650 0.000000 0.012590 
#    y 0.000000 1.947160 0.000000 
#    z 0.012590 0.000000 1.917480 
# 
# From -- ./inp_files/217795.got.cif
#   From: 2010.06.25/outbox.cif.g09.slc.cpg/sg15_109_cif.got.tgz:217795.got - 2010.06.28 07:06:18.
