data_PCOD8154116
_publ_section_title
;
Structure prediction by ZEFSAII (Michael W. Deem and Ramdas Pophale) SiO2 
 PCOD8154116
Probable space group: C 2/C
;
_chemical_formula_sum "Si O2"
_cell_formula_units_Z 56
_cell_length_a 14.449418
_cell_length_b 11.733519
_cell_length_c 14.020082
_cell_angle_alpha 90.000000
_cell_angle_beta 84.294623
_cell_angle_gamma 90.000000
_cell_volume 2365.224966
_symmetry_space_group_name_H-M "C 2/C"
_symmetry_group_IT_number 15
_symmetry_cell_setting 'monoclinic'
loop_
_space_group_symop_operation_xyz
x,y,z
-x,y,1/2-z
-x,-y,-z
x,-y,1/2+z
1/2+x,1/2+y,z
1/2-x,1/2+y,1/2-z
1/2-x,1/2-y,-z
1/2+x,1/2-y,1/2+z
loop_
_atom_site_type_symbol
_atom_site_label
_atom_site_fract_x
_atom_site_fract_y
_atom_site_fract_z
Si Si1 0.592040 0.940981 0.346160
Si Si2 0.221688 0.513308 0.166600
Si Si3 0.161270 0.669296 0.022365
Si Si4 0.721492 0.126669 0.477797
Si Si5 0.000000 0.751941 0.750000
Si Si6 0.137418 0.945426 0.695950
Si Si7 0.532755 0.823054 0.895568
Si Si8 0.500000 0.360164 0.250000
O O1 0.663309 0.948262 0.251799
O O2 0.653283 0.926836 0.438865
O O3 0.534302 0.825921 0.334567
O O4 0.520528 0.048718 0.351608
O O5 0.170336 0.624064 0.129906
O O6 0.320074 0.549105 0.202028
O O7 0.240032 0.439100 0.072563
O O8 0.057698 0.723261 0.037248
O O9 0.250000 0.750000 0.000000
O O10 0.750000 0.250000 0.500000
O O11 0.780916 0.064246 0.389365
O O12 0.615815 0.145590 0.457291
O O13 0.078280 0.830578 0.695012
O O14 0.074306 0.059149 0.687205
O O15 0.555947 0.723957 0.816674
#
# Coordination Sequence:
#
# PCOD8154116 Si02
#       8
#     8   8   8   8   4   8   8   4
#     4  12  25  48  75 111 151 192 260 320 385 455
#     4  12  24  48  74 103 150 196 251 310 377 451
#     4  12  28  45  75 113 152 197 255 318 384 461
#     4  12  27  47  76 110 151 204 257 312 378 463
#     4  11  25  44  76 108 147 201 246 324 384 447
#     4  11  26  51  72 112 154 202 259 311 387 457
#     4  12  26  47  77 113 150 201 252 313 388 454
#     4  11  27  48  78 110 161 205 254 316 388 467
#
# _framework density 23.676394999999999
#
# number of rings (size 3 to 8) (size 9 to 14) (size 15 to 20)
#    0.000    0.286    2.857    5.143    8.000    0.000 
#    0.000    2.143    0.000    0.000    0.000    0.000 
#    0.000    0.000    0.000    0.000    0.000    0.000 
#
# Total GULP energy -346928.701751 kJ/mol
# GULP energy per Si atom -12390.310777 kJ/mol
# Density = 2.362251 g / cm^3
# Si number density = 23.676395 Si / 1000 Ang^3
#
#
#
# Elastic Constant Matrix: (Units=GPa)
#
#
# Indices 1 2 3 4 5 6 
#
# 1 150.4766 67.7943 53.7677 0.0000 -7.3672 0.0000
# 2 67.7943 147.6442 50.0081 0.0000 3.9348 0.0000
# 3 53.7677 50.0081 140.1281 0.0000 7.6189 0.0000
# 4 0.0000 0.0000 0.0000 31.2324 0.0000 6.2895
# 5 -7.3672 3.9348 7.6189 0.0000 32.8961 0.0000
# 6 0.0000 0.0000 0.0000 6.2895 0.0000 44.0834
#
#
#
# Elastic Compliance Matrix: (Units=1/GPa)
#
#
# Indices 1 2 3 4 5 6 
#
# 1 0.009252 -0.003493 -0.002470 0.000000 0.003062 0.000000
# 2 -0.003493 0.009026 -0.001802 0.000000 -0.001445 0.000000
# 3 -0.002470 -0.001802 0.008857 0.000000 -0.002389 0.000000
# 4 0.000000 0.000000 0.000000 0.032965 0.000000 -0.004703
# 5 0.003062 -0.001445 -0.002389 0.000000 0.031811 0.000000
# 6 0.000000 0.000000 0.000000 -0.004703 0.000000 0.023355
#
#
# Mechanical properties :
#
#
# Convention : Reuss Voigt Hill
#
# Bulk Modulus (GPa) = 86.17487 86.82102 86.49795
# Shear Modulus (GPa) = 37.12937 39.42095 38.27516
#
# Velocity S-wave (km/s) = 3.96435 4.08486 4.02505
# Velocity P-wave (km/s) = 7.57831 7.68098 7.62982
#
# Compressibility (1/GPa) = 0.01160431
#
# Stress axis : x y z
#
# Youngs Moduli (GPa) = 108.08776 110.79160 112.90450
#
# Poissons Ratio (x) = 0.38702 0.27885
# Poissons Ratio (y) = 0.37757 0.20348
# Poissons Ratio (z) = 0.26695 0.19967
#
# Static dielectric constant tensor:
#      x y z
#    x 4.468320 0.000000 0.234680 
#    y 0.000000 4.265940 0.000000 
#    z 0.234680 0.000000 4.467770 
# 
# 
# High freq. dielectric constant tensor:
#      x y z
#    x 1.948630 0.000000 0.007960 
#    y 0.000000 1.947250 0.000000 
#    z 0.007960 0.000000 1.943230 
# 
# From -- ./inp_files/152657.got.cif
#   From: 2010.06.25/outbox.cif.g09.slc.cpg/sg15_77_cif.got.tgz:152657.got - 2010.06.28 07:06:18.
