data_PCOD8154538
_publ_section_title
;
Structure prediction by ZEFSAII (Michael W. Deem and Ramdas Pophale) SiO2 
 PCOD8154538
Probable space group: C 2/C
;
_chemical_formula_sum "Si O2"
_cell_formula_units_Z 40
_cell_length_a 7.769189
_cell_length_b 24.017561
_cell_length_c 15.480740
_cell_angle_alpha 90.000000
_cell_angle_beta 142.739608
_cell_angle_gamma 90.000000
_cell_volume 1748.905061
_symmetry_space_group_name_H-M "C 2/C"
_symmetry_group_IT_number 15
_symmetry_cell_setting 'monoclinic'
loop_
_space_group_symop_operation_xyz
x,y,z
-x,y,1/2-z
-x,-y,-z
x,-y,1/2+z
1/2+x,1/2+y,z
1/2-x,1/2+y,1/2-z
1/2-x,1/2-y,-z
1/2+x,1/2-y,1/2+z
loop_
_atom_site_type_symbol
_atom_site_label
_atom_site_fract_x
_atom_site_fract_y
_atom_site_fract_z
Si Si1 0.222167 0.781773 0.748306
Si Si2 0.366226 0.868000 0.512654
Si Si3 0.775131 0.866641 0.523314
Si Si4 0.690509 0.553514 0.091051
Si Si5 0.000000 0.687040 0.750000
Si Si6 0.000000 0.797296 0.250000
O O1 0.470835 0.826633 0.857688
O O2 0.244029 0.745427 0.669395
O O3 0.916973 0.812504 0.624397
O O4 0.250735 0.731786 0.830202
O O5 0.569794 0.891289 0.516384
O O6 0.234431 0.917594 0.516022
O O7 0.095257 0.836287 0.366420
O O8 0.584830 0.851819 0.364193
O O9 0.027056 0.908279 0.595956
O O10 0.000000 0.536306 0.250000
O O11 0.500000 0.500000 0.000000
#
# Coordination Sequence:
#
# PCOD8154538 Si02
#       6
#     8   8   8   8   4   4
#     4  12  21  41  67 106 156 197 239 280 353 437
#     4  12  25  46  71 107 150 193 247 298 363 441
#     4  12  25  46  73 106 151 193 246 298 359 439
#     4  12  30  53  80 104 137 187 251 325 381 427
#     4  12  22  38  70 112 154 200 228 280 350 436
#     4  12  24  38  68 110 154 202 240 284 352 448
#
# _framework density 22.871452000000001
#
# number of rings (size 3 to 8) (size 9 to 14) (size 15 to 20)
#    0.000    0.000    6.000    4.800    1.400    0.800 
#    0.000    0.000    0.000    0.000    0.000    0.000 
#    0.000    0.000    0.000    0.000    0.000    0.000 
#
# Total GULP energy -247813.675821 kJ/mol
# GULP energy per Si atom -12390.683791 kJ/mol
# Density = 2.281940 g / cm^3
# Si number density = 22.871452 Si / 1000 Ang^3
#
#
#
# Elastic Constant Matrix: (Units=GPa)
#
#
# Indices 1 2 3 4 5 6 
#
# 1 158.6966 74.4344 30.3398 -0.0001 6.5531 0.0000
# 2 74.4344 119.2605 58.7445 -0.0002 5.3397 -0.0001
# 3 30.3398 58.7445 126.3292 -0.0003 -2.6922 0.0005
# 4 -0.0001 -0.0002 -0.0003 18.0469 -0.0001 2.3036
# 5 6.5531 5.3397 -2.6922 -0.0001 37.8894 0.0001
# 6 0.0000 -0.0001 0.0005 2.3036 0.0001 40.6745
#
#
#
# Elastic Compliance Matrix: (Units=1/GPa)
#
#
# Indices 1 2 3 4 5 6 
#
# 1 0.008960 -0.005829 0.000544 0.000000 -0.000689 0.000000
# 2 -0.005829 0.014806 -0.005516 0.000000 -0.001470 0.000000
# 3 0.000544 -0.005516 0.010381 0.000000 0.001421 0.000000
# 4 0.000000 0.000000 0.000000 0.055815 0.000000 -0.003161
# 5 -0.000689 -0.001470 0.001421 0.000000 0.026820 0.000000
# 6 0.000000 0.000000 0.000000 -0.003161 0.000000 0.024764
#
#
# Mechanical properties :
#
#
# Convention : Reuss Voigt Hill
#
# Bulk Modulus (GPa) = 79.72165 81.25818 80.48992
# Shear Modulus (GPa) = 29.88093 35.37334 32.62714
#
# Velocity S-wave (km/s) = 3.61844 3.93697 3.78106
# Velocity P-wave (km/s) = 7.23806 7.50144 7.37093
#
# Compressibility (1/GPa) = 0.01254364
#
# Stress axis : x y z
#
# Youngs Moduli (GPa) = 111.60774 67.53829 96.33315
#
# Poissons Ratio (x) = 0.39371 -0.05242
# Poissons Ratio (y) = 0.65060 0.53142
# Poissons Ratio (z) = -0.06073 0.37257
#
# Static dielectric constant tensor:
#      x y z
#    x 4.841660 0.000000 0.059700 
#    y 0.000000 3.905750 0.000000 
#    z 0.059700 0.000000 4.034290 
# 
# 
# High freq. dielectric constant tensor:
#      x y z
#    x 1.931590 0.000000 0.003720 
#    y 0.000000 1.874110 0.000000 
#    z 0.003720 0.000000 1.902440 
# 
# From -- ./inp_files/193811.got.cif
#   From: 2010.06.25/outbox.cif.g09.slc.cpg/sg15_97_cif.got.tgz:193811.got - 2010.06.28 07:06:18.
