data_PCOD8154388
_publ_section_title
;
Structure prediction by ZEFSAII (Michael W. Deem and Ramdas Pophale) SiO2 
 PCOD8154388
Probable space group: C 2/C
;
_chemical_formula_sum "Si O2"
_cell_formula_units_Z 36
_cell_length_a 26.551991
_cell_length_b 10.675518
_cell_length_c 4.701043
_cell_angle_alpha 90.000000
_cell_angle_beta 80.729445
_cell_angle_gamma 90.000000
_cell_volume 1315.135266
_symmetry_space_group_name_H-M "C 2/C"
_symmetry_group_IT_number 15
_symmetry_cell_setting 'monoclinic'
loop_
_space_group_symop_operation_xyz
x,y,z
-x,y,1/2-z
-x,-y,-z
x,-y,1/2+z
1/2+x,1/2+y,z
1/2-x,1/2+y,1/2-z
1/2-x,1/2-y,-z
1/2+x,1/2-y,1/2+z
loop_
_atom_site_type_symbol
_atom_site_label
_atom_site_fract_x
_atom_site_fract_y
_atom_site_fract_z
Si Si1 0.906872 0.087136 0.981395
Si Si2 0.834653 0.742439 0.892738
Si Si3 0.244707 0.915905 0.249469
Si Si4 0.500000 0.743239 0.750000
Si Si5 0.074146 0.587794 0.517796
O O1 0.861796 0.177078 0.122730
O O2 0.903174 0.955202 0.155906
O O3 0.960600 0.158691 0.967120
O O4 0.799010 0.645782 0.758557
O O5 0.802283 0.827100 0.136593
O O6 0.874302 0.669030 0.061351
O O7 0.240868 0.048705 0.420802
O O8 0.473156 0.827884 0.534723
O O9 0.072567 0.543691 0.847146
#
# Coordination Sequence:
#
# PCOD8154388 Si02
#       5
#     8   8   8   4   8
#     4  12  27  47  73 107 146 194 247 304 367 437
#     4  11  26  47  76 108 150 195 248 305 372 442
#     4  11  26  47  74 110 148 192 244 304 370 444
#     4  12  28  50  76 110 152 198 252 310 372 442
#     4  12  27  47  73 107 146 194 247 304 367 437
#
# _framework density 27.373612000000001
#
# number of rings (size 3 to 8) (size 9 to 14) (size 15 to 20)
#    0.000    0.444    0.000    6.667    0.000   16.889 
#    0.000    0.000    0.000    0.000    0.000    0.000 
#    0.000    0.000    0.000    0.000    0.000    0.000 
#
# Total GULP energy -223359.699378 kJ/mol
# GULP energy per Si atom -12408.872188 kJ/mol
# Density = 2.731131 g / cm^3
# Si number density = 27.373612 Si / 1000 Ang^3
#
#
#
# Elastic Constant Matrix: (Units=GPa)
#
#
# Indices 1 2 3 4 5 6 
#
# 1 147.6459 37.5499 21.9469 0.0000 -11.1863 0.0000
# 2 37.5499 107.3454 18.1710 0.0000 -7.7897 0.0000
# 3 21.9469 18.1710 63.6302 0.0000 -4.0338 0.0000
# 4 0.0000 0.0000 0.0000 77.7644 0.0000 137.8140
# 5 -11.1863 -7.7897 -4.0338 0.0000 33.1533 0.0000
# 6 0.0000 0.0000 0.0000 137.8140 0.0000 623.7824
#
#
#
# Elastic Compliance Matrix: (Units=1/GPa)
#
#
# Indices 1 2 3 4 5 6 
#
# 1 0.007774 -0.002260 -0.001918 0.000000 0.001859 0.000000
# 2 -0.002260 0.010576 -0.002148 0.000000 0.001461 0.000000
# 3 -0.001918 -0.002148 0.017049 0.000000 0.000923 0.000000
# 4 0.000000 0.000000 0.000000 0.021134 0.000000 -0.004669
# 5 0.001859 0.001461 0.000923 0.000000 0.031246 0.000000
# 6 0.000000 0.000000 0.000000 -0.004669 0.000000 0.002635
#
#
# Mechanical properties :
#
#
# Convention : Reuss Voigt Hill
#
# Bulk Modulus (GPa) = 43.96203 52.66190 48.31196
# Shear Modulus (GPa) = 45.18865 163.00360 104.09613
#
# Velocity S-wave (km/s) = 4.06742 7.72509 6.17337
# Velocity P-wave (km/s) = 6.17685 9.94230 8.27656
#
# Compressibility (1/GPa) = 0.02274690
#
# Stress axis : x y z
#
# Youngs Moduli (GPa) = 128.64083 94.55533 58.65341
#
# Poissons Ratio (x) = 0.21366 0.11250
# Poissons Ratio (y) = 0.29069 0.12600
# Poissons Ratio (z) = 0.24674 0.20312
#
# Static dielectric constant tensor:
#      x y z
#    x 5.174250 0.000000 -0.090910 
#    y 0.000000 5.134930 0.000000 
#    z -0.090910 0.000000 4.814420 
# 
# 
# High freq. dielectric constant tensor:
#      x y z
#    x 2.119220 0.000000 -0.001830 
#    y 0.000000 2.121590 0.000000 
#    z -0.001830 0.000000 2.103280 
# 
# From -- ./inp_files/14869.got.cif
#   From: 2010.06.25/outbox.cif.g09.slc.cpg/sg15_8_cif.got.tgz:14869.got - 2010.06.28 07:06:18.
