data_PCOD8154344
_publ_section_title
;
Structure prediction by ZEFSAII (Michael W. Deem and Ramdas Pophale) SiO2 
 PCOD8154344
Probable space group: C 2/C
;
_chemical_formula_sum "Si O2"
_cell_formula_units_Z 44
_cell_length_a 5.014815
_cell_length_b 17.543704
_cell_length_c 19.907064
_cell_angle_alpha 90.000000
_cell_angle_beta 112.684357
_cell_angle_gamma 90.000000
_cell_volume 1615.910515
_symmetry_space_group_name_H-M "C 2/C"
_symmetry_group_IT_number 15
_symmetry_cell_setting 'monoclinic'
loop_
_space_group_symop_operation_xyz
x,y,z
-x,y,1/2-z
-x,-y,-z
x,-y,1/2+z
1/2+x,1/2+y,z
1/2-x,1/2+y,1/2-z
1/2-x,1/2-y,-z
1/2+x,1/2-y,1/2+z
loop_
_atom_site_type_symbol
_atom_site_label
_atom_site_fract_x
_atom_site_fract_y
_atom_site_fract_z
Si Si1 0.489386 0.419661 0.173334
Si Si2 0.426165 0.995336 0.068545
Si Si3 0.139617 0.846364 0.061070
Si Si4 0.092157 0.363204 0.646623
Si Si5 0.500000 0.029168 0.250000
Si Si6 0.451369 0.717383 0.404268
O O1 0.500000 0.386235 0.250000
O O2 0.199648 0.468576 0.139675
O O3 0.486457 0.348771 0.119638
O O4 0.768070 0.476046 0.187461
O O5 0.161511 0.936463 0.047528
O O6 0.361861 0.082069 0.084295
O O7 0.500000 0.000000 0.000000
O O8 0.451966 0.804684 0.099502
O O9 0.975981 0.800516 0.986839
O O10 0.186284 0.413295 0.720191
O O11 0.887246 0.291599 0.646964
O O12 0.356883 0.337759 0.625275
#
# Coordination Sequence:
#
# PCOD8154344 Si02
#       6
#     8   8   8   8   4   8
#     4  12  24  45  73 109 152 197 256 317 388 455
#     4  12  24  41  77 111 143 190 262 315 372 445
#     4  11  26  45  73 111 146 203 243 318 377 465
#     4  12  25  47  72 109 143 199 245 316 371 455
#     4  12  26  44  72 110 148 198 250 324 380 454
#     4  11  28  47  75 108 159 190 252 311 393 445
#
# _framework density 27.229230000000001
#
# number of rings (size 3 to 8) (size 9 to 14) (size 15 to 20)
#    0.000    0.364    5.455    2.182    2.545    2.909 
#    1.636    1.818    0.000    0.000    0.000    0.000 
#    0.000    0.000    0.000    0.000    0.000    0.000 
#
# Total GULP energy -272596.580694 kJ/mol
# GULP energy per Si atom -12390.753668 kJ/mol
# Density = 2.716726 g / cm^3
# Si number density = 27.229230 Si / 1000 Ang^3
#
#
#
# Elastic Constant Matrix: (Units=GPa)
#
#
# Indices 1 2 3 4 5 6 
#
# 1 96.7873 -7.5351 9.4786 0.0000 -20.7936 0.0000
# 2 -7.5351 78.6528 -2.8132 0.0000 -24.0171 0.0000
# 3 9.4786 -2.8132 94.0510 0.0000 -48.2358 0.0000
# 4 0.0000 0.0000 0.0000 17.7323 0.0000 -7.4463
# 5 -20.7936 -24.0171 -48.2358 0.0000 43.4505 0.0000
# 6 0.0000 0.0000 0.0000 -7.4463 0.0000 40.8159
#
#
#
# Elastic Compliance Matrix: (Units=1/GPa)
#
#
# Indices 1 2 3 4 5 6 
#
# 1 0.015819 0.010418 0.012895 0.000000 0.027645 0.000000
# 2 0.010418 0.029626 0.025059 0.000000 0.049181 0.000000
# 3 0.012895 0.025059 0.047258 0.000000 0.072485 0.000000
# 4 0.000000 0.000000 0.000000 0.061073 0.000000 0.011142
# 5 0.027645 0.049181 0.072485 0.000000 0.143897 0.000000
# 6 0.000000 0.000000 0.000000 0.011142 0.000000 0.026533
#
#
# Mechanical properties :
#
#
# Convention : Reuss Voigt Hill
#
# Bulk Modulus (GPa) = 5.27845 29.75019 17.51432
# Shear Modulus (GPa) = 17.20517 38.42378 27.81448
#
# Velocity S-wave (km/s) = 2.51642 3.76057 3.19955
# Velocity P-wave (km/s) = 3.22271 5.45943 4.48281
#
# Compressibility (1/GPa) = 0.18944959
#
# Stress axis : x y z
#
# Youngs Moduli (GPa) = 63.21412 33.75398 21.16047
#
# Poissons Ratio (x) = -0.35166 -0.27287
# Poissons Ratio (y) = -0.65858 -0.53027
# Poissons Ratio (z) = -0.81517 -0.84586
#
# Static dielectric constant tensor:
#      x y z
#    x 4.554930 0.000000 -0.430710 
#    y 0.000000 4.803830 0.000000 
#    z -0.430710 0.000000 4.950660 
# 
# 
# High freq. dielectric constant tensor:
#      x y z
#    x 2.095790 0.000000 -0.025280 
#    y 0.000000 2.098900 0.000000 
#    z -0.025280 0.000000 2.098570 
# 
# From -- ./inp_files/227064.got.cif
#   From: 2010.06.25/outbox.cif.g09.slc.cpg/sg15_114_cif.got.tgz:227064.got - 2010.06.28 07:06:18.
