data_PCOD8154187
_publ_section_title
;
Structure prediction by ZEFSAII (Michael W. Deem and Ramdas Pophale) SiO2 
 PCOD8154187
Probable space group: C 2/C
;
_chemical_formula_sum "Si O2"
_cell_formula_units_Z 52
_cell_length_a 24.376738
_cell_length_b 9.194414
_cell_length_c 13.104005
_cell_angle_alpha 90.000000
_cell_angle_beta 55.789023
_cell_angle_gamma 90.000000
_cell_volume 2428.817918
_symmetry_space_group_name_H-M "C 2/C"
_symmetry_group_IT_number 15
_symmetry_cell_setting 'monoclinic'
loop_
_space_group_symop_operation_xyz
x,y,z
-x,y,1/2-z
-x,-y,-z
x,-y,1/2+z
1/2+x,1/2+y,z
1/2-x,1/2+y,1/2-z
1/2-x,1/2-y,-z
1/2+x,1/2-y,1/2+z
loop_
_atom_site_type_symbol
_atom_site_label
_atom_site_fract_x
_atom_site_fract_y
_atom_site_fract_z
Si Si1 0.244520 0.826875 0.403058
Si Si2 0.252551 0.655386 0.099380
Si Si3 0.557349 0.421950 0.376013
Si Si4 0.000000 0.245541 0.750000
Si Si5 0.442817 0.921730 0.995435
Si Si6 0.639892 0.193571 0.382873
Si Si7 0.643243 0.680111 0.344547
O O1 0.250000 0.750000 0.500000
O O2 0.171182 0.794075 0.437686
O O3 0.299775 0.761781 0.273453
O O4 0.259269 0.990509 0.416298
O O5 0.192114 0.696261 0.236052
O O6 0.325493 0.660708 0.075162
O O7 0.250000 0.750000 0.000000
O O8 0.500000 0.500000 0.500000
O O9 0.540892 0.369784 0.277680
O O10 0.572688 0.271336 0.417381
O O11 0.621810 0.529068 0.311664
O O12 0.039490 0.359349 0.635759
O O13 0.421566 0.780839 0.082393
O O14 0.500000 0.000000 0.000000
O O15 0.380270 0.033897 0.053254
#
# Coordination Sequence:
#
# PCOD8154187 Si02
#       7
#     8   8   8   4   8   8   8
#     4  11  26  42  67 107 137 188 236 291 365 434
#     4  11  26  42  73 104 136 191 237 289 367 437
#     4  12  25  47  72 105 143 191 244 305 359 441
#     4  12  28  44  82 104 136 208 254 280 394 442
#     4  12  25  47  72 105 143 191 244 305 359 441
#     4  11  25  46  71  98 149 180 230 308 362 420
#     4  11  25  46  71  98 149 180 230 308 362 420
#
# _framework density 21.409592
#
# number of rings (size 3 to 8) (size 9 to 14) (size 15 to 20)
#    0.000    0.615    6.154    0.000    6.462    2.462 
#    0.000    1.538    0.000    0.000    0.000    0.000 
#    0.000    0.000    0.000    0.000    0.000    0.000 
#
# Total GULP energy -322148.951432 kJ/mol
# GULP energy per Si atom -12390.344286 kJ/mol
# Density = 2.136086 g / cm^3
# Si number density = 21.409592 Si / 1000 Ang^3
#
#
#
# Elastic Constant Matrix: (Units=GPa)
#
#
# Indices 1 2 3 4 5 6 
#
# 1 122.6919 57.6988 56.9008 0.0000 21.8945 0.0000
# 2 57.6988 144.7417 43.7080 0.0000 16.6218 0.0000
# 3 56.9008 43.7080 88.0641 0.0000 18.6384 0.0000
# 4 0.0000 0.0000 0.0000 51.3940 0.0000 1.9962
# 5 21.8945 16.6218 18.6384 0.0000 37.6385 0.0000
# 6 0.0000 0.0000 0.0000 1.9962 0.0000 51.2567
#
#
#
# Elastic Compliance Matrix: (Units=1/GPa)
#
#
# Indices 1 2 3 4 5 6 
#
# 1 0.013003 -0.002923 -0.006281 0.000000 -0.003162 0.000000
# 2 -0.002923 0.008892 -0.002294 0.000000 -0.001091 0.000000
# 3 -0.006281 -0.002294 0.017387 0.000000 -0.003943 0.000000
# 4 0.000000 0.000000 0.000000 0.019487 0.000000 -0.000759
# 5 -0.003162 -0.001091 -0.003943 0.000000 0.030842 0.000000
# 6 0.000000 0.000000 0.000000 -0.000759 0.000000 0.019539
#
#
# Mechanical properties :
#
#
# Convention : Reuss Voigt Hill
#
# Bulk Modulus (GPa) = 61.40587 74.67920 68.04253
# Shear Modulus (GPa) = 36.34394 41.20384 38.77389
#
# Velocity S-wave (km/s) = 4.12461 4.39173 4.26026
# Velocity P-wave (km/s) = 7.17126 7.78931 7.48666
#
# Compressibility (1/GPa) = 0.01628509
#
# Stress axis : x y z
#
# Youngs Moduli (GPa) = 76.90767 112.45985 57.51522
#
# Poissons Ratio (x) = 0.32876 0.36126
# Poissons Ratio (y) = 0.22483 0.13192
# Poissons Ratio (z) = 0.48307 0.25794
#
# Static dielectric constant tensor:
#      x y z
#    x 4.313600 0.000000 0.049120 
#    y 0.000000 5.248210 0.000000 
#    z 0.049120 0.000000 3.903730 
# 
# 
# High freq. dielectric constant tensor:
#      x y z
#    x 1.850340 0.000000 -0.003920 
#    y 0.000000 1.866510 0.000000 
#    z -0.003920 0.000000 1.830940 
# 
# From -- ./inp_files/121798.got.cif
#   From: 2010.06.25/outbox.cif.g09.slc.cpg/sg15_61_cif.got.tgz:121798.got - 2010.06.28 07:06:18.
