data_PCOD8154704
_publ_section_title
;
Structure prediction by ZEFSAII (Michael W. Deem and Ramdas Pophale) SiO2 
 PCOD8154704
Probable space group: C 2/C
;
_chemical_formula_sum "Si O2"
_cell_formula_units_Z 56
_cell_length_a 18.558934
_cell_length_b 4.990590
_cell_length_c 28.640053
_cell_angle_alpha 90.000000
_cell_angle_beta 80.584149
_cell_angle_gamma 90.000000
_cell_volume 2616.903366
_symmetry_space_group_name_H-M "C 2/C"
_symmetry_group_IT_number 15
_symmetry_cell_setting 'monoclinic'
loop_
_space_group_symop_operation_xyz
x,y,z
-x,y,1/2-z
-x,-y,-z
x,-y,1/2+z
1/2+x,1/2+y,z
1/2-x,1/2+y,1/2-z
1/2-x,1/2-y,-z
1/2+x,1/2-y,1/2+z
loop_
_atom_site_type_symbol
_atom_site_label
_atom_site_fract_x
_atom_site_fract_y
_atom_site_fract_z
Si Si1 0.484138 0.821874 0.642670
Si Si2 0.454795 0.319411 0.707414
Si Si3 0.334892 0.310955 0.983005
Si Si4 0.724239 0.772315 0.377909
Si Si5 0.713411 0.266470 0.773148
Si Si6 0.864130 0.682991 0.420007
Si Si7 0.860387 0.235026 0.583706
O O1 0.457533 0.610352 0.683783
O O2 0.562733 0.739490 0.614816
O O3 0.430213 0.840577 0.604312
O O4 0.487732 0.108635 0.667284
O O5 0.500000 0.317375 0.750000
O O6 0.371891 0.250539 0.729592
O O7 0.344526 0.607915 0.962391
O O8 0.371858 0.105477 0.943282
O O9 0.250000 0.250000 0.000000
O O10 0.378654 0.300561 0.027208
O O11 0.729508 0.839000 0.323081
O O12 0.800911 0.666567 0.388386
O O13 0.662717 0.548668 0.392322
O O14 0.704333 0.047536 0.406024
O O15 0.743190 0.568411 0.765827
#
# Coordination Sequence:
#
# PCOD8154704 Si02
#       7
#     8   8   8   8   8   8   8
#     4  12  26  48  65  99 136 176 216 265 336 396
#     4  12  27  47  69  96 137 175 212 273 335 388
#     4  12  23  42  67 102 131 170 224 276 323 375
#     4  12  23  43  67  97 131 177 217 266 325 388
#     4  12  26  43  70 102 129 168 224 271 321 391
#     4  12  26  41  69 100 132 173 225 269 321 393
#     4  12  23  43  71  90 136 178 212 268 330 389
#
# _framework density 21.399339999999999
#
# number of rings (size 3 to 8) (size 9 to 14) (size 15 to 20)
#    0.000    0.000    5.714    4.286    4.000    1.143 
#    0.000    0.000    0.000    0.000    0.000    0.000 
#    0.000    0.000    0.000    0.000    0.000    0.000 
#
# Total GULP energy -347483.540036 kJ/mol
# GULP energy per Si atom -12410.126430 kJ/mol
# Density = 2.135063 g / cm^3
# Si number density = 21.399340 Si / 1000 Ang^3
#
#
#
# Elastic Constant Matrix: (Units=GPa)
#
#
# Indices 1 2 3 4 5 6 
#
# 1 108.3386 7.8626 61.4959 0.0000 16.3350 0.0000
# 2 7.8626 84.9087 10.4251 0.0001 -0.9892 0.0000
# 3 61.4959 10.4251 77.2059 0.0000 11.6385 0.0000
# 4 0.0000 0.0001 0.0000 42.7317 0.0000 -2.8359
# 5 16.3350 -0.9892 11.6385 0.0000 45.7188 0.0000
# 6 0.0000 0.0000 0.0000 -2.8359 0.0000 26.6063
#
#
#
# Elastic Compliance Matrix: (Units=1/GPa)
#
#
# Indices 1 2 3 4 5 6 
#
# 1 0.017176 0.000006 -0.013266 0.000000 -0.002760 0.000000
# 2 0.000006 0.011997 -0.001730 0.000000 0.000698 0.000000
# 3 -0.013266 -0.001730 0.023963 0.000000 -0.001398 0.000000
# 4 0.000000 0.000000 0.000000 0.023569 0.000000 0.002512
# 5 -0.002760 0.000698 -0.001398 0.000000 0.023230 0.000000
# 6 0.000000 0.000000 0.000000 0.002512 0.000000 0.037853
#
#
# Mechanical properties :
#
#
# Convention : Reuss Voigt Hill
#
# Bulk Modulus (GPa) = 43.18349 47.78005 45.48177
# Shear Modulus (GPa) = 28.49224 35.72266 32.10745
#
# Velocity S-wave (km/s) = 3.65287 4.09018 3.87769
# Velocity P-wave (km/s) = 6.16562 6.68449 6.43029
#
# Compressibility (1/GPa) = 0.02315700
#
# Stress axis : x y z
#
# Youngs Moduli (GPa) = 58.22068 83.35187 41.73067
#
# Poissons Ratio (x) = -0.00051 0.55359
# Poissons Ratio (y) = -0.00036 0.07220
# Poissons Ratio (z) = 0.77235 0.14420
#
# Static dielectric constant tensor:
#      x y z
#    x 3.809310 0.000000 0.116390 
#    y 0.000000 3.953020 0.000000 
#    z 0.116390 0.000000 3.915220 
# 
# 
# High freq. dielectric constant tensor:
#      x y z
#    x 1.839110 0.000000 0.012140 
#    y 0.000000 1.856070 0.000000 
#    z 0.012140 0.000000 1.849020 
# 
# From -- ./inp_files/297714.got.cif
#   From: 2010.06.25/outbox.cif.g09.slc.cpg/sg15_149_cif.got.tgz:297714.got - 2010.06.28 07:06:18.
