data_PCOD8154442
_publ_section_title
;
Structure prediction by ZEFSAII (Michael W. Deem and Ramdas Pophale) SiO2 
 PCOD8154442
Probable space group: C 2/C
;
_chemical_formula_sum "Si O2"
_cell_formula_units_Z 40
_cell_length_a 5.226546
_cell_length_b 20.274786
_cell_length_c 16.115124
_cell_angle_alpha 90.000000
_cell_angle_beta 100.446320
_cell_angle_gamma 90.000000
_cell_volume 1679.368664
_symmetry_space_group_name_H-M "C 2/C"
_symmetry_group_IT_number 15
_symmetry_cell_setting 'monoclinic'
loop_
_space_group_symop_operation_xyz
x,y,z
-x,y,1/2-z
-x,-y,-z
x,-y,1/2+z
1/2+x,1/2+y,z
1/2-x,1/2+y,1/2-z
1/2-x,1/2-y,-z
1/2+x,1/2-y,1/2+z
loop_
_atom_site_type_symbol
_atom_site_label
_atom_site_fract_x
_atom_site_fract_y
_atom_site_fract_z
Si Si1 0.523882 0.886067 0.479663
Si Si2 0.632962 0.793310 0.891278
Si Si3 0.338678 0.494099 0.572322
Si Si4 0.500000 0.891390 0.750000
Si Si5 0.102331 0.287352 0.349545
Si Si6 0.500000 0.467201 0.750000
O O1 0.361540 0.828569 0.518196
O O2 0.361562 0.946416 0.433497
O O3 0.658582 0.854043 0.405590
O O4 0.719014 0.919633 0.557960
O O5 0.659564 0.849733 0.825211
O O6 0.889029 0.750010 0.893033
O O7 0.368862 0.752787 0.860032
O O8 0.500000 0.500000 0.500000
O O9 0.525625 0.504858 0.663729
O O10 0.273932 0.931450 0.782382
O O11 0.000000 0.302090 0.250000
#
# Coordination Sequence:
#
# PCOD8154442 Si02
#       6
#     8   8   8   4   8   4
#     4  11  27  46  71 105 145 186 236 299 355 418
#     4  12  24  46  72 103 142 184 236 291 350 426
#     4  11  27  48  73 105 142 191 244 294 356 423
#     4  12  22  44  75 104 139 180 244 290 340 424
#     4  12  26  45  71 108 144 187 232 289 358 426
#     4  12  26  46  77 102 141 192 240 298 352 422
#
# _framework density 23.818474999999999
#
# number of rings (size 3 to 8) (size 9 to 14) (size 15 to 20)
#    0.000    0.400    4.000    3.600    8.400    1.600 
#    0.000    0.000    0.000    0.000    0.000    0.000 
#    0.000    0.000    0.000    0.000    0.000    0.000 
#
# Total GULP energy -247824.708917 kJ/mol
# GULP energy per Si atom -12391.235446 kJ/mol
# Density = 2.376426 g / cm^3
# Si number density = 23.818475 Si / 1000 Ang^3
#
#
#
# Elastic Constant Matrix: (Units=GPa)
#
#
# Indices 1 2 3 4 5 6 
#
# 1 102.3330 13.3007 -3.9894 0.0000 -6.9183 0.0000
# 2 13.3007 71.9915 38.1021 0.0000 -6.4901 0.0000
# 3 -3.9894 38.1021 154.1743 0.0000 -7.0643 0.0000
# 4 0.0000 0.0000 0.0000 31.6291 0.0000 0.0324
# 5 -6.9183 -6.4901 -7.0643 0.0000 33.9586 0.0000
# 6 0.0000 0.0000 0.0000 0.0324 0.0000 14.4175
#
#
#
# Elastic Compliance Matrix: (Units=1/GPa)
#
#
# Indices 1 2 3 4 5 6 
#
# 1 0.010217 -0.002192 0.000891 0.000000 0.001848 0.000000
# 2 -0.002192 0.016624 -0.004079 0.000000 0.001882 0.000000
# 3 0.000891 -0.004079 0.007562 0.000000 0.000975 0.000000
# 4 0.000000 0.000000 0.000000 0.031617 0.000000 -0.000071
# 5 0.001848 0.001882 0.000975 0.000000 0.030387 0.000000
# 6 0.000000 0.000000 0.000000 -0.000071 0.000000 0.069360
#
#
# Mechanical properties :
#
#
# Convention : Reuss Voigt Hill
#
# Bulk Modulus (GPa) = 42.29836 47.03618 44.66727
# Shear Modulus (GPa) = 27.11385 34.74006 30.92696
#
# Velocity S-wave (km/s) = 3.37761 3.82322 3.60730
# Velocity P-wave (km/s) = 5.74528 6.26737 6.01200
#
# Compressibility (1/GPa) = 0.02364158
#
# Stress axis : x y z
#
# Youngs Moduli (GPa) = 97.87960 60.15385 132.24125
#
# Poissons Ratio (x) = 0.13189 -0.11781
# Poissons Ratio (y) = 0.21460 0.53940
# Poissons Ratio (z) = -0.08720 0.24536
#
# Static dielectric constant tensor:
#      x y z
#    x 3.900340 0.000000 -0.589230 
#    y 0.000000 3.560120 0.000000 
#    z -0.589230 0.000000 2.524590 
# 
# 
# High freq. dielectric constant tensor:
#      x y z
#    x 1.939390 0.000000 -0.010330 
#    y 0.000000 1.938370 0.000000 
#    z -0.010330 0.000000 1.973650 
# 
# From -- ./inp_files/184295.got.cif
#   From: 2010.06.25/outbox.cif.g09.slc.cpg/sg15_93_cif.got.tgz:184295.got - 2010.06.28 07:06:18.
