data_PCOD8154831
_publ_section_title
;
Structure prediction by ZEFSAII (Michael W. Deem and Ramdas Pophale) SiO2 
 PCOD8154831
Probable space group: C 2/C
;
_chemical_formula_sum "Si O2"
_cell_formula_units_Z 52
_cell_length_a 6.409379
_cell_length_b 14.439142
_cell_length_c 27.607407
_cell_angle_alpha 90.000000
_cell_angle_beta 66.079467
_cell_angle_gamma 90.000000
_cell_volume 2335.505013
_symmetry_space_group_name_H-M "C 2/C"
_symmetry_group_IT_number 15
_symmetry_cell_setting 'monoclinic'
loop_
_space_group_symop_operation_xyz
x,y,z
-x,y,1/2-z
-x,-y,-z
x,-y,1/2+z
1/2+x,1/2+y,z
1/2-x,1/2+y,1/2-z
1/2-x,1/2-y,-z
1/2+x,1/2-y,1/2+z
loop_
_atom_site_type_symbol
_atom_site_label
_atom_site_fract_x
_atom_site_fract_y
_atom_site_fract_z
Si Si1 0.033130 0.371436 0.799029
Si Si2 0.048457 0.873195 0.411621
Si Si3 0.179644 0.476461 0.942564
Si Si4 0.904177 0.841434 0.989058
Si Si5 0.583992 0.827114 0.588146
Si Si6 0.293263 0.058535 0.799513
Si Si7 0.000000 0.968347 0.750000
O O1 0.929352 0.311104 0.852457
O O2 0.294341 0.400375 0.784878
O O3 0.000000 0.318846 0.750000
O O4 0.879363 0.461920 0.811621
O O5 0.138790 0.901462 0.456934
O O6 0.022087 0.764477 0.424809
O O7 0.234257 0.880442 0.351690
O O8 0.821952 0.930387 0.415441
O O9 0.358550 0.404913 0.947282
O O10 0.050474 0.423335 0.910808
O O11 0.000000 0.500000 0.000000
O O12 0.169738 0.821829 0.958818
O O13 0.750000 0.750000 0.000000
O O14 0.500000 0.107789 0.750000
O O15 0.073772 0.036995 0.786643
#
# Coordination Sequence:
#
# PCOD8154831 Si02
#       7
#     8   8   8   8   8   8   4
#     4   9  20  40  67  91 128 169 214 273 326 388
#     4  12  24  44  67  98 134 175 221 274 334 404
#     4  12  25  42  71  98 130 177 220 272 339 401
#     4  12  25  46  65  96 139 173 217 275 333 402
#     4  12  25  45  65 100 135 172 226 275 332 406
#     4   9  20  40  64  93 126 167 216 273 325 387
#     4   8  16  40  66  90 122 162 224 260 332 396
#
# _framework density 22.264993
#
# number of rings (size 3 to 8) (size 9 to 14) (size 15 to 20)
#    0.000    1.538    3.077    3.692    2.154    1.231 
#    8.308    0.000    0.000    0.000    0.000    0.000 
#    0.000    0.000    0.000    0.000    0.000    0.000 
#
# Total GULP energy -322139.849721 kJ/mol
# GULP energy per Si atom -12389.994220 kJ/mol
# Density = 2.221432 g / cm^3
# Si number density = 22.264993 Si / 1000 Ang^3
#
#
#
# Elastic Constant Matrix: (Units=GPa)
#
#
# Indices 1 2 3 4 5 6 
#
# 1 107.1786 18.1915 43.4124 -0.0003 3.6617 0.0001
# 2 18.1915 64.9051 15.1166 -0.0001 -1.7651 0.0001
# 3 43.4124 15.1166 164.3382 -0.0002 -2.0241 0.0000
# 4 -0.0003 -0.0001 -0.0002 24.6553 0.0002 -3.1453
# 5 3.6617 -1.7651 -2.0241 0.0002 26.1242 0.0000
# 6 0.0001 0.0001 0.0000 -3.1453 0.0000 33.3797
#
#
#
# Elastic Compliance Matrix: (Units=1/GPa)
#
#
# Indices 1 2 3 4 5 6 
#
# 1 0.010900 -0.002484 -0.002674 0.000000 -0.001903 0.000000
# 2 -0.002484 0.016334 -0.000829 0.000000 0.001388 0.000000
# 3 -0.002674 -0.000829 0.006878 0.000000 0.000852 0.000000
# 4 0.000000 0.000000 0.000000 0.041053 0.000000 0.003868
# 5 -0.001903 0.001388 0.000852 0.000000 0.038705 0.000000
# 6 0.000000 0.000000 0.000000 0.003868 0.000000 0.030323
#
#
# Mechanical properties :
#
#
# Convention : Reuss Voigt Hill
#
# Bulk Modulus (GPa) = 45.17239 54.42921 49.80080
# Shear Modulus (GPa) = 30.57217 34.14527 32.35872
#
# Velocity S-wave (km/s) = 3.70956 3.92035 3.81641
# Velocity P-wave (km/s) = 6.21936 6.70756 6.46807
#
# Compressibility (1/GPa) = 0.02213742
#
# Stress axis : x y z
#
# Youngs Moduli (GPa) = 91.74250 61.22140 145.38573
#
# Poissons Ratio (x) = 0.15207 0.38882
# Poissons Ratio (y) = 0.22788 0.12056
# Poissons Ratio (z) = 0.24535 0.05077
#
# Static dielectric constant tensor:
#      x y z
#    x 5.148760 0.000000 0.984910 
#    y 0.000000 3.918240 0.000000 
#    z 0.984910 0.000000 5.142270 
# 
# 
# High freq. dielectric constant tensor:
#      x y z
#    x 1.878720 0.000000 0.002920 
#    y 0.000000 1.851750 0.000000 
#    z 0.002920 0.000000 1.892790 
# 
# From -- ./inp_files/305344.got.cif
#   From: 2010.06.25/outbox.cif.g09.slc.cpg/sg15_153_cif.got.tgz:305344.got - 2010.06.28 07:06:18.
