data_PCOD8154683
_publ_section_title
;
Structure prediction by ZEFSAII (Michael W. Deem and Ramdas Pophale) SiO2 
 PCOD8154683
Probable space group: C 2/C
;
_chemical_formula_sum "Si O2"
_cell_formula_units_Z 48
_cell_length_a 10.084117
_cell_length_b 29.158740
_cell_length_c 17.655911
_cell_angle_alpha 90.000000
_cell_angle_beta 30.194649
_cell_angle_gamma 90.000000
_cell_volume 2611.032459
_symmetry_space_group_name_H-M "C 2/C"
_symmetry_group_IT_number 15
_symmetry_cell_setting 'monoclinic'
loop_
_space_group_symop_operation_xyz
x,y,z
-x,y,1/2-z
-x,-y,-z
x,-y,1/2+z
1/2+x,1/2+y,z
1/2-x,1/2+y,1/2-z
1/2-x,1/2-y,-z
1/2+x,1/2-y,1/2+z
loop_
_atom_site_type_symbol
_atom_site_label
_atom_site_fract_x
_atom_site_fract_y
_atom_site_fract_z
Si Si1 0.915760 0.284705 0.517449
Si Si2 0.081147 0.387564 0.989499
Si Si3 0.768682 0.978392 0.662431
Si Si4 0.393302 0.389188 0.682983
Si Si5 0.874672 0.786062 0.692875
Si Si6 0.227726 0.474627 0.342827
O O1 0.032605 0.335923 0.453801
O O2 0.644799 0.283425 0.605487
O O3 0.859927 0.272377 0.633126
O O4 0.123138 0.248707 0.379362
O O5 0.208536 0.399828 0.845854
O O6 0.301025 0.394308 0.945545
O O7 0.835519 0.420515 0.127968
O O8 0.500000 0.982316 0.750000
O O9 0.829393 0.924958 0.648334
O O10 0.745754 0.007052 0.749827
O O11 0.000000 0.000000 0.500000
O O12 0.336167 0.337750 0.681024
O O13 0.500000 0.484347 0.250000
O O14 0.000000 0.500000 0.500000
#
# Coordination Sequence:
#
# PCOD8154683 Si02
#       6
#     8   8   8   8   8   8
#     4   8  14  26  46  75 107 135 174 224 267 314
#     4   9  17  32  57  82 103 141 195 231 257 320
#     4  12  25  39  55  83 118 146 180 235 288 331
#     4   9  17  33  56  78 108 148 184 222 275 332
#     4   8  14  26  47  74 104 139 176 219 268 317
#     4  12  23  39  63  83 106 150 195 230 271 336
#
# _framework density 18.383531000000001
#
# number of rings (size 3 to 8) (size 9 to 14) (size 15 to 20)
#    0.000    2.333    1.667    5.000    0.000    0.000 
#    3.000    0.000    0.000    1.000    0.000    4.667 
#    0.000    0.000    0.000    0.000    0.000    0.000 
#
# Total GULP energy -297561.238712 kJ/mol
# GULP energy per Si atom -12398.384946 kJ/mol
# Density = 1.834169 g / cm^3
# Si number density = 18.383531 Si / 1000 Ang^3
#
#
#
# Elastic Constant Matrix: (Units=GPa)
#
#
# Indices 1 2 3 4 5 6 
#
# 1 96.9289 62.2251 60.9589 0.0002 7.2871 0.0003
# 2 62.2251 152.9849 75.9216 0.0000 23.9684 0.0000
# 3 60.9589 75.9216 105.5196 0.0002 14.3019 0.0006
# 4 0.0002 0.0000 0.0002 51.7486 -0.0003 32.0575
# 5 7.2871 23.9684 14.3019 -0.0003 31.9463 -0.0004
# 6 0.0003 0.0000 0.0006 32.0575 -0.0004 67.2790
#
#
#
# Elastic Compliance Matrix: (Units=1/GPa)
#
#
# Indices 1 2 3 4 5 6 
#
# 1 0.017289 -0.003530 -0.007742 0.000000 0.002171 0.000000
# 2 -0.003530 0.011576 -0.005559 0.000000 -0.005391 0.000000
# 3 -0.007742 -0.005559 0.018252 0.000000 -0.002235 0.000000
# 4 0.000000 0.000000 0.000000 0.027417 0.000000 -0.013064
# 5 0.002171 -0.005391 -0.002235 0.000000 0.035853 0.000000
# 6 0.000000 0.000000 0.000000 -0.013064 0.000000 0.021088
#
#
# Mechanical properties :
#
#
# Convention : Reuss Voigt Hill
#
# Bulk Modulus (GPa) = 74.32372 83.73828 79.03100
# Shear Modulus (GPa) = 29.47749 40.61663 35.04706
#
# Velocity S-wave (km/s) = 4.00868 4.70553 4.37101
# Velocity P-wave (km/s) = 7.87041 8.67019 8.27996
#
# Compressibility (1/GPa) = 0.01345465
#
# Stress axis : x y z
#
# Youngs Moduli (GPa) = 57.84067 86.38851 54.78860
#
# Poissons Ratio (x) = 0.30495 0.42419
# Poissons Ratio (y) = 0.20418 0.30455
# Poissons Ratio (z) = 0.44782 0.48021
#
# Static dielectric constant tensor:
#      x y z
#    x 3.258600 0.000000 0.346650 
#    y 0.000000 3.720360 0.000000 
#    z 0.346650 0.000000 3.611880 
# 
# 
# High freq. dielectric constant tensor:
#      x y z
#    x 1.684880 0.000000 0.015430 
#    y 0.000000 1.728350 0.000000 
#    z 0.015430 0.000000 1.695930 
# 
# From -- ./inp_files/139373.got.cif
#   From: 2010.06.25/outbox.cif.g09.slc.cpg/sg15_70_cif.got.tgz:139373.got - 2010.06.28 07:06:18.
