data_PCOD8154317
_publ_section_title
;
Structure prediction by ZEFSAII (Michael W. Deem and Ramdas Pophale) SiO2 
 PCOD8154317
Probable space group: C 2/C
;
_chemical_formula_sum "Si O2"
_cell_formula_units_Z 56
_cell_length_a 6.643561
_cell_length_b 12.731767
_cell_length_c 27.689764
_cell_angle_alpha 90.000000
_cell_angle_beta 88.730990
_cell_angle_gamma 90.000000
_cell_volume 2341.544052
_symmetry_space_group_name_H-M "C 2/C"
_symmetry_group_IT_number 15
_symmetry_cell_setting 'monoclinic'
loop_
_space_group_symop_operation_xyz
x,y,z
-x,y,1/2-z
-x,-y,-z
x,-y,1/2+z
1/2+x,1/2+y,z
1/2-x,1/2+y,1/2-z
1/2-x,1/2-y,-z
1/2+x,1/2-y,1/2+z
loop_
_atom_site_type_symbol
_atom_site_label
_atom_site_fract_x
_atom_site_fract_y
_atom_site_fract_z
Si Si1 0.672875 0.299344 0.210454
Si Si2 0.502744 0.674306 0.606855
Si Si3 0.534622 0.120253 0.046814
Si Si4 0.308616 0.534392 0.970162
Si Si5 0.366491 0.982003 0.705556
Si Si6 0.014828 0.882955 0.801435
Si Si7 0.704635 0.989280 0.130369
O O1 0.500000 0.265217 0.250000
O O2 0.594058 0.284941 0.156361
O O3 0.737303 0.417205 0.222535
O O4 0.873535 0.226502 0.210724
O O5 0.491184 0.765098 0.567393
O O6 0.633360 0.580572 0.582495
O O7 0.279783 0.628407 0.618198
O O8 0.317950 0.070877 0.037735
O O9 0.668858 0.050845 0.081749
O O10 0.669640 0.122105 0.997558
O O11 0.500000 0.500000 0.000000
O O12 0.500000 0.940213 0.750000
O O13 0.501684 0.020716 0.661078
O O14 0.226920 0.885329 0.685156
O O15 0.000000 0.944582 0.750000
O O16 0.125341 0.951316 0.840303
#
# Coordination Sequence:
#
# PCOD8154317 Si02
#       7
#     8   8   8   8   8   8   8
#     4  12  27  48  73 114 153 200 263 311 380 464
#     4  12  25  50  78 112 157 200 252 319 390 454
#     4  11  26  48  77 113 150 195 254 319 386 464
#     4  11  25  52  79 111 155 196 257 320 394 472
#     4  12  25  46  71 103 152 206 257 311 379 449
#     4  12  26  46  73 100 152 206 248 317 374 440
#     4  12  25  46  73 112 149 196 262 311 380 470
#
# _framework density 23.915842999999999
#
# number of rings (size 3 to 8) (size 9 to 14) (size 15 to 20)
#    0.000    0.286    5.714    3.000    2.000    1.714 
#    5.143    0.000    0.000    0.000    0.000    0.000 
#    0.000    0.000    0.000    0.000    0.000    0.000 
#
# Total GULP energy -347073.475640 kJ/mol
# GULP energy per Si atom -12395.481273 kJ/mol
# Density = 2.386141 g / cm^3
# Si number density = 23.915843 Si / 1000 Ang^3
#
#
#
# Elastic Constant Matrix: (Units=GPa)
#
#
# Indices 1 2 3 4 5 6 
#
# 1 163.5827 59.6035 49.2900 0.0000 -6.0742 0.0000
# 2 59.6035 87.9765 17.1230 0.0000 -5.1571 0.0000
# 3 49.2900 17.1230 108.2100 0.0000 -10.2687 0.0000
# 4 0.0000 0.0000 0.0000 25.8498 0.0000 -1.4101
# 5 -6.0742 -5.1571 -10.2687 0.0000 51.6298 0.0000
# 6 0.0000 0.0000 0.0000 -1.4101 0.0000 41.4566
#
#
#
# Elastic Compliance Matrix: (Units=1/GPa)
#
#
# Indices 1 2 3 4 5 6 
#
# 1 0.009120 -0.005547 -0.003289 0.000000 -0.000135 0.000000
# 2 -0.005547 0.015135 0.000217 0.000000 0.000902 0.000000
# 3 -0.003289 0.000217 0.010876 0.000000 0.001798 0.000000
# 4 0.000000 0.000000 0.000000 0.038757 0.000000 0.001318
# 5 -0.000135 0.000902 0.001798 0.000000 0.019800 0.000000
# 6 0.000000 0.000000 0.000000 0.001318 0.000000 0.024166
#
#
# Mechanical properties :
#
#
# Convention : Reuss Voigt Hill
#
# Bulk Modulus (GPa) = 55.88632 67.97802 61.93217
# Shear Modulus (GPa) = 35.44662 39.37077 37.40869
#
# Velocity S-wave (km/s) = 3.85403 4.06177 3.95926
# Velocity P-wave (km/s) = 6.57445 7.10513 6.84493
#
# Compressibility (1/GPa) = 0.01789347
#
# Stress axis : x y z
#
# Youngs Moduli (GPa) = 109.64633 66.07161 91.94659
#
# Poissons Ratio (x) = 0.36647 0.30245
# Poissons Ratio (y) = 0.60816 -0.01997
# Poissons Ratio (z) = 0.36068 -0.01435
#
# Static dielectric constant tensor:
#      x y z
#    x 4.955410 0.000000 -0.125500 
#    y 0.000000 4.119750 0.000000 
#    z -0.125500 0.000000 4.542480 
# 
# 
# High freq. dielectric constant tensor:
#      x y z
#    x 1.967020 0.000000 -0.004600 
#    y 0.000000 1.937530 0.000000 
#    z -0.004600 0.000000 1.961840 
# 
# From -- ./inp_files/305397.got.cif
#   From: 2010.06.25/outbox.cif.g09.slc.cpg/sg15_153_cif.got.tgz:305397.got - 2010.06.28 07:06:18.
