data_PCOD8154640
_publ_section_title
;
Structure prediction by ZEFSAII (Michael W. Deem and Ramdas Pophale) SiO2 
 PCOD8154640
Probable space group: C 2/C
;
_chemical_formula_sum "Si O2"
_cell_formula_units_Z 48
_cell_length_a 23.597958
_cell_length_b 16.409279
_cell_length_c 8.014874
_cell_angle_alpha 90.000000
_cell_angle_beta 132.787658
_cell_angle_gamma 90.000000
_cell_volume 2277.631333
_symmetry_space_group_name_H-M "C 2/C"
_symmetry_group_IT_number 15
_symmetry_cell_setting 'monoclinic'
loop_
_space_group_symop_operation_xyz
x,y,z
-x,y,1/2-z
-x,-y,-z
x,-y,1/2+z
1/2+x,1/2+y,z
1/2-x,1/2+y,1/2-z
1/2-x,1/2-y,-z
1/2+x,1/2-y,1/2+z
loop_
_atom_site_type_symbol
_atom_site_label
_atom_site_fract_x
_atom_site_fract_y
_atom_site_fract_z
Si Si1 0.500000 0.143538 0.250000
Si Si2 0.338911 0.894267 0.876027
Si Si3 0.084634 0.535905 0.647153
Si Si4 0.838911 0.105733 0.479620
Si Si5 0.409268 0.250000 0.318537
Si Si6 0.000000 0.856462 0.750000
Si Si7 0.584634 0.535905 0.191382
O O1 0.574723 0.092735 0.464447
O O2 0.468001 0.194664 0.336789
O O3 0.250000 0.895975 0.750232
O O4 0.357372 0.805320 0.837237
O O5 0.354787 0.963975 0.769545
O O6 0.389749 0.911296 0.142189
O O7 0.000000 0.500000 0.500000
O O8 0.857372 0.194680 0.592255
O O9 0.889749 0.088704 0.416808
O O10 0.854787 0.036024 0.649605
O O11 0.468000 0.305336 0.535215
O O12 0.925277 0.907265 0.665555
O O13 0.500000 0.500000 0.000000
#
# Coordination Sequence:
#
# PCOD8154640 Si02
#       7
#     4   8   8   8   8   4   8
#     4  12  24  40  72  96 130 172 232 282 316 384
#     4  12  25  43  67 100 140 175 216 277 341 397
#     4  12  22  44  70  99 125 178 234 272 319 395
#     4  12  25  43  67 100 140 175 216 277 341 397
#     4  12  25  42  64 102 139 174 218 274 339 396
#     4  12  24  40  72  96 130 172 232 282 316 384
#     4  12  22  44  70  99 125 178 234 272 319 395
#
# _framework density 21.074525999999999
#
# number of rings (size 3 to 8) (size 9 to 14) (size 15 to 20)
#    0.000    0.000    6.667    3.500    0.000    0.000 
#    0.000    6.667    0.000    0.000    0.000    0.000 
#    0.000    0.000    0.000    0.000    0.000    0.000 
#
# Total GULP energy -297645.867374 kJ/mol
# GULP energy per Si atom -12401.911141 kJ/mol
# Density = 2.102656 g / cm^3
# Si number density = 21.074526 Si / 1000 Ang^3
#
#
#
# Elastic Constant Matrix: (Units=GPa)
#
#
# Indices 1 2 3 4 5 6 
#
# 1 108.5600 39.2709 40.9462 0.0000 4.5932 0.0000
# 2 39.2709 113.9729 39.1028 0.0000 -2.9058 0.0000
# 3 40.9462 39.1028 109.1153 0.0000 4.9522 0.0000
# 4 0.0000 0.0000 0.0000 28.1381 0.0000 -19.2683
# 5 4.5932 -2.9058 4.9522 0.0000 40.1400 0.0000
# 6 0.0000 0.0000 0.0000 -19.2683 0.0000 29.2597
#
#
#
# Elastic Compliance Matrix: (Units=1/GPa)
#
#
# Indices 1 2 3 4 5 6 
#
# 1 0.011526 -0.002889 -0.003239 0.000000 -0.001128 0.000000
# 2 -0.002889 0.010783 -0.002847 0.000000 0.001462 0.000000
# 3 -0.003239 -0.002847 0.011457 0.000000 -0.001249 0.000000
# 4 0.000000 0.000000 0.000000 0.064728 0.000000 0.042625
# 5 -0.001128 0.001462 -0.001249 0.000000 0.025302 0.000000
# 6 0.000000 0.000000 0.000000 0.042625 0.000000 0.062246
#
#
# Mechanical properties :
#
#
# Convention : Reuss Voigt Hill
#
# Bulk Modulus (GPa) = 63.22122 63.36534 63.29328
# Shear Modulus (GPa) = 23.89338 33.66276 28.77807
#
# Velocity S-wave (km/s) = 3.37078 4.00098 3.69933
# Velocity P-wave (km/s) = 6.72410 7.17470 6.95306
#
# Compressibility (1/GPa) = 0.01581747
#
# Stress axis : x y z
#
# Youngs Moduli (GPa) = 86.76139 92.73518 87.28496
#
# Poissons Ratio (x) = 0.26791 0.28268
# Poissons Ratio (y) = 0.25066 0.24847
# Poissons Ratio (z) = 0.28099 0.26398
#
# Static dielectric constant tensor:
#      x y z
#    x 4.101580 0.000000 -0.080530 
#    y 0.000000 4.854270 0.000000 
#    z -0.080530 0.000000 4.096840 
# 
# 
# High freq. dielectric constant tensor:
#      x y z
#    x 1.828050 0.000000 -0.015310 
#    y 0.000000 1.840260 0.000000 
#    z -0.015310 0.000000 1.827160 
# 
# From -- ./inp_files/47493.got.cif
#   From: 2010.06.25/outbox.cif.g09.slc.cpg/sg15_24_cif.got.tgz:47493.got - 2010.06.28 07:06:18.
