data_PCOD8154809
_publ_section_title
;
Structure prediction by ZEFSAII (Michael W. Deem and Ramdas Pophale) SiO2 
 PCOD8154809
Probable space group: C 2/C
;
_chemical_formula_sum "Si O2"
_cell_formula_units_Z 56
_cell_length_a 26.614018
_cell_length_b 17.088090
_cell_length_c 8.610987
_cell_angle_alpha 90.000000
_cell_angle_beta 142.156681
_cell_angle_gamma 90.000000
_cell_volume 2402.561432
_symmetry_space_group_name_H-M "C 2/C"
_symmetry_group_IT_number 15
_symmetry_cell_setting 'monoclinic'
loop_
_space_group_symop_operation_xyz
x,y,z
-x,y,1/2-z
-x,-y,-z
x,-y,1/2+z
1/2+x,1/2+y,z
1/2-x,1/2+y,1/2-z
1/2-x,1/2-y,-z
1/2+x,1/2-y,1/2+z
loop_
_atom_site_type_symbol
_atom_site_label
_atom_site_fract_x
_atom_site_fract_y
_atom_site_fract_z
Si Si1 0.441683 0.668819 0.474321
Si Si2 0.215483 0.085615 0.397811
Si Si3 0.643689 0.815788 0.391409
Si Si4 0.997521 0.584826 0.428327
Si Si5 0.285923 0.417829 0.238289
Si Si6 0.564483 0.336830 0.029840
Si Si7 0.354847 0.818138 0.736011
O O1 0.378166 0.603976 0.382769
O O2 0.385772 0.732407 0.247460
O O3 0.505998 0.625178 0.517561
O O4 0.500000 0.706764 0.750000
O O5 0.269628 0.157547 0.467370
O O6 0.222935 0.081089 0.600196
O O7 0.243360 0.002038 0.396613
O O8 0.648730 0.817044 0.587953
O O9 0.580466 0.879981 0.189021
O O10 0.919565 0.625328 0.313860
O O11 0.000000 0.587443 0.250000
O O12 0.000000 0.500000 0.500000
O O13 0.379357 0.402747 0.412868
O O14 0.233008 0.345051 0.043128
O O15 0.619750 0.270032 0.248100
O O16 0.500000 0.298245 0.750000
#
# Coordination Sequence:
#
# PCOD8154809 Si02
#       7
#     8   8   8   8   8   8   8
#     4  12  28  46  77 107 144 186 240 297 354 426
#     4  12  28  49  70 106 147 189 242 292 357 422
#     4  12  24  46  71 104 142 182 237 294 354 426
#     4  12  24  41  67 100 141 187 233 290 354 424
#     4  12  28  47  73 104 145 193 236 296 355 426
#     4  12  24  49  74 106 142 185 240 295 359 420
#     4  12  24  45  74 103 141 184 236 293 357 422
#
# _framework density 23.308457000000001
#
# number of rings (size 3 to 8) (size 9 to 14) (size 15 to 20)
#    0.000    0.000    4.286    5.143    6.000    1.143 
#    0.000    0.000    0.000    0.000    0.000    0.000 
#    0.000    0.000    0.000    0.000    0.000    0.000 
#
# Total GULP energy -347121.175986 kJ/mol
# GULP energy per Si atom -12397.184857 kJ/mol
# Density = 2.325541 g / cm^3
# Si number density = 23.308457 Si / 1000 Ang^3
#
#
#
# Elastic Constant Matrix: (Units=GPa)
#
#
# Indices 1 2 3 4 5 6 
#
# 1 184.0986 20.3317 57.3064 0.0000 -20.5035 0.0000
# 2 20.3317 62.0478 20.0324 0.0000 -8.4834 0.0000
# 3 57.3064 20.0324 125.0489 0.0000 -12.1542 0.0000
# 4 0.0000 0.0000 0.0000 32.7466 0.0000 5.3847
# 5 -20.5035 -8.4834 -12.1542 0.0000 59.5601 0.0000
# 6 0.0000 0.0000 0.0000 5.3847 0.0000 41.3646
#
#
#
# Elastic Compliance Matrix: (Units=1/GPa)
#
#
# Indices 1 2 3 4 5 6 
#
# 1 0.006559 -0.001070 -0.002683 0.000000 0.001558 0.000000
# 2 -0.001070 0.017384 -0.002132 0.000000 0.001673 0.000000
# 3 -0.002683 -0.002132 0.009640 0.000000 0.000740 0.000000
# 4 0.000000 0.000000 0.000000 0.031205 0.000000 -0.004062
# 5 0.001558 0.001673 0.000740 0.000000 0.017715 0.000000
# 6 0.000000 0.000000 0.000000 -0.004062 0.000000 0.024704
#
#
# Mechanical properties :
#
#
# Convention : Reuss Voigt Hill
#
# Bulk Modulus (GPa) = 45.84393 62.94849 54.39621
# Shear Modulus (GPa) = 39.60457 44.96926 42.28692
#
# Velocity S-wave (km/s) = 4.12655 4.39716 4.26400
# Velocity P-wave (km/s) = 6.51272 7.26948 6.90148
#
# Compressibility (1/GPa) = 0.02181314
#
# Stress axis : x y z
#
# Youngs Moduli (GPa) = 152.47022 57.52344 103.73676
#
# Poissons Ratio (x) = 0.06155 0.27831
# Poissons Ratio (y) = 0.16314 0.22116
# Poissons Ratio (z) = 0.40905 0.12264
#
# Static dielectric constant tensor:
#      x y z
#    x 4.471790 0.000000 0.139290 
#    y 0.000000 4.201680 0.000000 
#    z 0.139290 0.000000 4.378230 
# 
# 
# High freq. dielectric constant tensor:
#      x y z
#    x 1.952320 0.000000 0.006390 
#    y 0.000000 1.911480 0.000000 
#    z 0.006390 0.000000 1.930980 
# 
# From -- ./inp_files/67202.got.cif
#   From: 2010.06.25/outbox.cif.g09.slc.cpg/sg15_34_cif.got.tgz:67202.got - 2010.06.28 07:06:18.
