data_PCOD8154743
_publ_section_title
;
Structure prediction by ZEFSAII (Michael W. Deem and Ramdas Pophale) SiO2 
 PCOD8154743
Probable space group: C 2/C
;
_chemical_formula_sum "Si O2"
_cell_formula_units_Z 40
_cell_length_a 11.442009
_cell_length_b 20.626562
_cell_length_c 12.035472
_cell_angle_alpha 90.000000
_cell_angle_beta 140.397122
_cell_angle_gamma 90.000000
_cell_volume 1810.702207
_symmetry_space_group_name_H-M "C 2/C"
_symmetry_group_IT_number 15
_symmetry_cell_setting 'monoclinic'
loop_
_space_group_symop_operation_xyz
x,y,z
-x,y,1/2-z
-x,-y,-z
x,-y,1/2+z
1/2+x,1/2+y,z
1/2-x,1/2+y,1/2-z
1/2-x,1/2-y,-z
1/2+x,1/2-y,1/2+z
loop_
_atom_site_type_symbol
_atom_site_label
_atom_site_fract_x
_atom_site_fract_y
_atom_site_fract_z
Si Si1 0.393708 0.715513 0.384005
Si Si2 0.181883 0.113168 0.562850
Si Si3 0.839087 0.448709 0.393632
Si Si4 0.000000 0.978100 0.750000
Si Si5 0.000000 0.298116 0.250000
Si Si6 0.494417 0.178198 0.115035
O O1 0.536204 0.658955 0.518999
O O2 0.467671 0.753776 0.332212
O O3 0.373759 0.764032 0.473661
O O4 0.198654 0.683465 0.214376
O O5 0.291889 0.073363 0.735181
O O6 0.324245 0.156638 0.596972
O O7 0.075572 0.065832 0.403714
O O8 0.661329 0.477341 0.322522
O O9 0.000000 0.500000 0.500000
O O10 0.908014 0.390093 0.519818
O O11 0.500000 0.185766 0.250000
#
# Coordination Sequence:
#
# PCOD8154743 Si02
#       6
#     8   8   8   4   4   8
#     4  12  25  46  74 114 146 194 241 319 379 447
#     4  12  26  46  75 108 150 187 254 309 378 435
#     4  12  28  50  72 107 149 203 257 305 366 448
#     4  12  29  46  78 104 150 205 250 308 370 446
#     4  12  23  44  74 112 154 185 242 310 388 446
#     4  12  27  47  75 107 154 195 247 303 380 449
#
# _framework density 22.090878
#
# number of rings (size 3 to 8) (size 9 to 14) (size 15 to 20)
#    0.000    0.000    4.000    4.800    8.400    0.000 
#    1.800    0.000    0.000    0.000    0.000    0.000 
#    0.000    0.000    0.000    0.000    0.000    0.000 
#
# Total GULP energy -248156.978319 kJ/mol
# GULP energy per Si atom -12407.848916 kJ/mol
# Density = 2.204060 g / cm^3
# Si number density = 22.090878 Si / 1000 Ang^3
#
#
#
# Elastic Constant Matrix: (Units=GPa)
#
#
# Indices 1 2 3 4 5 6 
#
# 1 129.1801 63.4150 62.0675 0.0000 3.2235 0.0000
# 2 63.4150 111.4421 77.0314 0.0000 -1.6304 0.0000
# 3 62.0675 77.0314 139.8239 0.0000 -7.7580 0.0000
# 4 0.0000 0.0000 0.0000 91.7635 0.0000 46.6682
# 5 3.2235 -1.6304 -7.7580 0.0000 59.7236 0.0000
# 6 0.0000 0.0000 0.0000 46.6682 0.0000 37.8811
#
#
#
# Elastic Compliance Matrix: (Units=1/GPa)
#
#
# Indices 1 2 3 4 5 6 
#
# 1 0.011270 -0.004732 -0.002454 0.000000 -0.001056 0.000000
# 2 -0.004732 0.016503 -0.007003 0.000000 -0.000204 0.000000
# 3 -0.002454 -0.007003 0.012184 0.000000 0.001524 0.000000
# 4 0.000000 0.000000 0.000000 0.029180 0.000000 -0.035949
# 5 -0.001056 -0.000204 0.001524 0.000000 0.016993 0.000000
# 6 0.000000 0.000000 0.000000 -0.035949 0.000000 0.070686
#
#
# Mechanical properties :
#
#
# Convention : Reuss Voigt Hill
#
# Bulk Modulus (GPa) = 86.36420 87.27489 86.81954
# Shear Modulus (GPa) = 26.44749 49.73579 38.09164
#
# Velocity S-wave (km/s) = 3.46383 4.75006 4.15699
# Velocity P-wave (km/s) = 7.42814 8.34728 7.90109
#
# Compressibility (1/GPa) = 0.01157887
#
# Stress axis : x y z
#
# Youngs Moduli (GPa) = 88.73439 60.59338 82.07557
#
# Poissons Ratio (x) = 0.28672 0.20144
# Poissons Ratio (y) = 0.41988 0.57477
# Poissons Ratio (z) = 0.21778 0.42433
#
# Static dielectric constant tensor:
#      x y z
#    x 3.126640 0.000000 1.187690 
#    y 0.000000 4.303420 0.000000 
#    z 1.187690 0.000000 3.374910 
# 
# 
# High freq. dielectric constant tensor:
#      x y z
#    x 1.874800 0.000000 0.008990 
#    y 0.000000 1.884970 0.000000 
#    z 0.008990 0.000000 1.892110 
# 
# From -- ./inp_files/89340.got.cif
#   From: 2010.06.25/outbox.cif.g09.slc.cpg/sg15_45_cif.got.tgz:89340.got - 2010.06.28 07:06:18.
