data_PCOD8154217
_publ_section_title
;
Structure prediction by ZEFSAII (Michael W. Deem and Ramdas Pophale) SiO2 
 PCOD8154217
Probable space group: C 2/C
;
_chemical_formula_sum "Si O2"
_cell_formula_units_Z 40
_cell_length_a 8.179046
_cell_length_b 23.387387
_cell_length_c 8.566524
_cell_angle_alpha 90.000000
_cell_angle_beta 82.314564
_cell_angle_gamma 90.000000
_cell_volume 1623.940796
_symmetry_space_group_name_H-M "C 2/C"
_symmetry_group_IT_number 15
_symmetry_cell_setting 'monoclinic'
loop_
_space_group_symop_operation_xyz
x,y,z
-x,y,1/2-z
-x,-y,-z
x,-y,1/2+z
1/2+x,1/2+y,z
1/2-x,1/2+y,1/2-z
1/2-x,1/2-y,-z
1/2+x,1/2-y,1/2+z
loop_
_atom_site_type_symbol
_atom_site_label
_atom_site_fract_x
_atom_site_fract_y
_atom_site_fract_z
Si Si1 0.926169 0.618442 0.924237
Si Si2 0.857047 0.483467 0.656053
Si Si3 0.061552 0.268930 0.563168
Si Si4 0.139795 0.046632 0.455893
Si Si5 0.946085 0.848189 0.078213
O O1 0.734744 0.629174 0.924022
O O2 0.000000 0.601393 0.750000
O O3 0.941599 0.564403 0.037093
O O4 0.023490 0.672938 0.977887
O O5 0.784809 0.535842 0.563387
O O6 0.706779 0.457109 0.772188
O O7 0.000000 0.508055 0.750000
O O8 0.250000 0.250000 0.500000
O O9 0.000000 0.278120 0.750000
O O10 0.956514 0.215849 0.506858
O O11 0.074306 0.110640 0.475517
O O12 0.000000 0.000000 0.500000
O O13 0.000000 0.846407 0.250000
#
# Coordination Sequence:
#
# PCOD8154217 Si02
#       5
#     8   8   8   8   8
#     4  12  27  49  78 115 156 207 263 326 395 470
#     4  12  29  48  79 113 157 206 262 324 391 473
#     4  11  26  50  78 116 157 205 265 329 398 473
#     4  12  26  52  74 114 153 204 258 321 393 468
#     4  11  25  46  80 107 154 205 261 322 390 466
#
# _framework density 24.631440000000001
#
# number of rings (size 3 to 8) (size 9 to 14) (size 15 to 20)
#    0.000    0.400    2.000    6.000    8.400    0.800 
#    0.000    0.000    0.000    0.000    0.000    0.000 
#    0.000    0.000    0.000    0.000    0.000    0.000 
#
# Total GULP energy -247962.511702 kJ/mol
# GULP energy per Si atom -12398.125585 kJ/mol
# Density = 2.457538 g / cm^3
# Si number density = 24.631440 Si / 1000 Ang^3
#
#
#
# Elastic Constant Matrix: (Units=GPa)
#
#
# Indices 1 2 3 4 5 6 
#
# 1 141.1236 43.9985 55.1369 0.0000 -6.2276 0.0000
# 2 43.9985 126.6226 38.8048 0.0000 4.2053 0.0000
# 3 55.1369 38.8048 158.2398 0.0000 -33.6961 0.0000
# 4 0.0000 0.0000 0.0000 9.7486 0.0000 8.8485
# 5 -6.2276 4.2053 -33.6961 0.0000 52.3273 0.0000
# 6 0.0000 0.0000 0.0000 8.8485 0.0000 44.0008
#
#
#
# Elastic Compliance Matrix: (Units=1/GPa)
#
#
# Indices 1 2 3 4 5 6 
#
# 1 0.008783 -0.002237 -0.002608 0.000000 -0.000455 0.000000
# 2 -0.002237 0.009368 -0.002010 0.000000 -0.002314 0.000000
# 3 -0.002608 -0.002010 0.008912 0.000000 0.005590 0.000000
# 4 0.000000 0.000000 0.000000 0.125484 0.000000 -0.025235
# 5 -0.000455 -0.002314 0.005590 0.000000 0.022842 0.000000
# 6 0.000000 0.000000 0.000000 -0.025235 0.000000 0.027802
#
#
# Mechanical properties :
#
#
# Convention : Reuss Voigt Hill
#
# Bulk Modulus (GPa) = 74.90612 77.98514 76.44563
# Shear Modulus (GPa) = 22.58849 40.41838 31.50343
#
# Velocity S-wave (km/s) = 3.03158 4.05523 3.58018
# Velocity P-wave (km/s) = 6.53688 7.32503 6.94215
#
# Compressibility (1/GPa) = 0.01335004
#
# Stress axis : x y z
#
# Youngs Moduli (GPa) = 113.86254 106.74827 112.21228
#
# Poissons Ratio (x) = 0.23883 0.29269
# Poissons Ratio (y) = 0.25474 0.22559
# Poissons Ratio (z) = 0.29699 0.21460
#
# Static dielectric constant tensor:
#      x y z
#    x 4.835560 0.000000 -0.224450 
#    y 0.000000 4.963590 0.000000 
#    z -0.224450 0.000000 4.925370 
# 
# 
# High freq. dielectric constant tensor:
#      x y z
#    x 2.006950 0.000000 -0.018810 
#    y 0.000000 1.999950 0.000000 
#    z -0.018810 0.000000 1.988550 
# 
# From -- ./inp_files/23471.got.cif
#   From: 2010.06.25/outbox.cif.g09.slc.cpg/sg15_12_cif.got.tgz:23471.got - 2010.06.28 07:06:18.
