data_PCOD8154322
_publ_section_title
;
Structure prediction by ZEFSAII (Michael W. Deem and Ramdas Pophale) SiO2 
 PCOD8154322
Probable space group: C 2/C
;
_chemical_formula_sum "Si O2"
_cell_formula_units_Z 56
_cell_length_a 30.061008
_cell_length_b 5.041665
_cell_length_c 16.809212
_cell_angle_alpha 90.000000
_cell_angle_beta 66.876452
_cell_angle_gamma 90.000000
_cell_volume 2342.891938
_symmetry_space_group_name_H-M "C 2/C"
_symmetry_group_IT_number 15
_symmetry_cell_setting 'monoclinic'
loop_
_space_group_symop_operation_xyz
x,y,z
-x,y,1/2-z
-x,-y,-z
x,-y,1/2+z
1/2+x,1/2+y,z
1/2-x,1/2+y,1/2-z
1/2-x,1/2-y,-z
1/2+x,1/2-y,1/2+z
loop_
_atom_site_type_symbol
_atom_site_label
_atom_site_fract_x
_atom_site_fract_y
_atom_site_fract_z
Si Si1 0.424957 0.847732 0.937072
Si Si2 0.239644 0.947996 0.439979
Si Si3 0.625969 0.308707 0.281324
Si Si4 0.923668 0.688443 0.625160
Si Si5 0.516938 0.339081 0.649178
Si Si6 0.832755 0.725371 0.409087
Si Si7 0.777545 0.677966 0.208294
O O1 0.442550 0.549126 0.906929
O O2 0.372916 0.921081 0.934611
O O3 0.461410 0.046350 0.868973
O O4 0.424300 0.891474 0.032296
O O5 0.250000 0.750000 0.500000
O O6 0.218125 0.794173 0.381774
O O7 0.197482 0.133282 0.501175
O O8 0.292845 0.067968 0.384033
O O9 0.617107 0.588866 0.330388
O O10 0.637548 0.382039 0.180571
O O11 0.669526 0.157880 0.293782
O O12 0.583757 0.084546 0.318877
O O13 0.972258 0.837312 0.619313
O O14 0.500000 0.408088 0.750000
O O15 0.755531 0.381525 0.217034
#
# Coordination Sequence:
#
# PCOD8154322 Si02
#       7
#     8   8   8   8   8   8   8
#     4  12  26  45  74 100 143 176 230 279 348 412
#     4  11  26  43  72  95 145 182 240 289 352 414
#     4  12  25  44  70  99 141 179 234 279 344 411
#     4  12  26  45  71 104 137 181 229 283 343 416
#     4  12  25  47  73 105 137 180 223 285 345 412
#     4  11  26  45  65 105 132 188 227 293 343 416
#     4  12  25  45  67 101 137 186 236 287 351 408
#
# _framework density 23.902087000000002
#
# number of rings (size 3 to 8) (size 9 to 14) (size 15 to 20)
#    0.000    0.286    1.429    7.286    8.000    0.000 
#    0.000    0.000    0.000    0.000    0.000    0.000 
#    0.000    0.000    0.000    0.000    0.000    0.000 
#
# Total GULP energy -347060.095274 kJ/mol
# GULP energy per Si atom -12395.003403 kJ/mol
# Density = 2.384768 g / cm^3
# Si number density = 23.902087 Si / 1000 Ang^3
#
#
#
# Elastic Constant Matrix: (Units=GPa)
#
#
# Indices 1 2 3 4 5 6 
#
# 1 89.4228 -7.4784 35.2893 0.0001 0.4455 0.0000
# 2 -7.4784 77.3124 9.3071 0.0002 -12.1460 -0.0001
# 3 35.2893 9.3071 127.8435 0.0001 7.9682 -0.0001
# 4 0.0001 0.0002 0.0001 17.1812 0.0000 16.9325
# 5 0.4455 -12.1460 7.9682 0.0000 34.5397 0.0000
# 6 0.0000 -0.0001 -0.0001 16.9325 0.0000 21.1767
#
#
#
# Elastic Compliance Matrix: (Units=1/GPa)
#
#
# Indices 1 2 3 4 5 6 
#
# 1 0.012821 0.001909 -0.003764 0.000000 0.001374 0.000000
# 2 0.001909 0.014197 -0.001897 -0.000001 0.005405 0.000001
# 3 -0.003764 -0.001897 0.009170 0.000000 -0.002734 0.000000
# 4 0.000000 -0.000001 0.000000 0.274549 0.000000 -0.219524
# 5 0.001374 0.005405 -0.002734 0.000000 0.031466 0.000000
# 6 0.000000 0.000001 0.000000 -0.219524 0.000000 0.222748
#
#
# Mechanical properties :
#
#
# Convention : Reuss Voigt Hill
#
# Bulk Modulus (GPa) = 34.86344 40.97941 37.92142
# Shear Modulus (GPa) = 8.59083 31.74356 20.16720
#
# Velocity S-wave (km/s) = 1.89789 3.64822 2.90788
# Velocity P-wave (km/s) = 4.40684 5.90998 5.21288
#
# Compressibility (1/GPa) = 0.02868335
#
# Stress axis : x y z
#
# Youngs Moduli (GPa) = 77.99750 70.43820 109.05706
#
# Poissons Ratio (x) = -0.13448 0.41045
# Poissons Ratio (y) = -0.14891 0.20693
# Poissons Ratio (z) = 0.29356 0.13365
#
# Static dielectric constant tensor:
#      x y z
#    x 4.409090 0.000000 0.011500 
#    y 0.000000 4.291820 0.000000 
#    z 0.011500 0.000000 4.257940 
# 
# 
# High freq. dielectric constant tensor:
#      x y z
#    x 1.963630 0.000000 0.002870 
#    y 0.000000 1.941230 0.000000 
#    z 0.002870 0.000000 1.965240 
# 
# From -- ./inp_files/223826.got.cif
#   From: 2010.06.25/outbox.cif.g09.slc.cpg/sg15_112_cif.got.tgz:223826.got - 2010.06.28 07:06:18.
