data_PCOD8154214
_publ_section_title
;
Structure prediction by ZEFSAII (Michael W. Deem and Ramdas Pophale) SiO2 
 PCOD8154214
Probable space group: C 2/C
;
_chemical_formula_sum "Si O2"
_cell_formula_units_Z 32
_cell_length_a 4.854130
_cell_length_b 19.318969
_cell_length_c 14.534917
_cell_angle_alpha 90.000000
_cell_angle_beta 88.469619
_cell_angle_gamma 90.000000
_cell_volume 1362.551626
_symmetry_space_group_name_H-M "C 2/C"
_symmetry_group_IT_number 15
_symmetry_cell_setting 'monoclinic'
loop_
_space_group_symop_operation_xyz
x,y,z
-x,y,1/2-z
-x,-y,-z
x,-y,1/2+z
1/2+x,1/2+y,z
1/2-x,1/2+y,1/2-z
1/2-x,1/2-y,-z
1/2+x,1/2-y,1/2+z
loop_
_atom_site_type_symbol
_atom_site_label
_atom_site_fract_x
_atom_site_fract_y
_atom_site_fract_z
Si Si1 0.575114 0.110342 0.946832
Si Si2 0.800285 0.027366 0.421654
Si Si3 0.896719 0.202091 0.574629
Si Si4 0.000000 0.891789 0.750000
Si Si5 0.000000 0.292260 0.750000
O O1 0.343692 0.150191 0.889945
O O2 0.653747 0.042739 0.886469
O O3 0.427402 0.083537 0.042580
O O4 0.839444 0.159591 0.968469
O O5 0.973435 0.059897 0.338707
O O6 0.000000 0.000000 0.500000
O O7 0.750000 0.250000 0.500000
O O8 0.991815 0.245010 0.660526
O O9 0.751687 0.841876 0.733563
#
# Coordination Sequence:
#
# PCOD8154214 Si02
#       5
#     8   8   8   4   4
#     4  11  25  46  77 110 149 193 256 300 386 450
#     4  11  26  49  79 112 148 201 248 322 384 449
#     4  12  26  47  77 106 153 204 241 315 380 449
#     4  12  30  49  76 109 154 192 260 318 376 450
#     4  12  30  49  74 115 150 200 264 302 376 464
#
# _framework density 23.485351000000001
#
# number of rings (size 3 to 8) (size 9 to 14) (size 15 to 20)
#    0.000    0.500    2.500    3.750   10.500    1.000 
#    4.500    0.000    0.000    0.000    0.000    0.000 
#    0.000    0.000    0.000    0.000    0.000    0.000 
#
# Total GULP energy -198339.305531 kJ/mol
# GULP energy per Si atom -12396.206596 kJ/mol
# Density = 2.343190 g / cm^3
# Si number density = 23.485351 Si / 1000 Ang^3
#
#
#
# Elastic Constant Matrix: (Units=GPa)
#
#
# Indices 1 2 3 4 5 6 
#
# 1 195.8697 100.5686 69.8805 0.0000 -13.9378 0.0000
# 2 100.5686 177.5913 93.6950 0.0000 -8.8083 0.0000
# 3 69.8805 93.6950 138.7349 0.0000 -2.5055 0.0000
# 4 0.0000 0.0000 0.0000 33.7563 0.0000 -12.5219
# 5 -13.9378 -8.8083 -2.5055 0.0000 37.0960 0.0000
# 6 0.0000 0.0000 0.0000 -12.5219 0.0000 67.5403
#
#
#
# Elastic Compliance Matrix: (Units=1/GPa)
#
#
# Indices 1 2 3 4 5 6 
#
# 1 0.007498 -0.003382 -0.001458 0.000000 0.001916 0.000000
# 2 -0.003382 0.010379 -0.005291 0.000000 0.000836 0.000000
# 3 -0.001458 -0.005291 0.011497 0.000000 -0.001028 0.000000
# 4 0.000000 0.000000 0.000000 0.031812 0.000000 0.005898
# 5 0.001916 0.000836 -0.001028 0.000000 0.027806 0.000000
# 6 0.000000 0.000000 0.000000 0.005898 0.000000 0.015899
#
#
# Mechanical properties :
#
#
# Convention : Reuss Voigt Hill
#
# Bulk Modulus (GPa) = 109.74166 115.60933 112.67549
# Shear Modulus (GPa) = 39.00401 44.21531 41.60966
#
# Velocity S-wave (km/s) = 4.07969 4.34369 4.21376
# Velocity P-wave (km/s) = 8.30789 8.63075 8.47086
#
# Compressibility (1/GPa) = 0.00911231
#
# Stress axis : x y z
#
# Youngs Moduli (GPa) = 133.36009 96.34898 86.97730
#
# Poissons Ratio (x) = 0.32584 0.12685
# Poissons Ratio (y) = 0.45101 0.46019
# Poissons Ratio (z) = 0.19449 0.50977
#
# Static dielectric constant tensor:
#      x y z
#    x 4.728060 0.000000 -0.344810 
#    y 0.000000 5.183710 0.000000 
#    z -0.344810 0.000000 3.736150 
# 
# 
# High freq. dielectric constant tensor:
#      x y z
#    x 1.959530 0.000000 -0.014890 
#    y 0.000000 1.967980 0.000000 
#    z -0.014890 0.000000 1.892110 
# 
# From -- ./inp_files/128301.got.cif
#   From: 2010.06.25/outbox.cif.g09.slc.cpg/sg15_65_cif.got.tgz:128301.got - 2010.06.28 07:06:18.
