data_PCOD8154818
_publ_section_title
;
Structure prediction by ZEFSAII (Michael W. Deem and Ramdas Pophale) SiO2 
 PCOD8154818
Probable space group: C 2/C
;
_chemical_formula_sum "Si O2"
_cell_formula_units_Z 32
_cell_length_a 12.147720
_cell_length_b 23.535149
_cell_length_c 5.081638
_cell_angle_alpha 90.000000
_cell_angle_beta 101.059806
_cell_angle_gamma 90.000000
_cell_volume 1425.849420
_symmetry_space_group_name_H-M "C 2/C"
_symmetry_group_IT_number 15
_symmetry_cell_setting 'monoclinic'
loop_
_space_group_symop_operation_xyz
x,y,z
-x,y,1/2-z
-x,-y,-z
x,-y,1/2+z
1/2+x,1/2+y,z
1/2-x,1/2+y,1/2-z
1/2-x,1/2-y,-z
1/2+x,1/2-y,1/2+z
loop_
_atom_site_type_symbol
_atom_site_label
_atom_site_fract_x
_atom_site_fract_y
_atom_site_fract_z
Si Si1 0.000000 0.160818 0.250000
Si Si2 0.572025 0.126671 0.547156
Si Si3 0.500000 0.411840 0.250000
Si Si4 0.173741 0.254089 0.213901
Si Si5 0.238052 0.036376 0.893643
O O1 0.097353 0.198857 0.175851
O O2 0.041367 0.123476 0.515068
O O3 0.500000 0.097400 0.750000
O O4 0.602343 0.188685 0.671556
O O5 0.684439 0.091706 0.534897
O O6 0.500000 0.131976 0.250000
O O7 0.392701 0.449240 0.122630
O O8 0.250000 0.250000 0.500000
O O9 0.250000 0.250000 0.000000
O O10 0.267269 0.010287 0.625136
#
# Coordination Sequence:
#
# PCOD8154818 Si02
#       5
#     4   8   4   8   8
#     4  12  24  43  70 104 138 181 226 276 368 416
#     4  12  26  45  70 103 148 183 236 293 351 428
#     4  12  26  47  72 106 140 179 244 302 354 428
#     4  12  25  43  69 101 142 186 231 282 344 425
#     4  12  26  47  73 101 137 188 241 299 359 409
#
# _framework density 22.44276
#
# number of rings (size 3 to 8) (size 9 to 14) (size 15 to 20)
#    0.000    0.000    1.250    9.750    1.750    3.000 
#    0.000    0.000    0.000    0.000    0.000    0.000 
#    0.000    0.000    0.000    0.000    0.000    0.000 
#
# Total GULP energy -198500.412371 kJ/mol
# GULP energy per Si atom -12406.275773 kJ/mol
# Density = 2.239168 g / cm^3
# Si number density = 22.442760 Si / 1000 Ang^3
#
#
#
# Elastic Constant Matrix: (Units=GPa)
#
#
# Indices 1 2 3 4 5 6 
#
# 1 113.3113 22.4987 54.6498 0.0000 -7.0529 0.0000
# 2 22.4987 90.1204 45.0004 0.0000 6.4413 0.0000
# 3 54.6498 45.0004 174.7981 0.0000 4.8107 0.0000
# 4 0.0000 0.0000 0.0000 28.6766 0.0000 27.3736
# 5 -7.0529 6.4413 4.8107 0.0000 46.0120 0.0000
# 6 0.0000 0.0000 0.0000 27.3736 0.0000 -96.2217
#
#
#
# Elastic Compliance Matrix: (Units=1/GPa)
#
#
# Indices 1 2 3 4 5 6 
#
# 1 0.010696 -0.001290 -0.003071 0.000000 0.002141 0.000000
# 2 -0.001290 0.012985 -0.002892 0.000000 -0.001713 0.000000
# 3 -0.003071 -0.002892 0.007449 0.000000 -0.000845 0.000000
# 4 0.000000 0.000000 0.000000 0.027424 0.000000 0.007802
# 5 0.002141 -0.001713 -0.000845 0.000000 0.022390 0.000000
# 6 0.000000 0.000000 0.000000 0.007802 0.000000 -0.008173
#
#
# Mechanical properties :
#
#
# Convention : Reuss Voigt Hill
#
# Bulk Modulus (GPa) = 60.15667 69.16974 64.66320
# Shear Modulus (GPa) = 53.86890 12.76543 33.31716
#
# Velocity S-wave (km/s) = 4.90458 2.38754 3.85715
# Velocity P-wave (km/s) = 7.67697 6.20386 6.97939
#
# Compressibility (1/GPa) = 0.01662326
#
# Stress axis : x y z
#
# Youngs Moduli (GPa) = 93.49572 77.01164 134.24891
#
# Poissons Ratio (x) = 0.09933 0.41225
# Poissons Ratio (y) = 0.12060 0.38831
# Poissons Ratio (z) = 0.28711 0.22275
#
# Static dielectric constant tensor:
#      x y z
#    x 3.976770 0.000000 -0.027900 
#    y 0.000000 3.782220 0.000000 
#    z -0.027900 0.000000 4.094160 
# 
# 
# High freq. dielectric constant tensor:
#      x y z
#    x 1.901580 0.000000 -0.005230 
#    y 0.000000 1.889610 0.000000 
#    z -0.005230 0.000000 1.906320 
# 
# From -- ./inp_files/3718.got.cif
#   From: 2010.06.25/outbox.cif.g09.slc.cpg/sg15_2_cif.got.tgz:3718.got - 2010.06.28 07:06:18.
