data_PCOD8154563
_publ_section_title
;
Structure prediction by ZEFSAII (Michael W. Deem and Ramdas Pophale) SiO2 
 PCOD8154563
Probable space group: C 2/C
;
_chemical_formula_sum "Si O2"
_cell_formula_units_Z 44
_cell_length_a 9.649132
_cell_length_b 27.212995
_cell_length_c 17.667490
_cell_angle_alpha 90.000000
_cell_angle_beta 151.586187
_cell_angle_gamma 90.000000
_cell_volume 2207.481028
_symmetry_space_group_name_H-M "C 2/C"
_symmetry_group_IT_number 15
_symmetry_cell_setting 'monoclinic'
loop_
_space_group_symop_operation_xyz
x,y,z
-x,y,1/2-z
-x,-y,-z
x,-y,1/2+z
1/2+x,1/2+y,z
1/2-x,1/2+y,1/2-z
1/2-x,1/2-y,-z
1/2+x,1/2-y,1/2+z
loop_
_atom_site_type_symbol
_atom_site_label
_atom_site_fract_x
_atom_site_fract_y
_atom_site_fract_z
Si Si1 0.906612 0.825112 0.531444
Si Si2 0.787435 0.362610 0.836645
Si Si3 0.957256 0.465877 0.552683
Si Si4 0.376236 0.480694 0.361070
Si Si5 0.500000 0.899206 0.250000
Si Si6 0.680230 0.772854 0.565174
O O1 0.732878 0.866777 0.404890
O O2 0.694499 0.799062 0.490168
O O3 0.000804 0.778626 0.523162
O O4 0.186295 0.852371 0.701734
O O5 0.500000 0.369668 0.750000
O O6 0.964200 0.313895 0.949004
O O7 0.991280 0.409395 0.944351
O O8 0.629400 0.469426 0.423648
O O9 0.000000 0.500000 0.500000
O O10 0.176604 0.478153 0.726227
O O11 0.500000 0.500000 0.500000
O O12 0.177040 0.432765 0.275906
O O13 0.000000 0.759773 0.750000
#
# Coordination Sequence:
#
# PCOD8154563 Si02
#       6
#     8   8   8   8   4   8
#     4   9  17  30  54  88 117 153 205 248 303 369
#     4   9  19  33  58  85 120 154 207 252 309 358
#     4  12  25  43  63  92 128 170 211 262 315 373
#     4  12  25  43  63  90 131 167 212 260 312 379
#     4  12  22  34  64  90 122 160 210 250 316 368
#     4   8  15  30  52  86 115 153 199 259 295 361
#
# _framework density 19.932220999999998
#
# number of rings (size 3 to 8) (size 9 to 14) (size 15 to 20)
#    0.000    2.182    2.727    2.727    5.091    0.000 
#    0.000    0.000    0.000    1.091    9.455    0.000 
#    0.000    0.000    0.000    0.000    0.000    0.000 
#
# Total GULP energy -272633.487874 kJ/mol
# GULP energy per Si atom -12392.431267 kJ/mol
# Density = 1.988685 g / cm^3
# Si number density = 19.932221 Si / 1000 Ang^3
#
#
#
# Elastic Constant Matrix: (Units=GPa)
#
#
# Indices 1 2 3 4 5 6 
#
# 1 83.3204 40.5003 19.8679 -0.0006 6.3872 0.0003
# 2 40.5003 162.2793 46.5005 -0.0004 -4.7022 -0.0001
# 3 19.8679 46.5005 64.9480 0.0005 -17.4117 0.0030
# 4 -0.0006 -0.0004 0.0005 41.3838 -0.0005 -6.2799
# 5 6.3872 -4.7022 -17.4117 -0.0005 30.4407 0.0008
# 6 0.0003 -0.0001 0.0030 -6.2799 0.0008 24.4743
#
#
#
# Elastic Compliance Matrix: (Units=1/GPa)
#
#
# Indices 1 2 3 4 5 6 
#
# 1 0.014742 -0.002648 -0.004196 0.000000 -0.005902 0.000001
# 2 -0.002648 0.008371 -0.005537 0.000000 -0.001318 0.000001
# 3 -0.004196 -0.005537 0.024392 -0.000001 0.013977 -0.000004
# 4 0.000000 0.000000 -0.000001 0.025143 0.000000 0.006452
# 5 -0.005902 -0.001318 0.013977 0.000000 0.041880 -0.000003
# 6 0.000001 0.000001 -0.000004 0.006452 -0.000003 0.042515
#
#
# Mechanical properties :
#
#
# Convention : Reuss Voigt Hill
#
# Bulk Modulus (GPa) = 43.96948 58.25390 51.11169
# Shear Modulus (GPa) = 26.40094 32.83836 29.61965
#
# Velocity S-wave (km/s) = 3.64337 4.06335 3.85907
# Velocity P-wave (km/s) = 6.30922 7.16267 6.74944
#
# Compressibility (1/GPa) = 0.02274305
#
# Stress axis : x y z
#
# Youngs Moduli (GPa) = 67.83343 119.45324 40.99685
#
# Poissons Ratio (x) = 0.31629 0.17204
# Poissons Ratio (y) = 0.17961 0.22701
# Poissons Ratio (z) = 0.28465 0.66143
#
# Static dielectric constant tensor:
#      x y z
#    x 3.472440 0.000000 -0.342390 
#    y 0.000000 4.101760 0.000000 
#    z -0.342390 0.000000 3.734460 
# 
# 
# High freq. dielectric constant tensor:
#      x y z
#    x 1.731130 0.000000 -0.033120 
#    y 0.000000 1.802790 0.000000 
#    z -0.033120 0.000000 1.778540 
# 
# From -- ./inp_files/138815.got.cif
#   From: 2010.06.25/outbox.cif.g09.slc.cpg/sg15_70_cif.got.tgz:138815.got - 2010.06.28 07:06:18.
