data_PCOD8154350
_publ_section_title
;
Structure prediction by ZEFSAII (Michael W. Deem and Ramdas Pophale) SiO2 
 PCOD8154350
Probable space group: C 2/C
;
_chemical_formula_sum "Si O2"
_cell_formula_units_Z 44
_cell_length_a 16.791047
_cell_length_b 11.556192
_cell_length_c 26.378879
_cell_angle_alpha 90.000000
_cell_angle_beta 157.580439
_cell_angle_gamma 90.000000
_cell_volume 1952.151892
_symmetry_space_group_name_H-M "C 2/C"
_symmetry_group_IT_number 15
_symmetry_cell_setting 'monoclinic'
loop_
_space_group_symop_operation_xyz
x,y,z
-x,y,1/2-z
-x,-y,-z
x,-y,1/2+z
1/2+x,1/2+y,z
1/2-x,1/2+y,1/2-z
1/2-x,1/2-y,-z
1/2+x,1/2-y,1/2+z
loop_
_atom_site_type_symbol
_atom_site_label
_atom_site_fract_x
_atom_site_fract_y
_atom_site_fract_z
Si Si1 0.131193 0.395514 0.054290
Si Si2 0.735147 0.533139 0.197320
Si Si3 0.621215 0.324407 0.064779
Si Si4 0.176627 0.620576 0.465095
Si Si5 0.000000 0.191866 0.250000
Si Si6 0.940093 0.992856 0.801353
O O1 0.347796 0.400361 0.213491
O O2 0.184208 0.418511 0.027689
O O3 0.000000 0.500000 0.000000
O O4 0.010021 0.275560 0.985607
O O5 0.729662 0.402536 0.172221
O O6 0.730208 0.538475 0.255661
O O7 0.952077 0.594278 0.307705
O O8 0.536213 0.601828 0.061002
O O9 0.794823 0.272486 0.129060
O O10 0.250000 0.750000 0.500000
O O11 0.355542 0.536742 0.547364
O O12 0.991622 0.117207 0.296499
#
# Coordination Sequence:
#
# PCOD8154350 Si02
#       6
#     8   8   8   8   4   8
#     4  12  21  46  68  99 144 178 233 291 353 417
#     4  11  27  47  67 104 146 185 236 293 362 422
#     4  11  26  46  68 100 145 190 227 302 354 419
#     4  12  24  43  72 107 135 186 237 290 352 425
#     4  12  24  44  72 104 142 186 242 286 358 426
#     4  12  24  44  72 105 137 183 238 291 350 426
#
# _framework density 22.539228000000001
#
# number of rings (size 3 to 8) (size 9 to 14) (size 15 to 20)
#    0.000    0.364    5.455    2.182    2.545    2.182 
#    0.000    0.000    0.000    0.000    0.000    0.000 
#    0.000    0.000    0.000    0.000    0.000    0.000 
#
# Total GULP energy -272802.380931 kJ/mol
# GULP energy per Si atom -12400.108224 kJ/mol
# Density = 2.248793 g / cm^3
# Si number density = 22.539228 Si / 1000 Ang^3
#
#
#
# Elastic Constant Matrix: (Units=GPa)
#
#
# Indices 1 2 3 4 5 6 
#
# 1 72.9668 35.4129 21.7056 -0.0011 -0.0465 0.0050
# 2 35.4129 145.8297 58.0162 0.0030 9.0050 -0.0006
# 3 21.7056 58.0162 141.0110 0.0046 18.3852 0.0112
# 4 -0.0011 0.0030 0.0046 47.3189 0.0071 14.7694
# 5 -0.0465 9.0050 18.3852 0.0071 33.5626 -0.0057
# 6 0.0050 -0.0006 0.0112 14.7694 -0.0057 33.0945
#
#
#
# Elastic Compliance Matrix: (Units=1/GPa)
#
#
# Indices 1 2 3 4 5 6 
#
# 1 0.015736 -0.003436 -0.001219 0.000001 0.001611 -0.000002
# 2 -0.003436 0.008954 -0.003060 -0.000001 -0.000731 0.000002
# 3 -0.001219 -0.003060 0.009080 0.000001 -0.004155 -0.000004
# 4 0.000001 -0.000001 0.000001 0.024553 -0.000007 -0.010958
# 5 0.001611 -0.000731 -0.004155 -0.000007 0.032269 0.000010
# 6 -0.000002 0.000002 -0.000004 -0.010958 0.000010 0.035107
#
#
# Mechanical properties :
#
#
# Convention : Reuss Voigt Hill
#
# Bulk Modulus (GPa) = 54.52227 65.56409 60.04318
# Shear Modulus (GPa) = 33.95776 39.10671 36.53223
#
# Velocity S-wave (km/s) = 3.88571 4.16991 4.03032
# Velocity P-wave (km/s) = 6.66139 7.23438 6.95379
#
# Compressibility (1/GPa) = 0.01834113
#
# Stress axis : x y z
#
# Youngs Moduli (GPa) = 63.54869 111.68029 110.13465
#
# Poissons Ratio (x) = 0.38373 0.13421
# Poissons Ratio (y) = 0.21835 0.33699
# Poissons Ratio (z) = 0.07744 0.34172
#
# Static dielectric constant tensor:
#      x y z
#    x 4.059790 0.000070 0.137470 
#    y 0.000070 4.137320 -0.000140 
#    z 0.137470 -0.000140 4.377910 
# 
# 
# High freq. dielectric constant tensor:
#      x y z
#    x 1.884590 0.000000 0.017400 
#    y 0.000000 1.888710 0.000000 
#    z 0.017400 0.000000 1.910890 
# 
# From -- ./inp_files/316281.got.cif
#   From: 2010.06.25/outbox.cif.g09.slc.cpg/sg15_159_cif.got.tgz:316281.got - 2010.06.28 07:06:18.
