data_PCOD8154303
_publ_section_title
;
Structure prediction by ZEFSAII (Michael W. Deem and Ramdas Pophale) SiO2 
 PCOD8154303
Probable space group: C 2/C
;
_chemical_formula_sum "Si O2"
_cell_formula_units_Z 44
_cell_length_a 8.160820
_cell_length_b 31.534537
_cell_length_c 7.868272
_cell_angle_alpha 90.000000
_cell_angle_beta 109.418383
_cell_angle_gamma 90.000000
_cell_volume 1909.698261
_symmetry_space_group_name_H-M "C 2/C"
_symmetry_group_IT_number 15
_symmetry_cell_setting 'monoclinic'
loop_
_space_group_symop_operation_xyz
x,y,z
-x,y,1/2-z
-x,-y,-z
x,-y,1/2+z
1/2+x,1/2+y,z
1/2-x,1/2+y,1/2-z
1/2-x,1/2-y,-z
1/2+x,1/2-y,1/2+z
loop_
_atom_site_type_symbol
_atom_site_label
_atom_site_fract_x
_atom_site_fract_y
_atom_site_fract_z
Si Si1 0.179530 0.042037 0.912017
Si Si2 0.806084 0.367799 0.369145
Si Si3 0.500000 0.320283 0.750000
Si Si4 0.618372 0.712004 0.946782
Si Si5 0.799376 0.375848 0.980541
Si Si6 0.823803 0.462599 0.797353
O O1 0.275609 0.086591 0.936728
O O2 0.000000 0.041039 0.750000
O O3 0.317115 0.006969 0.894582
O O4 0.158889 0.035911 0.108695
O O5 0.703478 0.333354 0.440753
O O6 0.008195 0.356318 0.459083
O O7 0.734717 0.370574 0.151858
O O8 0.513068 0.290709 0.587837
O O9 0.672442 0.349190 0.816407
O O10 0.500000 0.725044 0.750000
O O11 0.750000 0.750000 0.000000
O O12 0.799066 0.424875 0.924255
O O13 0.000000 0.457609 0.750000
#
# Coordination Sequence:
#
# PCOD8154303 Si02
#       6
#     8   8   4   8   8   8
#     4  12  26  41  68  98 147 196 257 314 370 433
#     4  11  25  50  73 106 148 196 249 309 381 447
#     4  12  28  48  84 112 152 192 252 302 380 450
#     4  12  29  53  80 115 153 192 246 312 376 460
#     4  11  26  44  75 107 148 199 246 308 370 447
#     4  12  25  44  64 103 146 200 259 308 372 434
#
# _framework density 23.040289999999999
#
# number of rings (size 3 to 8) (size 9 to 14) (size 15 to 20)
#    0.000    0.364    3.636    3.818    8.909    2.182 
#    0.000    0.000    0.000    0.000    0.000    0.000 
#    0.000    0.000    0.000    0.000    0.000    0.000 
#
# Total GULP energy -272848.150773 kJ/mol
# GULP energy per Si atom -12402.188671 kJ/mol
# Density = 2.298785 g / cm^3
# Si number density = 23.040290 Si / 1000 Ang^3
#
#
#
# Elastic Constant Matrix: (Units=GPa)
#
#
# Indices 1 2 3 4 5 6 
#
# 1 84.5416 47.5567 45.3793 0.0000 -6.2676 0.0000
# 2 47.5567 105.9239 53.3689 0.0000 -9.9309 0.0000
# 3 45.3793 53.3689 155.6889 0.0000 -3.2366 0.0000
# 4 0.0000 0.0000 0.0000 13.7943 0.0000 3.7466
# 5 -6.2676 -9.9309 -3.2366 0.0000 47.9265 0.0000
# 6 0.0000 0.0000 0.0000 3.7466 0.0000 25.3089
#
#
#
# Elastic Compliance Matrix: (Units=1/GPa)
#
#
# Indices 1 2 3 4 5 6 
#
# 1 0.016797 -0.006058 -0.002804 0.000000 0.000752 0.000000
# 2 -0.006058 0.013813 -0.002930 0.000000 0.001872 0.000000
# 3 -0.002804 -0.002930 0.008236 0.000000 -0.000418 0.000000
# 4 0.000000 0.000000 0.000000 0.075531 0.000000 -0.011181
# 5 0.000752 0.001872 -0.000418 0.000000 0.021323 0.000000
# 6 0.000000 0.000000 0.000000 -0.011181 0.000000 0.041167
#
#
# Mechanical properties :
#
#
# Convention : Reuss Voigt Hill
#
# Bulk Modulus (GPa) = 65.52360 70.97380 68.24870
# Shear Modulus (GPa) = 24.32644 30.72924 27.52784
#
# Velocity S-wave (km/s) = 3.25287 3.65597 3.46029
# Velocity P-wave (km/s) = 6.52753 6.97801 6.75652
#
# Compressibility (1/GPa) = 0.01526168
#
# Stress axis : x y z
#
# Youngs Moduli (GPa) = 59.53425 72.39793 121.41909
#
# Poissons Ratio (x) = 0.43861 0.34040
# Poissons Ratio (y) = 0.36068 0.35577
# Poissons Ratio (z) = 0.16691 0.21213
#
# Static dielectric constant tensor:
#      x y z
#    x 4.004460 0.000000 -0.090830 
#    y 0.000000 4.044460 0.000000 
#    z -0.090830 0.000000 4.624560 
# 
# 
# High freq. dielectric constant tensor:
#      x y z
#    x 1.904160 0.000000 0.003270 
#    y 0.000000 1.905780 0.000000 
#    z 0.003270 0.000000 1.943330 
# 
# From -- ./inp_files/26279.got.cif
#   From: 2010.06.25/outbox.cif.g09.slc.cpg/sg15_14_cif.got.tgz:26279.got - 2010.06.28 07:06:18.
