data_PCOD8154094
_publ_section_title
;
Structure prediction by ZEFSAII (Michael W. Deem and Ramdas Pophale) SiO2 
 PCOD8154094
Probable space group: C 2/C
;
_chemical_formula_sum "Si O2"
_cell_formula_units_Z 48
_cell_length_a 8.581965
_cell_length_b 29.222486
_cell_length_c 17.234542
_cell_angle_alpha 90.000000
_cell_angle_beta 30.438647
_cell_angle_gamma 90.000000
_cell_volume 2189.687088
_symmetry_space_group_name_H-M "C 2/C"
_symmetry_group_IT_number 15
_symmetry_cell_setting 'monoclinic'
loop_
_space_group_symop_operation_xyz
x,y,z
-x,y,1/2-z
-x,-y,-z
x,-y,1/2+z
1/2+x,1/2+y,z
1/2-x,1/2+y,1/2-z
1/2-x,1/2-y,-z
1/2+x,1/2-y,1/2+z
loop_
_atom_site_type_symbol
_atom_site_label
_atom_site_fract_x
_atom_site_fract_y
_atom_site_fract_z
Si Si1 0.762327 0.461645 0.284508
Si Si2 0.458476 0.797300 0.352407
Si Si3 0.320488 0.133881 0.138708
Si Si4 0.703114 0.124941 0.829983
Si Si5 0.072186 0.446108 0.631988
Si Si6 0.211635 0.207629 0.314692
O O1 0.803707 0.427494 0.194546
O O2 0.423437 0.461701 0.467938
O O3 0.000000 0.448739 0.250000
O O4 0.842604 0.511480 0.215082
O O5 0.500000 0.776331 0.250000
O O6 0.667649 0.842904 0.269885
O O7 0.605284 0.759822 0.346608
O O8 0.102992 0.813489 0.516020
O O9 0.516223 0.095430 0.098141
O O10 0.303888 0.180308 0.196703
O O11 0.000000 0.112669 0.250000
O O12 0.448765 0.143280 0.998443
O O13 0.000000 0.135818 0.750000
O O14 0.000000 0.428285 0.750000
O O15 0.500000 0.205788 0.250000
#
# Coordination Sequence:
#
# PCOD8154094 Si02
#       6
#     8   8   8   8   8   8
#     4  11  25  44  70 100 137 180 231 278 336 401
#     4  11  26  45  71  98 136 176 223 281 335 397
#     4  12  26  44  70  99 140 179 224 278 340 404
#     4  12  26  45  67 103 139 176 225 282 337 403
#     4  11  25  44  70 100 136 182 228 279 336 401
#     4  11  26  46  70 101 132 178 227 274 337 404
#
# _framework density 21.920940000000002
#
# number of rings (size 3 to 8) (size 9 to 14) (size 15 to 20)
#    0.000    0.667    3.333    4.000    9.333    4.667 
#    0.000    0.000    0.000    0.000    0.000    0.000 
#    0.000    0.000    0.000    0.000    0.000    0.000 
#
# Total GULP energy -297414.677492 kJ/mol
# GULP energy per Si atom -12392.278229 kJ/mol
# Density = 2.187105 g / cm^3
# Si number density = 21.920940 Si / 1000 Ang^3
#
#
#
# Elastic Constant Matrix: (Units=GPa)
#
#
# Indices 1 2 3 4 5 6 
#
# 1 99.0552 32.5343 33.9967 0.0000 -15.7190 0.0000
# 2 32.5343 79.0491 27.5474 0.0000 -8.7774 0.0000
# 3 33.9967 27.5474 105.5333 0.0000 -6.1290 0.0001
# 4 0.0000 0.0000 0.0000 31.1633 0.0000 1.7052
# 5 -15.7190 -8.7774 -6.1290 0.0000 45.3620 0.0000
# 6 0.0000 0.0000 0.0001 1.7052 0.0000 39.4351
#
#
#
# Elastic Compliance Matrix: (Units=1/GPa)
#
#
# Indices 1 2 3 4 5 6 
#
# 1 0.012922 -0.003923 -0.002946 0.000000 0.003321 0.000000
# 2 -0.003923 0.015333 -0.002666 0.000000 0.001247 0.000000
# 3 -0.002946 -0.002666 0.011119 0.000000 -0.000034 0.000000
# 4 0.000000 0.000000 0.000000 0.032165 0.000000 -0.001391
# 5 0.003321 0.001247 -0.000034 0.000000 0.023432 0.000000
# 6 0.000000 0.000000 0.000000 -0.001391 0.000000 0.025418
#
#
# Mechanical properties :
#
#
# Convention : Reuss Voigt Hill
#
# Bulk Modulus (GPa) = 49.25320 52.42160 50.83740
# Shear Modulus (GPa) = 34.19365 35.82937 35.01151
#
# Velocity S-wave (km/s) = 3.95379 4.04726 4.00080
# Velocity P-wave (km/s) = 6.58488 6.76803 6.67708
#
# Compressibility (1/GPa) = 0.02030325
#
# Stress axis : x y z
#
# Youngs Moduli (GPa) = 77.38841 65.22083 89.93958
#
# Poissons Ratio (x) = 0.25586 0.26494
# Poissons Ratio (y) = 0.30359 0.23979
# Poissons Ratio (z) = 0.22797 0.17388
#
# Static dielectric constant tensor:
#      x y z
#    x 3.975960 0.000000 -0.112620 
#    y 0.000000 3.782370 0.000000 
#    z -0.112620 0.000000 3.996360 
# 
# 
# High freq. dielectric constant tensor:
#      x y z
#    x 1.872480 0.000000 -0.006180 
#    y 0.000000 1.863280 0.000000 
#    z -0.006180 0.000000 1.875000 
# 
# From -- ./inp_files/194177.got.cif
#   From: 2010.06.25/outbox.cif.g09.slc.cpg/sg15_98_cif.got.tgz:194177.got - 2010.06.28 07:06:18.
