data_PCOD8154735
_publ_section_title
;
Structure prediction by ZEFSAII (Michael W. Deem and Ramdas Pophale) SiO2 
 PCOD8154735
Probable space group: C 2/C
;
_chemical_formula_sum "Si O2"
_cell_formula_units_Z 36
_cell_length_a 5.057124
_cell_length_b 21.013979
_cell_length_c 14.059457
_cell_angle_alpha 90.000000
_cell_angle_beta 111.814085
_cell_angle_gamma 90.000000
_cell_volume 1387.116718
_symmetry_space_group_name_H-M "C 2/C"
_symmetry_group_IT_number 15
_symmetry_cell_setting 'monoclinic'
loop_
_space_group_symop_operation_xyz
x,y,z
-x,y,1/2-z
-x,-y,-z
x,-y,1/2+z
1/2+x,1/2+y,z
1/2-x,1/2+y,1/2-z
1/2-x,1/2-y,-z
1/2+x,1/2-y,1/2+z
loop_
_atom_site_type_symbol
_atom_site_label
_atom_site_fract_x
_atom_site_fract_y
_atom_site_fract_z
Si Si1 0.442914 0.919717 0.053680
Si Si2 0.784029 0.078915 0.421594
Si Si3 0.000000 0.490571 0.250000
Si Si4 0.938598 0.280334 0.606238
Si Si5 0.489856 0.209700 0.849903
O O1 0.487995 0.842699 0.062978
O O2 0.394755 0.048298 0.014243
O O3 0.579463 0.947984 0.169023
O O4 0.105153 0.925187 0.999658
O O5 0.754080 0.036874 0.321693
O O6 0.629567 0.145970 0.385823
O O7 0.750000 0.250000 0.500000
O O8 0.811421 0.246330 0.684037
O O9 0.262489 0.263951 0.620934
O O10 0.500000 0.173002 0.750000
#
# Coordination Sequence:
#
# PCOD8154735 Si02
#       5
#     8   8   4   8   8
#     4  12  25  50  74 102 142 190 238 290 347 422
#     4  12  28  47  74 106 144 186 235 297 354 418
#     4  12  30  50  72 106 138 196 242 296 340 420
#     4  12  23  44  71 106 144 178 229 292 363 419
#     4  12  24  42  72 107 142 184 231 284 351 432
#
# _framework density 25.953115
#
# number of rings (size 3 to 8) (size 9 to 14) (size 15 to 20)
#    0.000    0.000    5.556    4.000    3.111    3.556 
#    0.000    0.000    0.000    0.000    0.000    0.000 
#    0.000    0.000    0.000    0.000    0.000    0.000 
#
# Total GULP energy -223000.562719 kJ/mol
# GULP energy per Si atom -12388.920151 kJ/mol
# Density = 2.589404 g / cm^3
# Si number density = 25.953115 Si / 1000 Ang^3
#
#
#
# Elastic Constant Matrix: (Units=GPa)
#
#
# Indices 1 2 3 4 5 6 
#
# 1 148.8140 29.2887 49.1108 0.0000 10.7628 0.0000
# 2 29.2887 104.1801 44.7061 0.0000 13.8589 0.0000
# 3 49.1108 44.7061 126.3720 0.0000 1.5634 0.0000
# 4 0.0000 0.0000 0.0000 42.1432 0.0000 0.6987
# 5 10.7628 13.8589 1.5634 0.0000 39.8864 0.0000
# 6 0.0000 0.0000 0.0000 0.6987 0.0000 32.3375
#
#
#
# Elastic Compliance Matrix: (Units=1/GPa)
#
#
# Indices 1 2 3 4 5 6 
#
# 1 0.007919 -0.000804 -0.002771 0.000000 -0.001749 0.000000
# 2 -0.000804 0.011997 -0.003885 0.000000 -0.003799 0.000000
# 3 -0.002771 -0.003885 0.010343 0.000000 0.001692 0.000000
# 4 0.000000 0.000000 0.000000 0.023737 0.000000 -0.000513
# 5 -0.001749 -0.003799 0.001692 0.000000 0.026797 0.000000
# 6 0.000000 0.000000 0.000000 -0.000513 0.000000 0.030935
#
#
# Mechanical properties :
#
#
# Convention : Reuss Voigt Hill
#
# Bulk Modulus (GPa) = 65.19280 69.50858 67.35069
# Shear Modulus (GPa) = 37.94703 39.95746 38.95224
#
# Velocity S-wave (km/s) = 3.82794 3.92803 3.87831
# Velocity P-wave (km/s) = 6.68666 6.88572 6.78692
#
# Compressibility (1/GPa) = 0.01533912
#
# Stress axis : x y z
#
# Youngs Moduli (GPa) = 126.27555 83.35205 96.67961
#
# Poissons Ratio (x) = 0.06706 0.26793
# Poissons Ratio (y) = 0.10159 0.37556
# Poissons Ratio (z) = 0.34995 0.32379
#
# Static dielectric constant tensor:
#      x y z
#    x 6.024550 0.000000 -0.263240 
#    y 0.000000 5.131960 0.000000 
#    z -0.263240 0.000000 4.955450 
# 
# 
# High freq. dielectric constant tensor:
#      x y z
#    x 2.033130 0.000000 -0.012700 
#    y 0.000000 2.060730 0.000000 
#    z -0.012700 0.000000 2.061250 
# 
# From -- ./inp_files/184770.got.cif
#   From: 2010.06.25/outbox.cif.g09.slc.cpg/sg15_93_cif.got.tgz:184770.got - 2010.06.28 07:06:18.
