data_PCOD8154631
_publ_section_title
;
Structure prediction by ZEFSAII (Michael W. Deem and Ramdas Pophale) SiO2 
 PCOD8154631
Probable space group: C 2/C
;
_chemical_formula_sum "Si O2"
_cell_formula_units_Z 32
_cell_length_a 5.046053
_cell_length_b 22.287674
_cell_length_c 13.342065
_cell_angle_alpha 90.000000
_cell_angle_beta 78.153392
_cell_angle_gamma 90.000000
_cell_volume 1468.552619
_symmetry_space_group_name_H-M "C 2/C"
_symmetry_group_IT_number 15
_symmetry_cell_setting 'monoclinic'
loop_
_space_group_symop_operation_xyz
x,y,z
-x,y,1/2-z
-x,-y,-z
x,-y,1/2+z
1/2+x,1/2+y,z
1/2-x,1/2+y,1/2-z
1/2-x,1/2-y,-z
1/2+x,1/2-y,1/2+z
loop_
_atom_site_type_symbol
_atom_site_label
_atom_site_fract_x
_atom_site_fract_y
_atom_site_fract_z
Si Si1 0.039353 0.244050 0.928316
Si Si2 0.568105 0.067744 0.519977
Si Si3 0.999278 0.111797 0.634672
Si Si4 0.798613 0.637879 0.184429
O O1 0.082593 0.181128 0.868957
O O2 0.087537 0.295718 0.843854
O O3 0.250000 0.250000 0.000000
O O4 0.750000 0.250000 0.000000
O O5 0.778435 0.070491 0.595734
O O6 0.712397 0.098209 0.414242
O O7 0.295410 0.103410 0.565407
O O8 0.500000 0.000000 0.500000
O O9 0.000000 0.091757 0.750000
O O10 0.500000 0.642093 0.250000
O O11 0.000000 0.607604 0.250000
#
# Coordination Sequence:
#
# PCOD8154631 Si02
#       4
#     8   8   8   8
#     4  12  22  43  72 101 144 181 222 290 360 416
#     4  12  27  48  70 101 143 187 239 292 340 410
#     4  12  25  46  74 104 138 184 235 289 355 416
#     4  12  25  43  71 102 139 182 229 284 352 414
#
# _framework density 21.790164999999998
#
# number of rings (size 3 to 8) (size 9 to 14) (size 15 to 20)
#    0.000    0.000    5.000    5.250    0.000    5.000 
#    0.000    0.000    0.000    0.000    0.000    0.000 
#    0.000    0.000    0.000    0.000    0.000    0.000 
#
# Total GULP energy -198540.080405 kJ/mol
# GULP energy per Si atom -12408.755025 kJ/mol
# Density = 2.174057 g / cm^3
# Si number density = 21.790165 Si / 1000 Ang^3
#
#
#
# Elastic Constant Matrix: (Units=GPa)
#
#
# Indices 1 2 3 4 5 6 
#
# 1 183.3155 34.9954 77.1690 0.0000 2.3457 0.0000
# 2 34.9954 113.2491 74.2838 0.0000 -3.9379 0.0000
# 3 77.1690 74.2838 139.3281 0.0000 7.7544 0.0000
# 4 0.0000 0.0000 0.0000 8.3217 0.0000 9.1714
# 5 2.3457 -3.9379 7.7544 0.0000 59.5279 0.0000
# 6 0.0000 0.0000 0.0000 9.1714 0.0000 32.6707
#
#
#
# Elastic Compliance Matrix: (Units=1/GPa)
#
#
# Indices 1 2 3 4 5 6 
#
# 1 0.007146 0.000632 -0.004313 0.000000 0.000322 0.000000
# 2 0.000632 0.013841 -0.007836 0.000000 0.001911 0.000000
# 3 -0.004313 -0.007836 0.013864 0.000000 -0.002154 0.000000
# 4 0.000000 0.000000 0.000000 0.173999 0.000000 -0.048845
# 5 0.000322 0.001911 -0.002154 0.000000 0.017193 0.000000
# 6 0.000000 0.000000 0.000000 -0.048845 0.000000 0.044320
#
#
# Mechanical properties :
#
#
# Convention : Reuss Voigt Hill
#
# Bulk Modulus (GPa) = 84.62208 89.86546 87.24377
# Shear Modulus (GPa) = 16.81604 36.73372 26.77488
#
# Velocity S-wave (km/s) = 2.78101 4.11030 3.50917
# Velocity P-wave (km/s) = 7.01650 7.99105 7.51958
#
# Compressibility (1/GPa) = 0.01181725
#
# Stress axis : x y z
#
# Youngs Moduli (GPa) = 139.94292 72.24871 72.13185
#
# Poissons Ratio (x) = -0.04565 0.31107
# Poissons Ratio (y) = -0.08842 0.56521
# Poissons Ratio (z) = 0.60351 0.56613
#
# Static dielectric constant tensor:
#      x y z
#    x 4.505020 0.000000 -0.008450 
#    y 0.000000 4.053420 0.000000 
#    z -0.008450 0.000000 3.994460 
# 
# 
# High freq. dielectric constant tensor:
#      x y z
#    x 1.880160 0.000000 0.004480 
#    y 0.000000 1.854830 0.000000 
#    z 0.004480 0.000000 1.869930 
# 
# From -- ./inp_files/72116.got.cif
#   From: 2010.06.25/outbox.cif.g09.slc.cpg/sg15_37_cif.got.tgz:72116.got - 2010.06.28 07:06:18.
