data_PCOD8154453
_publ_section_title
;
Structure prediction by ZEFSAII (Michael W. Deem and Ramdas Pophale) SiO2 
 PCOD8154453
Probable space group: C 2/C
;
_chemical_formula_sum "Si O2"
_cell_formula_units_Z 24
_cell_length_a 27.490161
_cell_length_b 4.735805
_cell_length_c 13.610492
_cell_angle_alpha 90.000000
_cell_angle_beta 151.587999
_cell_angle_gamma 90.000000
_cell_volume 843.096075
_symmetry_space_group_name_H-M "C 2/C"
_symmetry_group_IT_number 15
_symmetry_cell_setting 'monoclinic'
loop_
_space_group_symop_operation_xyz
x,y,z
-x,y,1/2-z
-x,-y,-z
x,-y,1/2+z
1/2+x,1/2+y,z
1/2-x,1/2+y,1/2-z
1/2-x,1/2-y,-z
1/2+x,1/2-y,1/2+z
loop_
_atom_site_type_symbol
_atom_site_label
_atom_site_fract_x
_atom_site_fract_y
_atom_site_fract_z
Si Si1 0.322462 0.772348 0.489836
Si Si2 0.924921 0.227860 0.262074
Si Si3 0.376101 0.049731 0.878359
O O1 0.412725 0.591938 0.702848
O O2 0.334195 0.758316 0.392705
O O3 0.212231 0.650496 0.323662
O O4 0.333085 0.091221 0.548508
O O5 0.917251 0.240147 0.366901
O O6 0.034054 0.347992 0.421038
#
# Coordination Sequence:
#
# PCOD8154453 Si02
#       3
#     8   8   8
#     4  12  26  46  74 107 141 186 240 293 351 420
#     4  11  28  49  73 105 144 189 236 292 354 422
#     4  11  27  48  75 106 144 188 238 291 355 421
#
# _framework density 28.466508000000001
#
# number of rings (size 3 to 8) (size 9 to 14) (size 15 to 20)
#    0.000    0.667    0.000    5.000    0.000   24.000 
#    0.000    0.000    0.000    0.000    0.000    0.000 
#    0.000    0.000    0.000    0.000    0.000    0.000 
#
# Total GULP energy -149006.767748 kJ/mol
# GULP energy per Si atom -12417.230646 kJ/mol
# Density = 2.840172 g / cm^3
# Si number density = 28.466508 Si / 1000 Ang^3
#
#
#
# Elastic Constant Matrix: (Units=GPa)
#
#
# Indices 1 2 3 4 5 6 
#
# 1 84.2294 3.5100 1.6885 0.0004 -4.5157 0.0000
# 2 3.5100 73.5324 -3.1976 0.0015 -8.6335 -0.0001
# 3 1.6885 -3.1976 94.8099 0.0005 -3.1387 -0.0003
# 4 0.0004 0.0015 0.0005 30.4822 -0.0002 -21.8707
# 5 -4.5157 -8.6335 -3.1387 -0.0002 48.6758 0.0001
# 6 0.0000 -0.0001 -0.0003 -21.8707 0.0001 41.0846
#
#
#
# Elastic Compliance Matrix: (Units=1/GPa)
#
#
# Indices 1 2 3 4 5 6 
#
# 1 0.011950 -0.000460 -0.000195 0.000000 0.001014 0.000000
# 2 -0.000460 0.013935 0.000560 -0.000001 0.002465 -0.000001
# 3 -0.000195 0.000560 0.010595 0.000000 0.000764 0.000000
# 4 0.000000 -0.000001 0.000000 0.053080 0.000000 0.028256
# 5 0.001014 0.002465 0.000764 0.000000 0.021125 0.000000
# 6 0.000000 -0.000001 0.000000 0.028256 0.000000 0.039382
#
#
# Mechanical properties :
#
#
# Convention : Reuss Voigt Hill
#
# Bulk Modulus (GPa) = 27.55537 28.50817 28.03177
# Shear Modulus (GPa) = 30.79716 40.75321 35.77518
#
# Velocity S-wave (km/s) = 3.29275 3.78778 3.54891
# Velocity P-wave (km/s) = 4.91500 5.40056 5.16349
#
# Compressibility (1/GPa) = 0.03629056
#
# Stress axis : x y z
#
# Youngs Moduli (GPa) = 83.68344 71.76087 94.38346
#
# Poissons Ratio (x) = 0.03299 0.01838
# Poissons Ratio (y) = 0.03848 -0.05283
# Poissons Ratio (z) = 0.01630 -0.04017
#
# Static dielectric constant tensor:
#      x y z
#    x 4.942590 0.000000 0.007080 
#    y 0.000000 4.769860 0.000000 
#    z 0.007080 0.000000 5.183600 
# 
# 
# High freq. dielectric constant tensor:
#      x y z
#    x 2.151410 0.000000 -0.006040 
#    y 0.000000 2.144340 0.000000 
#    z -0.006040 0.000000 2.173620 
# 
# From -- ./inp_files/149349.got.cif
#   From: 2010.06.25/outbox.cif.g09.slc.cpg/sg15_75_cif.got.tgz:149349.got - 2010.06.28 07:06:18.
