data_PCOD8154211
_publ_section_title
;
Structure prediction by ZEFSAII (Michael W. Deem and Ramdas Pophale) SiO2 
 PCOD8154211
Probable space group: C 2/C
;
_chemical_formula_sum "Si O2"
_cell_formula_units_Z 44
_cell_length_a 12.767667
_cell_length_b 13.735071
_cell_length_c 11.110066
_cell_angle_alpha 90.000000
_cell_angle_beta 96.840663
_cell_angle_gamma 90.000000
_cell_volume 1934.445033
_symmetry_space_group_name_H-M "C 2/C"
_symmetry_group_IT_number 15
_symmetry_cell_setting 'monoclinic'
loop_
_space_group_symop_operation_xyz
x,y,z
-x,y,1/2-z
-x,-y,-z
x,-y,1/2+z
1/2+x,1/2+y,z
1/2-x,1/2+y,1/2-z
1/2-x,1/2-y,-z
1/2+x,1/2-y,1/2+z
loop_
_atom_site_type_symbol
_atom_site_label
_atom_site_fract_x
_atom_site_fract_y
_atom_site_fract_z
Si Si1 0.839292 0.257023 0.907965
Si Si2 0.510907 0.923327 0.893097
Si Si3 0.905351 0.068628 0.021999
Si Si4 0.804229 0.254595 0.331340
Si Si5 0.500000 0.682589 0.250000
Si Si6 0.757718 0.597190 0.004352
O O1 0.781260 0.277773 0.776564
O O2 0.929659 0.339231 0.925218
O O3 0.750000 0.250000 0.000000
O O4 0.897177 0.152437 0.919819
O O5 0.500000 0.956741 0.750000
O O6 0.632293 0.893251 0.911564
O O7 0.500000 0.000000 0.000000
O O8 0.929009 0.114422 0.155104
O O9 0.794482 0.009491 0.011100
O O10 0.000000 0.000000 0.000000
O O11 0.922871 0.259638 0.300700
O O12 0.773084 0.362370 0.371422
O O13 0.816932 0.172792 0.436390
#
# Coordination Sequence:
#
# PCOD8154211 Si02
#       6
#     8   8   8   8   4   8
#     4  12  26  49  76 110 151 209 255 321 393 470
#     4  12  28  50  79 114 158 207 263 319 396 472
#     4  12  27  44  76 110 149 195 256 312 384 457
#     4  11  25  46  76 103 154 193 257 312 387 462
#     4  12  24  48  72 110 146 202 254 314 380 466
#     4  11  26  48  71 111 147 198 252 323 379 462
#
# _framework density 22.745542
#
# number of rings (size 3 to 8) (size 9 to 14) (size 15 to 20)
#    0.000    0.364    5.455    2.182    5.091    2.909 
#    1.636    0.000    0.000    0.000    0.000    0.000 
#    0.000    0.000    0.000    0.000    0.000    0.000 
#
# Total GULP energy -272570.515377 kJ/mol
# GULP energy per Si atom -12389.568881 kJ/mol
# Density = 2.269377 g / cm^3
# Si number density = 22.745542 Si / 1000 Ang^3
#
#
#
# Elastic Constant Matrix: (Units=GPa)
#
#
# Indices 1 2 3 4 5 6 
#
# 1 156.3084 65.3039 53.3302 0.0000 0.9876 0.0000
# 2 65.3039 140.8409 57.2016 0.0000 -5.2509 0.0000
# 3 53.3302 57.2016 125.4786 0.0000 -0.3540 0.0000
# 4 0.0000 0.0000 0.0000 33.5975 0.0000 0.7059
# 5 0.9876 -5.2509 -0.3540 0.0000 39.7318 0.0000
# 6 0.0000 0.0000 0.0000 0.7059 0.0000 51.0695
#
#
#
# Elastic Compliance Matrix: (Units=1/GPa)
#
#
# Indices 1 2 3 4 5 6 
#
# 1 0.008419 -0.003035 -0.002196 0.000000 -0.000630 0.000000
# 2 -0.003035 0.009857 -0.003200 0.000000 0.001350 0.000000
# 3 -0.002196 -0.003200 0.010361 0.000000 -0.000276 0.000000
# 4 0.000000 0.000000 0.000000 0.029773 0.000000 -0.000412
# 5 -0.000630 0.001350 -0.000276 0.000000 0.025360 0.000000
# 6 0.000000 0.000000 0.000000 -0.000412 0.000000 0.019587
#
#
# Mechanical properties :
#
#
# Convention : Reuss Voigt Hill
#
# Bulk Modulus (GPa) = 84.92854 86.03325 85.48090
# Shear Modulus (GPa) = 40.27551 41.33257 40.80404
#
# Velocity S-wave (km/s) = 4.21253 4.26746 4.24008
# Velocity P-wave (km/s) = 7.81538 7.88593 7.85074
#
# Compressibility (1/GPa) = 0.01177460
#
# Stress axis : x y z
#
# Youngs Moduli (GPa) = 118.77913 101.44618 96.51635
#
# Poissons Ratio (x) = 0.30790 0.21199
# Poissons Ratio (y) = 0.36051 0.30884
# Poissons Ratio (z) = 0.26088 0.32462
#
# Static dielectric constant tensor:
#      x y z
#    x 4.503270 0.000000 -0.087240 
#    y 0.000000 4.356740 0.000000 
#    z -0.087240 0.000000 4.394100 
# 
# 
# High freq. dielectric constant tensor:
#      x y z
#    x 1.923610 0.000000 0.004010 
#    y 0.000000 1.892910 0.000000 
#    z 0.004010 0.000000 1.903860 
# 
# From -- ./inp_files/86178.got.cif
#   From: 2010.06.25/outbox.cif.g09.slc.cpg/sg15_44_cif.got.tgz:86178.got - 2010.06.28 07:06:18.
