data_PCOD8154607
_publ_section_title
;
Structure prediction by ZEFSAII (Michael W. Deem and Ramdas Pophale) SiO2 
 PCOD8154607
Probable space group: C 2/C
;
_chemical_formula_sum "Si O2"
_cell_formula_units_Z 44
_cell_length_a 12.600938
_cell_length_b 25.303911
_cell_length_c 8.472355
_cell_angle_alpha 90.000000
_cell_angle_beta 48.886820
_cell_angle_gamma 90.000000
_cell_volume 2035.294657
_symmetry_space_group_name_H-M "C 2/C"
_symmetry_group_IT_number 15
_symmetry_cell_setting 'monoclinic'
loop_
_space_group_symop_operation_xyz
x,y,z
-x,y,1/2-z
-x,-y,-z
x,-y,1/2+z
1/2+x,1/2+y,z
1/2-x,1/2+y,1/2-z
1/2-x,1/2-y,-z
1/2+x,1/2-y,1/2+z
loop_
_atom_site_type_symbol
_atom_site_label
_atom_site_fract_x
_atom_site_fract_y
_atom_site_fract_z
Si Si1 0.000000 0.101804 0.250000
Si Si2 0.351173 0.484884 0.719448
Si Si3 0.949166 0.296795 0.134618
Si Si4 0.000000 0.352437 0.750000
Si Si5 0.618942 0.693181 0.927388
Si Si6 0.759858 0.073261 0.033282
Si Si7 0.500000 0.646832 0.750000
O O1 0.126306 0.063828 0.183914
O O2 0.924748 0.137888 0.453102
O O3 0.500000 0.500000 0.500000
O O4 0.235916 0.465765 0.703888
O O5 0.288383 0.537767 0.853276
O O6 0.780670 0.292137 0.301783
O O7 0.000000 0.326373 0.250000
O O8 0.002927 0.320389 0.913693
O O9 0.016171 0.238944 0.086712
O O10 0.132944 0.389652 0.614425
O O11 0.595066 0.684876 0.764849
O O12 0.893782 0.109305 0.950708
#
# Coordination Sequence:
#
# PCOD8154607 Si02
#       7
#     4   8   8   4   8   8   4
#     4  12  23  40  72 107 143 188 232 313 366 428
#     4  12  22  41  72 103 141 186 247 304 355 443
#     4  12  29  50  74 108 153 199 254 308 373 451
#     4  12  31  50  72 109 161 198 240 315 384 440
#     4  12  27  45  74 109 146 194 252 305 376 443
#     4  12  25  45  70 108 142 191 248 301 375 444
#     4  12  22  42  74 102 142 188 248 298 364 444
#
# _framework density 21.618492
#
# number of rings (size 3 to 8) (size 9 to 14) (size 15 to 20)
#    0.000    0.000    8.182    1.091    5.091    2.182 
#    0.000    0.000    0.000    0.000    0.000    0.000 
#    0.000    0.000    0.000    0.000    0.000    0.000 
#
# Total GULP energy -272679.066739 kJ/mol
# GULP energy per Si atom -12394.503034 kJ/mol
# Density = 2.156929 g / cm^3
# Si number density = 21.618492 Si / 1000 Ang^3
#
#
#
# Elastic Constant Matrix: (Units=GPa)
#
#
# Indices 1 2 3 4 5 6 
#
# 1 144.9189 51.1061 52.1235 0.0000 4.5185 0.0000
# 2 51.1061 108.9517 52.0256 0.0000 -4.8397 0.0000
# 3 52.1235 52.0256 86.0004 0.0000 3.7505 0.0000
# 4 0.0000 0.0000 0.0000 36.5839 0.0000 -4.1198
# 5 4.5185 -4.8397 3.7505 0.0000 49.4773 0.0000
# 6 0.0000 0.0000 0.0000 -4.1198 0.0000 43.5695
#
#
#
# Elastic Compliance Matrix: (Units=1/GPa)
#
#
# Indices 1 2 3 4 5 6 
#
# 1 0.009255 -0.002409 -0.004119 0.000000 -0.000769 0.000000
# 2 -0.002409 0.013707 -0.006923 0.000000 0.002085 0.000000
# 3 -0.004119 -0.006923 0.018386 0.000000 -0.001695 0.000000
# 4 0.000000 0.000000 0.000000 0.027629 0.000000 0.002612
# 5 -0.000769 0.002085 -0.001695 0.000000 0.020614 0.000000
# 6 0.000000 0.000000 0.000000 0.002612 0.000000 0.023199
#
#
# Mechanical properties :
#
#
# Convention : Reuss Voigt Hill
#
# Bulk Modulus (GPa) = 69.21754 72.26459 70.74106
# Shear Modulus (GPa) = 34.60071 38.23385 36.41728
#
# Velocity S-wave (km/s) = 4.00498 4.21000 4.10877
# Velocity P-wave (km/s) = 7.31258 7.55857 7.43659
#
# Compressibility (1/GPa) = 0.01444721
#
# Stress axis : x y z
#
# Youngs Moduli (GPa) = 108.04683 72.95750 54.38922
#
# Poissons Ratio (x) = 0.17574 0.22402
# Poissons Ratio (y) = 0.26026 0.37653
# Poissons Ratio (z) = 0.44502 0.50507
#
# Static dielectric constant tensor:
#      x y z
#    x 4.108090 0.000000 0.390940 
#    y 0.000000 4.090980 0.000000 
#    z 0.390940 0.000000 3.942250 
# 
# 
# High freq. dielectric constant tensor:
#      x y z
#    x 1.859420 0.000000 0.022390 
#    y 0.000000 1.858190 0.000000 
#    z 0.022390 0.000000 1.842560 
# 
# From -- ./inp_files/34042.got.cif
#   From: 2010.06.25/outbox.cif.g09.slc.cpg/sg15_18_cif.got.tgz:34042.got - 2010.06.28 07:06:18.
