data_PCOD8154391
_publ_section_title
;
Structure prediction by ZEFSAII (Michael W. Deem and Ramdas Pophale) SiO2 
 PCOD8154391
Probable space group: C 2/C
;
_chemical_formula_sum "Si O2"
_cell_formula_units_Z 32
_cell_length_a 6.450212
_cell_length_b 16.273424
_cell_length_c 14.412081
_cell_angle_alpha 90.000000
_cell_angle_beta 56.721909
_cell_angle_gamma 90.000000
_cell_volume 1264.721366
_symmetry_space_group_name_H-M "C 2/C"
_symmetry_group_IT_number 15
_symmetry_cell_setting 'monoclinic'
loop_
_space_group_symop_operation_xyz
x,y,z
-x,y,1/2-z
-x,-y,-z
x,-y,1/2+z
1/2+x,1/2+y,z
1/2-x,1/2+y,1/2-z
1/2-x,1/2-y,-z
1/2+x,1/2-y,1/2+z
loop_
_atom_site_type_symbol
_atom_site_label
_atom_site_fract_x
_atom_site_fract_y
_atom_site_fract_z
Si Si1 0.682924 0.509689 0.372143
Si Si2 0.753767 0.806316 0.358209
Si Si3 0.500000 0.386566 0.750000
Si Si4 0.500000 0.138899 0.750000
Si Si5 0.955926 0.646123 0.400349
O O1 0.500000 0.500000 0.500000
O O2 0.532870 0.555726 0.329949
O O3 0.921760 0.560436 0.353466
O O4 0.761987 0.419098 0.321631
O O5 0.541463 0.804323 0.330708
O O6 0.803529 0.714117 0.380566
O O7 0.655995 0.860965 0.468287
O O8 0.000000 0.844194 0.250000
O O9 0.749951 0.332032 0.671543
#
# Coordination Sequence:
#
# PCOD8154391 Si02
#       5
#     8   8   4   4   8
#     4  12  26  44  76 111 148 200 249 316 378 450
#     4  11  26  47  75 108 155 197 252 316 373 457
#     4  12  24  47  78 105 156 194 260 302 379 466
#     4  12  26  45  74 111 148 190 250 312 375 442
#     4  11  26  49  75 109 153 204 250 310 387 448
#
# _framework density 25.302015000000001
#
# number of rings (size 3 to 8) (size 9 to 14) (size 15 to 20)
#    0.000    0.500    2.500    4.500    5.250    6.000 
#    0.000   10.000    0.000    0.000    0.000    0.000 
#    0.000    0.000    0.000    0.000    0.000    0.000 
#
# Total GULP energy -198426.320666 kJ/mol
# GULP energy per Si atom -12401.645042 kJ/mol
# Density = 2.524443 g / cm^3
# Si number density = 25.302015 Si / 1000 Ang^3
#
#
#
# Elastic Constant Matrix: (Units=GPa)
#
#
# Indices 1 2 3 4 5 6 
#
# 1 132.7925 57.9422 58.0549 0.0000 33.1998 0.0000
# 2 57.9422 59.6350 34.1685 0.0000 12.0850 0.0000
# 3 58.0549 34.1685 188.9583 0.0000 18.8422 0.0000
# 4 0.0000 0.0000 0.0000 36.4210 0.0000 5.4209
# 5 33.1998 12.0850 18.8422 0.0000 56.5780 0.0000
# 6 0.0000 0.0000 0.0000 5.4209 0.0000 25.7963
#
#
#
# Elastic Compliance Matrix: (Units=1/GPa)
#
#
# Indices 1 2 3 4 5 6 
#
# 1 0.015254 -0.012622 -0.001841 0.000000 -0.005641 0.000000
# 2 -0.012622 0.029646 -0.001645 0.000000 0.001622 0.000000
# 3 -0.001841 -0.001645 0.006219 0.000000 -0.000639 0.000000
# 4 0.000000 0.000000 0.000000 0.028343 0.000000 -0.005956
# 5 -0.005641 0.001622 -0.000639 0.000000 0.020852 0.000000
# 6 0.000000 0.000000 0.000000 -0.005956 0.000000 0.040017
#
#
# Mechanical properties :
#
#
# Convention : Reuss Voigt Hill
#
# Bulk Modulus (GPa) = 52.90365 75.74635 64.32500
# Shear Modulus (GPa) = 27.95673 39.17372 33.56523
#
# Velocity S-wave (km/s) = 3.32764 3.93904 3.64618
# Velocity P-wave (km/s) = 5.97650 7.11969 6.57299
#
# Compressibility (1/GPa) = 0.01890229
#
# Stress axis : x y z
#
# Youngs Moduli (GPa) = 65.55824 33.73116 160.79588
#
# Poissons Ratio (x) = 0.42576 0.29611
# Poissons Ratio (y) = 0.82749 0.26443
# Poissons Ratio (z) = 0.12073 0.05547
#
# Static dielectric constant tensor:
#      x y z
#    x 4.950460 0.000000 0.158910 
#    y 0.000000 4.349960 0.000000 
#    z 0.158910 0.000000 5.038060 
# 
# 
# High freq. dielectric constant tensor:
#      x y z
#    x 2.017980 0.000000 0.009570 
#    y 0.000000 1.991350 0.000000 
#    z 0.009570 0.000000 2.039290 
# 
# From -- ./inp_files/128267.got.cif
#   From: 2010.06.25/outbox.cif.g09.slc.cpg/sg15_65_cif.got.tgz:128267.got - 2010.06.28 07:06:18.
