data_PCOD8154523
_publ_section_title
;
Structure prediction by ZEFSAII (Michael W. Deem and Ramdas Pophale) SiO2 
 PCOD8154523
Probable space group: C 2/C
;
_chemical_formula_sum "Si O2"
_cell_formula_units_Z 48
_cell_length_a 20.179445
_cell_length_b 18.577673
_cell_length_c 14.718727
_cell_angle_alpha 90.000000
_cell_angle_beta 27.032743
_cell_angle_gamma 90.000000
_cell_volume 2507.865833
_symmetry_space_group_name_H-M "C 2/C"
_symmetry_group_IT_number 15
_symmetry_cell_setting 'monoclinic'
loop_
_space_group_symop_operation_xyz
x,y,z
-x,y,1/2-z
-x,-y,-z
x,-y,1/2+z
1/2+x,1/2+y,z
1/2-x,1/2+y,1/2-z
1/2-x,1/2-y,-z
1/2+x,1/2-y,1/2+z
loop_
_atom_site_type_symbol
_atom_site_label
_atom_site_fract_x
_atom_site_fract_y
_atom_site_fract_z
Si Si1 0.190086 0.323737 0.370103
Si Si2 0.516151 0.307554 0.034377
Si Si3 0.244207 0.015689 0.494955
Si Si4 0.500000 0.107698 0.250000
Si Si5 0.835109 0.525599 0.696928
Si Si6 0.000000 0.871464 0.250000
Si Si7 0.133708 0.949119 0.812665
O O1 0.348491 0.296346 0.209550
O O2 0.197517 0.397947 0.307201
O O3 0.109521 0.265066 0.405093
O O4 0.093793 0.338191 0.575791
O O5 0.536306 0.324526 0.116866
O O6 0.584845 0.366928 0.883524
O O7 0.399431 0.053421 0.317005
O O8 0.133076 0.079841 0.617251
O O9 0.258036 0.967194 0.388756
O O10 0.193203 0.964285 0.639034
O O11 0.761266 0.463179 0.728214
O O12 0.000000 0.500000 0.500000
O O13 0.000000 0.000000 0.000000
#
# Coordination Sequence:
#
# PCOD8154523 Si02
#       7
#     8   8   8   4   8   4   8
#     4  12  27  43  61  96 136 173 212 267 327 391
#     4  12  27  42  63  94 136 172 214 267 329 390
#     4  12  22  38  70 100 123 164 219 274 317 374
#     4  12  21  42  64  96 135 160 216 272 323 390
#     4  12  23  40  69  95 128 171 217 265 322 380
#     4  12  21  38  68  96 121 168 210 268 337 382
#     4  12  21  44  65  93 129 168 220 269 311 387
#
# _framework density 19.139779000000001
#
# number of rings (size 3 to 8) (size 9 to 14) (size 15 to 20)
#    0.000    0.000   10.000    0.500    4.667    1.333 
#    0.000    0.833    0.000    0.000    0.000    0.000 
#    0.000    0.000    0.000    0.000    0.000    0.000 
#
# Total GULP energy -297611.162858 kJ/mol
# GULP energy per Si atom -12400.465119 kJ/mol
# Density = 1.909622 g / cm^3
# Si number density = 19.139779 Si / 1000 Ang^3
#
#
#
# Elastic Constant Matrix: (Units=GPa)
#
#
# Indices 1 2 3 4 5 6 
#
# 1 89.5437 18.8401 42.1471 0.0040 5.2660 -0.0025
# 2 18.8401 84.3321 30.3894 0.0041 -4.6769 -0.0024
# 3 42.1471 30.3894 84.1229 0.0063 2.2684 -0.0049
# 4 0.0040 0.0041 0.0063 26.0347 -0.0032 -10.2906
# 5 5.2660 -4.6769 2.2684 -0.0032 42.7819 0.0024
# 6 -0.0025 -0.0024 -0.0049 -10.2906 0.0024 29.0747
#
#
#
# Elastic Compliance Matrix: (Units=1/GPa)
#
#
# Indices 1 2 3 4 5 6 
#
# 1 0.014751 -0.000842 -0.007045 -0.000001 -0.001534 0.000000
# 2 -0.000842 0.013813 -0.004618 -0.000001 0.001859 0.000000
# 3 -0.007045 -0.004618 0.017100 -0.000002 -0.000544 0.000001
# 4 -0.000001 -0.000001 -0.000002 0.044658 0.000003 0.015806
# 5 -0.001534 0.001859 -0.000544 0.000003 0.023795 -0.000001
# 6 0.000000 0.000000 0.000001 0.015806 -0.000001 0.039988
#
#
# Mechanical properties :
#
#
# Convention : Reuss Voigt Hill
#
# Bulk Modulus (GPa) = 48.41691 48.97243 48.69467
# Shear Modulus (GPa) = 26.88153 30.68641 28.78397
#
# Velocity S-wave (km/s) = 3.75171 4.00844 3.88220
# Velocity P-wave (km/s) = 6.64218 6.86045 6.75219
#
# Compressibility (1/GPa) = 0.02065394
#
# Stress axis : x y z
#
# Youngs Moduli (GPa) = 67.79145 72.39418 58.47893
#
# Poissons Ratio (x) = 0.06094 0.41199
# Poissons Ratio (y) = 0.05707 0.27008
# Poissons Ratio (z) = 0.47760 0.33435
#
# Static dielectric constant tensor:
#      x y z
#    x 3.770420 -0.000010 0.071330 
#    y -0.000010 3.386740 -0.000030 
#    z 0.071330 -0.000030 3.788880 
# 
# 
# High freq. dielectric constant tensor:
#      x y z
#    x 1.753350 0.000000 -0.015230 
#    y 0.000000 1.733460 0.000000 
#    z -0.015230 0.000000 1.758330 
# 
# From -- ./inp_files/40973.got.cif
#   From: 2010.06.25/outbox.cif.g09.slc.cpg/sg15_21_cif.got.tgz:40973.got - 2010.06.28 07:06:18.
