data_PCOD8154883
_publ_section_title
;
Structure prediction by ZEFSAII (Michael W. Deem and Ramdas Pophale) SiO2 
 PCOD8154883
Probable space group: C 2/C
;
_chemical_formula_sum "Si O2"
_cell_formula_units_Z 40
_cell_length_a 15.987405
_cell_length_b 11.937570
_cell_length_c 8.892048
_cell_angle_alpha 90.000000
_cell_angle_beta 103.155403
_cell_angle_gamma 90.000000
_cell_volume 1652.517276
_symmetry_space_group_name_H-M "C 2/C"
_symmetry_group_IT_number 15
_symmetry_cell_setting 'monoclinic'
loop_
_space_group_symop_operation_xyz
x,y,z
-x,y,1/2-z
-x,-y,-z
x,-y,1/2+z
1/2+x,1/2+y,z
1/2-x,1/2+y,1/2-z
1/2-x,1/2-y,-z
1/2+x,1/2-y,1/2+z
loop_
_atom_site_type_symbol
_atom_site_label
_atom_site_fract_x
_atom_site_fract_y
_atom_site_fract_z
Si Si1 0.710635 0.452106 0.112377
Si Si2 0.959654 0.346375 0.398897
Si Si3 0.389365 0.247369 0.337707
Si Si4 0.174648 0.527489 0.104088
Si Si5 0.340526 0.692047 0.502048
O O1 0.648015 0.345973 0.070925
O O2 0.745582 0.454491 0.298363
O O3 0.799862 0.441235 0.055725
O O4 0.659741 0.562540 0.043069
O O5 0.917770 0.465826 0.430793
O O6 0.883055 0.255493 0.376944
O O7 0.000000 0.353151 0.250000
O O8 0.028936 0.307770 0.549454
O O9 0.323915 0.142282 0.298529
O O10 0.403070 0.293316 0.174279
O O11 0.250000 0.750000 0.500000
#
# Coordination Sequence:
#
# PCOD8154883 Si02
#       5
#     8   8   8   8   8
#     4  12  25  44  78 108 149 199 260 306 375 453
#     4  12  28  46  75 115 156 193 251 320 388 446
#     4  12  26  45  74 112 150 199 249 321 382 440
#     4  12  24  46  75 108 152 197 257 308 373 459
#     4  12  24  49  75 107 153 209 253 308 377 465
#
# _framework density 24.205497000000001
#
# number of rings (size 3 to 8) (size 9 to 14) (size 15 to 20)
#    0.000    0.000    6.000    3.000    2.800    2.400 
#    0.000    0.000    0.000    0.000    0.000    0.000 
#    0.000    0.000    0.000    0.000    0.000    0.000 
#
# Total GULP energy -247958.608133 kJ/mol
# GULP energy per Si atom -12397.930407 kJ/mol
# Density = 2.415040 g / cm^3
# Si number density = 24.205497 Si / 1000 Ang^3
#
#
#
# Elastic Constant Matrix: (Units=GPa)
#
#
# Indices 1 2 3 4 5 6 
#
# 1 79.2118 56.9726 29.7947 0.0000 -30.5490 0.0000
# 2 56.9726 187.8078 27.4717 0.0000 -6.5466 0.0000
# 3 29.7947 27.4717 86.7156 0.0000 -8.3552 0.0000
# 4 0.0000 0.0000 0.0000 34.9965 0.0000 -0.2781
# 5 -30.5490 -6.5466 -8.3552 0.0000 47.9703 0.0000
# 6 0.0000 0.0000 0.0000 -0.2781 0.0000 47.3657
#
#
#
# Elastic Compliance Matrix: (Units=1/GPa)
#
#
# Indices 1 2 3 4 5 6 
#
# 1 0.024224 -0.006130 -0.005060 0.000000 0.013709 0.000000
# 2 -0.006130 0.007145 -0.000447 0.000000 -0.003007 0.000000
# 3 -0.005060 -0.000447 0.013319 0.000000 -0.000964 0.000000
# 4 0.000000 0.000000 0.000000 0.028576 0.000000 0.000168
# 5 0.013709 -0.003007 -0.000964 0.000000 0.028998 0.000000
# 6 0.000000 0.000000 0.000000 0.000168 0.000000 0.021113
#
#
# Mechanical properties :
#
#
# Convention : Reuss Voigt Hill
#
# Bulk Modulus (GPa) = 46.70020 64.69035 55.69527
# Shear Modulus (GPa) = 32.51240 42.03292 37.27266
#
# Velocity S-wave (km/s) = 3.66892 4.17166 3.92834
# Velocity P-wave (km/s) = 6.10599 7.07016 6.60569
#
# Compressibility (1/GPa) = 0.02141318
#
# Stress axis : x y z
#
# Youngs Moduli (GPa) = 41.28166 139.96115 75.07908
#
# Poissons Ratio (x) = 0.85802 0.37991
# Poissons Ratio (y) = 0.25307 0.03355
# Poissons Ratio (z) = 0.20889 0.06254
#
# Static dielectric constant tensor:
#      x y z
#    x 4.314070 0.000000 -0.168120 
#    y 0.000000 4.672090 0.000000 
#    z -0.168120 0.000000 4.306370 
# 
# 
# High freq. dielectric constant tensor:
#      x y z
#    x 1.956520 0.000000 -0.003520 
#    y 0.000000 1.977150 0.000000 
#    z -0.003520 0.000000 1.965800 
# 
# From -- ./inp_files/46260.got.cif
#   From: 2010.06.25/outbox.cif.g09.slc.cpg/sg15_24_cif.got.tgz:46260.got - 2010.06.28 07:06:18.
