data_PCOD8154465
_publ_section_title
;
Structure prediction by ZEFSAII (Michael W. Deem and Ramdas Pophale) SiO2 
 PCOD8154465
Probable space group: C 2/C
;
_chemical_formula_sum "Si O2"
_cell_formula_units_Z 48
_cell_length_a 14.121376
_cell_length_b 10.789033
_cell_length_c 14.837013
_cell_angle_alpha 90.000000
_cell_angle_beta 59.593054
_cell_angle_gamma 90.000000
_cell_volume 1949.580213
_symmetry_space_group_name_H-M "C 2/C"
_symmetry_group_IT_number 15
_symmetry_cell_setting 'monoclinic'
loop_
_space_group_symop_operation_xyz
x,y,z
-x,y,1/2-z
-x,-y,-z
x,-y,1/2+z
1/2+x,1/2+y,z
1/2-x,1/2+y,1/2-z
1/2-x,1/2-y,-z
1/2+x,1/2-y,1/2+z
loop_
_atom_site_type_symbol
_atom_site_label
_atom_site_fract_x
_atom_site_fract_y
_atom_site_fract_z
Si Si1 0.514168 0.053126 0.347737
Si Si2 0.788937 0.278955 0.779339
Si Si3 0.203846 0.812237 0.639166
Si Si4 0.112729 0.063212 0.669777
Si Si5 0.900020 0.779735 0.495659
Si Si6 0.436489 0.788810 0.439430
O O1 0.500000 0.028665 0.250000
O O2 0.639860 0.103791 0.292735
O O3 0.427382 0.152320 0.429197
O O4 0.492033 0.925415 0.412245
O O5 0.700615 0.255176 0.742182
O O6 0.873328 0.168440 0.759527
O O7 0.723419 0.286481 0.905129
O O8 0.318573 0.773424 0.542192
O O9 0.091985 0.760038 0.646881
O O10 0.207168 0.961556 0.633308
O O11 0.100394 0.108078 0.573441
O O12 0.000000 0.995446 0.750000
O O13 0.984844 0.798623 0.538001
#
# Coordination Sequence:
#
# PCOD8154465 Si02
#       6
#     8   8   8   8   8   8
#     4  12  25  46  78 111 146 200 253 307 372 447
#     4  12  26  46  74 112 144 195 255 296 373 443
#     4  11  28  49  73 113 145 199 245 310 378 442
#     4  12  25  49  75 103 153 191 249 307 370 446
#     4  12  25  48  76 108 148 198 246 310 367 444
#     4  11  27  50  74 104 156 188 252 308 376 444
#
# _framework density 24.620684000000001
#
# number of rings (size 3 to 8) (size 9 to 14) (size 15 to 20)
#    0.000    0.333    5.000    2.000    9.333    0.667 
#    3.000    0.000    0.000    0.000    0.000    0.000 
#    0.000    0.000    0.000    0.000    0.000    0.000 
#
# Total GULP energy -297403.108250 kJ/mol
# GULP energy per Si atom -12391.796177 kJ/mol
# Density = 2.456465 g / cm^3
# Si number density = 24.620684 Si / 1000 Ang^3
#
#
#
# Elastic Constant Matrix: (Units=GPa)
#
#
# Indices 1 2 3 4 5 6 
#
# 1 108.6376 34.5742 17.4874 0.0000 18.6324 0.0000
# 2 34.5742 71.8713 31.5911 0.0000 -6.3576 0.0000
# 3 17.4874 31.5911 99.8221 0.0000 -3.1486 0.0000
# 4 0.0000 0.0000 0.0000 27.2904 0.0000 -4.4230
# 5 18.6324 -6.3576 -3.1486 0.0000 46.1779 0.0000
# 6 0.0000 0.0000 0.0000 -4.4230 0.0000 34.1320
#
#
#
# Elastic Compliance Matrix: (Units=1/GPa)
#
#
# Indices 1 2 3 4 5 6 
#
# 1 0.012252 -0.006255 -0.000351 0.000000 -0.005829 0.000000
# 2 -0.006255 0.019520 -0.004928 0.000000 0.004875 0.000000
# 3 -0.000351 -0.004928 0.011647 0.000000 0.000257 0.000000
# 4 0.000000 0.000000 0.000000 0.037429 0.000000 0.004850
# 5 -0.005829 0.004875 0.000257 0.000000 0.024696 0.000000
# 6 0.000000 0.000000 0.000000 0.004850 0.000000 0.029927
#
#
# Mechanical properties :
#
#
# Convention : Reuss Voigt Hill
#
# Bulk Modulus (GPa) = 49.13706 49.73737 49.43722
# Shear Modulus (GPa) = 30.24401 34.63195 32.43798
#
# Velocity S-wave (km/s) = 3.50865 3.75456 3.63369
# Velocity P-wave (km/s) = 6.03450 6.24828 6.14232
#
# Compressibility (1/GPa) = 0.02035124
#
# Stress axis : x y z
#
# Youngs Moduli (GPa) = 81.62093 51.22874 85.85952
#
# Poissons Ratio (x) = 0.32045 0.03010
# Poissons Ratio (y) = 0.51056 0.42312
# Poissons Ratio (z) = 0.02861 0.25246
#
# Static dielectric constant tensor:
#      x y z
#    x 5.016880 0.000000 0.240090 
#    y 0.000000 4.037400 0.000000 
#    z 0.240090 0.000000 4.621380 
# 
# 
# High freq. dielectric constant tensor:
#      x y z
#    x 1.999580 0.000000 0.004090 
#    y 0.000000 1.946530 0.000000 
#    z 0.004090 0.000000 2.002720 
# 
# From -- ./inp_files/152482.got.cif
#   From: 2010.06.25/outbox.cif.g09.slc.cpg/sg15_77_cif.got.tgz:152482.got - 2010.06.28 07:06:18.
