data_PCOD8154667
_publ_section_title
;
Structure prediction by ZEFSAII (Michael W. Deem and Ramdas Pophale) SiO2 
 PCOD8154667
Probable space group: C 2/C
;
_chemical_formula_sum "Si O2"
_cell_formula_units_Z 40
_cell_length_a 9.405807
_cell_length_b 22.862109
_cell_length_c 7.631394
_cell_angle_alpha 90.000000
_cell_angle_beta 82.054582
_cell_angle_gamma 90.000000
_cell_volume 1625.275355
_symmetry_space_group_name_H-M "C 2/C"
_symmetry_group_IT_number 15
_symmetry_cell_setting 'monoclinic'
loop_
_space_group_symop_operation_xyz
x,y,z
-x,y,1/2-z
-x,-y,-z
x,-y,1/2+z
1/2+x,1/2+y,z
1/2-x,1/2+y,1/2-z
1/2-x,1/2-y,-z
1/2+x,1/2-y,1/2+z
loop_
_atom_site_type_symbol
_atom_site_label
_atom_site_fract_x
_atom_site_fract_y
_atom_site_fract_z
Si Si1 0.500000 0.263634 0.750000
Si Si2 0.500000 0.644438 0.750000
Si Si3 0.157880 0.962591 0.668917
Si Si4 0.990605 0.326334 0.960792
Si Si5 0.746668 0.419428 0.011859
Si Si6 0.687986 0.655515 0.015381
O O1 0.443322 0.228933 0.587376
O O2 0.364775 0.305778 0.812577
O O3 0.400366 0.607794 0.897096
O O4 0.390786 0.681971 0.645518
O O5 0.142174 0.913256 0.521377
O O6 0.000000 0.986005 0.750000
O O7 0.259384 0.015834 0.593529
O O8 0.239036 0.926883 0.805311
O O9 0.000000 0.313050 0.750000
O O10 0.142240 0.341569 0.023341
O O11 0.885777 0.380136 0.024652
#
# Coordination Sequence:
#
# PCOD8154667 Si02
#       6
#     4   4   8   8   8   8
#     4  12  28  53  84 112 158 223 278 328 390 492
#     4  12  24  45  80 110 158 211 264 330 388 484
#     4  12  22  46  78 115 159 205 273 326 393 484
#     4  12  29  53  77 119 167 208 264 340 413 474
#     4  12  25  45  78 115 159 211 263 333 399 481
#     4  12  26  50  78 117 156 208 273 331 399 478
#
# _framework density 24.611214
#
# number of rings (size 3 to 8) (size 9 to 14) (size 15 to 20)
#    0.000    0.000    6.000    3.600    1.400    1.600 
#    0.000    0.000    0.000    0.000    0.000    0.000 
#    0.000    0.000    0.000    0.000    0.000    0.000 
#
# Total GULP energy -247905.708372 kJ/mol
# GULP energy per Si atom -12395.285419 kJ/mol
# Density = 2.455520 g / cm^3
# Si number density = 24.611214 Si / 1000 Ang^3
#
#
#
# Elastic Constant Matrix: (Units=GPa)
#
#
# Indices 1 2 3 4 5 6 
#
# 1 174.2923 48.0532 43.5774 0.0000 9.0240 0.0000
# 2 48.0532 119.1905 31.7494 0.0000 -7.5074 0.0000
# 3 43.5774 31.7494 95.9420 0.0000 14.4014 0.0000
# 4 0.0000 0.0000 0.0000 47.3668 0.0000 -4.6966
# 5 9.0240 -7.5074 14.4014 0.0000 34.9369 0.0000
# 6 0.0000 0.0000 0.0000 -4.6966 0.0000 34.2821
#
#
#
# Elastic Compliance Matrix: (Units=1/GPa)
#
#
# Indices 1 2 3 4 5 6 
#
# 1 0.007001 -0.002325 -0.002200 0.000000 -0.001401 0.000000
# 2 -0.002325 0.010379 -0.002989 0.000000 0.004063 0.000000
# 3 -0.002200 -0.002989 0.013242 0.000000 -0.005532 0.000000
# 4 0.000000 0.000000 0.000000 0.021403 0.000000 0.002932
# 5 -0.001401 0.004063 -0.005532 0.000000 0.032138 0.000000
# 6 0.000000 0.000000 0.000000 0.002932 0.000000 0.029571
#
#
# Mechanical properties :
#
#
# Convention : Reuss Voigt Hill
#
# Bulk Modulus (GPa) = 64.12455 70.68722 67.40588
# Shear Modulus (GPa) = 37.32456 41.05348 39.18902
#
# Velocity S-wave (km/s) = 3.89854 4.08864 3.99472
# Velocity P-wave (km/s) = 6.81002 7.14656 6.98032
#
# Compressibility (1/GPa) = 0.01559465
#
# Stress axis : x y z
#
# Youngs Moduli (GPa) = 142.83485 96.34690 75.51834
#
# Poissons Ratio (x) = 0.22398 0.16617
# Poissons Ratio (y) = 0.33205 0.22570
# Poissons Ratio (z) = 0.31429 0.28795
#
# Static dielectric constant tensor:
#      x y z
#    x 4.191050 0.000000 0.016050 
#    y 0.000000 4.503020 0.000000 
#    z 0.016050 0.000000 4.790110 
# 
# 
# High freq. dielectric constant tensor:
#      x y z
#    x 1.970890 0.000000 0.003880 
#    y 0.000000 1.980010 0.000000 
#    z 0.003880 0.000000 1.994430 
# 
# From -- ./inp_files/23528.got.cif
#   From: 2010.06.25/outbox.cif.g09.slc.cpg/sg15_12_cif.got.tgz:23528.got - 2010.06.28 07:06:18.
