data_PCOD8154599
_publ_section_title
;
Structure prediction by ZEFSAII (Michael W. Deem and Ramdas Pophale) SiO2 
 PCOD8154599
Probable space group: C 2/C
;
_chemical_formula_sum "Si O2"
_cell_formula_units_Z 52
_cell_length_a 28.464404
_cell_length_b 8.378983
_cell_length_c 13.946923
_cell_angle_alpha 90.000000
_cell_angle_beta 135.726694
_cell_angle_gamma 90.000000
_cell_volume 2322.084951
_symmetry_space_group_name_H-M "C 2/C"
_symmetry_group_IT_number 15
_symmetry_cell_setting 'monoclinic'
loop_
_space_group_symop_operation_xyz
x,y,z
-x,y,1/2-z
-x,-y,-z
x,-y,1/2+z
1/2+x,1/2+y,z
1/2-x,1/2+y,1/2-z
1/2-x,1/2-y,-z
1/2+x,1/2-y,1/2+z
loop_
_atom_site_type_symbol
_atom_site_label
_atom_site_fract_x
_atom_site_fract_y
_atom_site_fract_z
Si Si1 0.103823 0.373044 0.283499
Si Si2 0.811973 0.541113 0.939375
Si Si3 0.500000 0.307609 0.750000
Si Si4 0.617117 0.412919 0.049056
Si Si5 0.849052 0.419673 0.800954
Si Si6 0.830911 0.070777 0.205652
Si Si7 0.297548 0.598816 0.470444
O O1 0.133500 0.438060 0.425005
O O2 0.033512 0.296041 0.213609
O O3 0.093469 0.510584 0.187056
O O4 0.157036 0.247520 0.316328
O O5 0.832155 0.547782 0.857722
O O6 0.740545 0.452179 0.846373
O O7 0.818668 0.722311 0.980373
O O8 0.447184 0.417978 0.615367
O O9 0.630900 0.240323 0.114576
O O10 0.610067 0.529875 0.130874
O O11 0.680203 0.472726 0.078315
O O12 0.783345 0.401473 0.636938
O O13 0.833223 0.945899 0.121927
#
# Coordination Sequence:
#
# PCOD8154599 Si02
#       7
#     8   8   4   8   8   8   8
#     4  12  27  45  72 102 147 197 239 289 353 421
#     4  12  23  40  70 113 143 177 226 302 369 431
#     4  12  28  54  66  94 148 200 254 292 326 426
#     4  12  26  46  72 103 146 189 240 291 353 426
#     4  12  23  41  73 109 142 180 229 299 369 425
#     4  12  23  41  73 106 142 181 225 303 369 425
#     4  12  22  41  70 112 144 176 229 302 370 428
#
# _framework density 22.393668000000002
#
# number of rings (size 3 to 8) (size 9 to 14) (size 15 to 20)
#    0.000    0.000    7.692    2.769    2.154    1.231 
#    0.000    0.769    0.000    0.000    0.000    0.000 
#    0.000    0.000    0.000    0.000    0.000    0.000 
#
# Total GULP energy -322334.209305 kJ/mol
# GULP energy per Si atom -12397.469589 kJ/mol
# Density = 2.234270 g / cm^3
# Si number density = 22.393668 Si / 1000 Ang^3
#
#
#
# Elastic Constant Matrix: (Units=GPa)
#
#
# Indices 1 2 3 4 5 6 
#
# 1 91.1029 3.2423 14.1287 0.0000 -19.1496 0.0000
# 2 3.2423 52.7967 15.3288 0.0000 -1.8490 0.0000
# 3 14.1287 15.3288 103.7911 0.0000 -19.3123 0.0000
# 4 0.0000 0.0000 0.0000 32.4069 0.0000 -10.5306
# 5 -19.1496 -1.8490 -19.3123 0.0000 30.3652 0.0000
# 6 0.0000 0.0000 0.0000 -10.5306 0.0000 28.0969
#
#
#
# Elastic Compliance Matrix: (Units=1/GPa)
#
#
# Indices 1 2 3 4 5 6 
#
# 1 0.012671 -0.000445 -0.000201 0.000000 0.007836 0.000000
# 2 -0.000445 0.019820 -0.003056 0.000000 -0.001018 0.000000
# 3 -0.000201 -0.003056 0.011405 0.000000 0.006941 0.000000
# 4 0.000000 0.000000 0.000000 0.035137 0.000000 0.013169
# 5 0.007836 -0.001018 0.006941 0.000000 0.042226 0.000000
# 6 0.000000 0.000000 0.000000 0.013169 0.000000 0.040527
#
#
# Mechanical properties :
#
#
# Convention : Reuss Voigt Hill
#
# Bulk Modulus (GPa) = 27.40432 34.78779 31.09606
# Shear Modulus (GPa) = 27.57055 32.50653 30.03854
#
# Velocity S-wave (km/s) = 3.51262 3.81411 3.66647
# Velocity P-wave (km/s) = 5.35868 5.91312 5.64271
#
# Compressibility (1/GPa) = 0.03649059
#
# Stress axis : x y z
#
# Youngs Moduli (GPa) = 78.92240 50.45527 87.68193
#
# Poissons Ratio (x) = 0.02247 0.01763
# Poissons Ratio (y) = 0.03515 0.26794
# Poissons Ratio (z) = 0.01587 0.15418
#
# Static dielectric constant tensor:
#      x y z
#    x 4.131490 0.000000 -0.428230 
#    y 0.000000 4.072110 0.000000 
#    z -0.428230 0.000000 4.109640 
# 
# 
# High freq. dielectric constant tensor:
#      x y z
#    x 1.880000 0.000000 -0.041280 
#    y 0.000000 1.886050 0.000000 
#    z -0.041280 0.000000 1.878020 
# 
# From -- ./inp_files/181078.got.cif
#   From: 2010.06.25/outbox.cif.g09.slc.cpg/sg15_91_cif.got.tgz:181078.got - 2010.06.28 07:06:18.
