data_PCOD8154576
_publ_section_title
;
Structure prediction by ZEFSAII (Michael W. Deem and Ramdas Pophale) SiO2 
 PCOD8154576
Probable space group: C 2/C
;
_chemical_formula_sum "Si O2"
_cell_formula_units_Z 64
_cell_length_a 12.328159
_cell_length_b 16.447704
_cell_length_c 21.059048
_cell_angle_alpha 90.000000
_cell_angle_beta 40.761294
_cell_angle_gamma 90.000000
_cell_volume 2788.013961
_symmetry_space_group_name_H-M "C 2/C"
_symmetry_group_IT_number 15
_symmetry_cell_setting 'monoclinic'
loop_
_space_group_symop_operation_xyz
x,y,z
-x,y,1/2-z
-x,-y,-z
x,-y,1/2+z
1/2+x,1/2+y,z
1/2-x,1/2+y,1/2-z
1/2-x,1/2-y,-z
1/2+x,1/2-y,1/2+z
loop_
_atom_site_type_symbol
_atom_site_label
_atom_site_fract_x
_atom_site_fract_y
_atom_site_fract_z
Si Si1 0.619527 0.606772 0.806786
Si Si2 0.281856 0.925468 0.565005
Si Si3 0.031185 0.838155 0.593500
Si Si4 0.747267 0.114894 0.957615
Si Si5 0.759319 0.939757 0.772226
Si Si6 0.340174 0.443869 0.072302
Si Si7 0.562956 0.068446 0.157685
Si Si8 0.089725 0.669866 0.902600
O O1 0.437032 0.644967 0.879326
O O2 0.617635 0.516671 0.776845
O O3 0.674582 0.603087 0.855212
O O4 0.751282 0.662119 0.712451
O O5 0.289314 0.909332 0.636831
O O6 0.462184 0.905475 0.455211
O O7 0.142101 0.859717 0.605960
O O8 0.248847 0.019036 0.561958
O O9 0.846830 0.871569 0.689641
O O10 0.013397 0.746430 0.577480
O O11 0.137209 0.878444 0.491438
O O12 0.655320 0.171866 0.946692
O O13 0.662236 0.127135 0.064779
O O14 0.594637 0.968228 0.809035
O O15 0.174749 0.493682 0.131187
O O16 0.500000 0.500000 0.000000
O O17 0.500000 0.115048 0.250000
#
# Coordination Sequence:
#
# PCOD8154576 Si02
#       8
#     8   8   8   8   8   8   8   8
#     4  12  24  43  75 107 144 196 259 315 371 456
#     4  12  23  45  75 104 143 199 257 313 372 464
#     4  12  27  46  69 105 157 195 243 325 401 450
#     4  12  23  44  76 107 144 197 258 313 372 449
#     4  12  23  42  76 108 141 194 263 314 370 463
#     4  12  22  43  71 102 139 196 252 309 379 457
#     4  12  22  38  73 115 143 185 257 325 366 440
#     4  12  28  45  67 111 154 194 255 321 392 457
#
# _framework density 22.955407999999998
#
# number of rings (size 3 to 8) (size 9 to 14) (size 15 to 20)
#    0.000    0.000    8.750    2.250    0.000    1.000 
#    0.000    5.625    0.000    0.000    0.000    0.000 
#    0.000    0.000    0.000    0.000    0.000    0.000 
#
# Total GULP energy -396693.877187 kJ/mol
# GULP energy per Si atom -12396.683662 kJ/mol
# Density = 2.290316 g / cm^3
# Si number density = 22.955408 Si / 1000 Ang^3
#
#
#
# Elastic Constant Matrix: (Units=GPa)
#
#
# Indices 1 2 3 4 5 6 
#
# 1 153.5556 29.7531 57.0852 0.0006 9.5683 0.0000
# 2 29.7531 30.1627 -0.7761 0.0025 -1.6809 -0.0005
# 3 57.0852 -0.7761 140.8411 0.0058 2.0428 -0.0005
# 4 0.0006 0.0025 0.0058 15.6493 -0.0007 -3.1625
# 5 9.5683 -1.6809 2.0428 -0.0007 40.3351 -0.0004
# 6 0.0000 -0.0005 -0.0005 -3.1625 -0.0004 33.7616
#
#
#
# Elastic Compliance Matrix: (Units=1/GPa)
#
#
# Indices 1 2 3 4 5 6 
#
# 1 0.010230 -0.010346 -0.004165 0.000003 -0.002647 0.000000
# 2 -0.010346 0.043698 0.004375 -0.000008 0.004054 0.000000
# 3 -0.004165 0.004375 0.008802 -0.000004 0.000725 0.000000
# 4 0.000003 -0.000008 -0.000004 0.065134 0.000000 0.006101
# 5 -0.002647 0.004054 0.000725 0.000000 0.025552 0.000000
# 6 0.000000 0.000000 0.000000 0.006101 0.000000 0.030191
#
#
# Mechanical properties :
#
#
# Convention : Reuss Voigt Hill
#
# Bulk Modulus (GPa) = 23.55250 55.18708 39.36979
# Shear Modulus (GPa) = 22.93246 33.84899 28.39073
#
# Velocity S-wave (km/s) = 3.16413 3.84416 3.52060
# Velocity P-wave (km/s) = 4.86120 6.61790 5.80637
#
# Compressibility (1/GPa) = 0.04245834
#
# Stress axis : x y z
#
# Youngs Moduli (GPa) = 97.74855 22.88455 113.61052
#
# Poissons Ratio (x) = 0.23677 0.47320
# Poissons Ratio (y) = 1.01132 -0.49710
# Poissons Ratio (z) = 0.40714 -0.10013
#
# Static dielectric constant tensor:
#      x y z
#    x 4.430330 0.000000 -0.084370 
#    y 0.000000 4.533060 -0.000050 
#    z -0.084370 -0.000050 4.508280 
# 
# 
# High freq. dielectric constant tensor:
#      x y z
#    x 1.925960 0.000000 -0.000970 
#    y 0.000000 1.851600 0.000000 
#    z -0.000970 0.000000 1.937110 
# 
# From -- ./inp_files/240405.got.cif
#   From: 2010.06.25/outbox.cif.g09.slc.cpg/sg15_121_cif.got.tgz:240405.got - 2010.06.28 07:06:18.
