data_PCOD8154586
_publ_section_title
;
Structure prediction by ZEFSAII (Michael W. Deem and Ramdas Pophale) SiO2 
 PCOD8154586
Probable space group: C 2/C
;
_chemical_formula_sum "Si O2"
_cell_formula_units_Z 64
_cell_length_a 16.851904
_cell_length_b 19.401146
_cell_length_c 8.425865
_cell_angle_alpha 90.000000
_cell_angle_beta 100.350101
_cell_angle_gamma 90.000000
_cell_volume 2709.979638
_symmetry_space_group_name_H-M "C 2/C"
_symmetry_group_IT_number 15
_symmetry_cell_setting 'monoclinic'
loop_
_space_group_symop_operation_xyz
x,y,z
-x,y,1/2-z
-x,-y,-z
x,-y,1/2+z
1/2+x,1/2+y,z
1/2-x,1/2+y,1/2-z
1/2-x,1/2-y,-z
1/2+x,1/2-y,1/2+z
loop_
_atom_site_type_symbol
_atom_site_label
_atom_site_fract_x
_atom_site_fract_y
_atom_site_fract_z
Si Si1 0.670319 0.589494 0.503060
Si Si2 0.310659 0.443405 0.120684
Si Si3 0.411045 0.811589 0.656358
Si Si4 0.172613 0.202416 0.024765
Si Si5 0.906237 0.212801 0.170405
Si Si6 0.165214 0.338411 0.555957
Si Si7 0.365802 0.930352 0.430688
Si Si8 0.077160 0.550245 0.874225
O O1 0.648391 0.516228 0.411101
O O2 0.673384 0.576996 0.692054
O O3 0.597208 0.641506 0.431961
O O4 0.750391 0.629303 0.469341
O O5 0.218760 0.457983 0.037953
O O6 0.330724 0.377898 0.019473
O O7 0.500000 0.828634 0.750000
O O8 0.405003 0.732865 0.597938
O O9 0.338510 0.823942 0.757343
O O10 0.387400 0.852971 0.487123
O O11 0.155104 0.207403 0.204607
O O12 0.250000 0.250000 0.000000
O O13 0.000000 0.228195 0.250000
O O14 0.864829 0.272451 0.051586
O O15 0.095412 0.395719 0.517205
O O16 0.355496 0.943045 0.238970
O O17 0.432884 0.976044 0.546819
O O18 0.000000 0.573337 0.750000
#
# Coordination Sequence:
#
# PCOD8154586 Si02
#       8
#     8   8   8   8   8   8   8   8
#     4  12  26  46  73 103 136 181 236 289 347 417
#     4  12  24  45  71 102 133 178 238 291 340 413
#     4  12  25  41  65 100 138 180 228 284 347 417
#     4  12  24  45  74 100 138 183 233 284 347 413
#     4  12  27  49  73 106 143 183 231 294 355 413
#     4  12  23  42  69 100 141 180 231 280 344 420
#     4  12  22  40  59  92 139 176 231 284 341 412
#     4  12  23  37  59  93 136 185 225 277 348 419
#
# _framework density 23.616413000000001
#
# number of rings (size 3 to 8) (size 9 to 14) (size 15 to 20)
#    0.000    0.000    3.750    7.500    1.750    0.000 
#    0.000    3.125    0.000    0.000    0.000    0.000 
#    0.000    0.000    0.000    0.000    0.000    0.000 
#
# Total GULP energy -396466.221015 kJ/mol
# GULP energy per Si atom -12389.569407 kJ/mol
# Density = 2.356266 g / cm^3
# Si number density = 23.616413 Si / 1000 Ang^3
#
#
#
# Elastic Constant Matrix: (Units=GPa)
#
#
# Indices 1 2 3 4 5 6 
#
# 1 33.4799 20.4482 7.1547 0.0000 -4.6550 0.0000
# 2 20.4482 160.5468 39.9906 0.0000 -0.3749 0.0000
# 3 7.1547 39.9906 98.6159 0.0000 -2.2228 0.0000
# 4 0.0000 0.0000 0.0000 44.7392 0.0000 13.3992
# 5 -4.6550 -0.3749 -2.2228 0.0000 30.3529 0.0000
# 6 0.0000 0.0000 0.0000 13.3992 0.0000 36.3372
#
#
#
# Elastic Compliance Matrix: (Units=1/GPa)
#
#
# Indices 1 2 3 4 5 6 
#
# 1 0.033176 -0.004052 -0.000651 0.000000 0.004990 0.000000
# 2 -0.004052 0.007424 -0.002733 0.000000 -0.000730 0.000000
# 3 -0.000651 -0.002733 0.011312 0.000000 0.000695 0.000000
# 4 0.000000 0.000000 0.000000 0.025127 0.000000 -0.009265
# 5 0.004990 -0.000730 0.000695 0.000000 0.033753 0.000000
# 6 0.000000 0.000000 0.000000 -0.009265 0.000000 0.030937
#
#
# Mechanical properties :
#
#
# Convention : Reuss Voigt Hill
#
# Bulk Modulus (GPa) = 26.99823 47.53661 37.26742
# Shear Modulus (GPa) = 29.59516 37.28913 33.44214
#
# Velocity S-wave (km/s) = 3.54384 3.97791 3.76713
# Velocity P-wave (km/s) = 5.31054 6.42423 5.89375
#
# Compressibility (1/GPa) = 0.03703947
#
# Stress axis : x y z
#
# Youngs Moduli (GPa) = 30.14203 134.70174 88.40509
#
# Poissons Ratio (x) = 0.54576 0.05760
# Poissons Ratio (y) = 0.12212 0.24161
# Poissons Ratio (z) = 0.01964 0.36814
#
# Static dielectric constant tensor:
#      x y z
#    x 3.775830 0.000000 0.896300 
#    y 0.000000 4.447910 0.000000 
#    z 0.896300 0.000000 2.638490 
# 
# 
# High freq. dielectric constant tensor:
#      x y z
#    x 1.914820 0.000000 0.004580 
#    y 0.000000 1.949090 0.000000 
#    z 0.004580 0.000000 1.956310 
# 
# From -- ./inp_files/50259.got.cif
#   From: 2010.06.25/outbox.cif.g09.slc.cpg/sg15_26_cif.got.tgz:50259.got - 2010.06.28 07:06:18.
