data_PCOD8154758
_publ_section_title
;
Structure prediction by ZEFSAII (Michael W. Deem and Ramdas Pophale) SiO2 
 PCOD8154758
Probable space group: C 2/C
;
_chemical_formula_sum "Si O2"
_cell_formula_units_Z 52
_cell_length_a 24.930439
_cell_length_b 9.063340
_cell_length_c 13.405077
_cell_angle_alpha 90.000000
_cell_angle_beta 131.418756
_cell_angle_gamma 90.000000
_cell_volume 2271.369065
_symmetry_space_group_name_H-M "C 2/C"
_symmetry_group_IT_number 15
_symmetry_cell_setting 'monoclinic'
loop_
_space_group_symop_operation_xyz
x,y,z
-x,y,1/2-z
-x,-y,-z
x,-y,1/2+z
1/2+x,1/2+y,z
1/2-x,1/2+y,1/2-z
1/2-x,1/2-y,-z
1/2+x,1/2-y,1/2+z
loop_
_atom_site_type_symbol
_atom_site_label
_atom_site_fract_x
_atom_site_fract_y
_atom_site_fract_z
Si Si1 0.652799 0.560765 0.568413
Si Si2 0.500000 0.940021 0.250000
Si Si3 0.045371 0.296053 0.511389
Si Si4 0.614975 0.106385 0.284478
Si Si5 0.924006 0.075488 0.706509
Si Si6 0.094464 0.848755 0.647060
Si Si7 0.286503 0.144968 0.626231
O O1 0.609790 0.685167 0.572693
O O2 0.623842 0.525568 0.423442
O O3 0.646701 0.412195 0.626126
O O4 0.733828 0.619575 0.655331
O O5 0.517102 0.845257 0.368959
O O6 0.568413 0.039909 0.315991
O O7 0.076608 0.417280 0.627759
O O8 0.978456 0.220964 0.487640
O O9 0.621266 0.280193 0.316478
O O10 0.691051 0.020227 0.383397
O O11 0.000000 0.115832 0.750000
O O12 0.935456 0.975264 0.817085
O O13 0.138959 0.720277 0.754326
O O14 0.250000 0.250000 0.500000
#
# Coordination Sequence:
#
# PCOD8154758 Si02
#       7
#     8   4   8   8   8   8   8
#     4  12  26  43  74 102 146 192 236 303 368 446
#     4  12  24  42  72 108 142 186 232 312 370 412
#     4  12  24  47  74 109 142 193 250 309 365 441
#     4  12  27  44  73 109 144 183 251 308 361 442
#     4  12  23  45  75 111 140 188 249 303 368 432
#     4  12  25  46  74 106 143 192 249 301 365 447
#     4  12  28  51  68 102 149 199 240 301 381 445
#
# _framework density 22.893681999999998
#
# number of rings (size 3 to 8) (size 9 to 14) (size 15 to 20)
#    0.000    0.000    6.923    3.692    2.154    0.615 
#    2.769    0.000    0.000    0.000    0.000    0.000 
#    0.000    0.000    0.000    0.000    0.000    0.000 
#
# Total GULP energy -322366.373275 kJ/mol
# GULP energy per Si atom -12398.706664 kJ/mol
# Density = 2.284157 g / cm^3
# Si number density = 22.893682 Si / 1000 Ang^3
#
#
#
# Elastic Constant Matrix: (Units=GPa)
#
#
# Indices 1 2 3 4 5 6 
#
# 1 145.0514 47.3511 31.9214 0.0000 17.4164 0.0000
# 2 47.3511 98.9237 24.3886 0.0000 15.1195 0.0000
# 3 31.9214 24.3886 58.3601 0.0000 1.2667 0.0000
# 4 0.0000 0.0000 0.0000 38.8501 0.0000 2.1022
# 5 17.4164 15.1195 1.2667 0.0000 42.1223 0.0000
# 6 0.0000 0.0000 0.0000 2.1022 0.0000 48.0194
#
#
#
# Elastic Compliance Matrix: (Units=1/GPa)
#
#
# Indices 1 2 3 4 5 6 
#
# 1 0.008974 -0.003026 -0.003589 0.000000 -0.002516 0.000000
# 2 -0.003026 0.012971 -0.003694 0.000000 -0.003294 0.000000
# 3 -0.003589 -0.003694 0.020594 0.000000 0.002191 0.000000
# 4 0.000000 0.000000 0.000000 0.025801 0.000000 -0.001130
# 5 -0.002516 -0.003294 0.002191 0.000000 0.025897 0.000000
# 6 0.000000 0.000000 0.000000 -0.001130 0.000000 0.020874
#
#
# Mechanical properties :
#
#
# Convention : Reuss Voigt Hill
#
# Bulk Modulus (GPa) = 45.61840 56.62859 51.12350
# Shear Modulus (GPa) = 34.95566 39.04331 36.99949
#
# Velocity S-wave (km/s) = 3.91176 4.13415 4.02449
# Velocity P-wave (km/s) = 6.35389 6.89764 6.63134
#
# Compressibility (1/GPa) = 0.02192098
#
# Stress axis : x y z
#
# Youngs Moduli (GPa) = 111.43344 77.09275 48.55671
#
# Poissons Ratio (x) = 0.23328 0.17429
# Poissons Ratio (y) = 0.33720 0.17937
# Poissons Ratio (z) = 0.39997 0.28479
#
# Static dielectric constant tensor:
#      x y z
#    x 4.300380 0.000000 -0.076970 
#    y 0.000000 4.296310 0.000000 
#    z -0.076970 0.000000 3.969510 
# 
# 
# High freq. dielectric constant tensor:
#      x y z
#    x 1.915350 0.000000 -0.005230 
#    y 0.000000 1.915980 0.000000 
#    z -0.005230 0.000000 1.886530 
# 
# From -- ./inp_files/176714.got.cif
#   From: 2010.06.25/outbox.cif.g09.slc.cpg/sg15_89_cif.got.tgz:176714.got - 2010.06.28 07:06:18.
