data_PCOD8154608
_publ_section_title
;
Structure prediction by ZEFSAII (Michael W. Deem and Ramdas Pophale) SiO2 
 PCOD8154608
Probable space group: C 2/C
;
_chemical_formula_sum "Si O2"
_cell_formula_units_Z 48
_cell_length_a 8.739710
_cell_length_b 23.286127
_cell_length_c 11.404663
_cell_angle_alpha 90.000000
_cell_angle_beta 109.540869
_cell_angle_gamma 90.000000
_cell_volume 2187.325764
_symmetry_space_group_name_H-M "C 2/C"
_symmetry_group_IT_number 15
_symmetry_cell_setting 'monoclinic'
loop_
_space_group_symop_operation_xyz
x,y,z
-x,y,1/2-z
-x,-y,-z
x,-y,1/2+z
1/2+x,1/2+y,z
1/2-x,1/2+y,1/2-z
1/2-x,1/2-y,-z
1/2+x,1/2-y,1/2+z
loop_
_atom_site_type_symbol
_atom_site_label
_atom_site_fract_x
_atom_site_fract_y
_atom_site_fract_z
Si Si1 0.813532 0.312545 0.487509
Si Si2 0.330110 0.386504 0.484060
Si Si3 0.321997 0.823732 0.851589
Si Si4 0.315443 0.598810 0.388654
Si Si5 0.096407 0.507459 0.898751
Si Si6 0.165601 0.197835 0.723261
O O1 0.750000 0.250000 0.500000
O O2 0.681262 0.354520 0.508201
O O3 0.811249 0.321673 0.347296
O O4 0.984747 0.328155 0.588017
O O5 0.267316 0.336149 0.550944
O O6 0.493613 0.415421 0.580018
O O7 0.193586 0.434093 0.436556
O O8 0.361994 0.354424 0.370866
O O9 0.266582 0.872952 0.746614
O O10 0.272961 0.758615 0.811349
O O11 0.221773 0.543853 0.412483
O O12 0.000000 0.510904 0.750000
O O13 0.000000 0.500000 0.000000
O O14 0.000000 0.210162 0.750000
#
# Coordination Sequence:
#
# PCOD8154608 Si02
#       6
#     8   8   8   8   8   8
#     4  12  22  41  72 103 142 189 237 287 358 433
#     4  12  28  46  72 108 142 189 243 304 362 430
#     4  12  25  45  72 106 150 193 235 296 366 441
#     4  12  24  48  75 103 145 191 240 297 364 439
#     4  12  29  51  77 108 144 192 252 311 373 440
#     4  12  24  43  69 106 145 188 235 294 363 435
#
# _framework density 21.944606
#
# number of rings (size 3 to 8) (size 9 to 14) (size 15 to 20)
#    0.000    0.000    5.000    5.000    4.667    0.000 
#    3.000    1.667    0.000    0.000    0.000    0.000 
#    0.000    0.000    0.000    0.000    0.000    0.000 
#
# Total GULP energy -297459.742798 kJ/mol
# GULP energy per Si atom -12394.155950 kJ/mol
# Density = 2.189466 g / cm^3
# Si number density = 21.944606 Si / 1000 Ang^3
#
#
#
# Elastic Constant Matrix: (Units=GPa)
#
#
# Indices 1 2 3 4 5 6 
#
# 1 101.1360 37.7703 51.9430 0.0000 -5.5693 0.0000
# 2 37.7703 99.0558 43.5384 0.0000 -14.8982 0.0000
# 3 51.9430 43.5384 155.8453 0.0000 1.5441 0.0000
# 4 0.0000 0.0000 0.0000 26.9380 0.0000 -9.6619
# 5 -5.5693 -14.8982 1.5441 0.0000 18.1888 0.0000
# 6 0.0000 0.0000 0.0000 -9.6619 0.0000 41.1689
#
#
#
# Elastic Compliance Matrix: (Units=1/GPa)
#
#
# Indices 1 2 3 4 5 6 
#
# 1 0.012929 -0.003169 -0.003440 0.000000 0.001655 0.000000
# 2 -0.003169 0.014297 -0.003047 0.000000 0.010999 0.000000
# 3 -0.003440 -0.003047 0.008457 0.000000 -0.004267 0.000000
# 4 0.000000 0.000000 0.000000 0.040534 0.000000 0.009513
# 5 0.001655 0.010999 -0.004267 0.000000 0.064857 0.000000
# 6 0.000000 0.000000 0.000000 0.009513 0.000000 0.026523
#
#
# Mechanical properties :
#
#
# Convention : Reuss Voigt Hill
#
# Bulk Modulus (GPa) = 61.08461 69.17117 65.12789
# Shear Modulus (GPa) = 25.99201 32.11151 29.05176
#
# Velocity S-wave (km/s) = 3.44530 3.82946 3.64245
# Velocity P-wave (km/s) = 6.61234 7.15138 6.88714
#
# Compressibility (1/GPa) = 0.01637074
#
# Stress axis : x y z
#
# Youngs Moduli (GPa) = 77.34406 69.94411 118.24763
#
# Poissons Ratio (x) = 0.22164 0.40682
# Poissons Ratio (y) = 0.24509 0.36030
# Poissons Ratio (z) = 0.26610 0.21312
#
# Static dielectric constant tensor:
#      x y z
#    x 4.238850 0.000000 0.517490 
#    y 0.000000 3.940840 0.000000 
#    z 0.517490 0.000000 6.037830 
# 
# 
# High freq. dielectric constant tensor:
#      x y z
#    x 1.866540 0.000000 0.004550 
#    y 0.000000 1.868750 0.000000 
#    z 0.004550 0.000000 1.885970 
# 
# From -- ./inp_files/79890.got.cif
#   From: 2010.06.25/outbox.cif.g09.slc.cpg/sg15_40_cif.got.tgz:79890.got - 2010.06.28 07:06:18.
