data_PCOD8154384
_publ_section_title
;
Structure prediction by ZEFSAII (Michael W. Deem and Ramdas Pophale) SiO2 
 PCOD8154384
Probable space group: C 2/C
;
_chemical_formula_sum "Si O2"
_cell_formula_units_Z 32
_cell_length_a 5.405748
_cell_length_b 17.813815
_cell_length_c 13.975555
_cell_angle_alpha 90.000000
_cell_angle_beta 71.638981
_cell_angle_gamma 90.000000
_cell_volume 1277.289799
_symmetry_space_group_name_H-M "C 2/C"
_symmetry_group_IT_number 15
_symmetry_cell_setting 'monoclinic'
loop_
_space_group_symop_operation_xyz
x,y,z
-x,y,1/2-z
-x,-y,-z
x,-y,1/2+z
1/2+x,1/2+y,z
1/2-x,1/2+y,1/2-z
1/2-x,1/2-y,-z
1/2+x,1/2-y,1/2+z
loop_
_atom_site_type_symbol
_atom_site_label
_atom_site_fract_x
_atom_site_fract_y
_atom_site_fract_z
Si Si1 0.331989 0.408253 0.483182
Si Si2 0.886263 0.301358 0.563648
Si Si3 0.410597 0.452514 0.867031
Si Si4 0.195019 0.833921 0.309351
O O1 0.345150 0.438434 0.590604
O O2 0.238249 0.476958 0.426654
O O3 0.623912 0.384434 0.411408
O O4 0.169877 0.330025 0.493457
O O5 0.750000 0.250000 0.500000
O O6 0.754042 0.377832 0.611383
O O7 0.879690 0.252742 0.661146
O O8 0.500000 0.472030 0.750000
O O9 0.500000 0.844796 0.250000
O O10 0.000000 0.861924 0.250000
#
# Coordination Sequence:
#
# PCOD8154384 Si02
#       4
#     8   8   8   8
#     4  11  26  49  73 109 151 203 252 320 379 463
#     4  12  25  46  76 108 152 200 253 321 383 454
#     4  11  26  47  73 109 151 200 258 312 389 456
#     4  12  27  46  80 115 154 200 256 310 386 461
#
# _framework density 25.053045999999998
#
# number of rings (size 3 to 8) (size 9 to 14) (size 15 to 20)
#    0.000    0.500    2.500    4.500    7.000    0.000 
#    9.000    0.000    0.000    0.000    0.000    0.000 
#    0.000    0.000    0.000    0.000    0.000    0.000 
#
# Total GULP energy -198263.734117 kJ/mol
# GULP energy per Si atom -12391.483382 kJ/mol
# Density = 2.499602 g / cm^3
# Si number density = 25.053046 Si / 1000 Ang^3
#
#
#
# Elastic Constant Matrix: (Units=GPa)
#
#
# Indices 1 2 3 4 5 6 
#
# 1 121.8673 26.3180 67.1858 0.0000 -9.7660 0.0000
# 2 26.3180 127.0461 38.6436 0.0000 -3.1941 0.0000
# 3 67.1858 38.6436 157.8488 0.0000 9.0532 0.0000
# 4 0.0000 0.0000 0.0000 49.5423 0.0000 -1.8459
# 5 -9.7660 -3.1941 9.0532 0.0000 35.3709 0.0000
# 6 0.0000 0.0000 0.0000 -1.8459 0.0000 54.7555
#
#
#
# Elastic Compliance Matrix: (Units=1/GPa)
#
#
# Indices 1 2 3 4 5 6 
#
# 1 0.011437 -0.000760 -0.004932 0.000000 0.004352 0.000000
# 2 -0.000760 0.008616 -0.001846 0.000000 0.001041 0.000000
# 3 -0.004932 -0.001846 0.009107 0.000000 -0.003859 0.000000
# 4 0.000000 0.000000 0.000000 0.020210 0.000000 0.000681
# 5 0.004352 0.001041 -0.003859 0.000000 0.030555 0.000000
# 6 0.000000 0.000000 0.000000 0.000681 0.000000 0.018286
#
#
# Mechanical properties :
#
#
# Convention : Reuss Voigt Hill
#
# Bulk Modulus (GPa) = 70.98922 74.56186 72.77554
# Shear Modulus (GPa) = 42.37943 46.24141 44.31042
#
# Velocity S-wave (km/s) = 4.11735 4.30087 4.21011
# Velocity P-wave (km/s) = 7.14147 7.38170 7.26258
#
# Compressibility (1/GPa) = 0.01408665
#
# Stress axis : x y z
#
# Youngs Moduli (GPa) = 87.43331 116.06170 109.80028
#
# Poissons Ratio (x) = 0.08818 0.54150
# Poissons Ratio (y) = 0.06643 0.20265
# Poissons Ratio (z) = 0.43119 0.21421
#
# Static dielectric constant tensor:
#      x y z
#    x 4.460710 0.000000 -0.126800 
#    y 0.000000 5.266900 0.000000 
#    z -0.126800 0.000000 5.099240 
# 
# 
# High freq. dielectric constant tensor:
#      x y z
#    x 1.969720 0.000000 0.002700 
#    y 0.000000 2.036110 0.000000 
#    z 0.002700 0.000000 2.004760 
# 
# From -- ./inp_files/128297.got.cif
#   From: 2010.06.25/outbox.cif.g09.slc.cpg/sg15_65_cif.got.tgz:128297.got - 2010.06.28 07:06:18.
