data_PCOD8154897
_publ_section_title
;
Structure prediction by ZEFSAII (Michael W. Deem and Ramdas Pophale) SiO2 
 PCOD8154897
Probable space group: C 2/C
;
_chemical_formula_sum "Si O2"
_cell_formula_units_Z 36
_cell_length_a 7.958123
_cell_length_b 14.601867
_cell_length_c 22.845915
_cell_angle_alpha 90.000000
_cell_angle_beta 147.241789
_cell_angle_gamma 90.000000
_cell_volume 1436.485044
_symmetry_space_group_name_H-M "C 2/C"
_symmetry_group_IT_number 15
_symmetry_cell_setting 'monoclinic'
loop_
_space_group_symop_operation_xyz
x,y,z
-x,y,1/2-z
-x,-y,-z
x,-y,1/2+z
1/2+x,1/2+y,z
1/2-x,1/2+y,1/2-z
1/2-x,1/2-y,-z
1/2+x,1/2-y,1/2+z
loop_
_atom_site_type_symbol
_atom_site_label
_atom_site_fract_x
_atom_site_fract_y
_atom_site_fract_z
Si Si1 0.672384 0.760059 0.410275
Si Si2 0.120560 0.889841 0.221995
Si Si3 0.830170 0.905234 0.950407
Si Si4 0.028973 0.401590 0.979440
Si Si5 0.500000 0.970783 0.750000
O O1 0.750000 0.750000 0.500000
O O2 0.335394 0.800894 0.296688
O O3 0.931789 0.827466 0.459913
O O4 0.718683 0.659077 0.396698
O O5 0.299516 0.967211 0.236489
O O6 0.000000 0.928368 0.250000
O O7 0.828051 0.854120 0.098234
O O8 0.700117 0.898070 0.846293
O O9 0.560101 0.910295 0.919175
O O10 0.000000 0.000000 0.000000
O O11 0.000000 0.500000 0.000000
#
# Coordination Sequence:
#
# PCOD8154897 Si02
#       5
#     8   8   8   8   4
#     4  12  26  47  75 118 161 202 266 326 396 475
#     4  12  24  46  79 115 156 212 260 324 395 481
#     4  12  24  47  76 112 157 208 253 335 395 469
#     4  12  26  50  81 113 161 208 266 329 398 475
#     4  12  26  46  80 114 158 208 270 314 412 472
#
# _framework density 25.061174000000001
#
# number of rings (size 3 to 8) (size 9 to 14) (size 15 to 20)
#    0.000    0.000    6.667    3.333    0.000    1.778 
#    0.000    2.222    2.444    0.000    0.000    0.000 
#    0.000    0.000    0.000    0.000    0.000    0.000 
#
# Total GULP energy -223137.140733 kJ/mol
# GULP energy per Si atom -12396.507819 kJ/mol
# Density = 2.500413 g / cm^3
# Si number density = 25.061174 Si / 1000 Ang^3
#
#
#
# Elastic Constant Matrix: (Units=GPa)
#
#
# Indices 1 2 3 4 5 6 
#
# 1 183.8384 42.9979 25.1734 -0.0018 -8.5422 -0.0015
# 2 42.9979 123.6935 26.5262 -0.0020 11.7484 -0.0019
# 3 25.1734 26.5262 133.9886 -0.0013 -11.6536 -0.0020
# 4 -0.0018 -0.0020 -0.0013 42.0762 -0.0019 -0.3373
# 5 -8.5422 11.7484 -11.6536 -0.0019 41.5091 -0.0013
# 6 -0.0015 -0.0019 -0.0020 -0.3373 -0.0013 39.5384
#
#
#
# Elastic Compliance Matrix: (Units=1/GPa)
#
#
# Indices 1 2 3 4 5 6 
#
# 1 0.006102 -0.002161 -0.000570 0.000000 0.001707 0.000000
# 2 -0.002161 0.009571 -0.001807 0.000000 -0.003661 0.000000
# 3 -0.000570 -0.001807 0.008162 0.000000 0.002686 0.000000
# 4 0.000000 0.000000 0.000000 0.023768 0.000001 0.000203
# 5 0.001707 -0.003661 0.002686 0.000001 0.026233 0.000001
# 6 0.000000 0.000000 0.000000 0.000203 0.000001 0.025294
#
#
# Mechanical properties :
#
#
# Convention : Reuss Voigt Hill
#
# Bulk Modulus (GPa) = 67.75896 70.10173 68.93035
# Shear Modulus (GPa) = 44.19847 47.74626 45.97236
#
# Velocity S-wave (km/s) = 4.20411 4.36958 4.28764
# Velocity P-wave (km/s) = 7.11773 7.31373 7.21640
#
# Compressibility (1/GPa) = 0.01475819
#
# Stress axis : x y z
#
# Youngs Moduli (GPa) = 163.86835 104.48163 122.52207
#
# Poissons Ratio (x) = 0.22581 0.06985
# Poissons Ratio (y) = 0.35416 0.22142
# Poissons Ratio (z) = 0.09343 0.18882
#
# Static dielectric constant tensor:
#      x y z
#    x 4.744820 0.000000 0.121270 
#    y 0.000000 4.241880 0.000000 
#    z 0.121270 0.000000 4.714570 
# 
# 
# High freq. dielectric constant tensor:
#      x y z
#    x 2.021130 0.000000 -0.004320 
#    y 0.000000 1.991380 0.000000 
#    z -0.004320 0.000000 1.998340 
# 
# From -- ./inp_files/289168.got.cif
#   From: 2010.06.25/outbox.cif.g09.slc.cpg/sg15_145_cif.got.tgz:289168.got - 2010.06.28 07:06:18.
