data_PCOD8154661
_publ_section_title
;
Structure prediction by ZEFSAII (Michael W. Deem and Ramdas Pophale) SiO2 
 PCOD8154661
Probable space group: C 2/C
;
_chemical_formula_sum "Si O2"
_cell_formula_units_Z 40
_cell_length_a 6.416120
_cell_length_b 15.731530
_cell_length_c 16.848492
_cell_angle_alpha 90.000000
_cell_angle_beta 81.151062
_cell_angle_gamma 90.000000
_cell_volume 1680.367263
_symmetry_space_group_name_H-M "C 2/C"
_symmetry_group_IT_number 15
_symmetry_cell_setting 'monoclinic'
loop_
_space_group_symop_operation_xyz
x,y,z
-x,y,1/2-z
-x,-y,-z
x,-y,1/2+z
1/2+x,1/2+y,z
1/2-x,1/2+y,1/2-z
1/2-x,1/2-y,-z
1/2+x,1/2-y,1/2+z
loop_
_atom_site_type_symbol
_atom_site_label
_atom_site_fract_x
_atom_site_fract_y
_atom_site_fract_z
Si Si1 0.686926 0.138362 0.135491
Si Si2 0.623871 0.577523 0.529266
Si Si3 0.855373 0.493221 0.150363
Si Si4 0.000000 0.900234 0.750000
Si Si5 0.579115 0.696493 0.830100
Si Si6 0.500000 0.150539 0.750000
O O1 0.567199 0.048115 0.152103
O O2 0.846899 0.153955 0.200018
O O3 0.514484 0.211822 0.144353
O O4 0.806976 0.141201 0.044763
O O5 0.500000 0.500000 0.500000
O O6 0.828964 0.537943 0.561079
O O7 0.476398 0.628517 0.599079
O O8 0.643463 0.543055 0.184679
O O9 0.864577 0.407654 0.199797
O O10 0.500000 0.662921 0.750000
O O11 0.834335 0.707346 0.810280
#
# Coordination Sequence:
#
# PCOD8154661 Si02
#       6
#     8   8   8   4   8   4
#     4  12  27  46  76 112 154 195 251 317 383 447
#     4  12  25  49  77 111 153 199 252 315 378 453
#     4  12  23  46  77 108 146 200 257 309 373 451
#     4  12  22  45  78 107 148 198 258 306 377 446
#     4  12  27  49  73 109 153 197 250 306 382 447
#     4  12  24  47  78 107 148 202 254 310 367 458
#
# _framework density 23.804319
#
# number of rings (size 3 to 8) (size 9 to 14) (size 15 to 20)
#    0.000    0.000    6.000    4.800    0.000    3.200 
#    0.000    2.000    0.000    0.000    0.000    0.000 
#    0.000    0.000    0.000    0.000    0.000    0.000 
#
# Total GULP energy -248043.875720 kJ/mol
# GULP energy per Si atom -12402.193786 kJ/mol
# Density = 2.375014 g / cm^3
# Si number density = 23.804319 Si / 1000 Ang^3
#
#
#
# Elastic Constant Matrix: (Units=GPa)
#
#
# Indices 1 2 3 4 5 6 
#
# 1 126.2804 56.7169 54.2665 0.0000 -12.3938 0.0000
# 2 56.7169 109.7912 60.0236 0.0000 -5.0007 0.0000
# 3 54.2665 60.0236 163.3029 0.0000 -9.7952 0.0000
# 4 0.0000 0.0000 0.0000 40.4991 0.0000 1.7858
# 5 -12.3938 -5.0007 -9.7952 0.0000 53.2382 0.0000
# 6 0.0000 0.0000 0.0000 1.7858 0.0000 17.1413
#
#
#
# Elastic Compliance Matrix: (Units=1/GPa)
#
#
# Indices 1 2 3 4 5 6 
#
# 1 0.010935 -0.004555 -0.001853 0.000000 0.001777 0.000000
# 2 -0.004555 0.013301 -0.003401 0.000000 -0.000437 0.000000
# 3 -0.001853 -0.003401 0.008033 0.000000 0.000727 0.000000
# 4 0.000000 0.000000 0.000000 0.024806 0.000000 -0.002584
# 5 0.001777 -0.000437 0.000727 0.000000 0.019290 0.000000
# 6 0.000000 0.000000 0.000000 -0.002584 0.000000 0.058608
#
#
# Mechanical properties :
#
#
# Convention : Reuss Voigt Hill
#
# Bulk Modulus (GPa) = 79.04843 82.37651 80.71247
# Shear Modulus (GPa) = 31.48425 37.40020 34.44223
#
# Velocity S-wave (km/s) = 3.64074 3.96808 3.80793
# Velocity P-wave (km/s) = 7.13814 7.46157 7.30164
#
# Compressibility (1/GPa) = 0.01265047
#
# Stress axis : x y z
#
# Youngs Moduli (GPa) = 91.44557 75.18223 124.48317
#
# Poissons Ratio (x) = 0.34247 0.23067
# Poissons Ratio (y) = 0.41655 0.42342
# Poissons Ratio (z) = 0.16945 0.25573
#
# Static dielectric constant tensor:
#      x y z
#    x 4.532850 0.000000 -0.302320 
#    y 0.000000 4.070290 0.000000 
#    z -0.302320 0.000000 4.519160 
# 
# 
# High freq. dielectric constant tensor:
#      x y z
#    x 1.954410 0.000000 -0.004240 
#    y 0.000000 1.942370 0.000000 
#    z -0.004240 0.000000 1.952330 
# 
# From -- ./inp_files/184280.got.cif
#   From: 2010.06.25/outbox.cif.g09.slc.cpg/sg15_93_cif.got.tgz:184280.got - 2010.06.28 07:06:18.
