data_PCOD8154381
_publ_section_title
;
Structure prediction by ZEFSAII (Michael W. Deem and Ramdas Pophale) SiO2 
 PCOD8154381
Probable space group: C 2/C
;
_chemical_formula_sum "Si O2"
_cell_formula_units_Z 44
_cell_length_a 28.675679
_cell_length_b 11.489363
_cell_length_c 8.981673
_cell_angle_alpha 90.000000
_cell_angle_beta 135.840979
_cell_angle_gamma 90.000000
_cell_volume 2061.497911
_symmetry_space_group_name_H-M "C 2/C"
_symmetry_group_IT_number 15
_symmetry_cell_setting 'monoclinic'
loop_
_space_group_symop_operation_xyz
x,y,z
-x,y,1/2-z
-x,-y,-z
x,-y,1/2+z
1/2+x,1/2+y,z
1/2-x,1/2+y,1/2-z
1/2-x,1/2-y,-z
1/2+x,1/2-y,1/2+z
loop_
_atom_site_type_symbol
_atom_site_label
_atom_site_fract_x
_atom_site_fract_y
_atom_site_fract_z
Si Si1 0.000000 0.892097 0.250000
Si Si2 0.449329 0.040344 0.504774
Si Si3 0.190628 0.130872 0.457948
Si Si4 0.592012 0.735179 0.754329
Si Si5 0.872152 0.040360 0.889089
Si Si6 0.159246 0.337778 0.188045
O O1 0.978860 0.809467 0.340725
O O2 0.057847 0.974541 0.441839
O O3 0.411750 0.153072 0.358988
O O4 0.500000 0.000000 0.500000
O O5 0.394220 0.942242 0.417692
O O6 0.500000 0.075729 0.750000
O O7 0.144262 0.091599 0.487566
O O8 0.167207 0.261608 0.357780
O O9 0.267165 0.116548 0.684556
O O10 0.183115 0.050176 0.295053
O O11 0.626085 0.638763 0.731574
O O12 0.638212 0.756664 0.003076
#
# Coordination Sequence:
#
# PCOD8154381 Si02
#       6
#     4   8   8   8   8   8
#     4  12  24  46  72 104 146 174 238 304 356 408
#     4  12  27  45  71 103 140 189 235 286 357 422
#     4  11  26  47  73 104 143 189 241 289 359 418
#     4  12  26  45  73 104 141 187 233 300 356 419
#     4  12  26  44  74 107 138 186 240 297 358 420
#     4  11  26  50  70 101 150 190 234 297 345 430
#
# _framework density 21.343703000000001
#
# number of rings (size 3 to 8) (size 9 to 14) (size 15 to 20)
#    0.000    0.364    5.455    1.636    6.364    0.727 
#    3.273    0.000    0.000    0.000    0.000    0.000 
#    0.000    0.000    0.000    0.000    0.000    0.000 
#
# Total GULP energy -272760.200223 kJ/mol
# GULP energy per Si atom -12398.190919 kJ/mol
# Density = 2.129512 g / cm^3
# Si number density = 21.343703 Si / 1000 Ang^3
#
#
#
# Elastic Constant Matrix: (Units=GPa)
#
#
# Indices 1 2 3 4 5 6 
#
# 1 72.7648 43.4578 58.3919 0.0000 -4.0069 0.0000
# 2 43.4578 111.5795 44.4335 0.0000 5.1506 0.0000
# 3 58.3919 44.4335 126.6984 0.0000 10.2105 0.0000
# 4 0.0000 0.0000 0.0000 40.0548 0.0000 -15.0316
# 5 -4.0069 5.1506 10.2105 0.0000 38.9372 0.0000
# 6 0.0000 0.0000 0.0000 -15.0316 0.0000 36.0546
#
#
#
# Elastic Compliance Matrix: (Units=1/GPa)
#
#
# Indices 1 2 3 4 5 6 
#
# 1 0.026189 -0.006371 -0.010339 0.000000 0.006249 0.000000
# 2 -0.006371 0.011974 -0.001106 0.000000 -0.001950 0.000000
# 3 -0.010339 -0.001106 0.013403 0.000000 -0.004432 0.000000
# 4 0.000000 0.000000 0.000000 0.029596 0.000000 0.012339
# 5 0.006249 -0.001950 -0.004432 0.000000 0.027746 0.000000
# 6 0.000000 0.000000 0.000000 0.012339 0.000000 0.032880
#
#
# Mechanical properties :
#
#
# Convention : Reuss Voigt Hill
#
# Bulk Modulus (GPa) = 62.76076 67.06768 64.91422
# Shear Modulus (GPa) = 27.36260 33.99327 30.67794
#
# Velocity S-wave (km/s) = 3.58439 3.99514 3.79533
# Velocity P-wave (km/s) = 6.82635 7.26447 7.04881
#
# Compressibility (1/GPa) = 0.01593352
#
# Stress axis : x y z
#
# Youngs Moduli (GPa) = 38.18405 83.51372 74.61164
#
# Poissons Ratio (x) = 0.53209 0.77141
# Poissons Ratio (y) = 0.24328 0.08251
# Poissons Ratio (z) = 0.39478 0.09236
#
# Static dielectric constant tensor:
#      x y z
#    x 3.789810 0.000000 -0.049250 
#    y 0.000000 3.952290 0.000000 
#    z -0.049250 0.000000 4.074170 
# 
# 
# High freq. dielectric constant tensor:
#      x y z
#    x 1.834520 0.000000 -0.005830 
#    y 0.000000 1.852750 0.000000 
#    z -0.005830 0.000000 1.854500 
# 
# From -- ./inp_files/54340.got.cif
#   From: 2010.06.25/outbox.cif.g09.slc.cpg/sg15_28_cif.got.tgz:54340.got - 2010.06.28 07:06:18.
