data_PCOD8154029
_publ_section_title
;
Structure prediction by ZEFSAII (Michael W. Deem and Ramdas Pophale) SiO2 
 PCOD8154029
Probable space group: C 2/C
;
_chemical_formula_sum "Si O2"
_cell_formula_units_Z 40
_cell_length_a 23.678183
_cell_length_b 8.491063
_cell_length_c 14.624753
_cell_angle_alpha 90.000000
_cell_angle_beta 145.327993
_cell_angle_gamma 90.000000
_cell_volume 1672.699577
_symmetry_space_group_name_H-M "C 2/C"
_symmetry_group_IT_number 15
_symmetry_cell_setting 'monoclinic'
loop_
_space_group_symop_operation_xyz
x,y,z
-x,y,1/2-z
-x,-y,-z
x,-y,1/2+z
1/2+x,1/2+y,z
1/2-x,1/2+y,1/2-z
1/2-x,1/2-y,-z
1/2+x,1/2-y,1/2+z
loop_
_atom_site_type_symbol
_atom_site_label
_atom_site_fract_x
_atom_site_fract_y
_atom_site_fract_z
Si Si1 0.676434 0.113053 0.368971
Si Si2 0.514221 0.277272 0.455017
Si Si3 0.594074 0.601010 0.514160
Si Si4 0.310598 0.957497 0.302446
Si Si5 0.106236 0.618546 0.917748
O O1 0.750000 0.250000 0.500000
O O2 0.564070 0.178342 0.209509
O O3 0.715184 0.045738 0.325638
O O4 0.680986 0.963537 0.445460
O O5 0.543364 0.430498 0.434477
O O6 0.471502 0.308507 0.498444
O O7 0.616913 0.189428 0.613937
O O8 0.705150 0.593440 0.703862
O O9 0.600093 0.690274 0.422119
O O10 0.365026 0.076545 0.441318
O O11 0.000000 0.549753 0.750000
#
# Coordination Sequence:
#
# PCOD8154029 Si02
#       5
#     8   8   8   8   8
#     4  12  27  45  80 116 156 206 263 314 396 473
#     4  11  24  49  75 111 155 204 256 324 384 462
#     4  11  26  45  78 111 152 203 262 319 388 454
#     4  12  25  50  78 108 155 206 253 320 388 464
#     4  12  25  45  74 110 149 203 255 315 390 452
#
# _framework density 23.913440999999999
#
# number of rings (size 3 to 8) (size 9 to 14) (size 15 to 20)
#    0.000    0.400    4.000    4.200    2.800    4.000 
#    0.000    0.000    0.000    0.000    0.000    0.000 
#    0.000    0.000    0.000    0.000    0.000    0.000 
#
# Total GULP energy -247877.198041 kJ/mol
# GULP energy per Si atom -12393.859902 kJ/mol
# Density = 2.385901 g / cm^3
# Si number density = 23.913441 Si / 1000 Ang^3
#
#
#
# Elastic Constant Matrix: (Units=GPa)
#
#
# Indices 1 2 3 4 5 6 
#
# 1 78.9326 27.3780 28.2230 0.0000 1.1895 0.0000
# 2 27.3780 75.4160 20.8269 0.0000 -7.3699 0.0000
# 3 28.2230 20.8269 81.3078 0.0000 0.1543 0.0000
# 4 0.0000 0.0000 0.0000 38.9361 0.0000 4.7921
# 5 1.1895 -7.3699 0.1543 0.0000 49.8769 0.0000
# 6 0.0000 0.0000 0.0000 4.7921 0.0000 53.0687
#
#
#
# Elastic Compliance Matrix: (Units=1/GPa)
#
#
# Indices 1 2 3 4 5 6 
#
# 1 0.015841 -0.004666 -0.004302 0.000000 -0.001054 0.000000
# 2 -0.004666 0.015871 -0.002450 0.000000 0.002464 0.000000
# 3 -0.004302 -0.002450 0.014420 0.000000 -0.000304 0.000000
# 4 0.000000 0.000000 0.000000 0.025972 0.000000 -0.002345
# 5 -0.001054 0.002464 -0.000304 0.000000 0.020440 0.000000
# 6 0.000000 0.000000 0.000000 -0.002345 0.000000 0.019055
#
#
# Mechanical properties :
#
#
# Convention : Reuss Voigt Hill
#
# Bulk Modulus (GPa) = 42.92403 43.16801 43.04602
# Shear Modulus (GPa) = 35.16152 38.99157 37.07655
#
# Velocity S-wave (km/s) = 3.83870 4.04236 3.94184
# Velocity P-wave (km/s) = 6.13483 6.31495 6.22554
#
# Compressibility (1/GPa) = 0.02329697
#
# Stress axis : x y z
#
# Youngs Moduli (GPa) = 63.12590 63.00743 69.34657
#
# Poissons Ratio (x) = 0.29399 0.29830
# Poissons Ratio (y) = 0.29454 0.16993
# Poissons Ratio (z) = 0.27154 0.15440
#
# Static dielectric constant tensor:
#      x y z
#    x 4.185120 0.000000 0.151140 
#    y 0.000000 4.563810 0.000000 
#    z 0.151140 0.000000 4.390950 
# 
# 
# High freq. dielectric constant tensor:
#      x y z
#    x 1.942000 0.000000 0.010970 
#    y 0.000000 1.963580 0.000000 
#    z 0.010970 0.000000 1.950800 
# 
# From -- ./inp_files/172152.got.cif
#   From: 2010.06.25/outbox.cif.g09.slc.cpg/sg15_87_cif.got.tgz:172152.got - 2010.06.28 07:06:18.
