data_PCOD8154973
_publ_section_title
;
Structure prediction by ZEFSAII (Michael W. Deem and Ramdas Pophale) SiO2 
 PCOD8154973
Probable space group: C 2/C
;
_chemical_formula_sum "Si O2"
_cell_formula_units_Z 48
_cell_length_a 25.909722
_cell_length_b 9.197647
_cell_length_c 13.651306
_cell_angle_alpha 90.000000
_cell_angle_beta 140.763205
_cell_angle_gamma 90.000000
_cell_volume 2057.750183
_symmetry_space_group_name_H-M "C 2/C"
_symmetry_group_IT_number 15
_symmetry_cell_setting 'monoclinic'
loop_
_space_group_symop_operation_xyz
x,y,z
-x,y,1/2-z
-x,-y,-z
x,-y,1/2+z
1/2+x,1/2+y,z
1/2-x,1/2+y,1/2-z
1/2-x,1/2-y,-z
1/2+x,1/2-y,1/2+z
loop_
_atom_site_type_symbol
_atom_site_label
_atom_site_fract_x
_atom_site_fract_y
_atom_site_fract_z
Si Si1 0.199633 0.581366 0.593710
Si Si2 0.567076 0.244225 0.676613
Si Si3 0.309650 0.981245 0.636495
Si Si4 0.344268 0.628257 0.372628
Si Si5 0.616014 0.844941 0.571621
Si Si6 0.359701 0.402036 0.540806
O O1 0.194859 0.608483 0.470826
O O2 0.277897 0.483509 0.733267
O O3 0.202986 0.732463 0.655610
O O4 0.119216 0.495593 0.514859
O O5 0.590274 0.332735 0.613607
O O6 0.474928 0.193006 0.530409
O O7 0.621236 0.102568 0.770700
O O8 0.575155 0.349789 0.782641
O O9 0.226500 0.067634 0.534086
O O10 0.329442 0.864194 0.749953
O O11 0.391313 0.547336 0.531458
O O12 0.655324 0.720957 0.562616
#
# Coordination Sequence:
#
# PCOD8154973 Si02
#       6
#     8   8   8   8   8   8
#     4  12  25  45  75 113 143 198 252 314 364 455
#     4  12  25  47  74 107 156 197 243 311 392 437
#     4  12  25  43  77 111 142 197 256 307 366 453
#     4  12  26  46  76 108 153 187 260 308 373 445
#     4  12  26  46  76 107 149 197 246 306 383 446
#     4  12  26  46  75 109 147 205 244 309 377 452
#
# _framework density 23.326449
#
# number of rings (size 3 to 8) (size 9 to 14) (size 15 to 20)
#    0.000    0.000    6.667    3.500    0.000    2.667 
#    0.000    1.667    0.000    0.000    0.000    0.000 
#    0.000    0.000    0.000    0.000    0.000    0.000 
#
# Total GULP energy -297647.808772 kJ/mol
# GULP energy per Si atom -12401.992032 kJ/mol
# Density = 2.327336 g / cm^3
# Si number density = 23.326449 Si / 1000 Ang^3
#
#
#
# Elastic Constant Matrix: (Units=GPa)
#
#
# Indices 1 2 3 4 5 6 
#
# 1 121.8412 24.6244 46.2789 0.0000 -39.4564 0.0000
# 2 24.6244 71.4552 23.4952 0.0000 -18.8644 0.0000
# 3 46.2789 23.4952 53.5136 0.0000 -8.9527 0.0000
# 4 0.0000 0.0000 0.0000 33.6394 0.0000 -11.9406
# 5 -39.4564 -18.8644 -8.9527 0.0000 37.2154 0.0000
# 6 0.0000 0.0000 0.0000 -11.9406 0.0000 40.5974
#
#
#
# Elastic Compliance Matrix: (Units=1/GPa)
#
#
# Indices 1 2 3 4 5 6 
#
# 1 0.019157 0.003125 -0.014875 0.000000 0.018317 0.000000
# 2 0.003125 0.018726 -0.009150 0.000000 0.010604 0.000000
# 3 -0.014875 -0.009150 0.033502 0.000000 -0.012350 0.000000
# 4 0.000000 0.000000 0.000000 0.033192 0.000000 0.009763
# 5 0.018317 0.010604 -0.012350 0.000000 0.048695 0.000000
# 6 0.000000 0.000000 0.000000 0.009763 0.000000 0.027504
#
#
# Mechanical properties :
#
#
# Convention : Reuss Voigt Hill
#
# Bulk Modulus (GPa) = 33.80081 48.40076 41.10079
# Shear Modulus (GPa) = 21.51107 32.45121 26.98114
#
# Velocity S-wave (km/s) = 3.04003 3.73389 3.40468
# Velocity P-wave (km/s) = 5.18113 6.27564 5.75447
#
# Compressibility (1/GPa) = 0.02958509
#
# Stress axis : x y z
#
# Youngs Moduli (GPa) = 52.19900 53.40161 29.84875
#
# Poissons Ratio (x) = -0.16687 0.44400
# Poissons Ratio (y) = -0.16311 0.27312
# Poissons Ratio (z) = 0.77647 0.48863
#
# Static dielectric constant tensor:
#      x y z
#    x 4.555080 0.000000 -0.339190 
#    y 0.000000 4.703820 0.000000 
#    z -0.339190 0.000000 4.075860 
# 
# 
# High freq. dielectric constant tensor:
#      x y z
#    x 1.944380 0.000000 -0.014590 
#    y 0.000000 1.930460 0.000000 
#    z -0.014590 0.000000 1.907120 
# 
# From -- ./inp_files/176995.got.cif
#   From: 2010.06.25/outbox.cif.g09.slc.cpg/sg15_89_cif.got.tgz:176995.got - 2010.06.28 07:06:18.
