data_PCOD8154650
_publ_section_title
;
Structure prediction by ZEFSAII (Michael W. Deem and Ramdas Pophale) SiO2 
 PCOD8154650
Probable space group: C 2/C
;
_chemical_formula_sum "Si O2"
_cell_formula_units_Z 44
_cell_length_a 17.715849
_cell_length_b 8.410057
_cell_length_c 14.124887
_cell_angle_alpha 90.000000
_cell_angle_beta 66.969355
_cell_angle_gamma 90.000000
_cell_volume 1936.748827
_symmetry_space_group_name_H-M "C 2/C"
_symmetry_group_IT_number 15
_symmetry_cell_setting 'monoclinic'
loop_
_space_group_symop_operation_xyz
x,y,z
-x,y,1/2-z
-x,-y,-z
x,-y,1/2+z
1/2+x,1/2+y,z
1/2-x,1/2+y,1/2-z
1/2-x,1/2-y,-z
1/2+x,1/2-y,1/2+z
loop_
_atom_site_type_symbol
_atom_site_label
_atom_site_fract_x
_atom_site_fract_y
_atom_site_fract_z
Si Si1 0.403267 0.992066 0.037587
Si Si2 0.000000 0.245197 0.750000
Si Si3 0.080218 0.670518 0.657725
Si Si4 0.154816 0.561915 0.236741
Si Si5 0.303413 0.314621 0.558466
Si Si6 0.050906 0.997247 0.072108
O O1 0.359843 0.084420 0.144703
O O2 0.370774 0.812652 0.059012
O O3 0.383183 0.074786 0.949182
O O4 0.500000 0.000000 0.000000
O O5 0.083987 0.345352 0.713020
O O6 0.006522 0.139431 0.653075
O O7 0.149664 0.625358 0.703332
O O8 0.056522 0.846632 0.635741
O O9 0.000000 0.599666 0.750000
O O10 0.244083 0.635594 0.173398
O O11 0.250000 0.250000 0.500000
O O12 0.354211 0.466221 0.498228
O O13 0.000000 0.000000 0.000000
#
# Coordination Sequence:
#
# PCOD8154650 Si02
#       6
#     8   4   8   8   8   8
#     4  12  24  46  78 107 144 202 253 293 375 461
#     4  12  22  44  74 104 148 196 242 312 372 432
#     4  12  23  43  72 108 140 190 249 306 364 440
#     4  12  25  45  76 107 149 196 247 308 381 446
#     4  12  26  50  71 108 151 191 242 313 378 437
#     4  12  27  44  72 106 147 192 254 305 371 440
#
# _framework density 22.718484
#
# number of rings (size 3 to 8) (size 9 to 14) (size 15 to 20)
#    0.000    0.000    7.273    3.273    0.000    3.636 
#    3.273    0.000    0.000    0.000    0.000    0.000 
#    0.000    0.000    0.000    0.000    0.000    0.000 
#
# Total GULP energy -272573.448209 kJ/mol
# GULP energy per Si atom -12389.702191 kJ/mol
# Density = 2.266678 g / cm^3
# Si number density = 22.718484 Si / 1000 Ang^3
#
#
#
# Elastic Constant Matrix: (Units=GPa)
#
#
# Indices 1 2 3 4 5 6 
#
# 1 91.7887 35.2569 53.8121 0.0000 -17.7513 0.0000
# 2 35.2569 90.5777 41.3108 0.0000 -5.4681 0.0000
# 3 53.8121 41.3108 192.2689 0.0000 -9.8363 0.0000
# 4 0.0000 0.0000 0.0000 39.0120 0.0000 -0.9607
# 5 -17.7513 -5.4681 -9.8363 0.0000 43.7836 0.0000
# 6 0.0000 0.0000 0.0000 -0.9607 0.0000 37.5070
#
#
#
# Elastic Compliance Matrix: (Units=1/GPa)
#
#
# Indices 1 2 3 4 5 6 
#
# 1 0.015315 -0.004237 -0.003121 0.000000 0.004979 0.000000
# 2 -0.004237 0.013451 -0.001726 0.000000 -0.000426 0.000000
# 3 -0.003121 -0.001726 0.006444 0.000000 -0.000033 0.000000
# 4 0.000000 0.000000 0.000000 0.025649 0.000000 0.000657
# 5 0.004979 -0.000426 -0.000033 0.000000 0.024798 0.000000
# 6 0.000000 0.000000 0.000000 0.000657 0.000000 0.026679
#
#
# Mechanical properties :
#
#
# Convention : Reuss Voigt Hill
#
# Bulk Modulus (GPa) = 58.68217 70.59945 64.64081
# Shear Modulus (GPa) = 36.71508 40.34422 38.52965
#
# Velocity S-wave (km/s) = 4.02442 4.21863 4.12267
# Velocity P-wave (km/s) = 6.89063 7.40759 7.15378
#
# Compressibility (1/GPa) = 0.01704095
#
# Stress axis : x y z
#
# Youngs Moduli (GPa) = 65.29629 74.34392 155.18927
#
# Poissons Ratio (x) = 0.31500 0.48438
# Poissons Ratio (y) = 0.27667 0.26785
# Poissons Ratio (z) = 0.20380 0.12832
#
# Static dielectric constant tensor:
#      x y z
#    x 4.422990 0.000000 0.771280 
#    y 0.000000 4.321860 0.000000 
#    z 0.771280 0.000000 5.880320 
# 
# 
# High freq. dielectric constant tensor:
#      x y z
#    x 1.878540 0.000000 -0.001250 
#    y 0.000000 1.892400 0.000000 
#    z -0.001250 0.000000 1.930170 
# 
# From -- ./inp_files/159224.got.cif
#   From: 2010.06.25/outbox.cif.g09.slc.cpg/sg15_80_cif.got.tgz:159224.got - 2010.06.28 07:06:18.
