data_PCOD8154101
_publ_section_title
;
Structure prediction by ZEFSAII (Michael W. Deem and Ramdas Pophale) SiO2 
 PCOD8154101
Probable space group: C 2/C
;
_chemical_formula_sum "Si O2"
_cell_formula_units_Z 44
_cell_length_a 6.536231
_cell_length_b 16.174857
_cell_length_c 23.259934
_cell_angle_alpha 90.000000
_cell_angle_beta 123.241790
_cell_angle_gamma 90.000000
_cell_volume 2056.705084
_symmetry_space_group_name_H-M "C 2/C"
_symmetry_group_IT_number 15
_symmetry_cell_setting 'monoclinic'
loop_
_space_group_symop_operation_xyz
x,y,z
-x,y,1/2-z
-x,-y,-z
x,-y,1/2+z
1/2+x,1/2+y,z
1/2-x,1/2+y,1/2-z
1/2-x,1/2-y,-z
1/2+x,1/2-y,1/2+z
loop_
_atom_site_type_symbol
_atom_site_label
_atom_site_fract_x
_atom_site_fract_y
_atom_site_fract_z
Si Si1 0.039001 0.071846 0.692233
Si Si2 0.000000 0.534656 0.250000
Si Si3 0.400134 0.290639 0.573322
Si Si4 0.720467 0.781389 0.325901
Si Si5 0.143128 0.455116 0.572488
Si Si6 0.091752 0.356485 0.868536
O O1 0.089939 0.142385 0.652047
O O2 0.000000 0.110788 0.750000
O O3 0.279070 0.017812 0.741005
O O4 0.810111 0.018449 0.634496
O O5 0.124235 0.589908 0.317308
O O6 0.250000 0.250000 0.500000
O O7 0.377289 0.228805 0.624208
O O8 0.310850 0.383001 0.572501
O O9 0.676412 0.295631 0.592123
O O10 0.500000 0.801357 0.250000
O O11 0.845578 0.696721 0.325545
O O12 0.000000 0.500000 0.500000
O O13 0.931667 0.416140 0.580049
#
# Coordination Sequence:
#
# PCOD8154101 Si02
#       6
#     8   4   8   8   8   8
#     4  12  26  44  68 107 138 177 234 291 346 414
#     4  12  22  44  70  98 134 174 232 282 350 400
#     4  11  27  46  68 100 138 186 231 279 348 419
#     4  11  27  43  69 104 136 180 231 280 346 413
#     4  11  27  45  69 100 138 182 232 284 348 419
#     4  11  25  44  71  96 139 183 223 291 339 412
#
# _framework density 21.393440999999999
#
# number of rings (size 3 to 8) (size 9 to 14) (size 15 to 20)
#    0.000    0.727    4.545    1.091   11.455    3.636 
#    0.000    0.000    0.000    0.000    0.000    0.000 
#    0.000    0.000    0.000    0.000    0.000    0.000 
#
# Total GULP energy -272851.115075 kJ/mol
# GULP energy per Si atom -12402.323413 kJ/mol
# Density = 2.134475 g / cm^3
# Si number density = 21.393441 Si / 1000 Ang^3
#
#
#
# Elastic Constant Matrix: (Units=GPa)
#
#
# Indices 1 2 3 4 5 6 
#
# 1 129.7779 40.0721 53.4466 0.0000 -7.9572 0.0000
# 2 40.0721 96.3227 45.1081 0.0000 -11.5688 0.0000
# 3 53.4466 45.1081 128.2864 0.0000 -10.6963 0.0000
# 4 0.0000 0.0000 0.0000 44.2655 0.0000 -3.2691
# 5 -7.9572 -11.5688 -10.6963 0.0000 31.9292 0.0000
# 6 0.0000 0.0000 0.0000 -3.2691 0.0000 44.0482
#
#
#
# Elastic Compliance Matrix: (Units=1/GPa)
#
#
# Indices 1 2 3 4 5 6 
#
# 1 0.009822 -0.002552 -0.003156 0.000000 0.000466 0.000000
# 2 -0.002552 0.013402 -0.003392 0.000000 0.003084 0.000000
# 3 -0.003156 -0.003392 0.010426 0.000000 0.001477 0.000000
# 4 0.000000 0.000000 0.000000 0.022715 0.000000 0.001686
# 5 0.000466 0.003084 0.001477 0.000000 0.033048 0.000000
# 6 0.000000 0.000000 0.000000 0.001686 0.000000 0.022828
#
#
# Mechanical properties :
#
#
# Convention : Reuss Voigt Hill
#
# Bulk Modulus (GPa) = 64.72610 70.18229 67.45419
# Shear Modulus (GPa) = 36.87577 38.43258 37.65417
#
# Velocity S-wave (km/s) = 4.15624 4.24307 4.19988
# Velocity P-wave (km/s) = 7.30433 7.54199 7.42411
#
# Compressibility (1/GPa) = 0.01544972
#
# Stress axis : x y z
#
# Youngs Moduli (GPa) = 101.81536 74.61306 95.91716
#
# Poissons Ratio (x) = 0.19043 0.30268
# Poissons Ratio (y) = 0.25986 0.32537
# Poissons Ratio (z) = 0.32129 0.25310
#
# Static dielectric constant tensor:
#      x y z
#    x 3.663550 0.000000 -0.045500 
#    y 0.000000 4.021860 0.000000 
#    z -0.045500 0.000000 3.733020 
# 
# 
# High freq. dielectric constant tensor:
#      x y z
#    x 1.856490 0.000000 -0.001660 
#    y 0.000000 1.847440 0.000000 
#    z -0.001660 0.000000 1.835780 
# 
# From -- ./inp_files/226962.got.cif
#   From: 2010.06.25/outbox.cif.g09.slc.cpg/sg15_114_cif.got.tgz:226962.got - 2010.06.28 07:06:18.
