data_PCOD8154715
_publ_section_title
;
Structure prediction by ZEFSAII (Michael W. Deem and Ramdas Pophale) SiO2 
 PCOD8154715
Probable space group: C 2/C
;
_chemical_formula_sum "Si O2"
_cell_formula_units_Z 40
_cell_length_a 8.795814
_cell_length_b 28.062041
_cell_length_c 13.259317
_cell_angle_alpha 90.000000
_cell_angle_beta 32.355095
_cell_angle_gamma 90.000000
_cell_volume 1751.475491
_symmetry_space_group_name_H-M "C 2/C"
_symmetry_group_IT_number 15
_symmetry_cell_setting 'monoclinic'
loop_
_space_group_symop_operation_xyz
x,y,z
-x,y,1/2-z
-x,-y,-z
x,-y,1/2+z
1/2+x,1/2+y,z
1/2-x,1/2+y,1/2-z
1/2-x,1/2-y,-z
1/2+x,1/2-y,1/2+z
loop_
_atom_site_type_symbol
_atom_site_label
_atom_site_fract_x
_atom_site_fract_y
_atom_site_fract_z
Si Si1 0.821139 0.952300 0.602755
Si Si2 0.655336 0.198307 0.269379
Si Si3 0.282309 0.106743 0.148316
Si Si4 0.167606 0.885270 0.258770
Si Si5 0.788091 0.791112 0.144281
O O1 0.500000 0.962333 0.750000
O O2 0.812692 0.934340 0.722024
O O3 0.973712 0.914029 0.445614
O O4 0.000000 0.000000 0.500000
O O5 0.500000 0.197266 0.250000
O O6 0.566729 0.151417 0.380567
O O7 0.576989 0.245792 0.374106
O O8 0.992938 0.194687 0.065380
O O9 0.000000 0.123792 0.250000
O O10 0.530340 0.088021 0.933163
O O11 0.253016 0.834092 0.255403
O O12 0.000000 0.878288 0.250000
O O13 0.500000 0.777058 0.250000
#
# Coordination Sequence:
#
# PCOD8154715 Si02
#       5
#     8   8   8   8   8
#     4  12  29  52  78 109 146 186 242 303 365 439
#     4  12  23  43  67 103 150 194 247 298 352 427
#     4  12  26  46  74 108 149 191 244 303 364 431
#     4  12  25  47  74 104 148 194 238 298 367 428
#     4  12  24  40  68 105 149 192 245 300 353 424
#
# _framework density 22.837886999999998
#
# number of rings (size 3 to 8) (size 9 to 14) (size 15 to 20)
#    0.000    0.000    4.000    6.600    2.800    1.600 
#    0.000    0.000    0.000    0.000    0.000    0.000 
#    0.000    0.000    0.000    0.000    0.000    0.000 
#
# Total GULP energy -248099.421822 kJ/mol
# GULP energy per Si atom -12404.971091 kJ/mol
# Density = 2.278591 g / cm^3
# Si number density = 22.837887 Si / 1000 Ang^3
#
#
#
# Elastic Constant Matrix: (Units=GPa)
#
#
# Indices 1 2 3 4 5 6 
#
# 1 69.5759 24.7476 10.7111 0.0000 -21.9571 0.0000
# 2 24.7476 123.3759 23.4671 0.0000 0.2056 0.0000
# 3 10.7111 23.4671 150.3476 0.0000 -6.9256 0.0000
# 4 0.0000 0.0000 0.0000 31.1006 0.0000 -3.7909
# 5 -21.9571 0.2056 -6.9256 0.0000 42.0270 0.0000
# 6 0.0000 0.0000 0.0000 -3.7909 0.0000 28.9649
#
#
#
# Elastic Compliance Matrix: (Units=1/GPa)
#
#
# Indices 1 2 3 4 5 6 
#
# 1 0.018847 -0.003738 -0.000307 0.000000 0.009814 0.000000
# 2 -0.003738 0.009098 -0.001255 0.000000 -0.002204 0.000000
# 3 -0.000307 -0.001255 0.006914 0.000000 0.000985 0.000000
# 4 0.000000 0.000000 0.000000 0.032675 0.000000 0.004276
# 5 0.009814 -0.002204 0.000985 0.000000 0.029095 0.000000
# 6 0.000000 0.000000 0.000000 0.004276 0.000000 0.035084
#
#
# Mechanical properties :
#
#
# Convention : Reuss Voigt Hill
#
# Bulk Modulus (GPa) = 41.22415 51.23901 46.23158
# Shear Modulus (GPa) = 33.24454 39.37674 36.31064
#
# Velocity S-wave (km/s) = 3.81947 4.15684 3.99172
# Velocity P-wave (km/s) = 6.12708 6.74713 6.44456
#
# Compressibility (1/GPa) = 0.02425763
#
# Stress axis : x y z
#
# Youngs Moduli (GPa) = 53.05865 109.91892 144.62506
#
# Poissons Ratio (x) = 0.41092 0.04442
# Poissons Ratio (y) = 0.19836 0.18154
# Poissons Ratio (z) = 0.01629 0.13797
#
# Static dielectric constant tensor:
#      x y z
#    x 4.183340 0.000000 0.169420 
#    y 0.000000 3.976720 0.000000 
#    z 0.169420 0.000000 4.824030 
# 
# 
# High freq. dielectric constant tensor:
#      x y z
#    x 1.910310 0.000000 0.000820 
#    y 0.000000 1.888120 0.000000 
#    z 0.000820 0.000000 1.933430 
# 
# From -- ./inp_files/139702.got.cif
#   From: 2010.06.25/outbox.cif.g09.slc.cpg/sg15_70_cif.got.tgz:139702.got - 2010.06.28 07:06:18.
