data_PCOD8154063
_publ_section_title
;
Structure prediction by ZEFSAII (Michael W. Deem and Ramdas Pophale) SiO2 
 PCOD8154063
Probable space group: C 2/C
;
_chemical_formula_sum "Si O2"
_cell_formula_units_Z 40
_cell_length_a 9.294873
_cell_length_b 10.131994
_cell_length_c 20.414718
_cell_angle_alpha 90.000000
_cell_angle_beta 78.097091
_cell_angle_gamma 90.000000
_cell_volume 1881.230191
_symmetry_space_group_name_H-M "C 2/C"
_symmetry_group_IT_number 15
_symmetry_cell_setting 'monoclinic'
loop_
_space_group_symop_operation_xyz
x,y,z
-x,y,1/2-z
-x,-y,-z
x,-y,1/2+z
1/2+x,1/2+y,z
1/2-x,1/2+y,1/2-z
1/2-x,1/2-y,-z
1/2+x,1/2-y,1/2+z
loop_
_atom_site_type_symbol
_atom_site_label
_atom_site_fract_x
_atom_site_fract_y
_atom_site_fract_z
Si Si1 0.845411 0.589946 0.080620
Si Si2 0.892856 0.696769 0.523454
Si Si3 0.153900 0.326117 0.771879
Si Si4 0.381025 0.529515 0.706304
Si Si5 0.523064 0.432165 0.567710
O O1 0.872073 0.438307 0.062558
O O2 0.849352 0.604610 0.157773
O O3 0.687462 0.620749 0.064437
O O4 0.970016 0.685521 0.039423
O O5 0.750000 0.750000 0.500000
O O6 0.926267 0.800346 0.577559
O O7 0.267226 0.408299 0.716915
O O8 0.198006 0.171413 0.775544
O O9 0.000000 0.335290 0.750000
O O10 0.500000 0.499765 0.750000
O O11 0.465794 0.531778 0.628828
O O12 0.500000 0.500000 0.500000
#
# Coordination Sequence:
#
# PCOD8154063 Si02
#       5
#     8   8   8   8   8
#     4  11  25  45  66 105 139 182 234 289 348 430
#     4  11  25  42  71 101 143 179 230 288 357 417
#     4  11  27  44  72  98 141 183 237 288 355 415
#     4  11  26  47  69 101 140 187 232 290 350 424
#     4  12  24  43  74  98 140 185 231 290 355 414
#
# _framework density 21.262682999999999
#
# number of rings (size 3 to 8) (size 9 to 14) (size 15 to 20)
#    0.000    0.800    4.000    1.800    5.600    2.400 
#    0.000    0.000    0.000    0.000    0.000    0.000 
#    0.000    0.000    0.000    0.000    0.000    0.000 
#
# Total GULP energy -248004.381371 kJ/mol
# GULP energy per Si atom -12400.219069 kJ/mol
# Density = 2.121429 g / cm^3
# Si number density = 21.262683 Si / 1000 Ang^3
#
#
#
# Elastic Constant Matrix: (Units=GPa)
#
#
# Indices 1 2 3 4 5 6 
#
# 1 143.5843 61.4139 53.0507 0.0000 6.2535 0.0000
# 2 61.4139 130.2641 36.6456 0.0000 -2.5632 0.0000
# 3 53.0507 36.6456 125.0026 0.0000 10.4903 0.0000
# 4 0.0000 0.0000 0.0000 29.0876 0.0000 1.2069
# 5 6.2535 -2.5632 10.4903 0.0000 36.4456 0.0000
# 6 0.0000 0.0000 0.0000 1.2069 0.0000 34.6251
#
#
#
# Elastic Compliance Matrix: (Units=1/GPa)
#
#
# Indices 1 2 3 4 5 6 
#
# 1 0.009706 -0.003776 -0.002921 0.000000 -0.001090 0.000000
# 2 -0.003776 0.009899 -0.001447 0.000000 0.001761 0.000000
# 3 -0.002921 -0.001447 0.009869 0.000000 -0.002441 0.000000
# 4 0.000000 0.000000 0.000000 0.034429 0.000000 -0.001200
# 5 -0.001090 0.001761 -0.002441 0.000000 0.028452 0.000000
# 6 0.000000 0.000000 0.000000 -0.001200 0.000000 0.028923
#
#
# Mechanical properties :
#
#
# Convention : Reuss Voigt Hill
#
# Bulk Modulus (GPa) = 75.84005 77.89684 76.86844
# Shear Modulus (GPa) = 35.22137 36.54773 35.88455
#
# Velocity S-wave (km/s) = 4.07441 4.15042 4.11259
# Velocity P-wave (km/s) = 7.60789 7.72548 7.66691
#
# Compressibility (1/GPa) = 0.01318565
#
# Stress axis : x y z
#
# Youngs Moduli (GPa) = 103.02681 101.02443 101.33199
#
# Poissons Ratio (x) = 0.38145 0.29598
# Poissons Ratio (y) = 0.38901 0.14664
# Poissons Ratio (z) = 0.30093 0.14620
#
# Static dielectric constant tensor:
#      x y z
#    x 4.139110 0.000000 -0.054370 
#    y 0.000000 4.190020 0.000000 
#    z -0.054370 0.000000 4.056400 
# 
# 
# High freq. dielectric constant tensor:
#      x y z
#    x 1.842490 0.000000 0.006140 
#    y 0.000000 1.850880 0.000000 
#    z 0.006140 0.000000 1.839030 
# 
# From -- ./inp_files/187771.got.cif
#   From: 2010.06.25/outbox.cif.g09.slc.cpg/sg15_94_cif.got.tgz:187771.got - 2010.06.28 07:06:18.
