data_PCOD8154017
_publ_section_title
;
Structure prediction by ZEFSAII (Michael W. Deem and Ramdas Pophale) SiO2 
 PCOD8154017
Probable space group: C 2/C
;
_chemical_formula_sum "Si O2"
_cell_formula_units_Z 56
_cell_length_a 18.405073
_cell_length_b 8.729593
_cell_length_c 17.854560
_cell_angle_alpha 90.000000
_cell_angle_beta 118.450654
_cell_angle_gamma 90.000000
_cell_volume 2522.214826
_symmetry_space_group_name_H-M "C 2/C"
_symmetry_group_IT_number 15
_symmetry_cell_setting 'monoclinic'
loop_
_space_group_symop_operation_xyz
x,y,z
-x,y,1/2-z
-x,-y,-z
x,-y,1/2+z
1/2+x,1/2+y,z
1/2-x,1/2+y,1/2-z
1/2-x,1/2-y,-z
1/2+x,1/2-y,1/2+z
loop_
_atom_site_type_symbol
_atom_site_label
_atom_site_fract_x
_atom_site_fract_y
_atom_site_fract_z
Si Si1 0.475717 0.830885 0.016514
Si Si2 0.174159 0.326058 0.921028
Si Si3 0.538178 0.334566 0.687533
Si Si4 0.492616 0.326602 0.116231
Si Si5 0.837318 0.722227 0.251938
Si Si6 0.715457 0.444221 0.793779
Si Si7 0.200325 0.622079 0.019734
O O1 0.516301 0.798469 0.117500
O O2 0.508257 0.704584 0.973320
O O3 0.377140 0.806271 0.974010
O O4 0.500000 0.000000 0.000000
O O5 0.191661 0.341795 0.841952
O O6 0.093897 0.222226 0.891449
O O7 0.250000 0.250000 0.000000
O O8 0.161418 0.496941 0.945146
O O9 0.500000 0.296423 0.750000
O O10 0.503073 0.495029 0.639556
O O11 0.637176 0.333945 0.743012
O O12 0.563682 0.223461 0.189930
O O13 0.797391 0.615493 0.294378
O O14 0.804204 0.891845 0.249604
O O15 0.735294 0.457005 0.891720
O O16 0.250000 0.750000 0.000000
#
# Coordination Sequence:
#
# PCOD8154017 Si02
#       7
#     8   8   8   8   8   8   8
#     4  12  26  48  71 107 147 194 244 307 372 448
#     4  12  26  44  75 100 142 187 240 302 364 437
#     4  11  26  47  74 105 147 196 245 301 373 447
#     4  11  24  48  75 106 145 194 247 303 370 448
#     4  11  25  45  71 105 143 189 236 299 366 437
#     4  11  25  45  70 103 143 185 239 295 360 442
#     4  12  27  47  70 107 145 186 243 303 368 435
#
# _framework density 22.202708999999999
#
# number of rings (size 3 to 8) (size 9 to 14) (size 15 to 20)
#    0.000    0.571    4.286    3.429    8.000    0.000 
#    2.571    0.000    0.000    0.000    0.000    0.000 
#    0.000    0.000    0.000    0.000    0.000    0.000 
#
# Total GULP energy -347364.914327 kJ/mol
# GULP energy per Si atom -12405.889797 kJ/mol
# Density = 2.215217 g / cm^3
# Si number density = 22.202709 Si / 1000 Ang^3
#
#
#
# Elastic Constant Matrix: (Units=GPa)
#
#
# Indices 1 2 3 4 5 6 
#
# 1 119.4091 36.9819 37.2400 0.0000 6.6946 0.0000
# 2 36.9819 76.3180 38.6289 0.0000 -6.1149 0.0000
# 3 37.2400 38.6289 143.9144 0.0000 -7.7598 0.0000
# 4 0.0000 0.0000 0.0000 41.6677 0.0000 -3.8804
# 5 6.6946 -6.1149 -7.7598 0.0000 47.6603 0.0000
# 6 0.0000 0.0000 0.0000 -3.8804 0.0000 35.2648
#
#
#
# Elastic Compliance Matrix: (Units=1/GPa)
#
#
# Indices 1 2 3 4 5 6 
#
# 1 0.010368 -0.004382 -0.001630 0.000000 -0.002284 0.000000
# 2 -0.004382 0.017095 -0.003332 0.000000 0.002266 0.000000
# 3 -0.001630 -0.003332 0.008327 0.000000 0.001157 0.000000
# 4 0.000000 0.000000 0.000000 0.024248 0.000000 0.002668
# 5 -0.002284 0.002266 0.001157 0.000000 0.021782 0.000000
# 6 0.000000 0.000000 0.000000 0.002668 0.000000 0.028650
#
#
# Mechanical properties :
#
#
# Convention : Reuss Voigt Hill
#
# Bulk Modulus (GPa) = 58.47481 62.81590 60.64536
# Shear Modulus (GPa) = 37.07560 40.03793 38.55677
#
# Velocity S-wave (km/s) = 4.09084 4.25112 4.17175
# Velocity P-wave (km/s) = 6.97906 7.24220 7.11185
#
# Compressibility (1/GPa) = 0.01710138
#
# Stress axis : x y z
#
# Youngs Moduli (GPa) = 96.44966 58.49708 120.08887
#
# Poissons Ratio (x) = 0.25635 0.19572
# Poissons Ratio (y) = 0.42266 0.40018
# Poissons Ratio (z) = 0.15719 0.19493
#
# Static dielectric constant tensor:
#      x y z
#    x 4.070960 0.000000 -0.020130 
#    y 0.000000 3.860450 0.000000 
#    z -0.020130 0.000000 4.458110 
# 
# 
# High freq. dielectric constant tensor:
#      x y z
#    x 1.886200 0.000000 0.001640 
#    y 0.000000 1.865730 0.000000 
#    z 0.001640 0.000000 1.891300 
# 
# From -- ./inp_files/214034.got.cif
#   From: 2010.06.25/outbox.cif.g09.slc.cpg/sg15_108_cif.got.tgz:214034.got - 2010.06.28 07:06:18.
