data_PCOD8154374
_publ_section_title
;
Structure prediction by ZEFSAII (Michael W. Deem and Ramdas Pophale) SiO2 
 PCOD8154374
Probable space group: C 2/C
;
_chemical_formula_sum "Si O2"
_cell_formula_units_Z 48
_cell_length_a 11.648479
_cell_length_b 9.599022
_cell_length_c 21.234294
_cell_angle_alpha 90.000000
_cell_angle_beta 76.399653
_cell_angle_gamma 90.000000
_cell_volume 2307.715342
_symmetry_space_group_name_H-M "C 2/C"
_symmetry_group_IT_number 15
_symmetry_cell_setting 'monoclinic'
loop_
_space_group_symop_operation_xyz
x,y,z
-x,y,1/2-z
-x,-y,-z
x,-y,1/2+z
1/2+x,1/2+y,z
1/2-x,1/2+y,1/2-z
1/2-x,1/2-y,-z
1/2+x,1/2-y,1/2+z
loop_
_atom_site_type_symbol
_atom_site_label
_atom_site_fract_x
_atom_site_fract_y
_atom_site_fract_z
Si Si1 0.463927 0.600465 0.561321
Si Si2 0.719654 0.979511 0.612974
Si Si3 0.085852 0.621361 0.009160
Si Si4 0.799715 0.313248 0.132079
Si Si5 0.537548 0.197128 0.675478
Si Si6 0.077516 0.995068 0.175919
O O1 0.500000 0.500000 0.500000
O O2 0.323916 0.587043 0.585361
O O3 0.498013 0.754355 0.536912
O O4 0.517994 0.575924 0.623303
O O5 0.665822 0.923228 0.556162
O O6 0.761100 0.847182 0.649452
O O7 0.624351 0.067014 0.663339
O O8 0.182020 0.662656 0.944364
O O9 0.000000 0.500000 0.000000
O O10 0.925594 0.339352 0.147360
O O11 0.702977 0.419704 0.172528
O O12 0.500000 0.219525 0.750000
O O13 0.598082 0.345203 0.650620
O O14 0.000000 0.979745 0.250000
#
# Coordination Sequence:
#
# PCOD8154374 Si02
#       6
#     8   8   8   8   8   8
#     4  12  24  45  73 102 141 183 230 288 352 407
#     4  12  25  43  71 100 138 181 229 286 345 410
#     4  12  25  44  67 107 137 178 231 283 348 414
#     4  12  24  47  70  97 143 177 227 291 342 415
#     4  11  27  45  67 104 135 181 236 282 343 411
#     4  11  26  47  70 102 139 185 233 286 351 413
#
# _framework density 20.799793000000001
#
# number of rings (size 3 to 8) (size 9 to 14) (size 15 to 20)
#    0.000    0.333    6.667    1.500    4.667    1.333 
#    0.000    0.000    0.000    0.000    0.000    0.000 
#    0.000    0.000    0.000    0.000    0.000    0.000 
#
# Total GULP energy -297595.609877 kJ/mol
# GULP energy per Si atom -12399.817078 kJ/mol
# Density = 2.075245 g / cm^3
# Si number density = 20.799793 Si / 1000 Ang^3
#
#
#
# Elastic Constant Matrix: (Units=GPa)
#
#
# Indices 1 2 3 4 5 6 
#
# 1 91.4530 47.7309 7.5132 0.0000 -23.4872 0.0000
# 2 47.7309 136.1144 23.5210 0.0000 -19.4208 0.0000
# 3 7.5132 23.5210 45.8526 0.0000 -3.9615 0.0000
# 4 0.0000 0.0000 0.0000 35.9283 0.0000 -11.6528
# 5 -23.4872 -19.4208 -3.9615 0.0000 30.8158 0.0000
# 6 0.0000 0.0000 0.0000 -11.6528 0.0000 46.0631
#
#
#
# Elastic Compliance Matrix: (Units=1/GPa)
#
#
# Indices 1 2 3 4 5 6 
#
# 1 0.015439 -0.004173 0.000405 0.000000 0.009190 0.000000
# 2 -0.004173 0.009890 -0.004172 0.000000 0.002516 0.000000
# 3 0.000405 -0.004172 0.023948 0.000000 0.000758 0.000000
# 4 0.000000 0.000000 0.000000 0.030321 0.000000 0.007670
# 5 0.009190 0.002516 0.000758 0.000000 0.041138 0.000000
# 6 0.000000 0.000000 0.000000 0.007670 0.000000 0.023650
#
#
# Mechanical properties :
#
#
# Convention : Reuss Voigt Hill
#
# Bulk Modulus (GPa) = 29.94270 47.88336 38.91303
# Shear Modulus (GPa) = 29.17157 35.53843 32.35500
#
# Velocity S-wave (km/s) = 3.74905 4.13800 3.94832
# Velocity P-wave (km/s) = 5.75912 6.77508 6.28765
#
# Compressibility (1/GPa) = 0.03339712
#
# Stress axis : x y z
#
# Youngs Moduli (GPa) = 64.76956 101.11232 41.75652
#
# Poissons Ratio (x) = 0.42192 -0.01690
# Poissons Ratio (y) = 0.27027 0.17421
# Poissons Ratio (z) = -0.02621 0.42186
#
# Static dielectric constant tensor:
#      x y z
#    x 4.589830 0.000000 -0.718060 
#    y 0.000000 4.336320 0.000000 
#    z -0.718060 0.000000 4.339530 
# 
# 
# High freq. dielectric constant tensor:
#      x y z
#    x 1.827620 0.000000 0.004350 
#    y 0.000000 1.829950 0.000000 
#    z 0.004350 0.000000 1.816050 
# 
# From -- ./inp_files/267999.got.cif
#   From: 2010.06.25/outbox.cif.g09.slc.cpg/sg15_134_cif.got.tgz:267999.got - 2010.06.28 07:06:18.
