data_PCOD8154122
_publ_section_title
;
Structure prediction by ZEFSAII (Michael W. Deem and Ramdas Pophale) SiO2 
 PCOD8154122
Probable space group: C 2/C
;
_chemical_formula_sum "Si O2"
_cell_formula_units_Z 48
_cell_length_a 21.820327
_cell_length_b 11.219075
_cell_length_c 9.461078
_cell_angle_alpha 90.000000
_cell_angle_beta 95.207408
_cell_angle_gamma 90.000000
_cell_volume 2306.549312
_symmetry_space_group_name_H-M "C 2/C"
_symmetry_group_IT_number 15
_symmetry_cell_setting 'monoclinic'
loop_
_space_group_symop_operation_xyz
x,y,z
-x,y,1/2-z
-x,-y,-z
x,-y,1/2+z
1/2+x,1/2+y,z
1/2-x,1/2+y,1/2-z
1/2-x,1/2-y,-z
1/2+x,1/2-y,1/2+z
loop_
_atom_site_type_symbol
_atom_site_label
_atom_site_fract_x
_atom_site_fract_y
_atom_site_fract_z
Si Si1 0.367536 0.010378 0.011032
Si Si2 0.070492 0.621294 0.219874
Si Si3 0.750055 0.371399 0.081213
Si Si4 0.427230 0.614717 0.720633
Si Si5 0.860343 0.955769 0.922152
Si Si6 0.295600 0.779489 0.381483
O O1 0.304031 0.944488 0.020811
O O2 0.395590 0.031231 0.169587
O O3 0.416351 0.930854 0.933081
O O4 0.352765 0.136513 0.935217
O O5 0.097476 0.755482 0.234788
O O6 0.000000 0.621922 0.250000
O O7 0.688037 0.444399 0.038706
O O8 0.757833 0.344469 0.249290
O O9 0.750000 0.250000 0.000000
O O10 0.500000 0.613444 0.750000
O O11 0.404753 0.509919 0.815578
O O12 0.402558 0.590494 0.558714
O O13 0.824829 0.846022 0.839931
O O14 0.250000 0.750000 0.500000
#
# Coordination Sequence:
#
# PCOD8154122 Si02
#       6
#     8   8   8   8   8   8
#     4  12  24  45  67  99 136 171 227 277 338 406
#     4  11  25  46  70  96 133 181 228 282 336 396
#     4  12  27  40  68 100 131 173 222 276 336 407
#     4  11  25  45  68  96 132 178 226 277 331 394
#     4  12  24  43  68  94 136 174 220 270 339 399
#     4  12  25  42  65  98 137 178 213 271 347 398
#
# _framework density 20.810306000000001
#
# number of rings (size 3 to 8) (size 9 to 14) (size 15 to 20)
#    0.000    0.333    5.000    4.000    4.667    0.000 
#    0.000    0.833    0.000    0.000    0.000    0.000 
#    0.000    0.000    0.000    0.000    0.000    0.000 
#
# Total GULP energy -297668.486900 kJ/mol
# GULP energy per Si atom -12402.853621 kJ/mol
# Density = 2.076294 g / cm^3
# Si number density = 20.810306 Si / 1000 Ang^3
#
#
#
# Elastic Constant Matrix: (Units=GPa)
#
#
# Indices 1 2 3 4 5 6 
#
# 1 75.1699 22.3011 19.2774 0.0000 -0.8573 0.0000
# 2 22.3011 112.4184 34.4531 0.0000 -4.0996 0.0000
# 3 19.2774 34.4531 64.5764 0.0000 -8.7028 0.0000
# 4 0.0000 0.0000 0.0000 45.4031 0.0000 -5.9395
# 5 -0.8573 -4.0996 -8.7028 0.0000 38.3955 0.0000
# 6 0.0000 0.0000 0.0000 -5.9395 0.0000 50.9124
#
#
#
# Elastic Compliance Matrix: (Units=1/GPa)
#
#
# Indices 1 2 3 4 5 6 
#
# 1 0.014748 -0.001881 -0.003489 0.000000 -0.000662 0.000000
# 2 -0.001881 0.010875 -0.005250 0.000000 -0.000071 0.000000
# 3 -0.003489 -0.005250 0.019848 0.000000 0.003860 0.000000
# 4 0.000000 0.000000 0.000000 0.022366 0.000000 0.002609
# 5 -0.000662 -0.000071 0.003860 0.000000 0.026897 0.000000
# 6 0.000000 0.000000 0.000000 0.002609 0.000000 0.019946
#
#
# Mechanical properties :
#
#
# Convention : Reuss Voigt Hill
#
# Bulk Modulus (GPa) = 41.26660 44.91422 43.09041
# Shear Modulus (GPa) = 34.72288 38.68439 36.70364
#
# Velocity S-wave (km/s) = 4.08921 4.31618 4.20423
# Velocity P-wave (km/s) = 6.49373 6.81680 6.65722
#
# Compressibility (1/GPa) = 0.02423267
#
# Stress axis : x y z
#
# Youngs Moduli (GPa) = 67.80469 91.95518 50.38224
#
# Poissons Ratio (x) = 0.17294 0.17576
# Poissons Ratio (y) = 0.12752 0.26451
# Poissons Ratio (z) = 0.23654 0.48278
#
# Static dielectric constant tensor:
#      x y z
#    x 3.791350 0.000000 0.056440 
#    y 0.000000 3.947640 0.000000 
#    z 0.056440 0.000000 4.820430 
# 
# 
# High freq. dielectric constant tensor:
#      x y z
#    x 1.818160 0.000000 0.001860 
#    y 0.000000 1.838620 0.000000 
#    z 0.001860 0.000000 1.816760 
# 
# From -- ./inp_files/60596.got.cif
#   From: 2010.06.25/outbox.cif.g09.slc.cpg/sg15_31_cif.got.tgz:60596.got - 2010.06.28 07:06:18.
