data_PCOD8154278
_publ_section_title
;
Structure prediction by ZEFSAII (Michael W. Deem and Ramdas Pophale) SiO2 
 PCOD8154278
Probable space group: C 2/C
;
_chemical_formula_sum "Si O2"
_cell_formula_units_Z 32
_cell_length_a 14.336561
_cell_length_b 16.510293
_cell_length_c 10.218484
_cell_angle_alpha 90.000000
_cell_angle_beta 30.627917
_cell_angle_gamma 90.000000
_cell_volume 1232.244715
_symmetry_space_group_name_H-M "C 2/C"
_symmetry_group_IT_number 15
_symmetry_cell_setting 'monoclinic'
loop_
_space_group_symop_operation_xyz
x,y,z
-x,y,1/2-z
-x,-y,-z
x,-y,1/2+z
1/2+x,1/2+y,z
1/2-x,1/2+y,1/2-z
1/2-x,1/2-y,-z
1/2+x,1/2-y,1/2+z
loop_
_atom_site_type_symbol
_atom_site_label
_atom_site_fract_x
_atom_site_fract_y
_atom_site_fract_z
Si Si1 0.701252 0.158100 0.057848
Si Si2 0.141864 0.414723 0.901665
Si Si3 0.756649 0.346037 0.463610
Si Si4 0.151787 0.934617 0.347577
O O1 0.500000 0.140276 0.250000
O O2 0.730247 0.122861 0.166188
O O3 0.750000 0.250000 0.000000
O O4 0.844208 0.119658 0.785431
O O5 0.154169 0.513446 0.871625
O O6 0.279380 0.392318 0.856674
O O7 0.951218 0.372915 0.167601
O O8 0.750000 0.250000 0.500000
O O9 0.616132 0.377017 0.519277
O O10 0.000000 0.000000 0.500000
#
# Coordination Sequence:
#
# PCOD8154278 Si02
#       4
#     8   8   8   8
#     4  12  28  49  79 112 157 206 262 325 400 475
#     4  11  26  45  77 110 156 202 262 319 395 464
#     4  11  25  48  76 114 158 208 260 325 399 475
#     4  12  28  50  81 115 157 202 267 327 399 472
#
# _framework density 25.968869000000002
#
# number of rings (size 3 to 8) (size 9 to 14) (size 15 to 20)
#    0.000    0.500    2.500    3.750    7.000    7.000 
#    0.000    0.000    0.000    0.000    0.000    0.000 
#    0.000    0.000    0.000    0.000    0.000    0.000 
#
# Total GULP energy -198371.387879 kJ/mol
# GULP energy per Si atom -12398.211742 kJ/mol
# Density = 2.590976 g / cm^3
# Si number density = 25.968869 Si / 1000 Ang^3
#
#
#
# Elastic Constant Matrix: (Units=GPa)
#
#
# Indices 1 2 3 4 5 6 
#
# 1 165.9028 59.9246 71.4252 -0.0233 57.7132 0.0092
# 2 59.9246 228.7240 64.6408 -0.0222 45.9792 0.0147
# 3 71.4252 64.6408 83.7251 -0.0540 51.5226 0.0428
# 4 -0.0233 -0.0222 -0.0540 50.7207 0.0405 13.8560
# 5 57.7132 45.9792 51.5226 0.0405 75.6632 -0.0250
# 6 0.0092 0.0147 0.0428 13.8560 -0.0250 57.2133
#
#
#
# Elastic Compliance Matrix: (Units=1/GPa)
#
#
# Indices 1 2 3 4 5 6 
#
# 1 0.009939 -0.000159 -0.006455 0.000000 -0.003089 0.000002
# 2 -0.000159 0.005622 -0.003748 -0.000001 -0.000743 0.000001
# 3 -0.006455 -0.003748 0.027391 0.000043 -0.011450 -0.000034
# 4 0.000000 -0.000001 0.000043 0.021113 -0.000041 -0.005113
# 5 -0.003089 -0.000743 -0.011450 -0.000041 0.023821 0.000030
# 6 0.000002 0.000001 -0.000034 -0.005113 0.000030 0.018717
#
#
# Mechanical properties :
#
#
# Convention : Reuss Voigt Hill
#
# Bulk Modulus (GPa) = 44.98883 96.70368 70.84625
# Shear Modulus (GPa) = 37.10975 55.54350 46.32663
#
# Velocity S-wave (km/s) = 3.78432 4.62979 4.22824
# Velocity P-wave (km/s) = 6.03793 8.11782 7.15387
#
# Compressibility (1/GPa) = 0.02222774
#
# Stress axis : x y z
#
# Youngs Moduli (GPa) = 100.61804 177.86263 36.50865
#
# Poissons Ratio (x) = 0.02820 0.23568
# Poissons Ratio (y) = 0.01596 0.13683
# Poissons Ratio (z) = 0.64953 0.66663
#
# Static dielectric constant tensor:
#      x y z
#    x 5.322660 0.002830 -0.096660 
#    y 0.002830 4.670970 0.000460 
#    z -0.096660 0.000460 4.787680 
# 
# 
# High freq. dielectric constant tensor:
#      x y z
#    x 2.069880 0.000000 0.003270 
#    y 0.000000 2.051280 0.000000 
#    z 0.003270 0.000000 2.054020 
# 
# From -- ./inp_files/105610.got.cif
#   From: 2010.06.25/outbox.cif.g09.slc.cpg/sg15_53_cif.got.tgz:105610.got - 2010.06.28 07:06:18.
