data_PCOD8154798
_publ_section_title
;
Structure prediction by ZEFSAII (Michael W. Deem and Ramdas Pophale) SiO2 
 PCOD8154798
Probable space group: C 2/C
;
_chemical_formula_sum "Si O2"
_cell_formula_units_Z 40
_cell_length_a 11.699293
_cell_length_b 7.972227
_cell_length_c 29.002610
_cell_angle_alpha 90.000000
_cell_angle_beta 37.705082
_cell_angle_gamma 90.000000
_cell_volume 1654.405089
_symmetry_space_group_name_H-M "C 2/C"
_symmetry_group_IT_number 15
_symmetry_cell_setting 'monoclinic'
loop_
_space_group_symop_operation_xyz
x,y,z
-x,y,1/2-z
-x,-y,-z
x,-y,1/2+z
1/2+x,1/2+y,z
1/2-x,1/2+y,1/2-z
1/2-x,1/2-y,-z
1/2+x,1/2-y,1/2+z
loop_
_atom_site_type_symbol
_atom_site_label
_atom_site_fract_x
_atom_site_fract_y
_atom_site_fract_z
Si Si1 0.823310 0.925103 0.083847
Si Si2 0.967350 0.890495 0.209881
Si Si3 0.349529 0.031580 0.085213
Si Si4 0.918618 0.664772 0.916929
Si Si5 0.225710 0.911593 0.801707
O O1 0.830849 0.730501 0.096101
O O2 0.659174 0.950433 0.099239
O O3 0.772825 0.019221 0.146768
O O4 0.000000 0.000000 0.000000
O O5 0.915202 0.695449 0.234351
O O6 0.000000 0.979516 0.250000
O O7 0.794646 0.955091 0.233407
O O8 0.169766 0.927312 0.123144
O O9 0.428142 0.949293 0.106536
O O10 0.500000 0.000000 0.000000
O O11 0.032929 0.812694 0.857075
O O12 0.750000 0.750000 0.000000
#
# Coordination Sequence:
#
# PCOD8154798 Si02
#       5
#     8   8   8   8   8
#     4  12  27  48  83 120 155 207 269 334 406 477
#     4  12  29  52  77 116 162 209 270 332 406 476
#     4  12  25  51  83 112 161 208 266 334 397 474
#     4  12  23  50  76 115 160 198 266 325 391 479
#     4  12  28  50  77 114 157 209 266 330 405 479
#
# _framework density 24.177876000000001
#
# number of rings (size 3 to 8) (size 9 to 14) (size 15 to 20)
#    0.000    0.000    8.000    0.000    2.800    4.000 
#    0.000    0.000    0.000    0.000    0.000    0.000 
#    0.000    0.000    0.000    0.000    0.000    0.000 
#
# Total GULP energy -247762.653222 kJ/mol
# GULP energy per Si atom -12388.132661 kJ/mol
# Density = 2.412285 g / cm^3
# Si number density = 24.177876 Si / 1000 Ang^3
#
#
#
# Elastic Constant Matrix: (Units=GPa)
#
#
# Indices 1 2 3 4 5 6 
#
# 1 186.1823 71.1081 38.8537 -0.0007 16.3090 -0.0012
# 2 71.1081 122.5426 59.1153 -0.0018 -7.8808 -0.0019
# 3 38.8537 59.1153 97.3206 0.0003 2.7288 -0.0007
# 4 -0.0007 -0.0018 0.0003 43.2422 -0.0006 1.2195
# 5 16.3090 -7.8808 2.7288 -0.0006 52.3949 -0.0005
# 6 -0.0012 -0.0019 -0.0007 1.2195 -0.0005 53.6097
#
#
#
# Elastic Compliance Matrix: (Units=1/GPa)
#
#
# Indices 1 2 3 4 5 6 
#
# 1 0.007328 -0.004340 -0.000207 0.000000 -0.002923 0.000000
# 2 -0.004340 0.014350 -0.007092 0.000001 0.003879 0.000000
# 3 -0.000207 -0.007092 0.014716 0.000000 -0.001769 0.000000
# 4 0.000000 0.000001 0.000000 0.023140 0.000000 -0.000526
# 5 -0.002923 0.003879 -0.001769 0.000000 0.020671 0.000000
# 6 0.000000 0.000000 0.000000 -0.000526 0.000000 0.018665
#
#
# Mechanical properties :
#
#
# Convention : Reuss Voigt Hill
#
# Bulk Modulus (GPa) = 76.25592 82.68887 79.47240
# Shear Modulus (GPa) = 39.51884 45.64727 42.58306
#
# Velocity S-wave (km/s) = 4.04729 4.34980 4.20127
# Velocity P-wave (km/s) = 7.31086 7.71376 7.51501
#
# Compressibility (1/GPa) = 0.01311374
#
# Stress axis : x y z
#
# Youngs Moduli (GPa) = 136.46204 69.68702 67.95403
#
# Poissons Ratio (x) = 0.30246 0.01408
# Poissons Ratio (y) = 0.59228 0.48196
# Poissons Ratio (z) = 0.02828 0.49425
#
# Static dielectric constant tensor:
#      x y z
#    x 4.570620 0.000000 0.144840 
#    y 0.000000 4.119830 0.000000 
#    z 0.144840 0.000000 4.573000 
# 
# 
# High freq. dielectric constant tensor:
#      x y z
#    x 1.986110 0.000000 -0.002690 
#    y 0.000000 1.953320 0.000000 
#    z -0.002690 0.000000 1.972550 
# 
# From -- ./inp_files/291015.got.cif
#   From: 2010.06.25/outbox.cif.g09.slc.cpg/sg15_146_cif.got.tgz:291015.got - 2010.06.28 07:06:18.
