data_PCOD8154541
_publ_section_title
;
Structure prediction by ZEFSAII (Michael W. Deem and Ramdas Pophale) SiO2 
 PCOD8154541
Probable space group: C 2/C
;
_chemical_formula_sum "Si O2"
_cell_formula_units_Z 48
_cell_length_a 13.788855
_cell_length_b 14.957800
_cell_length_c 10.927293
_cell_angle_alpha 90.000000
_cell_angle_beta 64.137387
_cell_angle_gamma 90.000000
_cell_volume 2028.033246
_symmetry_space_group_name_H-M "C 2/C"
_symmetry_group_IT_number 15
_symmetry_cell_setting 'monoclinic'
loop_
_space_group_symop_operation_xyz
x,y,z
-x,y,1/2-z
-x,-y,-z
x,-y,1/2+z
1/2+x,1/2+y,z
1/2-x,1/2+y,1/2-z
1/2-x,1/2-y,-z
1/2+x,1/2-y,1/2+z
loop_
_atom_site_type_symbol
_atom_site_label
_atom_site_fract_x
_atom_site_fract_y
_atom_site_fract_z
Si Si1 0.839344 0.326557 0.992256
Si Si2 0.705971 0.340510 0.469803
Si Si3 0.521472 0.317435 0.001407
Si Si4 0.500000 0.587290 0.750000
Si Si5 0.500000 0.061029 0.250000
Si Si6 0.853805 0.936165 0.753770
Si Si7 0.330102 0.955081 0.216144
O O1 0.930937 0.281739 0.027123
O O2 0.800656 0.405641 0.104226
O O3 0.750000 0.250000 0.000000
O O4 0.900741 0.375790 0.847116
O O5 0.750000 0.250000 0.500000
O O6 0.607451 0.316356 0.434346
O O7 0.663116 0.403623 0.599871
O O8 0.800458 0.390099 0.344883
O O9 0.573267 0.367298 0.859064
O O10 0.559257 0.354557 0.113312
O O11 0.414942 0.529808 0.721824
O O12 0.450884 0.994481 0.171633
O O13 0.743813 0.955327 0.742036
#
# Coordination Sequence:
#
# PCOD8154541 Si02
#       7
#     8   8   8   4   4   8   8
#     4  12  28  49  75 107 150 195 249 302 374 444
#     4  12  27  43  72 104 146 188 245 304 368 437
#     4  12  25  43  72 105 142 192 242 309 365 439
#     4  12  21  42  69 104 140 180 240 302 367 426
#     4  12  29  50  77 106 154 200 244 312 371 450
#     4  12  23  45  71 105 143 185 246 303 365 433
#     4  12  27  47  74 107 144 195 245 302 373 446
#
# _framework density 23.668251000000001
#
# number of rings (size 3 to 8) (size 9 to 14) (size 15 to 20)
#    0.000    0.000    3.333    6.500    7.000    0.000 
#    0.000    0.000    0.000    0.000    0.000    0.000 
#    0.000    0.000    0.000    0.000    0.000    0.000 
#
# Total GULP energy -297496.637092 kJ/mol
# GULP energy per Si atom -12395.693212 kJ/mol
# Density = 2.361438 g / cm^3
# Si number density = 23.668251 Si / 1000 Ang^3
#
#
#
# Elastic Constant Matrix: (Units=GPa)
#
#
# Indices 1 2 3 4 5 6 
#
# 1 116.8119 49.0012 5.4677 0.0000 1.5036 0.0000
# 2 49.0012 92.0058 24.9695 0.0000 -6.5107 0.0000
# 3 5.4677 24.9695 122.5887 0.0000 1.1164 0.0000
# 4 0.0000 0.0000 0.0000 48.6552 0.0000 11.3699
# 5 1.5036 -6.5107 1.1164 0.0000 27.6624 0.0000
# 6 0.0000 0.0000 0.0000 11.3699 0.0000 60.5099
#
#
#
# Elastic Compliance Matrix: (Units=1/GPa)
#
#
# Indices 1 2 3 4 5 6 
#
# 1 0.011211 -0.006342 0.000811 0.000000 -0.002135 0.000000
# 2 -0.006342 0.015314 -0.002873 0.000000 0.004065 0.000000
# 3 0.000811 -0.002873 0.008716 0.000000 -0.001072 0.000000
# 4 0.000000 0.000000 0.000000 0.021497 0.000000 -0.004039
# 5 -0.002135 0.004065 -0.001072 0.000000 0.037266 0.000000
# 6 0.000000 0.000000 0.000000 -0.004039 0.000000 0.017285
#
#
# Mechanical properties :
#
#
# Convention : Reuss Voigt Hill
#
# Bulk Modulus (GPa) = 54.25162 54.47592 54.36377
# Shear Modulus (GPa) = 37.24639 44.16337 40.70488
#
# Velocity S-wave (km/s) = 3.97127 4.32433 4.15156
# Velocity P-wave (km/s) = 6.63321 6.92817 6.78229
#
# Compressibility (1/GPa) = 0.01843263
#
# Stress axis : x y z
#
# Youngs Moduli (GPa) = 89.20121 65.29997 114.72877
#
# Poissons Ratio (x) = 0.41412 -0.09306
# Poissons Ratio (y) = 0.56570 0.32966
# Poissons Ratio (z) = -0.07236 0.18763
#
# Static dielectric constant tensor:
#      x y z
#    x 4.408100 0.000000 -0.141490 
#    y 0.000000 3.396910 0.000000 
#    z -0.141490 0.000000 3.939960 
# 
# 
# High freq. dielectric constant tensor:
#      x y z
#    x 1.947820 0.000000 0.000020 
#    y 0.000000 1.948750 0.000000 
#    z 0.000020 0.000000 1.937860 
# 
# From -- ./inp_files/96918.got.cif
#   From: 2010.06.25/outbox.cif.g09.slc.cpg/sg15_49_cif.got.tgz:96918.got - 2010.06.28 07:06:18.
