data_PCOD8154215
_publ_section_title
;
Structure prediction by ZEFSAII (Michael W. Deem and Ramdas Pophale) SiO2 
 PCOD8154215
Probable space group: C 2/C
;
_chemical_formula_sum "Si O2"
_cell_formula_units_Z 40
_cell_length_a 11.484184
_cell_length_b 14.008088
_cell_length_c 16.068034
_cell_angle_alpha 90.000000
_cell_angle_beta 140.381782
_cell_angle_gamma 90.000000
_cell_volume 1648.302882
_symmetry_space_group_name_H-M "C 2/C"
_symmetry_group_IT_number 15
_symmetry_cell_setting 'monoclinic'
loop_
_space_group_symop_operation_xyz
x,y,z
-x,y,1/2-z
-x,-y,-z
x,-y,1/2+z
1/2+x,1/2+y,z
1/2-x,1/2+y,1/2-z
1/2-x,1/2-y,-z
1/2+x,1/2-y,1/2+z
loop_
_atom_site_type_symbol
_atom_site_label
_atom_site_fract_x
_atom_site_fract_y
_atom_site_fract_z
Si Si1 0.160727 0.814353 0.019751
Si Si2 0.493479 0.110405 0.338886
Si Si3 0.233745 0.028572 0.796088
Si Si4 0.165046 0.009788 0.942804
Si Si5 0.273530 0.766526 0.269052
O O1 0.245033 0.786000 0.155288
O O2 0.250000 0.750000 0.000000
O O3 0.222127 0.922800 0.034348
O O4 0.941486 0.803296 0.886070
O O5 0.500000 0.071196 0.250000
O O6 0.412759 0.216762 0.301075
O O7 0.377300 0.038888 0.331136
O O8 0.706464 0.103563 0.480790
O O9 0.312846 0.136079 0.841386
O O10 0.188154 0.979708 0.859129
O O11 0.039318 0.038465 0.641980
#
# Coordination Sequence:
#
# PCOD8154215 Si02
#       5
#     8   8   8   8   8
#     4  12  25  46  78 110 147 197 252 309 366 440
#     4  12  26  44  71 106 149 193 248 301 372 445
#     4  11  25  47  71 106 146 193 246 306 373 436
#     4  11  25  46  78  99 151 194 248 309 372 439
#     4  12  27  45  75 111 152 191 253 303 373 450
#
# _framework density 24.267384
#
# number of rings (size 3 to 8) (size 9 to 14) (size 15 to 20)
#    0.000    0.400    2.000    6.000    8.400    2.400 
#    0.000    0.000    0.000    0.000    0.000    0.000 
#    0.000    0.000    0.000    0.000    0.000    0.000 
#
# Total GULP energy -247900.236299 kJ/mol
# GULP energy per Si atom -12395.011815 kJ/mol
# Density = 2.421215 g / cm^3
# Si number density = 24.267384 Si / 1000 Ang^3
#
#
#
# Elastic Constant Matrix: (Units=GPa)
#
#
# Indices 1 2 3 4 5 6 
#
# 1 45.7745 2.8397 9.4082 0.0000 -2.3361 0.0001
# 2 2.8397 75.3274 -6.8745 0.0000 -4.4453 0.0000
# 3 9.4082 -6.8745 88.8145 0.0000 0.1885 0.0000
# 4 0.0000 0.0000 0.0000 37.8344 0.0000 8.6486
# 5 -2.3361 -4.4453 0.1885 0.0000 36.5176 0.0000
# 6 0.0001 0.0000 0.0000 8.6486 0.0000 -82.6061
#
#
#
# Elastic Compliance Matrix: (Units=1/GPa)
#
#
# Indices 1 2 3 4 5 6 
#
# 1 0.022482 -0.000994 -0.002461 0.000000 0.001330 0.000000
# 2 -0.000994 0.013511 0.001148 0.000000 0.001575 0.000000
# 3 -0.002461 0.001148 0.011609 0.000000 -0.000078 0.000000
# 4 0.000000 0.000000 0.000000 0.025813 0.000000 0.002703
# 5 0.001330 0.001575 -0.000078 0.000000 0.027661 0.000000
# 6 0.000000 0.000000 0.000000 0.002703 0.000000 -0.011823
#
#
# Mechanical properties :
#
#
# Convention : Reuss Voigt Hill
#
# Bulk Modulus (GPa) = 23.26292 24.51812 23.89052
# Shear Modulus (GPa) = 46.21224 11.98538 29.09881
#
# Velocity S-wave (km/s) = 4.36856 2.22477 3.46655
# Velocity P-wave (km/s) = 5.92052 4.08959 5.08809
#
# Compressibility (1/GPa) = 0.04298687
#
# Stress axis : x y z
#
# Youngs Moduli (GPa) = 44.48079 74.01633 86.13901
#
# Poissons Ratio (x) = 0.07355 0.21201
# Poissons Ratio (y) = 0.04420 -0.09886
# Poissons Ratio (z) = 0.10948 -0.08495
#
# Static dielectric constant tensor:
#      x y z
#    x 4.584530 0.000000 0.018850 
#    y 0.000000 4.518380 0.000000 
#    z 0.018850 0.000000 5.058090 
# 
# 
# High freq. dielectric constant tensor:
#      x y z
#    x 1.978640 0.000000 0.005880 
#    y 0.000000 1.957490 0.000000 
#    z 0.005880 0.000000 1.971950 
# 
# From -- ./inp_files/85632.got.cif
#   From: 2010.06.25/outbox.cif.g09.slc.cpg/sg15_43_cif.got.tgz:85632.got - 2010.06.28 07:06:18.
