data_PCOD8154766
_publ_section_title
;
Structure prediction by ZEFSAII (Michael W. Deem and Ramdas Pophale) SiO2 
 PCOD8154766
Probable space group: C 2/C
;
_chemical_formula_sum "Si O2"
_cell_formula_units_Z 36
_cell_length_a 19.351657
_cell_length_b 13.632397
_cell_length_c 11.943889
_cell_angle_alpha 90.000000
_cell_angle_beta 153.128976
_cell_angle_gamma 90.000000
_cell_volume 1424.160258
_symmetry_space_group_name_H-M "C 2/C"
_symmetry_group_IT_number 15
_symmetry_cell_setting 'monoclinic'
loop_
_space_group_symop_operation_xyz
x,y,z
-x,y,1/2-z
-x,-y,-z
x,-y,1/2+z
1/2+x,1/2+y,z
1/2-x,1/2+y,1/2-z
1/2-x,1/2-y,-z
1/2+x,1/2-y,1/2+z
loop_
_atom_site_type_symbol
_atom_site_label
_atom_site_fract_x
_atom_site_fract_y
_atom_site_fract_z
Si Si1 0.000000 0.010162 0.250000
Si Si2 0.940730 0.397647 0.871893
Si Si3 0.341774 0.127183 0.466281
Si Si4 0.188308 0.938074 0.332472
Si Si5 0.774203 0.161827 0.834759
O O1 0.961216 0.943996 0.303193
O O2 0.154593 0.074511 0.486850
O O3 0.844296 0.356082 0.836071
O O4 0.836606 0.401019 0.612515
O O5 0.000000 0.500000 0.000000
O O6 0.091724 0.337033 0.060726
O O7 0.216724 0.045996 0.319084
O O8 0.310269 0.239202 0.456610
O O9 0.500000 0.091254 0.750000
O O10 0.155485 0.857118 0.188380
#
# Coordination Sequence:
#
# PCOD8154766 Si02
#       5
#     4   8   8   8   8
#     4  12  24  42  70 104 142 184 230 290 350 410
#     4  12  23  46  73 102 138 191 232 284 354 417
#     4  12  24  43  75 105 138 185 236 289 348 419
#     4  12  25  48  73 101 143 188 234 286 352 421
#     4  12  26  42  72 108 141 179 238 294 345 415
#
# _framework density 25.278053
#
# number of rings (size 3 to 8) (size 9 to 14) (size 15 to 20)
#    0.000    0.000    7.778    1.333    3.111    2.667 
#    0.000    0.000    0.000    0.000    0.000    0.000 
#    0.000    0.000    0.000    0.000    0.000    0.000 
#
# Total GULP energy -223115.044205 kJ/mol
# GULP energy per Si atom -12395.280234 kJ/mol
# Density = 2.522052 g / cm^3
# Si number density = 25.278053 Si / 1000 Ang^3
#
#
#
# Elastic Constant Matrix: (Units=GPa)
#
#
# Indices 1 2 3 4 5 6 
#
# 1 151.5894 19.3927 0.8584 0.0000 3.0805 0.0000
# 2 19.3927 60.6083 -2.7669 0.0000 1.3442 0.0000
# 3 0.8584 -2.7669 83.6543 0.0000 -5.9744 0.0000
# 4 0.0000 0.0000 0.0000 30.3588 0.0000 -6.0857
# 5 3.0805 1.3442 -5.9744 0.0000 46.3648 0.0000
# 6 0.0000 0.0000 0.0000 -6.0857 0.0000 10.6297
#
#
#
# Elastic Compliance Matrix: (Units=1/GPa)
#
#
# Indices 1 2 3 4 5 6 
#
# 1 0.006888 -0.002203 -0.000173 0.000000 -0.000416 0.000000
# 2 -0.002203 0.017236 0.000573 0.000000 -0.000280 0.000000
# 3 -0.000173 0.000573 0.012086 0.000000 0.001552 0.000000
# 4 0.000000 0.000000 0.000000 0.037210 0.000000 0.021303
# 5 -0.000416 -0.000280 0.001552 0.000000 0.021804 0.000000
# 6 0.000000 0.000000 0.000000 0.021303 0.000000 0.106273
#
#
# Mechanical properties :
#
#
# Convention : Reuss Voigt Hill
#
# Bulk Modulus (GPa) = 30.67132 36.75784 33.71458
# Shear Modulus (GPa) = 23.15132 36.02853 29.58992
#
# Velocity S-wave (km/s) = 3.02961 3.77940 3.42508
# Velocity P-wave (km/s) = 4.93943 5.79811 5.38591
#
# Compressibility (1/GPa) = 0.03260375
#
# Stress axis : x y z
#
# Youngs Moduli (GPa) = 145.18038 58.01646 82.74358
#
# Poissons Ratio (x) = 0.12779 0.01434
# Poissons Ratio (y) = 0.31978 -0.04739
# Poissons Ratio (z) = 0.02515 -0.03323
#
# Static dielectric constant tensor:
#      x y z
#    x 4.470440 0.000000 0.093900 
#    y 0.000000 4.100530 0.000000 
#    z 0.093900 0.000000 5.031100 
# 
# 
# High freq. dielectric constant tensor:
#      x y z
#    x 2.014110 0.000000 -0.009480 
#    y 0.000000 1.987440 0.000000 
#    z -0.009480 0.000000 2.016650 
# 
# From -- ./inp_files/85367.got.cif
#   From: 2010.06.25/outbox.cif.g09.slc.cpg/sg15_43_cif.got.tgz:85367.got - 2010.06.28 07:06:18.
