data_PCOD8154087
_publ_section_title
;
Structure prediction by ZEFSAII (Michael W. Deem and Ramdas Pophale) SiO2 
 PCOD8154087
Probable space group: C 2/C
;
_chemical_formula_sum "Si O2"
_cell_formula_units_Z 56
_cell_length_a 18.785615
_cell_length_b 7.837463
_cell_length_c 22.128042
_cell_angle_alpha 90.000000
_cell_angle_beta 134.765744
_cell_angle_gamma 90.000000
_cell_volume 2313.115400
_symmetry_space_group_name_H-M "C 2/C"
_symmetry_group_IT_number 15
_symmetry_cell_setting 'monoclinic'
loop_
_space_group_symop_operation_xyz
x,y,z
-x,y,1/2-z
-x,-y,-z
x,-y,1/2+z
1/2+x,1/2+y,z
1/2-x,1/2+y,1/2-z
1/2-x,1/2-y,-z
1/2+x,1/2-y,1/2+z
loop_
_atom_site_type_symbol
_atom_site_label
_atom_site_fract_x
_atom_site_fract_y
_atom_site_fract_z
Si Si1 0.166680 0.662254 0.367632
Si Si2 0.452534 0.634996 0.362794
Si Si3 0.786926 0.865539 0.223779
Si Si4 0.291459 0.804626 0.849915
Si Si5 0.882334 0.128710 0.548401
Si Si6 0.511992 0.198616 0.496026
Si Si7 0.906348 0.320423 0.224813
O O1 0.185796 0.743755 0.314316
O O2 0.111201 0.792295 0.380083
O O3 0.268331 0.598127 0.460043
O O4 0.095294 0.503816 0.308507
O O5 0.379337 0.486394 0.296655
O O6 0.563877 0.555083 0.422380
O O7 0.429726 0.695470 0.417520
O O8 0.438408 0.807239 0.314506
O O9 0.751700 0.757013 0.260265
O O10 0.696949 0.989089 0.146961
O O11 0.398610 0.722524 0.928611
O O12 0.206060 0.759375 0.848762
O O13 0.935347 0.266326 0.536085
O O14 0.500000 0.000000 0.500000
O O15 0.000000 0.217874 0.250000
#
# Coordination Sequence:
#
# PCOD8154087 Si02
#       7
#     8   8   8   8   8   8   8
#     4  11  27  47  75 108 154 191 247 296 378 437
#     4  11  27  45  76 106 147 192 247 302 365 433
#     4  11  25  43  75 106 146 188 245 303 361 438
#     4  11  25  44  72 107 144 191 239 307 361 431
#     4  11  26  49  75 108 148 201 234 307 371 442
#     4  12  27  46  75 110 146 192 249 299 369 448
#     4  11  28  46  73 106 144 190 245 303 362 433
#
# _framework density 24.209773999999999
#
# number of rings (size 3 to 8) (size 9 to 14) (size 15 to 20)
#    0.000    0.857    1.429    3.000   20.000    0.000 
#    0.000    1.429    0.000    0.000    0.000    0.000 
#    0.000    0.000    0.000    0.000    0.000    0.000 
#
# Total GULP energy -347029.025461 kJ/mol
# GULP energy per Si atom -12393.893766 kJ/mol
# Density = 2.415467 g / cm^3
# Si number density = 24.209774 Si / 1000 Ang^3
#
#
#
# Elastic Constant Matrix: (Units=GPa)
#
#
# Indices 1 2 3 4 5 6 
#
# 1 115.1245 1.7312 14.9614 0.0000 -10.6364 0.0000
# 2 1.7312 73.6473 17.9959 0.0000 -11.4627 0.0000
# 3 14.9614 17.9959 80.4963 0.0000 -7.9229 0.0000
# 4 0.0000 0.0000 0.0000 42.7041 0.0000 -2.3875
# 5 -10.6364 -11.4627 -7.9229 0.0000 32.1098 0.0000
# 6 0.0000 0.0000 0.0000 -2.3875 0.0000 31.5159
#
#
#
# Elastic Compliance Matrix: (Units=1/GPa)
#
#
# Indices 1 2 3 4 5 6 
#
# 1 0.009144 0.000610 -0.001554 0.000000 0.002863 0.000000
# 2 0.000610 0.015050 -0.003002 0.000000 0.004834 0.000000
# 3 -0.001554 -0.003002 0.013556 0.000000 0.001758 0.000000
# 4 0.000000 0.000000 0.000000 0.023517 0.000000 0.001782
# 5 0.002863 0.004834 0.001758 0.000000 0.034251 0.000000
# 6 0.000000 0.000000 0.000000 0.001782 0.000000 0.031865
#
#
# Mechanical properties :
#
#
# Convention : Reuss Voigt Hill
#
# Bulk Modulus (GPa) = 33.49223 37.62723 35.55973
# Shear Modulus (GPa) = 34.42897 36.90459 35.66678
#
# Velocity S-wave (km/s) = 3.77518 3.90855 3.84244
# Velocity P-wave (km/s) = 5.73296 5.99541 5.86565
#
# Compressibility (1/GPa) = 0.02985767
#
# Stress axis : x y z
#
# Youngs Moduli (GPa) = 109.36635 66.44578 73.76790
#
# Poissons Ratio (x) = -0.04056 0.11464
# Poissons Ratio (y) = -0.06676 0.22147
# Poissons Ratio (z) = 0.16997 0.19949
#
# Static dielectric constant tensor:
#      x y z
#    x 4.527540 0.000000 0.204890 
#    y 0.000000 4.442040 0.000000 
#    z 0.204890 0.000000 4.710250 
# 
# 
# High freq. dielectric constant tensor:
#      x y z
#    x 1.976260 0.000000 0.014770 
#    y 0.000000 1.951030 0.000000 
#    z 0.014770 0.000000 1.970400 
# 
# From -- ./inp_files/247583.got.cif
#   From: 2010.06.25/outbox.cif.g09.slc.cpg/sg15_124_cif.got.tgz:247583.got - 2010.06.28 07:06:18.
