data_PCOD8154771
_publ_section_title
;
Structure prediction by ZEFSAII (Michael W. Deem and Ramdas Pophale) SiO2 
 PCOD8154771
Probable space group: C 2/C
;
_chemical_formula_sum "Si O2"
_cell_formula_units_Z 36
_cell_length_a 11.321831
_cell_length_b 15.533919
_cell_length_c 14.861088
_cell_angle_alpha 90.000000
_cell_angle_beta 143.056023
_cell_angle_gamma 90.000000
_cell_volume 1570.895283
_symmetry_space_group_name_H-M "C 2/C"
_symmetry_group_IT_number 15
_symmetry_cell_setting 'monoclinic'
loop_
_space_group_symop_operation_xyz
x,y,z
-x,y,1/2-z
-x,-y,-z
x,-y,1/2+z
1/2+x,1/2+y,z
1/2-x,1/2+y,1/2-z
1/2-x,1/2-y,-z
1/2+x,1/2-y,1/2+z
loop_
_atom_site_type_symbol
_atom_site_label
_atom_site_fract_x
_atom_site_fract_y
_atom_site_fract_z
Si Si1 0.653466 0.992380 0.015271
Si Si2 0.661649 0.666575 0.786623
Si Si3 0.129774 0.835706 0.911328
Si Si4 0.000000 0.404160 0.750000
Si Si5 0.085287 0.818813 0.540875
O O1 0.745405 0.082580 0.042872
O O2 0.816253 0.926265 0.152126
O O3 0.500000 0.000000 0.000000
O O4 0.533415 0.961752 0.856621
O O5 0.500000 0.716149 0.750000
O O6 0.871969 0.716423 0.917708
O O7 0.578079 0.662535 0.634405
O O8 0.000000 0.807152 0.750000
O O9 0.999802 0.860444 0.919782
O O10 0.250000 0.750000 0.000000
O O11 0.799284 0.352907 0.645484
#
# Coordination Sequence:
#
# PCOD8154771 Si02
#       5
#     8   8   8   4   8
#     4  12  28  47  72 107 151 189 248 305 368 443
#     4  12  23  46  74 110 146 192 245 305 364 444
#     4  12  28  50  74 106 146 195 244 304 373 441
#     4  12  26  44  74 108 144 194 240 300 372 438
#     4  12  25  45  78 108 149 194 244 301 372 439
#
# _framework density 22.916868000000001
#
# number of rings (size 3 to 8) (size 9 to 14) (size 15 to 20)
#    0.000    0.000    3.333    6.667    4.667    0.889 
#    0.000    0.000    0.000    0.000    0.000    0.000 
#    0.000    0.000    0.000    0.000    0.000    0.000 
#
# Total GULP energy -223121.556914 kJ/mol
# GULP energy per Si atom -12395.642051 kJ/mol
# Density = 2.286471 g / cm^3
# Si number density = 22.916868 Si / 1000 Ang^3
#
#
#
# Elastic Constant Matrix: (Units=GPa)
#
#
# Indices 1 2 3 4 5 6 
#
# 1 165.1424 43.4453 33.4378 -0.0011 -27.2273 -0.0005
# 2 43.4453 145.0642 58.6335 -0.0010 -3.7890 -0.0004
# 3 33.4378 58.6335 168.7262 -0.0018 -40.3825 -0.0008
# 4 -0.0011 -0.0010 -0.0018 35.2378 -0.0006 -1.9417
# 5 -27.2273 -3.7890 -40.3825 -0.0006 44.1235 -0.0002
# 6 -0.0005 -0.0004 -0.0008 -1.9417 -0.0002 36.7872
#
#
#
# Elastic Compliance Matrix: (Units=1/GPa)
#
#
# Indices 1 2 3 4 5 6 
#
# 1 0.007342 -0.002266 0.000474 0.000000 0.004770 0.000000
# 2 -0.002266 0.008920 -0.003588 0.000000 -0.003916 0.000000
# 3 0.000474 -0.003588 0.009061 0.000001 0.008277 0.000000
# 4 0.000000 0.000000 0.000001 0.028461 0.000001 0.001502
# 5 0.004770 -0.003916 0.008277 0.000001 0.032846 0.000000
# 6 0.000000 0.000000 0.000000 0.001502 0.000000 0.027263
#
#
# Mechanical properties :
#
#
# Convention : Reuss Voigt Hill
#
# Bulk Modulus (GPa) = 68.66788 83.32956 75.99872
# Shear Modulus (GPa) = 38.60823 46.12412 42.36617
#
# Velocity S-wave (km/s) = 4.10897 4.49115 4.30430
# Velocity P-wave (km/s) = 7.24848 7.95830 7.61167
#
# Compressibility (1/GPa) = 0.01456285
#
# Stress axis : x y z
#
# Youngs Moduli (GPa) = 136.20507 112.10738 110.36779
#
# Poissons Ratio (x) = 0.25401 -0.05231
# Poissons Ratio (y) = 0.30861 0.39600
# Poissons Ratio (z) = -0.06455 0.40224
#
# Static dielectric constant tensor:
#      x y z
#    x 4.656410 0.000000 0.098770 
#    y 0.000000 3.842940 0.000010 
#    z 0.098770 0.000010 4.023950 
# 
# 
# High freq. dielectric constant tensor:
#      x y z
#    x 1.925900 0.000000 -0.003920 
#    y 0.000000 1.906890 0.000000 
#    z -0.003920 0.000000 1.922920 
# 
# From -- ./inp_files/144458.got.cif
#   From: 2010.06.25/outbox.cif.g09.slc.cpg/sg15_73_cif.got.tgz:144458.got - 2010.06.28 07:06:18.
