data_PCOD8154472
_publ_section_title
;
Structure prediction by ZEFSAII (Michael W. Deem and Ramdas Pophale) SiO2 
 PCOD8154472
Probable space group: C 2/C
;
_chemical_formula_sum "Si O2"
_cell_formula_units_Z 48
_cell_length_a 19.203329
_cell_length_b 11.984832
_cell_length_c 11.503100
_cell_angle_alpha 90.000000
_cell_angle_beta 134.674680
_cell_angle_gamma 90.000000
_cell_volume 1882.609756
_symmetry_space_group_name_H-M "C 2/C"
_symmetry_group_IT_number 15
_symmetry_cell_setting 'monoclinic'
loop_
_space_group_symop_operation_xyz
x,y,z
-x,y,1/2-z
-x,-y,-z
x,-y,1/2+z
1/2+x,1/2+y,z
1/2-x,1/2+y,1/2-z
1/2-x,1/2-y,-z
1/2+x,1/2-y,1/2+z
loop_
_atom_site_type_symbol
_atom_site_label
_atom_site_fract_x
_atom_site_fract_y
_atom_site_fract_z
Si Si1 0.883333 0.704331 0.509166
Si Si2 0.000000 0.509280 0.750000
Si Si3 0.500000 0.449870 0.250000
Si Si4 0.473533 0.326190 0.993892
Si Si5 0.221020 0.237528 0.146664
Si Si6 0.353375 0.392811 0.646332
Si Si7 0.294746 0.927861 0.542413
O O1 0.772759 0.707347 0.330091
O O2 0.871222 0.767213 0.619154
O O3 0.939404 0.586708 0.588364
O O4 0.942892 0.765897 0.478888
O O5 0.086710 0.432095 0.797188
O O6 0.473313 0.383037 0.334902
O O7 0.594683 0.526258 0.387034
O O8 0.393359 0.246194 0.959454
O O9 0.411052 0.407821 0.835848
O O10 0.245715 0.132019 0.094676
O O11 0.243315 0.356462 0.113121
O O12 0.241994 0.442375 0.519455
#
# Coordination Sequence:
#
# PCOD8154472 Si02
#       7
#     8   4   4   8   8   8   8
#     4  12  27  47  75 111 152 197 250 304 384 441
#     4  12  27  51  76 112 148 206 249 315 372 456
#     4  12  23  39  74 110 140 190 247 305 368 430
#     4  12  25  45  75 106 149 190 249 310 366 448
#     4  11  28  48  71 111 150 203 242 314 373 452
#     4  12  24  48  73 111 148 193 247 307 370 454
#     4  11  28  49  75 108 153 196 258 301 384 442
#
# _framework density 25.496521999999999
#
# number of rings (size 3 to 8) (size 9 to 14) (size 15 to 20)
#    0.000    0.333    5.000    2.500    9.333    3.333 
#    0.000    0.000    0.000    0.000    0.000    0.000 
#    0.000    0.000    0.000    0.000    0.000    0.000 
#
# Total GULP energy -297371.284751 kJ/mol
# GULP energy per Si atom -12390.470198 kJ/mol
# Density = 2.543849 g / cm^3
# Si number density = 25.496522 Si / 1000 Ang^3
#
#
#
# Elastic Constant Matrix: (Units=GPa)
#
#
# Indices 1 2 3 4 5 6 
#
# 1 53.0682 -2.3557 -11.7583 0.0000 6.2839 0.0000
# 2 -2.3557 72.9623 16.6691 0.0000 -9.1733 0.0000
# 3 -11.7583 16.6691 84.8950 0.0000 -7.2937 0.0000
# 4 0.0000 0.0000 0.0000 24.8178 0.0000 0.5537
# 5 6.2839 -9.1733 -7.2937 0.0000 50.9218 0.0000
# 6 0.0000 0.0000 0.0000 0.5537 0.0000 -4.8041
#
#
#
# Elastic Compliance Matrix: (Units=1/GPa)
#
#
# Indices 1 2 3 4 5 6 
#
# 1 0.019655 -0.000219 0.002585 0.000000 -0.002095 0.000000
# 2 -0.000219 0.014601 -0.002702 0.000000 0.002270 0.000000
# 3 0.002585 -0.002702 0.012756 0.000000 0.001021 0.000000
# 4 0.000000 0.000000 0.000000 0.040190 0.000000 0.004632
# 5 -0.002095 0.002270 0.001021 0.000000 0.020452 0.000000
# 6 0.000000 0.000000 0.000000 0.004632 0.000000 -0.207622
#
#
# Mechanical properties :
#
#
# Convention : Reuss Voigt Hill
#
# Bulk Modulus (GPa) = 21.57998 24.00395 22.79197
# Shear Modulus (GPa) = -59.63128 28.07845 -15.77641
#
# Velocity S-wave (km/s) = -4.84136 3.32213 -2.49020
# Velocity P-wave (km/s) = 4.77173 4.91431 0.83097
#
# Compressibility (1/GPa) = 0.04633925
#
# Stress axis : x y z
#
# Youngs Moduli (GPa) = 50.87811 68.48637 78.39652
#
# Poissons Ratio (x) = 0.01503 -0.20269
# Poissons Ratio (y) = 0.01116 0.21185
# Poissons Ratio (z) = -0.13154 0.18507
#
# Static dielectric constant tensor:
#      x y z
#    x 4.962190 0.000000 0.183410 
#    y 0.000000 4.366420 0.000000 
#    z 0.183410 0.000000 4.546860 
# 
# 
# High freq. dielectric constant tensor:
#      x y z
#    x 2.047340 0.000000 0.012520 
#    y 0.000000 2.004900 0.000000 
#    z 0.012520 0.000000 2.012530 
# 
# From -- ./inp_files/111470.got.cif
#   From: 2010.06.25/outbox.cif.g09.slc.cpg/sg15_56_cif.got.tgz:111470.got - 2010.06.28 07:06:18.
