data_PCOD8154879
_publ_section_title
;
Structure prediction by ZEFSAII (Michael W. Deem and Ramdas Pophale) SiO2 
 PCOD8154879
Probable space group: C 2/C
;
_chemical_formula_sum "Si O2"
_cell_formula_units_Z 44
_cell_length_a 17.820554
_cell_length_b 9.459693
_cell_length_c 14.006370
_cell_angle_alpha 90.000000
_cell_angle_beta 121.960805
_cell_angle_gamma 90.000000
_cell_volume 2003.225430
_symmetry_space_group_name_H-M "C 2/C"
_symmetry_group_IT_number 15
_symmetry_cell_setting 'monoclinic'
loop_
_space_group_symop_operation_xyz
x,y,z
-x,y,1/2-z
-x,-y,-z
x,-y,1/2+z
1/2+x,1/2+y,z
1/2-x,1/2+y,1/2-z
1/2-x,1/2-y,-z
1/2+x,1/2-y,1/2+z
loop_
_atom_site_type_symbol
_atom_site_label
_atom_site_fract_x
_atom_site_fract_y
_atom_site_fract_z
Si Si1 0.374962 0.893535 0.085966
Si Si2 0.500000 0.343842 0.750000
Si Si3 0.817268 0.328310 0.839723
Si Si4 0.003395 0.652726 0.362303
Si Si5 0.232451 0.969409 0.141384
Si Si6 0.949627 0.044118 0.557334
O O1 0.417702 0.756486 0.166027
O O2 0.317707 0.965000 0.130369
O O3 0.447497 0.002873 0.093964
O O4 0.316979 0.854602 0.954150
O O5 0.510003 0.456774 0.672166
O O6 0.910777 0.361079 0.854040
O O7 0.786581 0.168166 0.808100
O O8 0.744034 0.415616 0.732600
O O9 0.000000 0.691105 0.250000
O O10 0.054418 0.786294 0.439524
O O11 0.152190 0.998568 0.015178
O O12 0.000000 0.000000 0.500000
#
# Coordination Sequence:
#
# PCOD8154879 Si02
#       6
#     8   4   8   8   8   8
#     4  12  26  47  74 107 145 195 246 308 372 439
#     4  12  24  46  74 102 148 188 246 298 360 448
#     4  12  27  47  72 106 151 191 244 306 374 443
#     4  12  24  48  72 104 143 190 243 301 375 440
#     4  12  28  46  72 109 144 194 247 303 373 436
#     4  12  27  45  72 107 147 194 243 303 371 434
#
# _framework density 21.964576999999998
#
# number of rings (size 3 to 8) (size 9 to 14) (size 15 to 20)
#    0.000    0.000    7.273    1.091    5.091    2.182 
#    0.000    0.000    0.000    0.000    0.000    0.000 
#    0.000    0.000    0.000    0.000    0.000    0.000 
#
# Total GULP energy -272619.580061 kJ/mol
# GULP energy per Si atom -12391.799094 kJ/mol
# Density = 2.191459 g / cm^3
# Si number density = 21.964577 Si / 1000 Ang^3
#
#
#
# Elastic Constant Matrix: (Units=GPa)
#
#
# Indices 1 2 3 4 5 6 
#
# 1 64.9020 1.3339 12.2300 0.0000 2.6655 0.0000
# 2 1.3339 128.3495 38.1954 0.0000 14.3888 0.0000
# 3 12.2300 38.1954 130.7848 0.0000 -13.4555 0.0000
# 4 0.0000 0.0000 0.0000 52.6659 0.0000 5.4755
# 5 2.6655 14.3888 -13.4555 0.0000 20.6902 0.0000
# 6 0.0000 0.0000 0.0000 5.4755 0.0000 27.7430
#
#
#
# Elastic Compliance Matrix: (Units=1/GPa)
#
#
# Indices 1 2 3 4 5 6 
#
# 1 0.015973 0.000954 -0.002199 0.000000 -0.004152 0.000000
# 2 0.000954 0.010076 -0.004035 0.000000 -0.009754 0.000000
# 3 -0.002199 -0.004035 0.010019 0.000000 0.009605 0.000000
# 4 0.000000 0.000000 0.000000 0.019385 0.000000 -0.003826
# 5 -0.004152 -0.009754 0.009605 0.000000 0.061897 0.000000
# 6 0.000000 0.000000 0.000000 -0.003826 0.000000 0.036800
#
#
# Mechanical properties :
#
#
# Convention : Reuss Voigt Hill
#
# Bulk Modulus (GPa) = 39.20678 47.50609 43.35644
# Shear Modulus (GPa) = 28.86613 38.37162 33.61888
#
# Velocity S-wave (km/s) = 3.62914 4.18422 3.91653
# Velocity P-wave (km/s) = 5.95396 6.70962 6.34305
#
# Compressibility (1/GPa) = 0.02550579
#
# Stress axis : x y z
#
# Youngs Moduli (GPa) = 62.60494 99.24870 99.81519
#
# Poissons Ratio (x) = -0.09468 0.21953
# Poissons Ratio (y) = -0.05972 0.40279
# Poissons Ratio (z) = 0.13769 0.40050
#
# Static dielectric constant tensor:
#      x y z
#    x 3.727170 0.000000 -0.179140 
#    y 0.000000 4.472200 0.000000 
#    z -0.179140 0.000000 3.989820 
# 
# 
# High freq. dielectric constant tensor:
#      x y z
#    x 1.860630 0.000000 -0.009330 
#    y 0.000000 1.884720 0.000000 
#    z -0.009330 0.000000 1.877180 
# 
# From -- ./inp_files/159814.got.cif
#   From: 2010.06.25/outbox.cif.g09.slc.cpg/sg15_80_cif.got.tgz:159814.got - 2010.06.28 07:06:18.
