data_PCOD8154200
_publ_section_title
;
Structure prediction by ZEFSAII (Michael W. Deem and Ramdas Pophale) SiO2 
 PCOD8154200
Probable space group: C 2/C
;
_chemical_formula_sum "Si O2"
_cell_formula_units_Z 44
_cell_length_a 9.499265
_cell_length_b 18.680800
_cell_length_c 11.929780
_cell_angle_alpha 90.000000
_cell_angle_beta 70.496086
_cell_angle_gamma 90.000000
_cell_volume 1995.510207
_symmetry_space_group_name_H-M "C 2/C"
_symmetry_group_IT_number 15
_symmetry_cell_setting 'monoclinic'
loop_
_space_group_symop_operation_xyz
x,y,z
-x,y,1/2-z
-x,-y,-z
x,-y,1/2+z
1/2+x,1/2+y,z
1/2-x,1/2+y,1/2-z
1/2-x,1/2-y,-z
1/2+x,1/2-y,1/2+z
loop_
_atom_site_type_symbol
_atom_site_label
_atom_site_fract_x
_atom_site_fract_y
_atom_site_fract_z
Si Si1 0.658481 0.793749 0.933699
Si Si2 0.235705 0.472791 0.213529
Si Si3 0.612063 0.697127 0.530926
Si Si4 0.000000 0.895007 0.250000
Si Si5 0.645865 0.624504 0.283414
Si Si6 0.540848 0.937598 0.072179
O O1 0.537644 0.741698 0.913974
O O2 0.768526 0.812612 0.803232
O O3 0.750000 0.750000 0.000000
O O4 0.573850 0.862321 0.005763
O O5 0.398750 0.441426 0.193190
O O6 0.242195 0.556927 0.240766
O O7 0.192643 0.462357 0.094845
O O8 0.105140 0.429909 0.311890
O O9 0.750000 0.750000 0.500000
O O10 0.615142 0.647324 0.639822
O O11 0.606123 0.651037 0.418413
O O12 0.500000 0.603797 0.250000
O O13 0.500000 0.000000 0.000000
#
# Coordination Sequence:
#
# PCOD8154200 Si02
#       6
#     8   8   8   4   8   8
#     4  12  25  47  74 102 147 193 242 301 370 442
#     4  11  26  43  74 105 144 188 243 304 361 442
#     4  12  28  45  73 104 145 187 242 297 367 445
#     4  12  26  48  70 106 144 190 234 300 366 432
#     4  12  26  46  72 107 142 192 243 304 369 434
#     4  11  25  46  73 104 141 190 244 301 366 435
#
# _framework density 22.049500999999999
#
# number of rings (size 3 to 8) (size 9 to 14) (size 15 to 20)
#    0.000    0.364    4.545    3.273    5.091    3.636 
#    0.000    0.000    0.000    0.000    0.000    0.000 
#    0.000    0.000    0.000    0.000    0.000    0.000 
#
# Total GULP energy -272850.085964 kJ/mol
# GULP energy per Si atom -12402.276635 kJ/mol
# Density = 2.199932 g / cm^3
# Si number density = 22.049501 Si / 1000 Ang^3
#
#
#
# Elastic Constant Matrix: (Units=GPa)
#
#
# Indices 1 2 3 4 5 6 
#
# 1 123.0805 22.6500 18.1792 0.0000 12.5910 0.0000
# 2 22.6500 98.7383 34.4503 0.0000 3.8846 0.0000
# 3 18.1792 34.4503 113.5577 0.0000 5.7351 0.0000
# 4 0.0000 0.0000 0.0000 27.4487 0.0000 -6.1155
# 5 12.5910 3.8846 5.7351 0.0000 39.7237 0.0000
# 6 0.0000 0.0000 0.0000 -6.1155 0.0000 51.7789
#
#
#
# Elastic Compliance Matrix: (Units=1/GPa)
#
#
# Indices 1 2 3 4 5 6 
#
# 1 0.008801 -0.001647 -0.000782 0.000000 -0.002516 0.000000
# 2 -0.001647 0.011650 -0.003263 0.000000 -0.000146 0.000000
# 3 -0.000782 -0.003263 0.009965 0.000000 -0.000872 0.000000
# 4 0.000000 0.000000 0.000000 0.037416 0.000000 0.004419
# 5 -0.002516 -0.000146 -0.000872 0.000000 0.026111 0.000000
# 6 0.000000 0.000000 0.000000 0.004419 0.000000 0.019835
#
#
# Mechanical properties :
#
#
# Convention : Reuss Voigt Hill
#
# Bulk Modulus (GPa) = 52.54541 53.99284 53.26912
# Shear Modulus (GPa) = 38.02088 41.13006 39.57547
#
# Velocity S-wave (km/s) = 4.15702 4.32366 4.24116
# Velocity P-wave (km/s) = 6.85007 7.03318 6.94223
#
# Compressibility (1/GPa) = 0.01903116
#
# Stress axis : x y z
#
# Youngs Moduli (GPa) = 113.62712 85.83769 100.34801
#
# Poissons Ratio (x) = 0.14137 0.07849
# Poissons Ratio (y) = 0.18714 0.32746
# Poissons Ratio (z) = 0.08888 0.28011
#
# Static dielectric constant tensor:
#      x y z
#    x 4.062960 0.000000 0.227670 
#    y 0.000000 3.949820 0.000000 
#    z 0.227670 0.000000 4.139800 
# 
# 
# High freq. dielectric constant tensor:
#      x y z
#    x 1.886010 0.000000 0.005510 
#    y 0.000000 1.875420 0.000000 
#    z 0.005510 0.000000 1.873350 
# 
# From -- ./inp_files/78141.got.cif
#   From: 2010.06.25/outbox.cif.g09.slc.cpg/sg15_40_cif.got.tgz:78141.got - 2010.06.28 07:06:18.
