data_PCOD8154674
_publ_section_title
;
Structure prediction by ZEFSAII (Michael W. Deem and Ramdas Pophale) SiO2 
 PCOD8154674
Probable space group: C 2/C
;
_chemical_formula_sum "Si O2"
_cell_formula_units_Z 48
_cell_length_a 18.054221
_cell_length_b 11.576117
_cell_length_c 15.227246
_cell_angle_alpha 90.000000
_cell_angle_beta 129.056101
_cell_angle_gamma 90.000000
_cell_volume 2471.274138
_symmetry_space_group_name_H-M "C 2/C"
_symmetry_group_IT_number 15
_symmetry_cell_setting 'monoclinic'
loop_
_space_group_symop_operation_xyz
x,y,z
-x,y,1/2-z
-x,-y,-z
x,-y,1/2+z
1/2+x,1/2+y,z
1/2-x,1/2+y,1/2-z
1/2-x,1/2-y,-z
1/2+x,1/2-y,1/2+z
loop_
_atom_site_type_symbol
_atom_site_label
_atom_site_fract_x
_atom_site_fract_y
_atom_site_fract_z
Si Si1 0.143820 0.335975 0.178440
Si Si2 0.345318 0.300050 0.407895
Si Si3 0.503567 0.328078 0.849746
Si Si4 0.129189 0.032312 0.719053
Si Si5 0.730711 0.729479 0.883325
Si Si6 0.317991 0.085139 0.290398
O O1 0.231216 0.314073 0.312301
O O2 0.053822 0.257470 0.130298
O O3 0.175552 0.307825 0.102222
O O4 0.116987 0.470960 0.170263
O O5 0.386092 0.326733 0.535414
O O6 0.400537 0.390336 0.386437
O O7 0.370938 0.169477 0.398605
O O8 0.500000 0.276847 0.750000
O O9 0.460465 0.456893 0.817276
O O10 0.157904 0.121097 0.818938
O O11 0.214827 0.947739 0.753601
O O12 0.691837 0.848336 0.810555
O O13 0.750000 0.750000 0.000000
#
# Coordination Sequence:
#
# PCOD8154674 Si02
#       6
#     8   8   8   8   8   8
#     4   9  20  39  57  82 119 148 186 234 285 345
#     4   9  19  36  61  77 110 153 185 233 287 325
#     4  12  23  36  54  86 116 149 194 227 279 346
#     4   9  18  37  56  82 116 144 186 236 285 337
#     4   9  17  33  63  87 104 147 196 234 283 331
#     4   8  16  37  60  76 113 149 182 230 288 334
#
# _framework density 19.423178
#
# number of rings (size 3 to 8) (size 9 to 14) (size 15 to 20)
#    0.000    3.333    3.333    0.500    0.000    4.000 
#    9.000    0.000    0.000    0.000    0.000    0.000 
#    0.000    0.000    0.000    0.000    0.000    0.000 
#
# Total GULP energy -297328.836429 kJ/mol
# GULP energy per Si atom -12388.701518 kJ/mol
# Density = 1.937897 g / cm^3
# Si number density = 19.423178 Si / 1000 Ang^3
#
#
#
# Elastic Constant Matrix: (Units=GPa)
#
#
# Indices 1 2 3 4 5 6 
#
# 1 36.4815 20.0179 24.5151 0.0000 -6.6871 0.0000
# 2 20.0179 132.8021 31.4252 0.0000 -8.8980 0.0000
# 3 24.5151 31.4252 139.4281 0.0000 -20.5501 0.0000
# 4 0.0000 0.0000 0.0000 18.7752 0.0000 1.3318
# 5 -6.6871 -8.8980 -20.5501 0.0000 24.2256 0.0000
# 6 0.0000 0.0000 0.0000 1.3318 0.0000 20.7402
#
#
#
# Elastic Compliance Matrix: (Units=1/GPa)
#
#
# Indices 1 2 3 4 5 6 
#
# 1 0.033130 -0.003681 -0.004397 0.000000 0.004063 0.000000
# 2 -0.003681 0.008418 -0.001079 0.000000 0.001160 0.000000
# 3 -0.004397 -0.001079 0.009087 0.000000 0.006099 0.000000
# 4 0.000000 0.000000 0.000000 0.053505 0.000000 -0.003436
# 5 0.004063 0.001160 0.006099 0.000000 0.048000 0.000000
# 6 0.000000 0.000000 0.000000 -0.003436 0.000000 0.048436
#
#
# Mechanical properties :
#
#
# Convention : Reuss Voigt Hill
#
# Bulk Modulus (GPa) = 30.93874 51.18090 41.05982
# Shear Modulus (GPa) = 21.77087 28.26511 25.01799
#
# Velocity S-wave (km/s) = 3.35157 3.81888 3.59283
# Velocity P-wave (km/s) = 5.56244 6.77147 6.19651
#
# Compressibility (1/GPa) = 0.03232193
#
# Stress axis : x y z
#
# Youngs Moduli (GPa) = 30.18378 118.79351 110.04430
#
# Poissons Ratio (x) = 0.43731 0.48382
# Poissons Ratio (y) = 0.11111 0.11874
# Poissons Ratio (z) = 0.13271 0.12818
#
# Static dielectric constant tensor:
#      x y z
#    x 3.060540 0.000000 -0.021200 
#    y 0.000000 3.993260 0.000000 
#    z -0.021200 0.000000 3.287960 
# 
# 
# High freq. dielectric constant tensor:
#      x y z
#    x 1.709780 0.000000 -0.000540 
#    y 0.000000 1.781940 0.000000 
#    z -0.000540 0.000000 1.740770 
# 
# From -- ./inp_files/167372.got.cif
#   From: 2010.06.25/outbox.cif.g09.slc.cpg/sg15_84_cif.got.tgz:167372.got - 2010.06.28 07:06:18.
