data_PCOD8154114
_publ_section_title
;
Structure prediction by ZEFSAII (Michael W. Deem and Ramdas Pophale) SiO2 
 PCOD8154114
Probable space group: C 2/C
;
_chemical_formula_sum "Si O2"
_cell_formula_units_Z 48
_cell_length_a 20.669992
_cell_length_b 10.591453
_cell_length_c 26.964895
_cell_angle_alpha 90.000000
_cell_angle_beta 159.046270
_cell_angle_gamma 90.000000
_cell_volume 2111.100870
_symmetry_space_group_name_H-M "C 2/C"
_symmetry_group_IT_number 15
_symmetry_cell_setting 'monoclinic'
loop_
_space_group_symop_operation_xyz
x,y,z
-x,y,1/2-z
-x,-y,-z
x,-y,1/2+z
1/2+x,1/2+y,z
1/2-x,1/2+y,1/2-z
1/2-x,1/2-y,-z
1/2+x,1/2-y,1/2+z
loop_
_atom_site_type_symbol
_atom_site_label
_atom_site_fract_x
_atom_site_fract_y
_atom_site_fract_z
Si Si1 0.955813 0.358426 0.849986
Si Si2 0.306448 0.507251 0.593424
Si Si3 0.962462 0.917020 0.107081
Si Si4 0.157860 0.516195 0.327896
Si Si5 0.306432 0.246282 0.438719
Si Si6 0.686364 0.347027 0.747796
O O1 0.964007 0.222435 0.828858
O O2 0.884669 0.462114 0.760168
O O3 0.829647 0.354798 0.806841
O O4 0.153964 0.404957 0.009104
O O5 0.500000 0.557153 0.750000
O O6 0.313853 0.528258 0.539622
O O7 0.277123 0.361281 0.585926
O O8 0.131182 0.011696 0.224337
O O9 0.848080 0.911850 0.974181
O O10 0.185405 0.369177 0.360041
O O11 0.000000 0.570255 0.250000
O O12 0.513895 0.267789 0.604499
O O13 0.289729 0.213075 0.368586
#
# Coordination Sequence:
#
# PCOD8154114 Si02
#       6
#     8   8   8   8   8   8
#     4  12  29  46  75 107 158 193 248 307 383 452
#     4  12  25  46  75 108 146 195 246 309 367 442
#     4  11  27  45  71 112 147 194 253 300 379 450
#     4  11  25  44  75 106 143 192 244 314 374 428
#     4  11  26  48  77 109 151 189 260 309 370 450
#     4  11  28  47  76 111 149 205 245 314 378 446
#
# _framework density 22.736953
#
# number of rings (size 3 to 8) (size 9 to 14) (size 15 to 20)
#    0.000    0.667    3.333    2.000    9.333    3.333 
#    0.000    0.000    0.000    0.000    0.000    0.000 
#    0.000    0.000    0.000    0.000    0.000    0.000 
#
# Total GULP energy -297641.765336 kJ/mol
# GULP energy per Si atom -12401.740222 kJ/mol
# Density = 2.268520 g / cm^3
# Si number density = 22.736953 Si / 1000 Ang^3
#
#
#
# Elastic Constant Matrix: (Units=GPa)
#
#
# Indices 1 2 3 4 5 6 
#
# 1 112.3178 39.4912 30.9932 0.0155 16.9694 -0.0009
# 2 39.4912 122.0865 42.2343 -0.0016 4.7907 -0.0125
# 3 30.9932 42.2343 117.2086 -0.0161 3.1330 -0.0345
# 4 0.0155 -0.0016 -0.0161 26.9269 -0.0024 -0.0248
# 5 16.9694 4.7907 3.1330 -0.0024 35.8603 -0.0097
# 6 -0.0009 -0.0125 -0.0345 -0.0248 -0.0097 30.2172
#
#
#
# Elastic Compliance Matrix: (Units=1/GPa)
#
#
# Indices 1 2 3 4 5 6 
#
# 1 0.011091 -0.002778 -0.001806 -0.000008 -0.004720 -0.000004
# 2 -0.002778 0.010086 -0.002906 0.000000 0.000221 0.000001
# 3 -0.001806 -0.002906 0.010047 0.000007 0.000365 0.000010
# 4 -0.000008 0.000000 0.000007 0.037138 0.000006 0.000030
# 5 -0.004720 0.000221 0.000365 0.000006 0.030058 0.000010
# 6 -0.000004 0.000001 0.000010 0.000030 0.000010 0.033094
#
#
# Mechanical properties :
#
#
# Convention : Reuss Voigt Hill
#
# Bulk Modulus (GPa) = 61.55618 64.11669 62.83643
# Shear Modulus (GPa) = 32.91487 34.52714 33.72101
#
# Velocity S-wave (km/s) = 3.80891 3.90108 3.85527
# Velocity P-wave (km/s) = 6.81731 6.96791 6.89302
#
# Compressibility (1/GPa) = 0.01624532
#
# Stress axis : x y z
#
# Youngs Moduli (GPa) = 90.16040 99.14754 99.53653
#
# Poissons Ratio (x) = 0.27541 0.17974
# Poissons Ratio (y) = 0.25045 0.28922
# Poissons Ratio (z) = 0.16281 0.28809
#
# Static dielectric constant tensor:
#      x y z
#    x 4.056200 0.000070 -0.162600 
#    y 0.000070 4.118210 -0.000140 
#    z -0.162600 -0.000140 4.305940 
# 
# 
# High freq. dielectric constant tensor:
#      x y z
#    x 1.892260 0.000000 -0.006200 
#    y 0.000000 1.900510 -0.000010 
#    z -0.006200 -0.000010 1.914240 
# 
# From -- ./inp_files/300968.got.cif
#   From: 2010.06.25/outbox.cif.g09.slc.cpg/sg15_151_cif.got.tgz:300968.got - 2010.06.28 07:06:18.
