data_PCOD8154034
_publ_section_title
;
Structure prediction by ZEFSAII (Michael W. Deem and Ramdas Pophale) SiO2 
 PCOD8154034
Probable space group: C 2/C
;
_chemical_formula_sum "Si O2"
_cell_formula_units_Z 40
_cell_length_a 15.852251
_cell_length_b 12.296937
_cell_length_c 17.016506
_cell_angle_alpha 90.000000
_cell_angle_beta 34.836986
_cell_angle_gamma 90.000000
_cell_volume 1894.870648
_symmetry_space_group_name_H-M "C 2/C"
_symmetry_group_IT_number 15
_symmetry_cell_setting 'monoclinic'
loop_
_space_group_symop_operation_xyz
x,y,z
-x,y,1/2-z
-x,-y,-z
x,-y,1/2+z
1/2+x,1/2+y,z
1/2-x,1/2+y,1/2-z
1/2-x,1/2-y,-z
1/2+x,1/2-y,1/2+z
loop_
_atom_site_type_symbol
_atom_site_label
_atom_site_fract_x
_atom_site_fract_y
_atom_site_fract_z
Si Si1 0.697755 0.493113 0.415388
Si Si2 0.892716 0.488861 0.509412
Si Si3 0.066157 0.685345 0.783441
Si Si4 0.121668 0.084002 0.309943
Si Si5 0.359841 0.847589 0.904295
O O1 0.778356 0.378161 0.340081
O O2 0.696454 0.565795 0.337659
O O3 0.534306 0.476715 0.573596
O O4 0.788980 0.554263 0.411174
O O5 0.724612 0.468613 0.664498
O O6 0.905555 0.602620 0.453207
O O7 0.000000 0.500000 0.500000
O O8 0.941131 0.388105 0.418884
O O9 0.099101 0.788673 0.812541
O O10 0.000000 0.721878 0.750000
O O11 0.500000 0.801726 0.750000
O O12 0.250000 0.750000 0.000000
#
# Coordination Sequence:
#
# PCOD8154034 Si02
#       5
#     8   8   8   8   8
#     4  11  24  50  64 105 146 173 234 291 334 421
#     4  12  24  47  71 101 139 180 230 287 344 413
#     4  12  24  47  72 101 143 183 229 290 349 407
#     4  11  27  40  75 103 135 184 229 280 347 415
#     4  12  27  47  72  99 140 185 229 288 348 411
#
# _framework density 21.10962
#
# number of rings (size 3 to 8) (size 9 to 14) (size 15 to 20)
#    0.000    0.400    6.000    1.200    8.400    1.600 
#    3.600    0.000    0.000    0.000    0.000    0.000 
#    0.000    0.000    0.000    0.000    0.000    0.000 
#
# Total GULP energy -248132.027118 kJ/mol
# GULP energy per Si atom -12406.601356 kJ/mol
# Density = 2.106157 g / cm^3
# Si number density = 21.109620 Si / 1000 Ang^3
#
#
#
# Elastic Constant Matrix: (Units=GPa)
#
#
# Indices 1 2 3 4 5 6 
#
# 1 117.4534 41.0361 27.6944 -0.0001 5.4909 0.0000
# 2 41.0361 116.4026 42.3525 0.0001 7.7263 0.0000
# 3 27.6944 42.3525 175.3250 0.0003 -6.7495 0.0000
# 4 -0.0001 0.0001 0.0003 32.9724 -0.0001 -8.8139
# 5 5.4909 7.7263 -6.7495 -0.0001 29.4300 0.0000
# 6 0.0000 0.0000 0.0000 -8.8139 0.0000 32.6276
#
#
#
# Elastic Compliance Matrix: (Units=1/GPa)
#
#
# Indices 1 2 3 4 5 6 
#
# 1 0.009849 -0.003078 -0.000859 0.000000 -0.001227 0.000000
# 2 -0.003078 0.010655 -0.002193 0.000000 -0.002726 0.000000
# 3 -0.000859 -0.002193 0.006454 0.000000 0.002216 0.000000
# 4 0.000000 0.000000 0.000000 0.032689 0.000000 0.008830
# 5 -0.001227 -0.002726 0.002216 0.000000 0.035432 0.000000
# 6 0.000000 0.000000 0.000000 0.008830 0.000000 0.033034
#
#
# Mechanical properties :
#
#
# Convention : Reuss Voigt Hill
#
# Bulk Modulus (GPa) = 68.03513 70.14966 69.09240
# Shear Modulus (GPa) = 34.41794 38.87920 36.64857
#
# Velocity S-wave (km/s) = 4.04225 4.29625 4.17118
# Velocity P-wave (km/s) = 7.35430 7.61010 7.48329
#
# Compressibility (1/GPa) = 0.01469829
#
# Stress axis : x y z
#
# Youngs Moduli (GPa) = 101.52831 93.85537 154.93285
#
# Poissons Ratio (x) = 0.28890 0.13316
# Poissons Ratio (y) = 0.31252 0.33969
# Poissons Ratio (z) = 0.08726 0.20578
#
# Static dielectric constant tensor:
#      x y z
#    x 4.090870 0.000000 0.043930 
#    y 0.000000 3.481090 0.000000 
#    z 0.043930 0.000000 4.137830 
# 
# 
# High freq. dielectric constant tensor:
#      x y z
#    x 1.838870 0.000000 -0.001120 
#    y 0.000000 1.821330 0.000000 
#    z -0.001120 0.000000 1.851210 
# 
# From -- ./inp_files/46249.got.cif
#   From: 2010.06.25/outbox.cif.g09.slc.cpg/sg15_24_cif.got.tgz:46249.got - 2010.06.28 07:06:18.
