data_PCOD8154675
_publ_section_title
;
Structure prediction by ZEFSAII (Michael W. Deem and Ramdas Pophale) SiO2 
 PCOD8154675
Probable space group: C 2/C
;
_chemical_formula_sum "Si O2"
_cell_formula_units_Z 48
_cell_length_a 13.661325
_cell_length_b 11.513615
_cell_length_c 19.941801
_cell_angle_alpha 90.000000
_cell_angle_beta 123.948465
_cell_angle_gamma 90.000000
_cell_volume 2601.994323
_symmetry_space_group_name_H-M "C 2/C"
_symmetry_group_IT_number 15
_symmetry_cell_setting 'monoclinic'
loop_
_space_group_symop_operation_xyz
x,y,z
-x,y,1/2-z
-x,-y,-z
x,-y,1/2+z
1/2+x,1/2+y,z
1/2-x,1/2+y,1/2-z
1/2-x,1/2-y,-z
1/2+x,1/2-y,1/2+z
loop_
_atom_site_type_symbol
_atom_site_label
_atom_site_fract_x
_atom_site_fract_y
_atom_site_fract_z
Si Si1 0.307848 0.006998 0.503005
Si Si2 0.815438 0.439998 0.853642
Si Si3 0.555642 0.529734 0.950567
Si Si4 0.537867 0.207717 0.461014
Si Si5 0.469811 0.154687 0.889546
Si Si6 0.566891 0.620679 0.206681
O O1 0.363425 0.878787 0.530407
O O2 0.189610 0.017417 0.501406
O O3 0.275057 0.032399 0.413592
O O4 0.399162 0.101681 0.566019
O O5 0.873119 0.554171 0.842619
O O6 0.705956 0.399732 0.767550
O O7 0.909445 0.336209 0.889985
O O8 0.558201 0.666798 0.937093
O O9 0.478809 0.472133 0.863661
O O10 0.500000 0.500000 0.000000
O O11 0.546790 0.215026 0.544813
O O12 0.454719 0.248271 0.825672
O O13 0.500000 0.599957 0.250000
#
# Coordination Sequence:
#
# PCOD8154675 Si02
#       6
#     8   8   8   8   8   8
#     4   9  19  40  64  83 114 151 202 234 294 353
#     4   9  20  39  62  83 116 155 191 239 297 353
#     4  12  23  36  57  93 119 151 202 243 289 345
#     4   9  19  39  65  85 109 157 196 245 286 346
#     4   9  20  40  61  84 112 157 197 236 293 356
#     4  12  24  38  55  87 125 158 188 245 305 345
#
# _framework density 18.447389999999999
#
# number of rings (size 3 to 8) (size 9 to 14) (size 15 to 20)
#    0.000    2.000    3.333    2.500    2.333    2.000 
#    0.000    0.000    0.000    0.000    0.000    0.000 
#    0.000    0.000    0.000    0.000    0.000    0.000 
#
# Total GULP energy -297666.774595 kJ/mol
# GULP energy per Si atom -12402.782275 kJ/mol
# Density = 1.840540 g / cm^3
# Si number density = 18.447390 Si / 1000 Ang^3
#
#
#
# Elastic Constant Matrix: (Units=GPa)
#
#
# Indices 1 2 3 4 5 6 
#
# 1 114.2041 25.1187 54.3096 0.0000 13.9951 0.0000
# 2 25.1187 110.3454 56.0850 0.0000 7.0981 0.0000
# 3 54.3096 56.0850 118.0246 0.0000 15.6985 0.0000
# 4 0.0000 0.0000 0.0000 33.9965 0.0000 -4.5428
# 5 13.9951 7.0981 15.6985 0.0000 32.2414 0.0000
# 6 0.0000 0.0000 0.0000 -4.5428 0.0000 20.4855
#
#
#
# Elastic Compliance Matrix: (Units=1/GPa)
#
#
# Indices 1 2 3 4 5 6 
#
# 1 0.011404 0.000083 -0.004946 0.000000 -0.002560 0.000000
# 2 0.000083 0.011950 -0.005733 0.000000 0.000125 0.000000
# 3 -0.004946 -0.005733 0.013921 0.000000 -0.003369 0.000000
# 4 0.000000 0.000000 0.000000 0.030313 0.000000 0.006722
# 5 -0.002560 0.000125 -0.003369 0.000000 0.033740 0.000000
# 6 0.000000 0.000000 0.000000 0.006722 0.000000 0.050306
#
#
# Mechanical properties :
#
#
# Convention : Reuss Voigt Hill
#
# Bulk Modulus (GPa) = 62.18326 68.17786 65.18056
# Shear Modulus (GPa) = 28.06026 31.14873 29.60449
#
# Velocity S-wave (km/s) = 3.90435 4.11361 4.01035
# Velocity P-wave (km/s) = 7.35574 7.72015 7.54015
#
# Compressibility (1/GPa) = 0.01608150
#
# Stress axis : x y z
#
# Youngs Moduli (GPa) = 87.68824 83.68543 71.83168
#
# Poissons Ratio (x) = -0.00693 0.35531
# Poissons Ratio (y) = -0.00726 0.41182
# Poissons Ratio (z) = 0.43375 0.47978
#
# Static dielectric constant tensor:
#      x y z
#    x 3.413300 0.000000 0.073580 
#    y 0.000000 3.459420 0.000000 
#    z 0.073580 0.000000 3.325870 
# 
# 
# High freq. dielectric constant tensor:
#      x y z
#    x 1.717290 0.000000 0.014880 
#    y 0.000000 1.725530 0.000000 
#    z 0.014880 0.000000 1.704110 
# 
# From -- ./inp_files/152079.got.cif
#   From: 2010.06.25/outbox.cif.g09.slc.cpg/sg15_77_cif.got.tgz:152079.got - 2010.06.28 07:06:18.
