data_PCOD8154834
_publ_section_title
;
Structure prediction by ZEFSAII (Michael W. Deem and Ramdas Pophale) SiO2 
 PCOD8154834
Probable space group: C 2/C
;
_chemical_formula_sum "Si O2"
_cell_formula_units_Z 28
_cell_length_a 7.701627
_cell_length_b 5.437226
_cell_length_c 28.672854
_cell_angle_alpha 90.000000
_cell_angle_beta 59.237182
_cell_angle_gamma 90.000000
_cell_volume 1031.743071
_symmetry_space_group_name_H-M "C 2/C"
_symmetry_group_IT_number 15
_symmetry_cell_setting 'monoclinic'
loop_
_space_group_symop_operation_xyz
x,y,z
-x,y,1/2-z
-x,-y,-z
x,-y,1/2+z
1/2+x,1/2+y,z
1/2-x,1/2+y,1/2-z
1/2-x,1/2-y,-z
1/2+x,1/2-y,1/2+z
loop_
_atom_site_type_symbol
_atom_site_label
_atom_site_fract_x
_atom_site_fract_y
_atom_site_fract_z
Si Si1 0.228155 0.276811 0.894077
Si Si2 0.345366 0.463709 0.678039
Si Si3 0.000000 0.869064 0.250000
Si Si4 0.683052 0.000421 0.034367
O O1 0.449022 0.382577 0.875316
O O2 0.214015 0.214526 0.840776
O O3 0.215090 0.028522 0.928072
O O4 0.060998 0.480638 0.929924
O O5 0.370274 0.477259 0.730584
O O6 0.156104 0.283192 0.696392
O O7 0.750000 0.750000 0.000000
O O8 0.750000 0.250000 0.000000
#
# Coordination Sequence:
#
# PCOD8154834 Si02
#       4
#     8   8   4   8
#     4  12  26  47  73 108 148 196 249 309 372 444
#     4  12  25  45  72 106 146 192 244 305 369 444
#     4  12  24  44  70 104 144 192 242 302 372 444
#     4  12  27  49  76 110 152 200 252 311 375 446
#
# _framework density 27.138536999999999
#
# number of rings (size 3 to 8) (size 9 to 14) (size 15 to 20)
#    0.000    0.000    0.000   10.286    0.000    4.571 
#    0.000    0.000    0.000    0.000    0.000    0.000 
#    0.000    0.000    0.000    0.000    0.000    0.000 
#
# Total GULP energy -173568.444746 kJ/mol
# GULP energy per Si atom -12397.746053 kJ/mol
# Density = 2.707677 g / cm^3
# Si number density = 27.138537 Si / 1000 Ang^3
#
#
#
# Elastic Constant Matrix: (Units=GPa)
#
#
# Indices 1 2 3 4 5 6 
#
# 1 127.2705 23.7706 31.2517 0.0000 -1.1517 0.0000
# 2 23.7706 98.5187 20.6893 0.0000 -0.8058 0.0000
# 3 31.2517 20.6893 98.1438 0.0000 1.6133 0.0000
# 4 0.0000 0.0000 0.0000 20.9732 0.0000 6.7790
# 5 -1.1517 -0.8058 1.6133 0.0000 36.6368 0.0000
# 6 0.0000 0.0000 0.0000 6.7790 0.0000 42.2331
#
#
#
# Elastic Compliance Matrix: (Units=1/GPa)
#
#
# Indices 1 2 3 4 5 6 
#
# 1 0.008762 -0.001595 -0.002460 0.000000 0.000349 0.000000
# 2 -0.001595 0.010915 -0.001798 0.000000 0.000269 0.000000
# 3 -0.002460 -0.001798 0.011361 0.000000 -0.000617 0.000000
# 4 0.000000 0.000000 0.000000 0.050289 0.000000 -0.008072
# 5 0.000349 0.000269 -0.000617 0.000000 0.027339 0.000000
# 6 0.000000 0.000000 0.000000 -0.008072 0.000000 0.024974
#
#
# Mechanical properties :
#
#
# Convention : Reuss Voigt Hill
#
# Bulk Modulus (GPa) = 51.72079 52.81736 52.26907
# Shear Modulus (GPa) = 32.94042 36.51671 34.72857
#
# Velocity S-wave (km/s) = 3.48773 3.67218 3.58114
# Velocity P-wave (km/s) = 5.94293 6.12244 6.03335
#
# Compressibility (1/GPa) = 0.01933459
#
# Stress axis : x y z
#
# Youngs Moduli (GPa) = 114.12546 91.61846 88.01703
#
# Poissons Ratio (x) = 0.14611 0.21650
# Poissons Ratio (y) = 0.18200 0.15821
# Poissons Ratio (z) = 0.28071 0.16469
#
# Static dielectric constant tensor:
#      x y z
#    x 5.199270 0.000000 -0.036690 
#    y 0.000000 4.694220 0.000000 
#    z -0.036690 0.000000 5.148260 
# 
# 
# High freq. dielectric constant tensor:
#      x y z
#    x 2.115310 0.000000 -0.002740 
#    y 0.000000 2.073450 0.000000 
#    z -0.002740 0.000000 2.110790 
# 
# From -- ./inp_files/284963.got.cif
#   From: 2010.06.25/outbox.cif.g09.slc.cpg/sg15_143_cif.got.tgz:284963.got - 2010.06.28 07:06:18.
