data_PCOD8154867
_publ_section_title
;
Structure prediction by ZEFSAII (Michael W. Deem and Ramdas Pophale) SiO2 
 PCOD8154867
Probable space group: C 2/C
;
_chemical_formula_sum "Si O2"
_cell_formula_units_Z 36
_cell_length_a 15.496468
_cell_length_b 17.564172
_cell_length_c 9.819643
_cell_angle_alpha 90.000000
_cell_angle_beta 38.767988
_cell_angle_gamma 90.000000
_cell_volume 1673.582677
_symmetry_space_group_name_H-M "C 2/C"
_symmetry_group_IT_number 15
_symmetry_cell_setting 'monoclinic'
loop_
_space_group_symop_operation_xyz
x,y,z
-x,y,1/2-z
-x,-y,-z
x,-y,1/2+z
1/2+x,1/2+y,z
1/2-x,1/2+y,1/2-z
1/2-x,1/2-y,-z
1/2+x,1/2-y,1/2+z
loop_
_atom_site_type_symbol
_atom_site_label
_atom_site_fract_x
_atom_site_fract_y
_atom_site_fract_z
Si Si1 0.658682 0.773599 0.406366
Si Si2 0.421726 0.802792 0.485439
Si Si3 0.350924 0.965179 0.663701
Si Si4 0.500000 0.648979 0.750000
Si Si5 0.264547 0.578815 0.905310
O O1 0.528794 0.791517 0.473931
O O2 0.624619 0.699120 0.536753
O O3 0.678217 0.844794 0.482030
O O4 0.797702 0.758162 0.149684
O O5 0.500000 0.787287 0.250000
O O6 0.359274 0.887159 0.568920
O O7 0.500000 0.000000 0.500000
O O8 0.252928 0.020691 0.697448
O O9 0.287398 0.957020 0.890478
O O10 0.427641 0.597492 0.722493
#
# Coordination Sequence:
#
# PCOD8154867 Si02
#       5
#     8   8   8   4   8
#     4  12  24  45  77 103 141 188 240 295 352 424
#     4  12  25  45  71 109 144 183 240 296 355 417
#     4  12  25  43  72 103 139 185 235 290 354 422
#     4  12  24  46  72 104 136 186 246 286 360 424
#     4  12  26  45  72 104 141 188 235 295 352 426
#
# _framework density 21.510738
#
# number of rings (size 3 to 8) (size 9 to 14) (size 15 to 20)
#    0.000    0.000    6.667    4.667    0.000    0.889 
#    0.000    0.000    0.000    0.000    0.000    0.000 
#    0.000    0.000    0.000    0.000    0.000    0.000 
#
# Total GULP energy -223300.548875 kJ/mol
# GULP energy per Si atom -12405.586049 kJ/mol
# Density = 2.146178 g / cm^3
# Si number density = 21.510738 Si / 1000 Ang^3
#
#
#
# Elastic Constant Matrix: (Units=GPa)
#
#
# Indices 1 2 3 4 5 6 
#
# 1 115.5884 70.3123 16.1713 -0.0001 -9.8576 0.0006
# 2 70.3123 118.8572 46.3238 0.0000 0.7960 0.0001
# 3 16.1713 46.3238 119.8996 -0.0001 11.1568 0.0003
# 4 -0.0001 0.0000 -0.0001 28.5558 0.0000 -4.8012
# 5 -9.8576 0.7960 11.1568 0.0000 33.2241 -0.0002
# 6 0.0006 0.0001 0.0003 -4.8012 -0.0002 38.7723
#
#
#
# Elastic Compliance Matrix: (Units=1/GPa)
#
#
# Indices 1 2 3 4 5 6 
#
# 1 0.014254 -0.008904 0.001140 0.000000 0.004060 0.000000
# 2 -0.008904 0.015504 -0.004654 0.000000 -0.001450 0.000000
# 3 0.001140 -0.004654 0.010264 0.000000 -0.002997 0.000000
# 4 0.000000 0.000000 0.000000 0.035764 0.000000 0.004429
# 5 0.004060 -0.001450 -0.002997 0.000000 0.032344 0.000000
# 6 0.000000 0.000000 0.000000 0.004429 0.000000 0.026340
#
#
# Mechanical properties :
#
#
# Convention : Reuss Voigt Hill
#
# Bulk Modulus (GPa) = 65.85218 68.88444 67.36831
# Shear Modulus (GPa) = 30.41930 34.87963 32.64946
#
# Velocity S-wave (km/s) = 3.76459 4.03115 3.90015
# Velocity P-wave (km/s) = 7.04104 7.33210 7.18805
#
# Compressibility (1/GPa) = 0.01518553
#
# Stress axis : x y z
#
# Youngs Moduli (GPa) = 70.15395 64.49771 97.43076
#
# Poissons Ratio (x) = 0.57428 -0.11104
# Poissons Ratio (y) = 0.62464 0.45348
# Poissons Ratio (z) = -0.07996 0.30020
#
# Static dielectric constant tensor:
#      x y z
#    x 3.623190 0.000000 -0.172490 
#    y 0.000000 4.139130 0.000000 
#    z -0.172490 0.000000 3.939460 
# 
# 
# High freq. dielectric constant tensor:
#      x y z
#    x 1.866260 0.000000 -0.004190 
#    y 0.000000 1.850700 0.000000 
#    z -0.004190 0.000000 1.837030 
# 
# From -- ./inp_files/38894.got.cif
#   From: 2010.06.25/outbox.cif.g09.slc.cpg/sg15_20_cif.got.tgz:38894.got - 2010.06.28 07:06:18.
