data_PCOD8154003
_publ_section_title
;
Structure prediction by ZEFSAII (Michael W. Deem and Ramdas Pophale) SiO2 
 PCOD8154003
Probable space group: C 2/C
;
_chemical_formula_sum "Si O2"
_cell_formula_units_Z 56
_cell_length_a 9.299923
_cell_length_b 11.117669
_cell_length_c 27.472562
_cell_angle_alpha 90.000000
_cell_angle_beta 116.543449
_cell_angle_gamma 90.000000
_cell_volume 2541.084345
_symmetry_space_group_name_H-M "C 2/C"
_symmetry_group_IT_number 15
_symmetry_cell_setting 'monoclinic'
loop_
_space_group_symop_operation_xyz
x,y,z
-x,y,1/2-z
-x,-y,-z
x,-y,1/2+z
1/2+x,1/2+y,z
1/2-x,1/2+y,1/2-z
1/2-x,1/2-y,-z
1/2+x,1/2-y,1/2+z
loop_
_atom_site_type_symbol
_atom_site_label
_atom_site_fract_x
_atom_site_fract_y
_atom_site_fract_z
Si Si1 0.539637 0.278275 0.811004
Si Si2 0.569966 0.300265 0.977128
Si Si3 0.872569 0.575561 0.950986
Si Si4 0.374325 0.882851 0.872732
Si Si5 0.094847 0.947886 0.628709
Si Si6 0.456094 0.334366 0.066439
Si Si7 0.539346 0.999584 0.811489
O O1 0.500000 0.312360 0.750000
O O2 0.727285 0.291901 0.848951
O O3 0.435283 0.369761 0.827795
O O4 0.505716 0.139446 0.817741
O O5 0.456330 0.192844 0.942384
O O6 0.524282 0.404787 0.932720
O O7 0.750000 0.250000 0.000000
O O8 0.538160 0.351253 0.026169
O O9 0.817132 0.493934 0.897620
O O10 0.729363 0.624161 0.963643
O O11 0.000000 0.500000 0.000000
O O12 0.525233 0.807222 0.917208
O O13 0.412591 0.928410 0.824826
O O14 0.285076 0.949763 0.647211
O O15 0.043239 0.088338 0.622673
O O16 0.500000 0.969316 0.750000
#
# Coordination Sequence:
#
# PCOD8154003 Si02
#       7
#     8   8   8   8   8   8   8
#     4  11  24  48  72  97 135 178 230 291 347 411
#     4  12  26  43  69 102 143 187 233 282 347 423
#     4  12  25  42  66  95 137 182 232 271 340 415
#     4  12  24  45  71  98 140 179 228 285 350 412
#     4  12  24  44  69 100 139 180 229 285 352 408
#     4  12  25  44  66 101 140 185 224 285 345 418
#     4  11  26  45  71 103 133 179 235 292 353 415
#
# _framework density 22.037835000000001
#
# number of rings (size 3 to 8) (size 9 to 14) (size 15 to 20)
#    0.000    0.286    4.286    5.143    4.000    0.000 
#    0.000    0.714    0.000    0.000    0.000    0.000 
#    0.000    0.000    0.000    0.000    0.000    0.000 
#
# Total GULP energy -347154.576875 kJ/mol
# GULP energy per Si atom -12398.377746 kJ/mol
# Density = 2.198768 g / cm^3
# Si number density = 22.037835 Si / 1000 Ang^3
#
#
#
# Elastic Constant Matrix: (Units=GPa)
#
#
# Indices 1 2 3 4 5 6 
#
# 1 112.2752 30.9766 24.0602 0.0000 -7.5473 0.0000
# 2 30.9766 91.2397 25.2976 0.0000 -15.9910 0.0000
# 3 24.0602 25.2976 91.1230 0.0000 -16.1393 0.0000
# 4 0.0000 0.0000 0.0000 36.3831 0.0000 2.3340
# 5 -7.5473 -15.9910 -16.1393 0.0000 43.6040 0.0000
# 6 0.0000 0.0000 0.0000 2.3340 0.0000 40.5787
#
#
#
# Elastic Compliance Matrix: (Units=1/GPa)
#
#
# Indices 1 2 3 4 5 6 
#
# 1 0.010110 -0.002918 -0.001861 0.000000 -0.000009 0.000000
# 2 -0.002918 0.013193 -0.002274 0.000000 0.003492 0.000000
# 3 -0.001861 -0.002274 0.012726 0.000000 0.003554 0.000000
# 4 0.000000 0.000000 0.000000 0.027587 0.000000 -0.001587
# 5 -0.000009 0.003492 0.003554 0.000000 0.025528 0.000000
# 6 0.000000 0.000000 0.000000 -0.001587 0.000000 0.024735
#
#
# Mechanical properties :
#
#
# Convention : Reuss Voigt Hill
#
# Bulk Modulus (GPa) = 45.61207 50.58964 48.10085
# Shear Modulus (GPa) = 36.95680 38.40007 37.67844
#
# Velocity S-wave (km/s) = 4.09953 4.17881 4.13936
# Velocity P-wave (km/s) = 6.56888 6.80359 6.68727
#
# Compressibility (1/GPa) = 0.02192402
#
# Stress axis : x y z
#
# Youngs Moduli (GPa) = 98.91250 75.79633 78.57717
#
# Poissons Ratio (x) = 0.22117 0.14623
# Poissons Ratio (y) = 0.28863 0.17867
# Poissons Ratio (z) = 0.18407 0.17235
#
# Static dielectric constant tensor:
#      x y z
#    x 3.848070 0.000000 0.079980 
#    y 0.000000 3.637900 0.000000 
#    z 0.079980 0.000000 3.882710 
# 
# 
# High freq. dielectric constant tensor:
#      x y z
#    x 1.873080 0.000000 0.002870 
#    y 0.000000 1.887520 0.000000 
#    z 0.002870 0.000000 1.860260 
# 
# From -- ./inp_files/287959.got.cif
#   From: 2010.06.25/outbox.cif.g09.slc.cpg/sg15_144_cif.got.tgz:287959.got - 2010.06.28 07:06:18.
