data_PCOD8154298
_publ_section_title
;
Structure prediction by ZEFSAII (Michael W. Deem and Ramdas Pophale) SiO2 
 PCOD8154298
Probable space group: C 2/C
;
_chemical_formula_sum "Si O2"
_cell_formula_units_Z 48
_cell_length_a 13.667835
_cell_length_b 25.551408
_cell_length_c 12.061740
_cell_angle_alpha 90.000000
_cell_angle_beta 31.876236
_cell_angle_gamma 90.000000
_cell_volume 2224.484175
_symmetry_space_group_name_H-M "C 2/C"
_symmetry_group_IT_number 15
_symmetry_cell_setting 'monoclinic'
loop_
_space_group_symop_operation_xyz
x,y,z
-x,y,1/2-z
-x,-y,-z
x,-y,1/2+z
1/2+x,1/2+y,z
1/2-x,1/2+y,1/2-z
1/2-x,1/2-y,-z
1/2+x,1/2-y,1/2+z
loop_
_atom_site_type_symbol
_atom_site_label
_atom_site_fract_x
_atom_site_fract_y
_atom_site_fract_z
Si Si1 0.726040 0.797263 0.227171
Si Si2 0.207022 0.080752 0.537085
Si Si3 0.597106 0.308120 0.769457
Si Si4 0.487277 0.946674 0.580078
Si Si5 0.057938 0.373291 0.080430
Si Si6 0.306697 0.192609 0.485735
O O1 0.731364 0.735963 0.191585
O O2 0.575941 0.822702 0.289726
O O3 0.668589 0.805897 0.407743
O O4 0.931874 0.821257 0.014280
O O5 0.330872 0.060750 0.520237
O O6 0.300379 0.059408 0.333578
O O7 0.180790 0.144287 0.565048
O O8 0.000000 0.056918 0.750000
O O9 0.500000 0.289339 0.750000
O O10 0.724210 0.359007 0.627617
O O11 0.490352 0.903210 0.483605
O O12 0.500000 0.000000 0.500000
O O13 0.000000 0.404135 0.250000
O O14 0.500000 0.175981 0.250000
O O15 0.250000 0.250000 0.500000
#
# Coordination Sequence:
#
# PCOD8154298 Si02
#       6
#     8   8   8   8   8   8
#     4  12  23  39  64  93 141 185 234 277 346 420
#     4  11  25  49  77 112 148 182 241 307 363 437
#     4  12  24  39  61  97 137 190 231 280 339 415
#     4  11  27  51  78 102 139 189 239 301 372 420
#     4  12  25  43  67  99 139 183 239 294 348 422
#     4  12  24  42  65 107 147 194 235 284 360 441
#
# _framework density 21.578036999999998
#
# number of rings (size 3 to 8) (size 9 to 14) (size 15 to 20)
#    0.000    0.333    6.667    2.500    7.000    0.667 
#    0.000    0.833    0.000    0.000    0.000    0.000 
#    0.000    0.000    0.000    0.000    0.000    0.000 
#
# Total GULP energy -297541.284464 kJ/mol
# GULP energy per Si atom -12397.553519 kJ/mol
# Density = 2.152892 g / cm^3
# Si number density = 21.578037 Si / 1000 Ang^3
#
#
#
# Elastic Constant Matrix: (Units=GPa)
#
#
# Indices 1 2 3 4 5 6 
#
# 1 104.4802 30.4334 82.6911 -0.0001 14.4202 0.0000
# 2 30.4334 86.5267 30.1948 0.0001 4.1226 0.0000
# 3 82.6911 30.1948 160.2191 -0.0009 0.7642 -0.0001
# 4 -0.0001 0.0001 -0.0009 18.0533 0.0004 1.3099
# 5 14.4202 4.1226 0.7642 0.0004 50.0280 0.0000
# 6 0.0000 0.0000 -0.0001 1.3099 0.0000 18.6009
#
#
#
# Elastic Compliance Matrix: (Units=1/GPa)
#
#
# Indices 1 2 3 4 5 6 
#
# 1 0.018009 -0.003072 -0.008693 0.000000 -0.004805 0.000000
# 2 -0.003072 0.012943 -0.000853 0.000000 -0.000168 0.000000
# 3 -0.008693 -0.000853 0.010877 0.000000 0.002410 0.000000
# 4 0.000000 0.000000 0.000000 0.055676 0.000000 -0.003921
# 5 -0.004805 -0.000168 0.002410 0.000000 0.021351 0.000000
# 6 0.000000 0.000000 0.000000 -0.003921 0.000000 0.054037
#
#
# Mechanical properties :
#
#
# Convention : Reuss Voigt Hill
#
# Bulk Modulus (GPa) = 60.26241 70.87385 65.56813
# Shear Modulus (GPa) = 24.55066 31.19688 27.87377
#
# Velocity S-wave (km/s) = 3.37673 3.80645 3.59801
# Velocity P-wave (km/s) = 6.57201 7.22741 6.90749
#
# Compressibility (1/GPa) = 0.01659409
#
# Stress axis : x y z
#
# Youngs Moduli (GPa) = 55.52717 77.26031 91.93475
#
# Poissons Ratio (x) = 0.23733 0.79918
# Poissons Ratio (y) = 0.17057 0.07843
# Poissons Ratio (z) = 0.48270 0.06591
#
# Static dielectric constant tensor:
#      x y z
#    x 4.472230 -0.000010 -0.175230 
#    y -0.000010 3.972750 0.000010 
#    z -0.175230 0.000010 4.366170 
# 
# 
# High freq. dielectric constant tensor:
#      x y z
#    x 1.855190 0.000000 0.009500 
#    y 0.000000 1.815040 0.000000 
#    z 0.009500 0.000000 1.872150 
# 
# From -- ./inp_files/101238.got.cif
#   From: 2010.06.25/outbox.cif.g09.slc.cpg/sg15_51_cif.got.tgz:101238.got - 2010.06.28 07:06:18.
