data_PCOD8154364
_publ_section_title
;
Structure prediction by ZEFSAII (Michael W. Deem and Ramdas Pophale) SiO2 
 PCOD8154364
Probable space group: C 2/C
;
_chemical_formula_sum "Si O2"
_cell_formula_units_Z 44
_cell_length_a 13.270902
_cell_length_b 11.306916
_cell_length_c 15.026752
_cell_angle_alpha 90.000000
_cell_angle_beta 115.363713
_cell_angle_gamma 90.000000
_cell_volume 2037.460519
_symmetry_space_group_name_H-M "C 2/C"
_symmetry_group_IT_number 15
_symmetry_cell_setting 'monoclinic'
loop_
_space_group_symop_operation_xyz
x,y,z
-x,y,1/2-z
-x,-y,-z
x,-y,1/2+z
1/2+x,1/2+y,z
1/2-x,1/2+y,1/2-z
1/2-x,1/2-y,-z
1/2+x,1/2-y,1/2+z
loop_
_atom_site_type_symbol
_atom_site_label
_atom_site_fract_x
_atom_site_fract_y
_atom_site_fract_z
Si Si1 0.500000 0.975032 0.250000
Si Si2 0.705261 0.143387 0.293849
Si Si3 0.885362 0.123509 0.656886
Si Si4 0.568063 0.620480 0.026213
Si Si5 0.422127 0.796883 0.083041
Si Si6 0.766049 0.877023 0.617232
O O1 0.496172 0.894659 0.160473
O O2 0.608834 0.054885 0.286083
O O3 0.681620 0.273079 0.321126
O O4 0.819538 0.093542 0.377395
O O5 0.712867 0.155291 0.191127
O O6 0.907732 0.162569 0.564388
O O7 0.000000 0.095130 0.750000
O O8 0.807077 0.010485 0.631165
O O9 0.499962 0.724874 0.046029
O O10 0.500000 0.500000 0.000000
O O11 0.369178 0.710055 0.136712
O O12 0.326375 0.864267 0.993349
#
# Coordination Sequence:
#
# PCOD8154364 Si02
#       6
#     4   8   8   8   8   8
#     4  12  28  48  68 106 146 186 236 288 358 420
#     4  12  28  47  72 104 145 188 236 295 350 421
#     4  12  25  48  72 104 144 186 241 289 351 418
#     4  12  25  48  74 105 142 185 239 292 353 423
#     4  11  26  47  73 105 142 186 232 292 357 419
#     4  11  26  46  74 104 142 187 236 290 353 424
#
# _framework density 21.595510000000001
#
# number of rings (size 3 to 8) (size 9 to 14) (size 15 to 20)
#    0.000    0.364    2.727    4.909    8.909    0.727 
#    0.000    0.000    0.000    0.000    0.000    0.000 
#    0.000    0.000    0.000    0.000    0.000    0.000 
#
# Total GULP energy -273019.924647 kJ/mol
# GULP energy per Si atom -12409.996575 kJ/mol
# Density = 2.154636 g / cm^3
# Si number density = 21.595510 Si / 1000 Ang^3
#
#
#
# Elastic Constant Matrix: (Units=GPa)
#
#
# Indices 1 2 3 4 5 6 
#
# 1 110.7563 70.0800 29.5617 0.0000 -3.5636 0.0000
# 2 70.0800 168.8884 53.9063 0.0000 5.3915 0.0000
# 3 29.5617 53.9063 86.9636 0.0000 -4.4258 0.0000
# 4 0.0000 0.0000 0.0000 -23.5148 0.0000 52.2354
# 5 -3.5636 5.3915 -4.4258 0.0000 57.1473 0.0000
# 6 0.0000 0.0000 0.0000 52.2354 0.0000 -20.4520
#
#
#
# Elastic Compliance Matrix: (Units=1/GPa)
#
#
# Indices 1 2 3 4 5 6 
#
# 1 0.012428 -0.004816 -0.001181 0.000000 0.001138 0.000000
# 2 -0.004816 0.009312 -0.004212 0.000000 -0.001505 0.000000
# 3 -0.001181 -0.004212 0.014585 0.000000 0.001453 0.000000
# 4 0.000000 0.000000 0.000000 0.009099 0.000000 0.023240
# 5 0.001138 -0.001505 0.001453 0.000000 0.017824 0.000000
# 6 0.000000 0.000000 0.000000 0.023240 0.000000 0.010462
#
#
# Mechanical properties :
#
#
# Convention : Reuss Voigt Hill
#
# Bulk Modulus (GPa) = 62.86578 74.85605 68.86091
# Shear Modulus (GPa) = 50.28571 16.84011 33.56291
#
# Velocity S-wave (km/s) = 4.83072 2.79551 3.94656
# Velocity P-wave (km/s) = 7.76455 6.71996 7.26106
#
# Compressibility (1/GPa) = 0.01590691
#
# Stress axis : x y z
#
# Youngs Moduli (GPa) = 80.46187 107.38939 68.56260
#
# Poissons Ratio (x) = 0.51722 0.08099
# Poissons Ratio (y) = 0.38753 0.28876
# Poissons Ratio (z) = 0.09505 0.45228
#
# Static dielectric constant tensor:
#      x y z
#    x 4.085160 0.000000 -0.086770 
#    y 0.000000 -4.979140 0.000000 
#    z -0.086770 0.000000 4.048820 
# 
# 
# High freq. dielectric constant tensor:
#      x y z
#    x 1.862640 0.000000 -0.000420 
#    y 0.000000 1.860770 0.000000 
#    z -0.000420 0.000000 1.868530 
# 
# From -- ./inp_files/152269.got.cif
#   From: 2010.06.25/outbox.cif.g09.slc.cpg/sg15_77_cif.got.tgz:152269.got - 2010.06.28 07:06:18.
