data_PCOD8154535
_publ_section_title
;
Structure prediction by ZEFSAII (Michael W. Deem and Ramdas Pophale) SiO2 
 PCOD8154535
Probable space group: C 2/C
;
_chemical_formula_sum "Si O2"
_cell_formula_units_Z 40
_cell_length_a 23.961884
_cell_length_b 17.107895
_cell_length_c 9.480898
_cell_angle_alpha 90.000000
_cell_angle_beta 153.030971
_cell_angle_gamma 90.000000
_cell_volume 1762.595811
_symmetry_space_group_name_H-M "C 2/C"
_symmetry_group_IT_number 15
_symmetry_cell_setting 'monoclinic'
loop_
_space_group_symop_operation_xyz
x,y,z
-x,y,1/2-z
-x,-y,-z
x,-y,1/2+z
1/2+x,1/2+y,z
1/2-x,1/2+y,1/2-z
1/2-x,1/2-y,-z
1/2+x,1/2-y,1/2+z
loop_
_atom_site_type_symbol
_atom_site_label
_atom_site_fract_x
_atom_site_fract_y
_atom_site_fract_z
Si Si1 0.500000 0.706959 0.750000
Si Si2 0.787896 0.907600 0.711901
Si Si3 0.123346 0.025098 0.357747
Si Si4 0.515347 0.076245 0.628497
Si Si5 0.500000 0.346895 0.750000
Si Si6 0.889638 0.268402 0.779773
O O1 0.391912 0.658476 0.428693
O O2 0.428637 0.758520 0.704696
O O3 0.781451 0.956319 0.552072
O O4 0.647529 0.879226 0.411857
O O5 0.824072 0.954390 0.933536
O O6 0.106841 0.097156 0.429023
O O7 0.000000 0.000000 0.000000
O O8 0.500000 0.043452 0.750000
O O9 0.412686 0.141332 0.367719
O O10 0.500000 0.000000 0.500000
O O11 0.463894 0.292653 0.539829
O O12 0.750000 0.250000 0.500000
#
# Coordination Sequence:
#
# PCOD8154535 Si02
#       6
#     4   8   8   8   4   8
#     4  12  25  44  77 108 142 190 248 304 363 448
#     4  12  24  43  73 109 148 185 247 301 366 444
#     4  12  21  40  70 111 146 188 238 300 371 440
#     4  12  29  51  72 105 148 197 242 305 376 446
#     4  12  23  44  71 104 146 190 242 308 371 430
#     4  12  29  50  75 106 150 196 250 310 378 441
#
# _framework density 22.693802000000002
#
# number of rings (size 3 to 8) (size 9 to 14) (size 15 to 20)
#    0.000    0.000    7.000    2.400    4.200    2.400 
#    0.000    0.000    0.000    0.000    0.000    0.000 
#    0.000    0.000    0.000    0.000    0.000    0.000 
#
# Total GULP energy -247969.642206 kJ/mol
# GULP energy per Si atom -12398.482110 kJ/mol
# Density = 2.264215 g / cm^3
# Si number density = 22.693802 Si / 1000 Ang^3
#
#
#
# Elastic Constant Matrix: (Units=GPa)
#
#
# Indices 1 2 3 4 5 6 
#
# 1 172.9085 35.4748 49.3181 0.0000 -9.1121 0.0000
# 2 35.4748 118.0498 42.2209 0.0000 -4.2246 0.0000
# 3 49.3181 42.2209 87.4963 0.0000 14.8004 0.0000
# 4 0.0000 0.0000 0.0000 30.4252 0.0000 -2.1317
# 5 -9.1121 -4.2246 14.8004 0.0000 48.2893 0.0000
# 6 0.0000 0.0000 0.0000 -2.1317 0.0000 42.3734
#
#
#
# Elastic Compliance Matrix: (Units=1/GPa)
#
#
# Indices 1 2 3 4 5 6 
#
# 1 0.007252 -0.000561 -0.004261 0.000000 0.002625 0.000000
# 2 -0.000561 0.010586 -0.005200 0.000000 0.002414 0.000000
# 3 -0.004261 -0.005200 0.017458 0.000000 -0.006610 0.000000
# 4 0.000000 0.000000 0.000000 0.032984 0.000000 0.001659
# 5 0.002625 0.002414 -0.006610 0.000000 0.023441 0.000000
# 6 0.000000 0.000000 0.000000 0.001659 0.000000 0.023683
#
#
# Mechanical properties :
#
#
# Convention : Reuss Voigt Hill
#
# Bulk Modulus (GPa) = 65.56785 70.27580 67.92182
# Shear Modulus (GPa) = 35.57881 40.98029 38.27955
#
# Velocity S-wave (km/s) = 3.96381 4.25407 4.11150
# Velocity P-wave (km/s) = 7.06429 7.42723 7.24803
#
# Compressibility (1/GPa) = 0.01525138
#
# Stress axis : x y z
#
# Youngs Moduli (GPa) = 137.88727 94.46505 57.27985
#
# Poissons Ratio (x) = 0.05304 0.24407
# Poissons Ratio (y) = 0.07742 0.29786
# Poissons Ratio (z) = 0.58754 0.49122
#
# Static dielectric constant tensor:
#      x y z
#    x 4.562000 0.000000 -0.010020 
#    y 0.000000 4.165930 0.000000 
#    z -0.010020 0.000000 4.166330 
# 
# 
# High freq. dielectric constant tensor:
#      x y z
#    x 1.926690 0.000000 -0.006130 
#    y 0.000000 1.885860 0.000000 
#    z -0.006130 0.000000 1.890630 
# 
# From -- ./inp_files/29133.got.cif
#   From: 2010.06.25/outbox.cif.g09.slc.cpg/sg15_15_cif.got.tgz:29133.got - 2010.06.28 07:06:18.
