data_PCOD8154363
_publ_section_title
;
Structure prediction by ZEFSAII (Michael W. Deem and Ramdas Pophale) SiO2 
 PCOD8154363
Probable space group: C 2/C
;
_chemical_formula_sum "Si O2"
_cell_formula_units_Z 40
_cell_length_a 11.286664
_cell_length_b 18.374839
_cell_length_c 16.538428
_cell_angle_alpha 90.000000
_cell_angle_beta 30.431849
_cell_angle_gamma 90.000000
_cell_volume 1737.297020
_symmetry_space_group_name_H-M "C 2/C"
_symmetry_group_IT_number 15
_symmetry_cell_setting 'monoclinic'
loop_
_space_group_symop_operation_xyz
x,y,z
-x,y,1/2-z
-x,-y,-z
x,-y,1/2+z
1/2+x,1/2+y,z
1/2-x,1/2+y,1/2-z
1/2-x,1/2-y,-z
1/2+x,1/2-y,1/2+z
loop_
_atom_site_type_symbol
_atom_site_label
_atom_site_fract_x
_atom_site_fract_y
_atom_site_fract_z
Si Si1 0.480152 0.655042 0.632694
Si Si2 0.970061 0.423191 0.110582
Si Si3 0.740929 0.804379 0.686264
Si Si4 0.595608 0.911960 0.538626
Si Si5 0.621536 0.323436 0.592685
O O1 0.281444 0.603848 0.707660
O O2 0.344546 0.721189 0.756623
O O3 0.648215 0.690114 0.467140
O O4 0.628349 0.604158 0.607897
O O5 0.009821 0.506948 0.108011
O O6 0.968274 0.399386 0.017301
O O7 0.187100 0.386242 0.027460
O O8 0.525373 0.858145 0.826426
O O9 0.925564 0.833360 0.641777
O O10 0.500000 0.323493 0.750000
O O11 0.750000 0.250000 0.500000
#
# Coordination Sequence:
#
# PCOD8154363 Si02
#       5
#     8   8   8   8   8
#     4  12  26  47  73 106 142 185 238 295 350 420
#     4  11  26  46  73 103 140 188 234 285 356 421
#     4  12  25  46  74 105 141 184 239 294 354 414
#     4  11  26  47  71 102 142 189 231 289 352 424
#     4  12  24  45  70 100 137 183 236 291 349 422
#
# _framework density 23.024272
#
# number of rings (size 3 to 8) (size 9 to 14) (size 15 to 20)
#    0.000    0.400    4.000    4.200    2.800    2.400 
#    3.600    0.000    0.000    0.000    0.000    0.000 
#    0.000    0.000    0.000    0.000    0.000    0.000 
#
# Total GULP energy -247959.219403 kJ/mol
# GULP energy per Si atom -12397.960970 kJ/mol
# Density = 2.297187 g / cm^3
# Si number density = 23.024272 Si / 1000 Ang^3
#
#
#
# Elastic Constant Matrix: (Units=GPa)
#
#
# Indices 1 2 3 4 5 6 
#
# 1 112.4746 36.4755 34.7214 0.0492 -35.2456 0.0184
# 2 36.4755 155.9861 48.3016 -0.0930 -23.7391 0.0394
# 3 34.7214 48.3016 101.3193 -0.2265 -19.1798 0.0516
# 4 0.0492 -0.0930 -0.2265 34.3114 -0.0396 -7.0784
# 5 -35.2456 -23.7391 -19.1798 -0.0396 46.4161 -0.0339
# 6 0.0184 0.0394 0.0516 -7.0784 -0.0339 34.1533
#
#
#
# Elastic Compliance Matrix: (Units=1/GPa)
#
#
# Indices 1 2 3 4 5 6 
#
# 1 0.012414 -0.000984 -0.002274 -0.000026 0.007983 0.000000
# 2 -0.000984 0.007892 -0.003040 0.000005 0.002033 -0.000001
# 3 -0.002274 -0.003040 0.012451 0.000080 0.001864 0.000004
# 4 -0.000026 0.000005 0.000080 0.030447 0.000046 0.006310
# 5 0.007983 0.002033 0.001864 0.000046 0.029416 0.000029
# 6 0.000000 -0.000001 0.000004 0.006310 0.000029 0.030588
#
#
# Mechanical properties :
#
#
# Convention : Reuss Voigt Hill
#
# Bulk Modulus (GPa) = 49.60071 67.64189 58.62130
# Shear Modulus (GPa) = 35.08191 39.66160 37.37176
#
# Velocity S-wave (km/s) = 3.90769 4.15492 4.03320
# Velocity P-wave (km/s) = 6.47685 7.24294 6.87058
#
# Compressibility (1/GPa) = 0.02016100
#
# Stress axis : x y z
#
# Youngs Moduli (GPa) = 80.55677 126.71618 80.31260
#
# Poissons Ratio (x) = 0.12465 0.18262
# Poissons Ratio (y) = 0.07924 0.24417
# Poissons Ratio (z) = 0.18318 0.38524
#
# Static dielectric constant tensor:
#      x y z
#    x 4.368690 0.000210 -0.328490 
#    y 0.000210 4.079520 0.000320 
#    z -0.328490 0.000320 4.398670 
# 
# 
# High freq. dielectric constant tensor:
#      x y z
#    x 1.918050 -0.000020 -0.019080 
#    y -0.000020 1.911400 0.000060 
#    z -0.019080 0.000060 1.927380 
# 
# From -- ./inp_files/89894.got.cif
#   From: 2010.06.25/outbox.cif.g09.slc.cpg/sg15_45_cif.got.tgz:89894.got - 2010.06.28 07:06:18.
