data_PCOD8154016
_publ_section_title
;
Structure prediction by ZEFSAII (Michael W. Deem and Ramdas Pophale) SiO2 
 PCOD8154016
Probable space group: C 2/C
;
_chemical_formula_sum "Si O2"
_cell_formula_units_Z 32
_cell_length_a 7.551135
_cell_length_b 10.028362
_cell_length_c 21.941948
_cell_angle_alpha 90.000000
_cell_angle_beta 126.094822
_cell_angle_gamma 90.000000
_cell_volume 1342.616438
_symmetry_space_group_name_H-M "C 2/C"
_symmetry_group_IT_number 15
_symmetry_cell_setting 'monoclinic'
loop_
_space_group_symop_operation_xyz
x,y,z
-x,y,1/2-z
-x,-y,-z
x,-y,1/2+z
1/2+x,1/2+y,z
1/2-x,1/2+y,1/2-z
1/2-x,1/2-y,-z
1/2+x,1/2-y,1/2+z
loop_
_atom_site_type_symbol
_atom_site_label
_atom_site_fract_x
_atom_site_fract_y
_atom_site_fract_z
Si Si1 0.889145 0.632627 0.955520
Si Si2 0.038079 0.332628 0.169521
Si Si3 0.443847 0.288704 0.400837
Si Si4 0.838166 0.388797 0.771603
O O1 0.956197 0.672289 0.901524
O O2 0.625689 0.613268 0.908262
O O3 0.000000 0.500000 0.000000
O O4 0.975986 0.752123 0.015316
O O5 0.191768 0.450989 0.228237
O O6 0.112513 0.189898 0.211992
O O7 0.790906 0.361665 0.142477
O O8 0.434718 0.157679 0.356196
O O9 0.000000 0.348490 0.750000
#
# Coordination Sequence:
#
# PCOD8154016 Si02
#       4
#     8   8   8   8
#     4  11  24  48  75 104 145 191 241 301 358 429
#     4  12  27  48  75 109 144 194 240 299 365 428
#     4  11  25  47  72 107 142 189 245 294 362 429
#     4  12  25  47  72 106 148 188 244 294 360 435
#
# _framework density 23.834057000000001
#
# number of rings (size 3 to 8) (size 9 to 14) (size 15 to 20)
#    0.000    0.500    5.000    3.000    0.000    7.000 
#    4.500    0.000    0.000    0.000    0.000    0.000 
#    0.000    0.000    0.000    0.000    0.000    0.000 
#
# Total GULP energy -198437.460577 kJ/mol
# GULP energy per Si atom -12402.341286 kJ/mol
# Density = 2.377981 g / cm^3
# Si number density = 23.834057 Si / 1000 Ang^3
#
#
#
# Elastic Constant Matrix: (Units=GPa)
#
#
# Indices 1 2 3 4 5 6 
#
# 1 145.5432 34.9678 45.0369 0.0000 3.2133 0.0000
# 2 34.9678 104.3013 28.5901 0.0000 11.6879 0.0000
# 3 45.0369 28.5901 114.1885 0.0000 -21.6426 0.0000
# 4 0.0000 0.0000 0.0000 34.8208 0.0000 6.8498
# 5 3.2133 11.6879 -21.6426 0.0000 55.9299 0.0000
# 6 0.0000 0.0000 0.0000 6.8498 0.0000 28.0254
#
#
#
# Elastic Compliance Matrix: (Units=1/GPa)
#
#
# Indices 1 2 3 4 5 6 
#
# 1 0.008276 -0.001792 -0.003059 0.000000 -0.001285 0.000000
# 2 -0.001792 0.011317 -0.002758 0.000000 -0.003329 0.000000
# 3 -0.003059 -0.002758 0.011652 0.000000 0.005261 0.000000
# 4 0.000000 0.000000 0.000000 0.030169 0.000000 -0.007374
# 5 -0.001285 -0.003329 0.005261 0.000000 0.020685 0.000000
# 6 0.000000 0.000000 0.000000 -0.007374 0.000000 0.037484
#
#
# Mechanical properties :
#
#
# Convention : Reuss Voigt Hill
#
# Bulk Modulus (GPa) = 62.39354 64.58032 63.48693
# Shear Modulus (GPa) = 35.67769 40.78445 38.23107
#
# Velocity S-wave (km/s) = 3.87320 4.14113 4.00941
# Velocity P-wave (km/s) = 6.79981 7.07248 6.93748
#
# Compressibility (1/GPa) = 0.01602730
#
# Stress axis : x y z
#
# Youngs Moduli (GPa) = 120.82609 88.35900 85.82580
#
# Poissons Ratio (x) = 0.15836 0.26254
# Poissons Ratio (y) = 0.21655 0.23669
# Poissons Ratio (z) = 0.36961 0.24367
#
# Static dielectric constant tensor:
#      x y z
#    x 4.558680 0.000000 -0.286390 
#    y 0.000000 3.924490 0.000000 
#    z -0.286390 0.000000 4.780490 
# 
# 
# High freq. dielectric constant tensor:
#      x y z
#    x 1.959150 0.000000 -0.019260 
#    y 0.000000 1.921250 0.000000 
#    z -0.019260 0.000000 1.964810 
# 
# From -- ./inp_files/230082.got.cif
#   From: 2010.06.25/outbox.cif.g09.slc.cpg/sg15_116_cif.got.tgz:230082.got - 2010.06.28 07:06:18.
