data_PCOD8154925
_publ_section_title
;
Structure prediction by ZEFSAII (Michael W. Deem and Ramdas Pophale) SiO2 
 PCOD8154925
Probable space group: C 2/C
;
_chemical_formula_sum "Si O2"
_cell_formula_units_Z 36
_cell_length_a 12.287471
_cell_length_b 11.720147
_cell_length_c 22.959678
_cell_angle_alpha 90.000000
_cell_angle_beta 151.801211
_cell_angle_gamma 90.000000
_cell_volume 1562.401720
_symmetry_space_group_name_H-M "C 2/C"
_symmetry_group_IT_number 15
_symmetry_cell_setting 'monoclinic'
loop_
_space_group_symop_operation_xyz
x,y,z
-x,y,1/2-z
-x,-y,-z
x,-y,1/2+z
1/2+x,1/2+y,z
1/2-x,1/2+y,1/2-z
1/2-x,1/2-y,-z
1/2+x,1/2-y,1/2+z
loop_
_atom_site_type_symbol
_atom_site_label
_atom_site_fract_x
_atom_site_fract_y
_atom_site_fract_z
Si Si1 0.698706 0.419280 0.688849
Si Si2 0.431709 0.821702 0.550445
Si Si3 0.640991 0.473660 0.876271
Si Si4 0.144726 0.235165 0.538670
Si Si5 0.000000 0.572530 0.750000
O O1 0.526962 0.493011 0.648004
O O2 0.567356 0.312200 0.598579
O O3 0.901527 0.373609 0.823735
O O4 0.805390 0.496877 0.688939
O O5 0.250000 0.750000 0.500000
O O6 0.572078 0.743174 0.572064
O O7 0.315218 0.920788 0.456600
O O8 0.500000 0.466995 0.750000
O O9 0.781065 0.356781 0.952289
O O10 0.364256 0.150343 0.639129
#
# Coordination Sequence:
#
# PCOD8154925 Si02
#       5
#     8   8   8   8   4
#     4  12  26  45  73 103 148 195 239 310 367 439
#     4  12  27  45  72 110 145 193 245 305 374 439
#     4  12  26  47  73 108 145 194 246 305 368 438
#     4  12  25  48  72 108 146 194 252 302 368 444
#     4  12  24  48  70 110 146 194 252 296 380 440
#
# _framework density 23.041450000000001
#
# number of rings (size 3 to 8) (size 9 to 14) (size 15 to 20)
#    0.000    0.000    3.333    6.000    3.111    1.778 
#    0.000    0.000    0.000    0.000    0.000    0.000 
#    0.000    0.000    0.000    0.000    0.000    0.000 
#
# Total GULP energy -223352.834351 kJ/mol
# GULP energy per Si atom -12408.490797 kJ/mol
# Density = 2.298901 g / cm^3
# Si number density = 23.041450 Si / 1000 Ang^3
#
#
#
# Elastic Constant Matrix: (Units=GPa)
#
#
# Indices 1 2 3 4 5 6 
#
# 1 111.4361 29.3835 3.8092 0.0013 18.5592 0.0005
# 2 29.3835 109.6258 59.9638 0.0016 -1.2225 0.0007
# 3 3.8092 59.9638 103.0260 0.0044 6.8595 0.0029
# 4 0.0013 0.0016 0.0044 38.4696 0.0021 -3.1929
# 5 18.5592 -1.2225 6.8595 0.0021 31.6617 0.0010
# 6 0.0005 0.0007 0.0029 -3.1929 0.0010 32.7346
#
#
#
# Elastic Compliance Matrix: (Units=1/GPa)
#
#
# Indices 1 2 3 4 5 6 
#
# 1 0.011340 -0.004641 0.002776 0.000000 -0.007428 0.000000
# 2 -0.004641 0.015440 -0.009168 0.000000 0.005303 0.000000
# 3 0.002776 -0.009168 0.015292 -0.000001 -0.005294 -0.000001
# 4 0.000000 0.000000 -0.000001 0.026207 -0.000001 0.002556
# 5 -0.007428 0.005303 -0.005294 -0.000001 0.037290 -0.000001
# 6 0.000000 0.000000 -0.000001 0.002556 -0.000001 0.030798
#
#
# Mechanical properties :
#
#
# Convention : Reuss Voigt Hill
#
# Bulk Modulus (GPa) = 49.98305 56.71120 53.34712
# Shear Modulus (GPa) = 30.28490 35.96861 33.12675
#
# Velocity S-wave (km/s) = 3.62935 3.95529 3.79582
# Velocity P-wave (km/s) = 6.26919 6.74723 6.51260
#
# Compressibility (1/GPa) = 0.02000678
#
# Stress axis : x y z
#
# Youngs Moduli (GPa) = 88.18658 64.76861 65.39376
#
# Poissons Ratio (x) = 0.30058 -0.18156
# Poissons Ratio (y) = 0.40926 0.59951
# Poissons Ratio (z) = -0.24484 0.59378
#
# Static dielectric constant tensor:
#      x y z
#    x 4.261000 0.000000 0.107180 
#    y 0.000000 4.279340 0.000000 
#    z 0.107180 0.000000 4.161930 
# 
# 
# High freq. dielectric constant tensor:
#      x y z
#    x 1.925290 0.000000 0.006900 
#    y 0.000000 1.915280 0.000000 
#    z 0.006900 0.000000 1.927290 
# 
# From -- ./inp_files/94345.got.cif
#   From: 2010.06.25/outbox.cif.g09.slc.cpg/sg15_48_cif.got.tgz:94345.got - 2010.06.28 07:06:18.
