data_PCOD8154652
_publ_section_title
;
Structure prediction by ZEFSAII (Michael W. Deem and Ramdas Pophale) SiO2 
 PCOD8154652
Probable space group: C 2/C
;
_chemical_formula_sum "Si O2"
_cell_formula_units_Z 44
_cell_length_a 22.567991
_cell_length_b 5.285956
_cell_length_c 17.264197
_cell_angle_alpha 90.000000
_cell_angle_beta 69.225444
_cell_angle_gamma 90.000000
_cell_volume 1925.602636
_symmetry_space_group_name_H-M "C 2/C"
_symmetry_group_IT_number 15
_symmetry_cell_setting 'monoclinic'
loop_
_space_group_symop_operation_xyz
x,y,z
-x,y,1/2-z
-x,-y,-z
x,-y,1/2+z
1/2+x,1/2+y,z
1/2-x,1/2+y,1/2-z
1/2-x,1/2-y,-z
1/2+x,1/2-y,1/2+z
loop_
_atom_site_type_symbol
_atom_site_label
_atom_site_fract_x
_atom_site_fract_y
_atom_site_fract_z
Si Si1 0.133974 0.151725 0.956119
Si Si2 0.111091 0.433263 0.209797
Si Si3 0.754941 0.326333 0.297463
Si Si4 0.039646 0.723761 0.368484
Si Si5 0.000000 0.918578 0.750000
Si Si6 0.900208 0.646645 0.442226
O O1 0.200885 0.113714 0.883904
O O2 0.076911 0.146836 0.920951
O O3 0.137100 0.413882 0.001592
O O4 0.124677 0.913396 0.015846
O O5 0.178304 0.298157 0.189553
O O6 0.086255 0.525455 0.305008
O O7 0.114170 0.655268 0.143785
O O8 0.060336 0.243831 0.196025
O O9 0.760014 0.562666 0.237069
O O10 0.974445 0.598367 0.428418
O O11 0.018285 0.929291 0.316850
#
# Coordination Sequence:
#
# PCOD8154652 Si02
#       6
#     8   8   8   8   4   8
#     4  12  28  46  73 107 150 191 236 302 373 424
#     4  12  26  44  79 103 147 196 246 301 354 438
#     4  12  27  50  76 106 142 196 254 295 354 445
#     4  12  24  46  73 107 143 198 242 299 354 442
#     4  12  22  44  76 110 138 184 262 286 364 410
#     4  12  26  46  70 114 148 185 237 306 374 420
#
# _framework density 22.849989000000001
#
# number of rings (size 3 to 8) (size 9 to 14) (size 15 to 20)
#    0.000    0.000    5.455    4.364    2.545    1.455 
#    0.000    0.000    0.000    0.000    0.000    0.000 
#    0.000    0.000    0.000    0.000    0.000    0.000 
#
# Total GULP energy -272905.608718 kJ/mol
# GULP energy per Si atom -12404.800396 kJ/mol
# Density = 2.279798 g / cm^3
# Si number density = 22.849989 Si / 1000 Ang^3
#
#
#
# Elastic Constant Matrix: (Units=GPa)
#
#
# Indices 1 2 3 4 5 6 
#
# 1 116.6000 8.3105 10.4564 -0.0018 -26.3218 -0.0010
# 2 8.3105 97.8546 10.4354 -0.0037 3.4308 -0.0029
# 3 10.4564 10.4354 72.4599 -0.0004 -22.5465 -0.0006
# 4 -0.0018 -0.0037 -0.0004 56.8152 -0.0014 20.4310
# 5 -26.3218 3.4308 -22.5465 -0.0014 32.6781 -0.0015
# 6 -0.0010 -0.0029 -0.0006 20.4310 -0.0015 49.8384
#
#
#
# Elastic Compliance Matrix: (Units=1/GPa)
#
#
# Indices 1 2 3 4 5 6 
#
# 1 0.010797 -0.001461 0.001791 0.000000 0.010085 0.000000
# 2 -0.001461 0.010767 -0.002620 0.000000 -0.004116 0.000000
# 3 0.001791 -0.002620 0.018406 0.000000 0.014416 0.000000
# 4 0.000000 0.000000 0.000000 0.020644 0.000001 -0.008463
# 5 0.010085 -0.004116 0.014416 0.000001 0.049104 0.000001
# 6 0.000000 0.000000 0.000000 -0.008463 0.000001 0.023534
#
#
# Mechanical properties :
#
#
# Convention : Reuss Voigt Hill
#
# Bulk Modulus (GPa) = 28.25903 38.36879 33.31391
# Shear Modulus (GPa) = 33.41581 45.04717 39.23149
#
# Velocity S-wave (km/s) = 3.82828 4.44490 4.14806
# Velocity P-wave (km/s) = 5.65111 6.57045 6.12805
#
# Compressibility (1/GPa) = 0.03538692
#
# Stress axis : x y z
#
# Youngs Moduli (GPa) = 92.62132 92.87556 54.33150
#
# Poissons Ratio (x) = 0.13574 -0.09729
# Poissons Ratio (y) = 0.13537 0.14237
# Poissons Ratio (z) = -0.16585 0.24336
#
# Static dielectric constant tensor:
#      x y z
#    x 4.284770 0.000000 -0.180180 
#    y 0.000000 4.101310 0.000000 
#    z -0.180180 0.000000 4.541600 
# 
# 
# High freq. dielectric constant tensor:
#      x y z
#    x 1.904950 0.000000 -0.005510 
#    y 0.000000 1.906030 0.000000 
#    z -0.005510 0.000000 1.916940 
# 
# From -- ./inp_files/212817.got.cif
#   From: 2010.06.25/outbox.cif.g09.slc.cpg/sg15_107_cif.got.tgz:212817.got - 2010.06.28 07:06:18.
