data_PCOD8154284
_publ_section_title
;
Structure prediction by ZEFSAII (Michael W. Deem and Ramdas Pophale) SiO2 
 PCOD8154284
Probable space group: C 2/C
;
_chemical_formula_sum "Si O2"
_cell_formula_units_Z 40
_cell_length_a 14.116598
_cell_length_b 13.424656
_cell_length_c 17.396901
_cell_angle_alpha 90.000000
_cell_angle_beta 31.045134
_cell_angle_gamma 90.000000
_cell_volume 1700.252023
_symmetry_space_group_name_H-M "C 2/C"
_symmetry_group_IT_number 15
_symmetry_cell_setting 'monoclinic'
loop_
_space_group_symop_operation_xyz
x,y,z
-x,y,1/2-z
-x,-y,-z
x,-y,1/2+z
1/2+x,1/2+y,z
1/2-x,1/2+y,1/2-z
1/2-x,1/2-y,-z
1/2+x,1/2-y,1/2+z
loop_
_atom_site_type_symbol
_atom_site_label
_atom_site_fract_x
_atom_site_fract_y
_atom_site_fract_z
Si Si1 0.493215 0.681962 0.103700
Si Si2 0.749011 0.107901 0.872211
Si Si3 0.500000 0.562103 0.250000
Si Si4 0.115412 0.406939 0.804859
Si Si5 0.289080 0.127513 0.771979
Si Si6 0.500000 0.771650 0.750000
O O1 0.554179 0.628378 0.139224
O O2 0.307129 0.638065 0.197485
O O3 0.462575 0.798164 0.144487
O O4 0.651010 0.671036 0.930980
O O5 0.815183 0.121809 0.738014
O O6 0.820587 0.200144 0.874137
O O7 0.527646 0.097067 0.024699
O O8 0.824632 0.004944 0.852984
O O9 0.143851 0.517630 0.751365
O O10 0.007152 0.342517 0.817925
#
# Coordination Sequence:
#
# PCOD8154284 Si02
#       6
#     8   8   4   8   8   4
#     4  12  28  49  76 109 153 198 251 311 372 443
#     4  11  25  48  78 110 151 194 247 311 374 440
#     4  11  28  47  76 106 158 193 252 303 370 444
#     4  12  26  46  79 111 152 194 249 304 379 441
#     4  12  27  48  79 107 150 202 248 305 377 442
#     4  11  26  43  80 118 148 185 252 315 368 440
#
# _framework density 23.525925000000001
#
# number of rings (size 3 to 8) (size 9 to 14) (size 15 to 20)
#    0.000    0.400    4.000    3.000    5.600    3.200 
#    0.000    0.000    0.000    0.000    0.000    0.000 
#    0.000    0.000    0.000    0.000    0.000    0.000 
#
# Total GULP energy -248027.959980 kJ/mol
# GULP energy per Si atom -12401.397999 kJ/mol
# Density = 2.347238 g / cm^3
# Si number density = 23.525925 Si / 1000 Ang^3
#
#
#
# Elastic Constant Matrix: (Units=GPa)
#
#
# Indices 1 2 3 4 5 6 
#
# 1 110.0128 34.3891 28.9954 -0.0015 27.1301 0.0017
# 2 34.3891 141.5392 24.7127 0.0114 0.4269 -0.0019
# 3 28.9954 24.7127 132.8988 0.0090 7.6086 -0.0043
# 4 -0.0015 0.0114 0.0090 27.2358 0.0027 -1.1785
# 5 27.1301 0.4269 7.6086 0.0027 27.2846 0.0009
# 6 0.0017 -0.0019 -0.0043 -1.1785 0.0009 44.1410
#
#
#
# Elastic Compliance Matrix: (Units=1/GPa)
#
#
# Indices 1 2 3 4 5 6 
#
# 1 0.013702 -0.002996 -0.001682 0.000004 -0.013109 0.000000
# 2 -0.002996 0.007959 -0.001006 -0.000003 0.003135 0.000000
# 3 -0.001682 -0.001006 0.008111 -0.000002 -0.000574 0.000001
# 4 0.000004 -0.000003 -0.000002 0.036759 -0.000007 0.000981
# 5 -0.013109 0.003135 -0.000574 -0.000007 0.049796 -0.000001
# 6 0.000000 0.000000 0.000001 0.000981 -0.000001 0.022681
#
#
# Mechanical properties :
#
#
# Convention : Reuss Voigt Hill
#
# Bulk Modulus (GPa) = 54.33163 62.29391 58.31277
# Shear Modulus (GPa) = 31.94643 39.48918 35.71781
#
# Velocity S-wave (km/s) = 3.68900 4.10144 3.90068
# Velocity P-wave (km/s) = 6.42569 6.99753 6.71770
#
# Compressibility (1/GPa) = 0.01840549
#
# Stress axis : x y z
#
# Youngs Moduli (GPa) = 72.97957 125.63960 123.28364
#
# Poissons Ratio (x) = 0.37642 0.20736
# Poissons Ratio (y) = 0.21865 0.12401
# Poissons Ratio (z) = 0.12275 0.12638
#
# Static dielectric constant tensor:
#      x y z
#    x 4.258530 0.000000 0.122780 
#    y 0.000000 4.664690 0.000010 
#    z 0.122780 0.000010 4.043910 
# 
# 
# High freq. dielectric constant tensor:
#      x y z
#    x 1.931410 0.000000 0.006780 
#    y 0.000000 1.956690 0.000000 
#    z 0.006780 0.000000 1.924710 
# 
# From -- ./inp_files/205620.got.cif
#   From: 2010.06.25/outbox.cif.g09.slc.cpg/sg15_103_cif.got.tgz:205620.got - 2010.06.28 07:06:18.
