data_PCOD8154254
_publ_section_title
;
Structure prediction by ZEFSAII (Michael W. Deem and Ramdas Pophale) SiO2 
 PCOD8154254
Probable space group: C 2/C
;
_chemical_formula_sum "Si O2"
_cell_formula_units_Z 44
_cell_length_a 21.887510
_cell_length_b 16.263889
_cell_length_c 13.880984
_cell_angle_alpha 90.000000
_cell_angle_beta 160.325184
_cell_angle_gamma 90.000000
_cell_volume 1663.643042
_symmetry_space_group_name_H-M "C 2/C"
_symmetry_group_IT_number 15
_symmetry_cell_setting 'monoclinic'
loop_
_space_group_symop_operation_xyz
x,y,z
-x,y,1/2-z
-x,-y,-z
x,-y,1/2+z
1/2+x,1/2+y,z
1/2-x,1/2+y,1/2-z
1/2-x,1/2-y,-z
1/2+x,1/2-y,1/2+z
loop_
_atom_site_type_symbol
_atom_site_label
_atom_site_fract_x
_atom_site_fract_y
_atom_site_fract_z
Si Si1 0.210999 0.858179 0.310808
Si Si2 0.634801 0.423358 0.611966
Si Si3 0.413339 0.187146 0.447597
Si Si4 0.500000 0.463321 0.750000
Si Si5 0.692418 0.077435 0.933103
Si Si6 0.013171 0.592666 0.131487
O O1 0.096745 0.779095 0.106501
O O2 0.364273 0.845867 0.620046
O O3 0.303016 0.900229 0.354205
O O4 0.067484 0.918706 0.146710
O O5 0.714142 0.335777 0.692465
O O6 0.629783 0.482117 0.511529
O O7 0.760664 0.450297 0.888192
O O8 0.577476 0.163938 0.765623
O O9 0.474277 0.124280 0.456226
O O10 0.369661 0.409860 0.627150
O O11 0.568027 0.002291 0.713119
#
# Coordination Sequence:
#
# PCOD8154254 Si02
#       6
#     8   8   8   4   8   8
#     4  11  26  45  77 109 154 206 265 318 392 469
#     4  12  26  47  76 111 159 199 269 323 390 471
#     4  12  26  47  72 110 157 204 256 330 392 457
#     4  12  26  46  78 116 142 206 264 336 382 468
#     4  12  28  45  78 114 162 202 266 328 394 464
#     4  11  25  47  78 110 152 207 263 322 385 463
#
# _framework density 26.447983000000001
#
# number of rings (size 3 to 8) (size 9 to 14) (size 15 to 20)
#    0.000    0.364    3.636    3.273    7.636    3.636 
#    0.000    1.818    0.000    0.000    0.000    0.000 
#    0.000    0.000    0.000    0.000    0.000    0.000 
#
# Total GULP energy -272681.800022 kJ/mol
# GULP energy per Si atom -12394.627274 kJ/mol
# Density = 2.638779 g / cm^3
# Si number density = 26.447983 Si / 1000 Ang^3
#
#
#
# Elastic Constant Matrix: (Units=GPa)
#
#
# Indices 1 2 3 4 5 6 
#
# 1 104.9496 4.3996 22.5541 0.0000 7.9091 0.0000
# 2 4.3996 68.8585 11.0545 0.0000 -0.9161 0.0000
# 3 22.5541 11.0545 85.3349 0.0000 -0.8996 0.0000
# 4 0.0000 0.0000 0.0000 41.7413 0.0000 -4.0096
# 5 7.9091 -0.9161 -0.8996 0.0000 60.7322 0.0000
# 6 0.0000 0.0000 0.0000 -4.0096 0.0000 29.6037
#
#
#
# Elastic Compliance Matrix: (Units=1/GPa)
#
#
# Indices 1 2 3 4 5 6 
#
# 1 0.010219 -0.000240 -0.002684 0.000000 -0.001374 0.000000
# 2 -0.000240 0.014839 -0.001856 0.000000 0.000228 0.000000
# 3 -0.002684 -0.001856 0.012674 0.000000 0.000509 0.000000
# 4 0.000000 0.000000 0.000000 0.024273 0.000000 0.003288
# 5 -0.001374 0.000228 0.000509 0.000000 0.016656 0.000000
# 6 0.000000 0.000000 0.000000 0.003288 0.000000 0.034225
#
#
# Mechanical properties :
#
#
# Convention : Reuss Voigt Hill
#
# Bulk Modulus (GPa) = 35.49887 37.23991 36.36939
# Shear Modulus (GPa) = 37.92571 41.15776 39.54173
#
# Velocity S-wave (km/s) = 3.79089 3.94912 3.87082
# Velocity P-wave (km/s) = 5.71073 5.90805 5.81023
#
# Compressibility (1/GPa) = 0.02816991
#
# Stress axis : x y z
#
# Youngs Moduli (GPa) = 97.85823 67.39028 78.90281
#
# Poissons Ratio (x) = 0.01619 0.21179
# Poissons Ratio (y) = 0.02351 0.14647
# Poissons Ratio (z) = 0.26267 0.12510
#
# Static dielectric constant tensor:
#      x y z
#    x 5.209330 0.000000 0.006260 
#    y 0.000000 4.129230 0.000000 
#    z 0.006260 0.000000 5.024540 
# 
# 
# High freq. dielectric constant tensor:
#      x y z
#    x 2.090230 0.000000 0.004720 
#    y 0.000000 2.022410 0.000000 
#    z 0.004720 0.000000 2.075570 
# 
# From -- ./inp_files/174282.got.cif
#   From: 2010.06.25/outbox.cif.g09.slc.cpg/sg15_88_cif.got.tgz:174282.got - 2010.06.28 07:06:18.
