data_PCOD8154802
_publ_section_title
;
Structure prediction by ZEFSAII (Michael W. Deem and Ramdas Pophale) SiO2 
 PCOD8154802
Probable space group: C 2/C
;
_chemical_formula_sum "Si O2"
_cell_formula_units_Z 40
_cell_length_a 13.411934
_cell_length_b 13.090481
_cell_length_c 12.315184
_cell_angle_alpha 90.000000
_cell_angle_beta 68.229993
_cell_angle_gamma 90.000000
_cell_volume 2007.955379
_symmetry_space_group_name_H-M "C 2/C"
_symmetry_group_IT_number 15
_symmetry_cell_setting 'monoclinic'
loop_
_space_group_symop_operation_xyz
x,y,z
-x,y,1/2-z
-x,-y,-z
x,-y,1/2+z
1/2+x,1/2+y,z
1/2-x,1/2+y,1/2-z
1/2-x,1/2-y,-z
1/2+x,1/2-y,1/2+z
loop_
_atom_site_type_symbol
_atom_site_label
_atom_site_fract_x
_atom_site_fract_y
_atom_site_fract_z
Si Si1 0.430777 0.724984 0.037469
Si Si2 0.196624 0.948088 0.024978
Si Si3 0.601030 0.861888 0.651356
Si Si4 0.773662 0.811004 0.284674
Si Si5 0.833739 0.172077 0.517219
O O1 0.344637 0.760015 0.163068
O O2 0.395917 0.617742 0.996642
O O3 0.435581 0.813104 0.946428
O O4 0.547025 0.716698 0.044478
O O5 0.217710 0.906646 0.137329
O O6 0.305202 0.942571 0.909286
O O7 0.164976 0.065767 0.048340
O O8 0.500000 0.917689 0.750000
O O9 0.639699 0.773249 0.716527
O O10 0.802049 0.850341 0.154129
O O11 0.750000 0.250000 0.500000
#
# Coordination Sequence:
#
# PCOD8154802 Si02
#       5
#     8   8   8   8   8
#     4   9  19  39  62  84 118 156 198 239 288 346
#     4   9  21  37  60  91 111 153 207 235 285 353
#     4   9  15  35  65  86 108 156 201 239 281 344
#     4   9  20  39  61  85 120 151 199 245 284 345
#     4  12  24  38  57  89 125 154 192 239 302 342
#
# _framework density 19.920760999999999
#
# number of rings (size 3 to 8) (size 9 to 14) (size 15 to 20)
#    0.000    2.400    2.000    3.000    0.000    4.000 
#    3.600    4.000    0.000    0.000    0.000    0.000 
#    0.000    0.000    0.000    0.000    0.000    0.000 
#
# Total GULP energy -247979.935755 kJ/mol
# GULP energy per Si atom -12398.996788 kJ/mol
# Density = 1.987542 g / cm^3
# Si number density = 19.920761 Si / 1000 Ang^3
#
#
#
# Elastic Constant Matrix: (Units=GPa)
#
#
# Indices 1 2 3 4 5 6 
#
# 1 136.2856 29.5059 20.7592 0.0000 -10.6677 0.0000
# 2 29.5059 64.7655 -4.5179 0.0000 13.6162 0.0000
# 3 20.7592 -4.5179 70.4262 0.0000 -5.9522 0.0000
# 4 0.0000 0.0000 0.0000 18.7802 0.0000 0.5972
# 5 -10.6677 13.6162 -5.9522 0.0000 29.3317 0.0000
# 6 0.0000 0.0000 0.0000 0.5972 0.0000 21.0987
#
#
#
# Elastic Compliance Matrix: (Units=1/GPa)
#
#
# Indices 1 2 3 4 5 6 
#
# 1 0.009388 -0.005615 -0.002664 0.000000 0.005480 0.000000
# 2 -0.005615 0.020482 0.002028 0.000000 -0.011139 0.000000
# 3 -0.002664 0.002028 0.015214 0.000000 0.001177 0.000000
# 4 0.000000 0.000000 0.000000 0.053295 0.000000 -0.001509
# 5 0.005480 -0.011139 0.001177 0.000000 0.041495 0.000000
# 6 0.000000 0.000000 0.000000 -0.001509 0.000000 0.047439
#
#
# Mechanical properties :
#
#
# Convention : Reuss Voigt Hill
#
# Bulk Modulus (GPa) = 30.69327 40.33020 35.51173
# Shear Modulus (GPa) = 23.73300 28.89080 26.31190
#
# Velocity S-wave (km/s) = 3.45537 3.81239 3.63826
# Velocity P-wave (km/s) = 5.60005 6.29828 5.95940
#
# Compressibility (1/GPa) = 0.03258043
#
# Stress axis : x y z
#
# Youngs Moduli (GPa) = 106.51933 48.82433 65.72821
#
# Poissons Ratio (x) = 0.27415 0.17512
# Poissons Ratio (y) = 0.59811 -0.13327
# Poissons Ratio (z) = 0.28380 -0.09900
#
# Static dielectric constant tensor:
#      x y z
#    x 3.685280 0.000000 -0.209530 
#    y 0.000000 3.265960 0.000000 
#    z -0.209530 0.000000 3.540500 
# 
# 
# High freq. dielectric constant tensor:
#      x y z
#    x 1.781430 0.000000 -0.016810 
#    y 0.000000 1.751150 0.000000 
#    z -0.016810 0.000000 1.771620 
# 
# From -- ./inp_files/85510.got.cif
#   From: 2010.06.25/outbox.cif.g09.slc.cpg/sg15_43_cif.got.tgz:85510.got - 2010.06.28 07:06:18.
