data_PCOD8154562
_publ_section_title
;
Structure prediction by ZEFSAII (Michael W. Deem and Ramdas Pophale) SiO2 
 PCOD8154562
Probable space group: C 2/C
;
_chemical_formula_sum "Si O2"
_cell_formula_units_Z 60
_cell_length_a 21.467691
_cell_length_b 7.463775
_cell_length_c 28.396836
_cell_angle_alpha 90.000000
_cell_angle_beta 39.229398
_cell_angle_gamma 90.000000
_cell_volume 2877.558217
_symmetry_space_group_name_H-M "C 2/C"
_symmetry_group_IT_number 15
_symmetry_cell_setting 'monoclinic'
loop_
_space_group_symop_operation_xyz
x,y,z
-x,y,1/2-z
-x,-y,-z
x,-y,1/2+z
1/2+x,1/2+y,z
1/2-x,1/2+y,1/2-z
1/2-x,1/2-y,-z
1/2+x,1/2-y,1/2+z
loop_
_atom_site_type_symbol
_atom_site_label
_atom_site_fract_x
_atom_site_fract_y
_atom_site_fract_z
Si Si1 0.700461 0.584784 0.225059
Si Si2 0.342983 0.983009 0.392411
Si Si3 0.870781 0.559963 0.686811
Si Si4 0.726040 0.395791 0.600854
Si Si5 0.451543 0.701739 0.680361
Si Si6 0.080828 0.332597 0.059200
Si Si7 0.000000 0.290628 0.750000
Si Si8 0.649212 0.549722 0.552343
O O1 0.803167 0.509300 0.184217
O O2 0.684404 0.792091 0.248644
O O3 0.701324 0.554070 0.168632
O O4 0.613448 0.465770 0.299409
O O5 0.302883 0.808602 0.390472
O O6 0.413507 0.935932 0.394563
O O7 0.250913 0.102534 0.466291
O O8 0.406018 0.089800 0.318239
O O9 0.898154 0.388809 0.702396
O O10 0.969171 0.645061 0.606032
O O11 0.843336 0.415162 0.523114
O O12 0.667458 0.520652 0.597802
O O13 0.463377 0.667944 0.729049
O O14 0.563679 0.698031 0.593846
O O15 0.108239 0.128750 0.052466
#
# Coordination Sequence:
#
# PCOD8154562 Si02
#       8
#     8   8   8   8   8   8   4   8
#     4  12  25  43  64  89 127 163 217 263 300 366
#     4   9  19  36  62  98 132 163 196 253 321 372
#     4  12  24  43  66  84 125 171 206 258 313 361
#     4   9  20  37  65  96 125 162 207 255 309 370
#     4  12  24  39  62  95 122 167 208 251 316 370
#     4   9  18  40  65  88 127 169 199 251 318 371
#     4  12  22  34  60 100 130 154 208 256 310 378
#     4   9  19  39  64  92 131 165 197 252 321 374
#
# _framework density 20.851012000000001
#
# number of rings (size 3 to 8) (size 9 to 14) (size 15 to 20)
#    0.000    1.600    4.000    3.200    0.000    1.067 
#    2.400    0.000    0.000    2.400    0.000    0.000 
#    0.000    0.000    0.000    0.000    0.000    0.000 
#
# Total GULP energy -371871.096351 kJ/mol
# GULP energy per Si atom -12395.703212 kJ/mol
# Density = 2.080355 g / cm^3
# Si number density = 20.851012 Si / 1000 Ang^3
#
#
#
# Elastic Constant Matrix: (Units=GPa)
#
#
# Indices 1 2 3 4 5 6 
#
# 1 98.2815 31.6859 50.4199 -0.0388 -23.6311 -0.0142
# 2 31.6859 68.6957 28.7761 -0.1317 -6.5129 -0.0189
# 3 50.4199 28.7761 116.7974 -0.0027 -22.1595 0.0197
# 4 -0.0388 -0.1317 -0.0027 31.2161 -0.0470 -5.3615
# 5 -23.6311 -6.5129 -22.1595 -0.0470 29.0509 0.0020
# 6 -0.0142 -0.0189 0.0197 -5.3615 0.0020 30.8950
#
#
#
# Elastic Compliance Matrix: (Units=1/GPa)
#
#
# Indices 1 2 3 4 5 6 
#
# 1 0.015900 -0.004821 -0.004007 0.000014 0.008796 0.000009
# 2 -0.004821 0.017706 -0.002656 0.000069 -0.001979 0.000022
# 3 -0.004007 -0.002656 0.011943 -0.000009 0.005255 -0.000013
# 4 0.000014 0.000069 -0.000009 0.033019 0.000073 0.005730
# 5 0.008796 -0.001979 0.005255 0.000073 0.045142 0.000009
# 6 0.000009 0.000022 -0.000013 0.005730 0.000009 0.033362
#
#
# Mechanical properties :
#
#
# Convention : Reuss Voigt Hill
#
# Bulk Modulus (GPa) = 44.28797 56.17091 50.22944
# Shear Modulus (GPa) = 26.65682 29.75857 28.20770
#
# Velocity S-wave (km/s) = 3.57941 3.78193 3.68206
# Velocity P-wave (km/s) = 6.19429 6.78736 6.49760
#
# Compressibility (1/GPa) = 0.02257949
#
# Stress axis : x y z
#
# Youngs Moduli (GPa) = 62.89337 56.47764 83.73029
#
# Poissons Ratio (x) = 0.27230 0.33551
# Poissons Ratio (y) = 0.30323 0.22242
# Poissons Ratio (z) = 0.25202 0.15003
#
# Static dielectric constant tensor:
#      x y z
#    x 3.662960 0.000010 -0.325840 
#    y 0.000010 3.787840 0.000030 
#    z -0.325840 0.000030 3.949460 
# 
# 
# High freq. dielectric constant tensor:
#      x y z
#    x 1.795400 -0.000010 -0.027830 
#    y -0.000010 1.825640 0.000000 
#    z -0.027830 0.000000 1.817850 
# 
# From -- ./inp_files/300516.got.cif
#   From: 2010.06.25/outbox.cif.g09.slc.cpg/sg15_151_cif.got.tgz:300516.got - 2010.06.28 07:06:18.
