data_PCOD8154832
_publ_section_title
;
Structure prediction by ZEFSAII (Michael W. Deem and Ramdas Pophale) SiO2 
 PCOD8154832
Probable space group: C 2/C
;
_chemical_formula_sum "Si O2"
_cell_formula_units_Z 60
_cell_length_a 23.002356
_cell_length_b 8.483334
_cell_length_c 26.883633
_cell_angle_alpha 90.000000
_cell_angle_beta 30.691705
_cell_angle_gamma 90.000000
_cell_volume 2677.646182
_symmetry_space_group_name_H-M "C 2/C"
_symmetry_group_IT_number 15
_symmetry_cell_setting 'monoclinic'
loop_
_space_group_symop_operation_xyz
x,y,z
-x,y,1/2-z
-x,-y,-z
x,-y,1/2+z
1/2+x,1/2+y,z
1/2-x,1/2+y,1/2-z
1/2-x,1/2-y,-z
1/2+x,1/2-y,1/2+z
loop_
_atom_site_type_symbol
_atom_site_label
_atom_site_fract_x
_atom_site_fract_y
_atom_site_fract_z
Si Si1 0.152884 0.152091 0.188278
Si Si2 0.174747 0.781436 0.505860
Si Si3 0.121359 0.289085 0.582730
Si Si4 0.000000 0.916236 0.250000
Si Si5 0.107146 0.911200 0.005222
Si Si6 0.351860 0.470735 0.206622
Si Si7 0.778065 0.620058 0.287765
Si Si8 0.483035 0.920793 0.179307
O O1 0.278481 0.190319 0.076948
O O2 0.084222 0.317592 0.230289
O O3 0.107664 0.021144 0.184090
O O4 0.151638 0.094856 0.245694
O O5 0.250000 0.750000 0.500000
O O6 0.046349 0.716012 0.601924
O O7 0.165322 0.967236 0.501425
O O8 0.250000 0.250000 0.500000
O O9 0.104403 0.255949 0.536442
O O10 0.031866 0.183578 0.678638
O O11 0.085484 0.467274 0.623851
O O12 0.976913 0.959602 0.089531
O O13 0.181850 0.895796 0.900901
O O14 0.266592 0.539615 0.229000
O O15 0.306700 0.302600 0.258779
O O16 0.893736 0.528039 0.215428
#
# Coordination Sequence:
#
# PCOD8154832 Si02
#       8
#     8   8   8   4   8   8   8   8
#     4  12  24  45  73 105 147 191 242 298 365 434
#     4  12  26  44  71 109 152 193 241 294 361 448
#     4  12  27  42  70 106 151 190 245 293 361 435
#     4  12  24  44  68 102 150 202 228 304 356 422
#     4  12  25  50  71 108 147 188 241 303 364 437
#     4  12  27  52  74 107 145 185 251 306 375 435
#     4  12  28  49  79 103 140 192 246 313 368 436
#     4  12  24  47  72 107 144 191 247 298 362 436
#
# _framework density 22.407741000000001
#
# number of rings (size 3 to 8) (size 9 to 14) (size 15 to 20)
#    0.000    0.000    5.333    4.400    5.600    1.600 
#    0.000    1.333    0.000    0.000    0.000    0.000 
#    0.000    0.000    0.000    0.000    0.000    0.000 
#
# Total GULP energy -371889.791989 kJ/mol
# GULP energy per Si atom -12396.326400 kJ/mol
# Density = 2.235674 g / cm^3
# Si number density = 22.407741 Si / 1000 Ang^3
#
#
#
# Elastic Constant Matrix: (Units=GPa)
#
#
# Indices 1 2 3 4 5 6 
#
# 1 73.6651 28.8699 33.7849 0.0605 0.4975 -0.0677
# 2 28.8699 110.3484 25.1734 0.0399 8.1171 -0.0192
# 3 33.7849 25.1734 116.6344 0.0061 1.3809 -0.0120
# 4 0.0605 0.0399 0.0061 25.1444 -0.0314 -15.1012
# 5 0.4975 8.1171 1.3809 -0.0314 33.9195 0.0310
# 6 -0.0677 -0.0192 -0.0120 -15.1012 0.0310 33.9798
#
#
#
# Elastic Compliance Matrix: (Units=1/GPa)
#
#
# Indices 1 2 3 4 5 6 
#
# 1 0.016843 -0.003521 -0.004128 -0.000021 0.000764 0.000020
# 2 -0.003521 0.010434 -0.001204 -0.000014 -0.002396 -0.000006
# 3 -0.004128 -0.001204 0.010030 0.000008 -0.000060 -0.000002
# 4 -0.000021 -0.000014 0.000008 0.054250 0.000032 0.024110
# 5 0.000764 -0.002396 -0.000060 0.000032 0.030046 -0.000013
# 6 0.000020 -0.000006 -0.000002 0.024110 -0.000013 0.040144
#
#
# Mechanical properties :
#
#
# Convention : Reuss Voigt Hill
#
# Bulk Modulus (GPa) = 51.01548 52.92268 51.96908
# Shear Modulus (GPa) = 26.88357 32.79672 29.84014
#
# Velocity S-wave (km/s) = 3.46749 3.82990 3.65319
# Velocity P-wave (km/s) = 6.23279 6.57471 6.40603
#
# Compressibility (1/GPa) = 0.01960190
#
# Stress axis : x y z
#
# Youngs Moduli (GPa) = 59.37219 95.83805 99.70071
#
# Poissons Ratio (x) = 0.33745 0.41155
# Poissons Ratio (y) = 0.20905 0.12002
# Poissons Ratio (z) = 0.24508 0.11537
#
# Static dielectric constant tensor:
#      x y z
#    x 3.965240 -0.000120 0.033320 
#    y -0.000120 4.437800 -0.000180 
#    z 0.033320 -0.000180 4.456690 
# 
# 
# High freq. dielectric constant tensor:
#      x y z
#    x 1.860420 0.000000 -0.008430 
#    y 0.000000 1.905140 0.000000 
#    z -0.008430 0.000000 1.906590 
# 
# From -- ./inp_files/302064.got.cif
#   From: 2010.06.25/outbox.cif.g09.slc.cpg/sg15_152_cif.got.tgz:302064.got - 2010.06.28 07:06:18.
