data_PCOD8154132
_publ_section_title
;
Structure prediction by ZEFSAII (Michael W. Deem and Ramdas Pophale) SiO2 
 PCOD8154132
Probable space group: C 2/C
;
_chemical_formula_sum "Si O2"
_cell_formula_units_Z 48
_cell_length_a 8.882143
_cell_length_b 15.548206
_cell_length_c 24.102327
_cell_angle_alpha 90.000000
_cell_angle_beta 142.726263
_cell_angle_gamma 90.000000
_cell_volume 2015.857789
_symmetry_space_group_name_H-M "C 2/C"
_symmetry_group_IT_number 15
_symmetry_cell_setting 'monoclinic'
loop_
_space_group_symop_operation_xyz
x,y,z
-x,y,1/2-z
-x,-y,-z
x,-y,1/2+z
1/2+x,1/2+y,z
1/2-x,1/2+y,1/2-z
1/2-x,1/2-y,-z
1/2+x,1/2-y,1/2+z
loop_
_atom_site_type_symbol
_atom_site_label
_atom_site_fract_x
_atom_site_fract_y
_atom_site_fract_z
Si Si1 0.930970 0.457612 0.898763
Si Si2 0.250655 0.110649 0.913326
Si Si3 0.000000 0.559594 0.750000
Si Si4 0.500000 0.334451 0.750000
Si Si5 0.208603 0.050414 0.093471
Si Si6 0.536398 0.260048 0.573309
Si Si7 0.716123 0.809781 0.238902
O O1 0.033727 0.449334 0.866198
O O2 0.823001 0.552633 0.880629
O O3 0.699705 0.393242 0.841290
O O4 0.171112 0.440155 0.008309
O O5 0.409978 0.198640 0.962870
O O6 0.968415 0.141962 0.829589
O O7 0.236059 0.498304 0.832243
O O8 0.015551 0.619341 0.699483
O O9 0.334631 0.278230 0.743180
O O10 0.116826 0.144551 0.082507
O O11 0.000000 0.000000 0.000000
O O12 0.702102 0.217552 0.670869
O O13 0.250000 0.250000 0.500000
#
# Coordination Sequence:
#
# PCOD8154132 Si02
#       7
#     8   8   4   4   8   8   8
#     4  11  26  45  71 106 146 195 253 318 381 463
#     4  11  25  45  71 103 144 197 248 311 381 450
#     4  11  26  44  73 104 146 190 245 314 370 453
#     4  11  26  42  69 104 144 192 245 314 378 457
#     4  12  27  46  73 108 148 197 251 317 382 451
#     4  12  26  44  71 103 147 192 249 304 380 454
#     4  11  25  45  70 104 143 192 249 305 380 448
#
# _framework density 23.811204
#
# number of rings (size 3 to 8) (size 9 to 14) (size 15 to 20)
#    0.000    0.667    0.000    6.500    9.333    8.000 
#    0.000    0.000    0.000    0.000    0.000    0.000 
#    0.000    0.000    0.000    0.000    0.000    0.000 
#
# Total GULP energy -297501.894396 kJ/mol
# GULP energy per Si atom -12395.912266 kJ/mol
# Density = 2.375701 g / cm^3
# Si number density = 23.811204 Si / 1000 Ang^3
#
#
#
# Elastic Constant Matrix: (Units=GPa)
#
#
# Indices 1 2 3 4 5 6 
#
# 1 76.5830 45.2764 17.4581 0.0000 8.2868 -0.0001
# 2 45.2764 199.6841 56.3545 0.0000 5.9805 -0.0001
# 3 17.4581 56.3545 127.8860 0.0005 12.0667 -0.0001
# 4 0.0000 0.0000 0.0005 45.6627 0.0001 9.2988
# 5 8.2868 5.9805 12.0667 0.0001 37.7826 -0.0001
# 6 -0.0001 -0.0001 -0.0001 9.2988 -0.0001 45.1415
#
#
#
# Elastic Compliance Matrix: (Units=1/GPa)
#
#
# Indices 1 2 3 4 5 6 
#
# 1 0.015392 -0.003298 -0.000390 0.000000 -0.002729 0.000000
# 2 -0.003298 0.006426 -0.002427 0.000000 0.000481 0.000000
# 3 -0.000390 -0.002427 0.009174 0.000000 -0.002460 0.000000
# 4 0.000000 0.000000 0.000000 0.022859 0.000000 -0.004709
# 5 -0.002729 0.000481 -0.002460 0.000000 0.027775 0.000000
# 6 0.000000 0.000000 0.000000 -0.004709 0.000000 0.023123
#
#
# Mechanical properties :
#
#
# Convention : Reuss Voigt Hill
#
# Bulk Modulus (GPa) = 53.30008 71.37012 62.33510
# Shear Modulus (GPa) = 40.57334 44.72163 42.64749
#
# Velocity S-wave (km/s) = 4.13238 4.33849 4.23669
# Velocity P-wave (km/s) = 6.72323 7.42530 7.08297
#
# Compressibility (1/GPa) = 0.01876170
#
# Stress axis : x y z
#
# Youngs Moduli (GPa) = 64.96939 155.61215 108.99933
#
# Poissons Ratio (x) = 0.51322 0.04255
# Poissons Ratio (y) = 0.21427 0.26454
# Poissons Ratio (z) = 0.02536 0.37767
#
# Static dielectric constant tensor:
#      x y z
#    x 4.400440 0.000000 -0.121400 
#    y 0.000000 4.449820 0.000000 
#    z -0.121400 0.000000 4.185930 
# 
# 
# High freq. dielectric constant tensor:
#      x y z
#    x 1.940420 0.000000 0.007420 
#    y 0.000000 1.973560 0.000000 
#    z 0.007420 0.000000 1.943990 
# 
# From -- ./inp_files/289141.got.cif
#   From: 2010.06.25/outbox.cif.g09.slc.cpg/sg15_145_cif.got.tgz:289141.got - 2010.06.28 07:06:18.
