data_PCOD8154448
_publ_section_title
;
Structure prediction by ZEFSAII (Michael W. Deem and Ramdas Pophale) SiO2 
 PCOD8154448
Probable space group: C 2/C
;
_chemical_formula_sum "Si O2"
_cell_formula_units_Z 36
_cell_length_a 22.443012
_cell_length_b 5.257046
_cell_length_c 13.921589
_cell_angle_alpha 90.000000
_cell_angle_beta 55.572392
_cell_angle_gamma 90.000000
_cell_volume 1354.821432
_symmetry_space_group_name_H-M "C 2/C"
_symmetry_group_IT_number 15
_symmetry_cell_setting 'monoclinic'
loop_
_space_group_symop_operation_xyz
x,y,z
-x,y,1/2-z
-x,-y,-z
x,-y,1/2+z
1/2+x,1/2+y,z
1/2-x,1/2+y,1/2-z
1/2-x,1/2-y,-z
1/2+x,1/2-y,1/2+z
loop_
_atom_site_type_symbol
_atom_site_label
_atom_site_fract_x
_atom_site_fract_y
_atom_site_fract_z
Si Si1 0.752136 0.050169 0.583125
Si Si2 0.000000 0.838685 0.250000
Si Si3 0.568113 0.471817 0.871029
Si Si4 0.346750 0.974877 0.663783
Si Si5 0.642827 0.155540 0.046585
O O1 0.750000 0.250000 0.500000
O O2 0.725090 0.092567 0.717489
O O3 0.686717 0.866113 0.605785
O O4 0.831628 0.928536 0.519225
O O5 0.956674 0.020364 0.217281
O O6 0.943069 0.656387 0.357882
O O7 0.593693 0.187476 0.869634
O O8 0.627182 0.695141 0.829811
O O9 0.500000 0.500000 0.000000
O O10 0.333813 0.952103 0.558970
#
# Coordination Sequence:
#
# PCOD8154448 Si02
#       5
#     8   4   8   8   8
#     4  11  27  49  74 112 153 202 253 310 381 455
#     4  12  24  52  76 108 154 198 250 316 378 452
#     4  12  27  47  76 114 153 193 254 308 382 448
#     4  12  28  48  79 113 149 200 256 312 376 457
#     4  11  27  47  77 109 153 198 250 313 379 445
#
# _framework density 26.571769
#
# number of rings (size 3 to 8) (size 9 to 14) (size 15 to 20)
#    0.000    0.444    4.444    2.000    9.333    2.667 
#    0.000    0.000    0.000    0.000    0.000    0.000 
#    0.000    0.000    0.000    0.000    0.000    0.000 
#
# Total GULP energy -223040.933544 kJ/mol
# GULP energy per Si atom -12391.162975 kJ/mol
# Density = 2.651129 g / cm^3
# Si number density = 26.571769 Si / 1000 Ang^3
#
#
#
# Elastic Constant Matrix: (Units=GPa)
#
#
# Indices 1 2 3 4 5 6 
#
# 1 62.9538 -10.0810 19.7028 0.0015 12.6767 -0.0034
# 2 -10.0810 64.4843 -3.4237 0.0210 -1.5129 -0.0545
# 3 19.7028 -3.4237 181.6287 -0.0032 -16.8848 -0.0114
# 4 0.0015 0.0210 -0.0032 41.4298 0.0004 6.8341
# 5 12.6767 -1.5129 -16.8848 0.0004 66.6558 0.0033
# 6 -0.0034 -0.0545 -0.0114 6.8341 0.0033 26.9299
#
#
#
# Elastic Compliance Matrix: (Units=1/GPa)
#
#
# Indices 1 2 3 4 5 6 
#
# 1 0.017781 0.002569 -0.002242 -0.000003 -0.003891 0.000008
# 2 0.002569 0.015907 0.000009 -0.000014 -0.000125 0.000036
# 3 -0.002242 0.000009 0.005928 0.000000 0.001928 0.000002
# 4 -0.000003 -0.000014 0.000000 0.025192 0.000001 -0.006393
# 5 -0.003891 -0.000125 0.001928 0.000001 0.016228 -0.000002
# 6 0.000008 0.000036 0.000002 -0.006393 -0.000002 0.038756
#
#
# Mechanical properties :
#
#
# Convention : Reuss Voigt Hill
#
# Bulk Modulus (GPa) = 24.81985 35.71810 30.26898
# Shear Modulus (GPa) = 37.72183 47.19436 42.45809
#
# Velocity S-wave (km/s) = 3.77187 4.21896 4.00167
# Velocity P-wave (km/s) = 5.32262 6.09952 5.72427
#
# Compressibility (1/GPa) = 0.04029033
#
# Stress axis : x y z
#
# Youngs Moduli (GPa) = 56.23830 62.86561 168.67901
#
# Poissons Ratio (x) = -0.16153 0.37822
# Poissons Ratio (y) = -0.14450 -0.00160
# Poissons Ratio (z) = 0.12610 -0.00060
#
# Static dielectric constant tensor:
#      x y z
#    x 2.021730 0.001250 -2.019100 
#    y 0.001250 5.032160 0.000680 
#    z -2.019100 0.000680 3.558600 
# 
# 
# High freq. dielectric constant tensor:
#      x y z
#    x 2.077980 0.000000 0.011760 
#    y 0.000000 2.053210 0.000000 
#    z 0.011760 0.000000 2.094470 
# 
# From -- ./inp_files/175284.got.cif
#   From: 2010.06.25/outbox.cif.g09.slc.cpg/sg15_88_cif.got.tgz:175284.got - 2010.06.28 07:06:18.
