data_PCOD8154995
_publ_section_title
;
Structure prediction by ZEFSAII (Michael W. Deem and Ramdas Pophale) SiO2 
 PCOD8154995
Probable space group: C 2/C
;
_chemical_formula_sum "Si O2"
_cell_formula_units_Z 48
_cell_length_a 14.500796
_cell_length_b 26.080739
_cell_length_c 8.303361
_cell_angle_alpha 90.000000
_cell_angle_beta 139.985348
_cell_angle_gamma 90.000000
_cell_volume 2019.135547
_symmetry_space_group_name_H-M "C 2/C"
_symmetry_group_IT_number 15
_symmetry_cell_setting 'monoclinic'
loop_
_space_group_symop_operation_xyz
x,y,z
-x,y,1/2-z
-x,-y,-z
x,-y,1/2+z
1/2+x,1/2+y,z
1/2-x,1/2+y,1/2-z
1/2-x,1/2-y,-z
1/2+x,1/2-y,1/2+z
loop_
_atom_site_type_symbol
_atom_site_label
_atom_site_fract_x
_atom_site_fract_y
_atom_site_fract_z
Si Si1 0.511556 0.412363 0.576561
Si Si2 0.500000 0.854928 0.750000
Si Si3 0.295681 0.061577 0.958260
Si Si4 0.000000 0.626192 0.750000
Si Si5 0.931266 0.803256 0.983244
Si Si6 0.897360 0.707312 0.381876
Si Si7 0.791896 0.452255 0.831205
O O1 0.500000 0.422581 0.750000
O O2 0.366422 0.425070 0.292601
O O3 0.561418 0.354700 0.609375
O O4 0.624218 0.451761 0.649432
O O5 0.393965 0.893678 0.511177
O O6 0.608330 0.816267 0.804195
O O7 0.348598 0.009044 0.947026
O O8 0.321234 0.061170 0.185075
O O9 0.002315 0.665631 0.604746
O O10 0.862490 0.589447 0.546016
O O11 0.763762 0.786837 0.767366
O O12 0.000000 0.811628 0.250000
O O13 0.021526 0.761417 0.004618
#
# Coordination Sequence:
#
# PCOD8154995 Si02
#       7
#     8   4   8   4   8   8   8
#     4  12  27  46  75 108 148 192 247 304 368 441
#     4  12  25  46  72 110 142 198 243 298 370 440
#     4  12  27  45  77 105 147 195 244 304 371 445
#     4  12  27  48  72 102 152 184 245 310 366 436
#     4  12  26  49  76 111 148 198 243 309 373 441
#     4  12  28  46  76 109 150 195 247 307 369 448
#     4  12  26  49  71 108 146 194 244 310 367 438
#
# _framework density 23.772549999999999
#
# number of rings (size 3 to 8) (size 9 to 14) (size 15 to 20)
#    0.000    0.000    4.167    5.000    8.167    2.000 
#    0.000    0.000    0.000    0.000    0.000    0.000 
#    0.000    0.000    0.000    0.000    0.000    0.000 
#
# Total GULP energy -297554.738770 kJ/mol
# GULP energy per Si atom -12398.114115 kJ/mol
# Density = 2.371844 g / cm^3
# Si number density = 23.772550 Si / 1000 Ang^3
#
#
#
# Elastic Constant Matrix: (Units=GPa)
#
#
# Indices 1 2 3 4 5 6 
#
# 1 73.6618 14.6219 23.5560 0.0000 8.1373 0.0000
# 2 14.6219 98.4492 8.0280 0.0000 4.0100 0.0000
# 3 23.5560 8.0280 106.8914 0.0000 12.1266 0.0000
# 4 0.0000 0.0000 0.0000 205.2180 0.0000 -222.1939
# 5 8.1373 4.0100 12.1266 0.0000 28.8401 0.0000
# 6 0.0000 0.0000 0.0000 -222.1939 0.0000 322.3279
#
#
#
# Elastic Compliance Matrix: (Units=1/GPa)
#
#
# Indices 1 2 3 4 5 6 
#
# 1 0.015187 -0.001906 -0.002885 0.000000 -0.002807 0.000000
# 2 -0.001906 0.010496 -0.000277 0.000000 -0.000805 0.000000
# 3 -0.002885 -0.000277 0.010412 0.000000 -0.003525 0.000000
# 4 0.000000 0.000000 0.000000 0.019212 0.000000 0.013244
# 5 -0.002807 -0.000805 -0.003525 0.000000 0.037060 0.000000
# 6 0.000000 0.000000 0.000000 0.013244 0.000000 0.012232
#
#
# Mechanical properties :
#
#
# Convention : Reuss Voigt Hill
#
# Bulk Modulus (GPa) = 38.52325 41.26825 39.89575
# Shear Modulus (GPa) = 40.52281 126.79697 83.65989
#
# Velocity S-wave (km/s) = 4.13317 7.31118 5.93870
# Velocity P-wave (km/s) = 6.24640 9.41639 7.99018
#
# Compressibility (1/GPa) = 0.02595835
#
# Stress axis : x y z
#
# Youngs Moduli (GPa) = 65.84754 95.27459 96.04439
#
# Poissons Ratio (x) = 0.18159 0.27710
# Poissons Ratio (y) = 0.12550 0.02660
# Poissons Ratio (z) = 0.18998 0.02638
#
# Static dielectric constant tensor:
#      x y z
#    x 4.443510 0.000000 -0.103700 
#    y 0.000000 4.559110 0.000000 
#    z -0.103700 0.000000 4.452120 
# 
# 
# High freq. dielectric constant tensor:
#      x y z
#    x 1.938950 0.000000 0.011100 
#    y 0.000000 1.965660 0.000000 
#    z 0.011100 0.000000 1.947220 
# 
# From -- ./inp_files/43994.got.cif
#   From: 2010.06.25/outbox.cif.g09.slc.cpg/sg15_22_cif.got.tgz:43994.got - 2010.06.28 07:06:18.
