data_PCOD8154432
_publ_section_title
;
Structure prediction by ZEFSAII (Michael W. Deem and Ramdas Pophale) SiO2 
 PCOD8154432
Probable space group: C 2/C
;
_chemical_formula_sum "Si O2"
_cell_formula_units_Z 56
_cell_length_a 11.760167
_cell_length_b 8.840106
_cell_length_c 28.342774
_cell_angle_alpha 90.000000
_cell_angle_beta 57.959105
_cell_angle_gamma 90.000000
_cell_volume 2497.698131
_symmetry_space_group_name_H-M "C 2/C"
_symmetry_group_IT_number 15
_symmetry_cell_setting 'monoclinic'
loop_
_space_group_symop_operation_xyz
x,y,z
-x,y,1/2-z
-x,-y,-z
x,-y,1/2+z
1/2+x,1/2+y,z
1/2-x,1/2+y,1/2-z
1/2-x,1/2-y,-z
1/2+x,1/2-y,1/2+z
loop_
_atom_site_type_symbol
_atom_site_label
_atom_site_fract_x
_atom_site_fract_y
_atom_site_fract_z
Si Si1 0.769518 0.078004 0.512149
Si Si2 0.481681 0.015255 0.058606
Si Si3 0.542353 0.058885 0.688035
Si Si4 0.389678 0.785158 0.147399
Si Si5 0.596250 0.278476 0.187057
Si Si6 0.327882 0.327835 0.099791
Si Si7 0.041924 0.986258 0.111257
O O1 0.750000 0.250000 0.500000
O O2 0.848622 0.088616 0.544536
O O3 0.850501 0.984341 0.454886
O O4 0.629879 0.984894 0.550518
O O5 0.384969 0.157743 0.088644
O O6 0.409870 0.863754 0.092207
O O7 0.500000 0.000000 0.000000
O O8 0.500000 0.095747 0.750000
O O9 0.415912 0.096562 0.683120
O O10 0.671013 0.161906 0.646761
O O11 0.555445 0.881454 0.674367
O O12 0.235850 0.738629 0.182091
O O13 0.498889 0.655387 0.133093
O O14 0.500000 0.337372 0.250000
O O15 0.601470 0.402999 0.144247
O O16 0.405404 0.412103 0.123833
#
# Coordination Sequence:
#
# PCOD8154432 Si02
#       7
#     8   8   8   8   8   8   8
#     4  12  23  44  68 105 147 189 243 289 358 437
#     4  12  24  41  72 101 145 192 232 291 359 428
#     4  11  26  51  74 103 146 189 242 306 361 429
#     4  12  25  46  72 105 143 188 238 298 361 432
#     4  11  28  49  72 106 142 187 246 302 366 435
#     4  12  25  45  70 108 144 191 240 300 365 427
#     4  12  26  45  72 107 146 186 245 298 358 438
#
# _framework density 22.420642000000001
#
# number of rings (size 3 to 8) (size 9 to 14) (size 15 to 20)
#    0.000    0.286    5.714    2.143    4.000    1.143 
#    0.000    0.000    0.000    0.000    0.000    0.000 
#    0.000    0.000    0.000    0.000    0.000    0.000 
#
# Total GULP energy -347118.751986 kJ/mol
# GULP energy per Si atom -12397.098285 kJ/mol
# Density = 2.236961 g / cm^3
# Si number density = 22.420642 Si / 1000 Ang^3
#
#
#
# Elastic Constant Matrix: (Units=GPa)
#
#
# Indices 1 2 3 4 5 6 
#
# 1 89.0145 35.2443 24.3758 0.0000 12.3708 0.0000
# 2 35.2443 115.8655 46.4322 0.0000 11.5530 0.0000
# 3 24.3758 46.4322 116.7011 0.0000 -0.3832 0.0000
# 4 0.0000 0.0000 0.0000 32.5619 0.0000 5.9618
# 5 12.3708 11.5530 -0.3832 0.0000 30.0524 0.0000
# 6 0.0000 0.0000 0.0000 5.9618 0.0000 44.0889
#
#
#
# Elastic Compliance Matrix: (Units=1/GPa)
#
#
# Indices 1 2 3 4 5 6 
#
# 1 0.013486 -0.003007 -0.001635 0.000000 -0.004416 0.000000
# 2 -0.003007 0.011442 -0.003935 0.000000 -0.003211 0.000000
# 3 -0.001635 -0.003935 0.010484 0.000000 0.002320 0.000000
# 4 0.000000 0.000000 0.000000 0.031490 0.000000 -0.004258
# 5 -0.004416 -0.003211 0.002320 0.000000 0.036357 0.000000
# 6 0.000000 0.000000 0.000000 -0.004258 0.000000 0.023257
#
#
# Mechanical properties :
#
#
# Convention : Reuss Voigt Hill
#
# Bulk Modulus (GPa) = 54.76917 59.29840 57.03378
# Shear Modulus (GPa) = 33.38737 35.70923 34.54830
#
# Velocity S-wave (km/s) = 3.86312 3.99519 3.92971
# Velocity P-wave (km/s) = 6.66178 6.91286 6.78848
#
# Compressibility (1/GPa) = 0.01825845
#
# Stress axis : x y z
#
# Youngs Moduli (GPa) = 74.15042 87.39388 95.38561
#
# Poissons Ratio (x) = 0.26276 0.15597
# Poissons Ratio (y) = 0.22294 0.37536
# Poissons Ratio (z) = 0.12125 0.34391
#
# Static dielectric constant tensor:
#      x y z
#    x 4.713700 0.000000 0.047310 
#    y 0.000000 6.392740 0.000000 
#    z 0.047310 0.000000 4.135620 
# 
# 
# High freq. dielectric constant tensor:
#      x y z
#    x 1.900260 0.000000 0.002400 
#    y 0.000000 1.881650 0.000000 
#    z 0.002400 0.000000 1.885670 
# 
# From -- ./inp_files/291528.got.cif
#   From: 2010.06.25/outbox.cif.g09.slc.cpg/sg15_146_cif.got.tgz:291528.got - 2010.06.28 07:06:18.
