data_PCOD8154435
_publ_section_title
;
Structure prediction by ZEFSAII (Michael W. Deem and Ramdas Pophale) SiO2 
 PCOD8154435
Probable space group: C 2/C
;
_chemical_formula_sum "Si O2"
_cell_formula_units_Z 24
_cell_length_a 11.827224
_cell_length_b 9.052961
_cell_length_c 9.977663
_cell_angle_alpha 90.000000
_cell_angle_beta 129.165762
_cell_angle_gamma 90.000000
_cell_volume 828.293831
_symmetry_space_group_name_H-M "C 2/C"
_symmetry_group_IT_number 15
_symmetry_cell_setting 'monoclinic'
loop_
_space_group_symop_operation_xyz
x,y,z
-x,y,1/2-z
-x,-y,-z
x,-y,1/2+z
1/2+x,1/2+y,z
1/2-x,1/2+y,1/2-z
1/2-x,1/2-y,-z
1/2+x,1/2-y,1/2+z
loop_
_atom_site_type_symbol
_atom_site_label
_atom_site_fract_x
_atom_site_fract_y
_atom_site_fract_z
Si Si1 0.592868 0.920961 0.455358
Si Si2 0.868407 0.838049 0.327810
Si Si3 0.197970 0.097946 0.051871
O O1 0.500000 0.909182 0.250000
O O2 0.632907 0.757264 0.535814
O O3 0.500000 0.000000 0.500000
O O4 0.738135 0.016571 0.531931
O O5 0.785907 0.749414 0.147504
O O6 0.030380 0.868225 0.397133
O O7 0.787019 0.991015 0.306381
#
# Coordination Sequence:
#
# PCOD8154435 Si02
#       3
#     8   8   8
#     4  12  25  50  81 119 164 212 273 344 407 489
#     4  11  26  51  83 118 166 215 276 342 412 496
#     4  11  26  51  82 121 161 219 276 337 418 490
#
# _framework density 28.975224000000001
#
# number of rings (size 3 to 8) (size 9 to 14) (size 15 to 20)
#    0.000    0.667    3.333    3.000    0.000    1.333 
#    6.000    3.333    0.000    0.000    0.000    2.333 
#    0.000    0.000    0.000    0.000    0.000    0.000 
#
# Total GULP energy -148935.163231 kJ/mol
# GULP energy per Si atom -12411.263603 kJ/mol
# Density = 2.890928 g / cm^3
# Si number density = 28.975224 Si / 1000 Ang^3
#
#
#
# Elastic Constant Matrix: (Units=GPa)
#
#
# Indices 1 2 3 4 5 6 
#
# 1 219.9184 66.5395 69.2711 0.0000 25.5458 0.0000
# 2 66.5395 156.4389 41.7628 0.0000 15.9764 0.0000
# 3 69.2711 41.7628 98.3001 0.0000 -31.1634 0.0000
# 4 0.0000 0.0000 0.0000 45.4105 0.0000 14.9805
# 5 25.5458 15.9764 -31.1634 0.0000 65.4457 0.0000
# 6 0.0000 0.0000 0.0000 14.9805 0.0000 56.4802
#
#
#
# Elastic Compliance Matrix: (Units=1/GPa)
#
#
# Indices 1 2 3 4 5 6 
#
# 1 0.007734 -0.000761 -0.007097 0.000000 -0.006212 0.000000
# 2 -0.000761 0.008183 -0.004098 0.000000 -0.003652 0.000000
# 3 -0.007097 -0.004098 0.021330 0.000000 0.013927 0.000000
# 4 0.000000 0.000000 0.000000 0.024133 0.000000 -0.006401
# 5 -0.006212 -0.003652 0.013927 0.000000 0.025228 0.000000
# 6 0.000000 0.000000 0.000000 -0.006401 0.000000 0.019403
#
#
# Mechanical properties :
#
#
# Convention : Reuss Voigt Hill
#
# Bulk Modulus (GPa) = 74.98295 92.20046 83.59170
# Shear Modulus (GPa) = 37.21129 53.27286 45.24207
#
# Velocity S-wave (km/s) = 3.58752 4.29250 3.95575
# Velocity P-wave (km/s) = 6.56467 7.51378 7.05521
#
# Compressibility (1/GPa) = 0.01333636
#
# Stress axis : x y z
#
# Youngs Moduli (GPa) = 129.29478 122.20660 46.88193
#
# Poissons Ratio (x) = 0.09297 0.33270
# Poissons Ratio (y) = 0.09836 0.19213
# Poissons Ratio (z) = 0.91755 0.50083
#
# Static dielectric constant tensor:
#      x y z
#    x 5.593250 0.000000 -0.090570 
#    y 0.000000 6.019720 0.000000 
#    z -0.090570 0.000000 5.389460 
# 
# 
# High freq. dielectric constant tensor:
#      x y z
#    x 2.204600 0.000000 -0.021550 
#    y 0.000000 2.200770 0.000000 
#    z -0.021550 0.000000 2.208690 
# 
# From -- ./inp_files/83703.got.cif
#   From: 2010.06.25/outbox.cif.g09.slc.cpg/sg15_42_cif.got.tgz:83703.got - 2010.06.28 07:06:18.
