data_PCOD8154793
_publ_section_title
;
Structure prediction by ZEFSAII (Michael W. Deem and Ramdas Pophale) SiO2 
 PCOD8154793
Probable space group: C 2/C
;
_chemical_formula_sum "Si O2"
_cell_formula_units_Z 48
_cell_length_a 14.313779
_cell_length_b 9.358367
_cell_length_c 26.584794
_cell_angle_alpha 90.000000
_cell_angle_beta 39.423250
_cell_angle_gamma 90.000000
_cell_volume 2261.473566
_symmetry_space_group_name_H-M "C 2/C"
_symmetry_group_IT_number 15
_symmetry_cell_setting 'monoclinic'
loop_
_space_group_symop_operation_xyz
x,y,z
-x,y,1/2-z
-x,-y,-z
x,-y,1/2+z
1/2+x,1/2+y,z
1/2-x,1/2+y,1/2-z
1/2-x,1/2-y,-z
1/2+x,1/2-y,1/2+z
loop_
_atom_site_type_symbol
_atom_site_label
_atom_site_fract_x
_atom_site_fract_y
_atom_site_fract_z
Si Si1 0.164297 0.714592 0.586173
Si Si2 0.444150 0.655566 0.533591
Si Si3 0.431849 0.493171 0.333044
Si Si4 0.110812 0.469499 0.317879
Si Si5 0.876379 0.798842 0.175274
Si Si6 0.125886 0.403695 0.425158
O O1 0.250000 0.750000 0.500000
O O2 0.279523 0.677410 0.581857
O O3 0.067945 0.850665 0.642138
O O4 0.056954 0.579272 0.622185
O O5 0.500000 0.500000 0.500000
O O6 0.447438 0.701209 0.590451
O O7 0.567143 0.743449 0.452200
O O8 0.500000 0.506499 0.250000
O O9 0.524147 0.388394 0.328810
O O10 0.269416 0.427158 0.398947
O O11 0.130817 0.638275 0.299316
O O12 0.216871 0.374758 0.238247
O O13 0.162597 0.442486 0.353013
O O14 0.000000 0.500000 0.500000
#
# Coordination Sequence:
#
# PCOD8154793 Si02
#       6
#     8   8   8   8   8   8
#     4  12  25  46  74 104 141 186 233 293 354 424
#     4  12  28  45  73 107 143 183 238 294 351 419
#     4  12  26  46  74 103 140 191 236 287 361 423
#     4  12  26  46  71 104 143 185 239 289 357 419
#     4  12  28  47  73 104 144 189 234 297 352 426
#     4  12  23  49  73  99 143 189 233 286 358 425
#
# _framework density 21.225097999999999
#
# number of rings (size 3 to 8) (size 9 to 14) (size 15 to 20)
#    0.000    0.000    6.667    2.000    7.000    0.667 
#    0.000    0.000    0.000    0.000    0.000    0.000 
#    0.000    0.000    0.000    0.000    0.000    0.000 
#
# Total GULP energy -297741.393546 kJ/mol
# GULP energy per Si atom -12405.891398 kJ/mol
# Density = 2.117679 g / cm^3
# Si number density = 21.225098 Si / 1000 Ang^3
#
#
#
# Elastic Constant Matrix: (Units=GPa)
#
#
# Indices 1 2 3 4 5 6 
#
# 1 95.7775 43.6592 43.3841 0.0000 2.2144 0.0000
# 2 43.6592 183.4260 42.2573 0.0000 -12.7866 0.0000
# 3 43.3841 42.2573 87.4473 0.0000 -10.0657 0.0000
# 4 0.0000 0.0000 0.0000 38.1605 0.0000 -4.9071
# 5 2.2144 -12.7866 -10.0657 0.0000 38.1405 0.0000
# 6 0.0000 0.0000 0.0000 -4.9071 0.0000 38.0470
#
#
#
# Elastic Compliance Matrix: (Units=1/GPa)
#
#
# Indices 1 2 3 4 5 6 
#
# 1 0.014449 -0.002171 -0.006497 0.000000 -0.003282 0.000000
# 2 -0.002171 0.006526 -0.001867 0.000000 0.001821 0.000000
# 3 -0.006497 -0.001867 0.016019 0.000000 0.003979 0.000000
# 4 0.000000 0.000000 0.000000 0.026647 0.000000 0.003437
# 5 -0.003282 0.001821 0.003979 0.000000 0.028070 0.000000
# 6 0.000000 0.000000 0.000000 0.003437 0.000000 0.026727
#
#
# Mechanical properties :
#
#
# Convention : Reuss Voigt Hill
#
# Bulk Modulus (GPa) = 62.79841 69.47244 66.13543
# Shear Modulus (GPa) = 34.52676 38.69295 36.60985
#
# Velocity S-wave (km/s) = 4.03761 4.27427 4.15762
# Velocity P-wave (km/s) = 7.16850 7.56052 7.36712
#
# Compressibility (1/GPa) = 0.01592397
#
# Stress axis : x y z
#
# Youngs Moduli (GPa) = 69.20675 153.24381 62.42676
#
# Poissons Ratio (x) = 0.33273 0.40559
# Poissons Ratio (y) = 0.15026 0.11652
# Poissons Ratio (z) = 0.44965 0.28604
#
# Static dielectric constant tensor:
#      x y z
#    x 4.041830 0.000000 0.562920 
#    y 0.000000 3.840280 0.000000 
#    z 0.562920 0.000000 5.791000 
# 
# 
# High freq. dielectric constant tensor:
#      x y z
#    x 1.839830 0.000000 -0.004060 
#    y 0.000000 1.846000 0.000000 
#    z -0.004060 0.000000 1.845250 
# 
# From -- ./inp_files/295407.got.cif
#   From: 2010.06.25/outbox.cif.g09.slc.cpg/sg15_148_cif.got.tgz:295407.got - 2010.06.28 07:06:18.
