data_PCOD8154491
_publ_section_title
;
Structure prediction by ZEFSAII (Michael W. Deem and Ramdas Pophale) SiO2 
 PCOD8154491
Probable space group: C 2/C
;
_chemical_formula_sum "Si O2"
_cell_formula_units_Z 56
_cell_length_a 20.045218
_cell_length_b 18.174419
_cell_length_c 19.674302
_cell_angle_alpha 90.000000
_cell_angle_beta 158.991348
_cell_angle_gamma 90.000000
_cell_volume 2569.630161
_symmetry_space_group_name_H-M "C 2/C"
_symmetry_group_IT_number 15
_symmetry_cell_setting 'monoclinic'
loop_
_space_group_symop_operation_xyz
x,y,z
-x,y,1/2-z
-x,-y,-z
x,-y,1/2+z
1/2+x,1/2+y,z
1/2-x,1/2+y,1/2-z
1/2-x,1/2-y,-z
1/2+x,1/2-y,1/2+z
loop_
_atom_site_type_symbol
_atom_site_label
_atom_site_fract_x
_atom_site_fract_y
_atom_site_fract_z
Si Si1 0.289660 0.835133 0.532990
Si Si2 0.600981 0.178444 0.778553
Si Si3 0.871690 0.084389 0.496496
Si Si4 0.287192 0.672888 0.692332
Si Si5 0.880371 0.329679 0.832937
Si Si6 0.434575 0.428098 0.612639
Si Si7 0.755283 0.324752 0.864454
O O1 0.500000 0.856310 0.750000
O O2 0.250000 0.750000 0.500000
O O3 0.152394 0.878690 0.452422
O O4 0.250656 0.857563 0.418947
O O5 0.500000 0.209399 0.750000
O O6 0.719607 0.243191 0.858100
O O7 0.447738 0.146802 0.580406
O O8 0.738248 0.113346 0.931017
O O9 0.693613 0.099558 0.278976
O O10 0.045211 0.121946 0.621319
O O11 0.905050 0.998277 0.536704
O O12 0.349295 0.758344 0.754981
O O13 0.099422 0.660490 0.557136
O O14 0.770724 0.319748 0.798363
O O15 0.500000 0.451086 0.750000
O O16 0.587498 0.378111 0.722320
#
# Coordination Sequence:
#
# PCOD8154491 Si02
#       7
#     8   8   8   8   8   8   8
#     4  12  20  37  64  98 132 181 241 291 331 393
#     4  12  24  46  81 109 138 176 238 304 365 429
#     4  12  27  44  70 103 150 191 235 301 355 417
#     4  12  22  41  67 100 142 187 244 294 338 413
#     4  12  25  43  68 105 145 190 244 285 349 432
#     4  12  27  49  72 108 145 182 236 305 369 421
#     4  12  26  45  76 109 138 182 234 298 364 439
#
# _framework density 21.793019999999999
#
# number of rings (size 3 to 8) (size 9 to 14) (size 15 to 20)
#    0.000    0.000    7.143    3.857    0.000    3.429 
#    0.000    1.429    0.000    0.000    0.000    0.000 
#    0.000    0.000    0.000    0.000    0.000    0.000 
#
# Total GULP energy -347349.956360 kJ/mol
# GULP energy per Si atom -12405.355584 kJ/mol
# Density = 2.174342 g / cm^3
# Si number density = 21.793020 Si / 1000 Ang^3
#
#
#
# Elastic Constant Matrix: (Units=GPa)
#
#
# Indices 1 2 3 4 5 6 
#
# 1 105.6443 18.1318 23.6457 0.0846 1.3268 0.0080
# 2 18.1318 101.4966 38.8770 0.1153 1.9900 0.0568
# 3 23.6457 38.8770 118.7358 0.1566 15.3506 0.0948
# 4 0.0846 0.1153 0.1566 27.5842 0.0663 4.1710
# 5 1.3268 1.9900 15.3506 0.0663 36.1147 -0.0141
# 6 0.0080 0.0568 0.0948 4.1710 -0.0141 10.0180
#
#
#
# Elastic Compliance Matrix: (Units=1/GPa)
#
#
# Indices 1 2 3 4 5 6 
#
# 1 0.010034 -0.001161 -0.001671 -0.000021 0.000405 0.000024
# 2 -0.001161 0.011434 -0.003637 -0.000023 0.000958 -0.000018
# 3 -0.001671 -0.003637 0.010488 -0.000018 -0.004196 -0.000076
# 4 -0.000021 -0.000023 -0.000018 0.038689 -0.000068 -0.016108
# 5 0.000405 0.000958 -0.004196 -0.000068 0.029406 0.000103
# 6 0.000024 -0.000018 -0.000076 -0.016108 0.000103 0.106527
#
#
# Mechanical properties :
#
#
# Convention : Reuss Voigt Hill
#
# Bulk Modulus (GPa) = 52.57480 54.13177 53.35329
# Shear Modulus (GPa) = 22.13831 31.09153 26.61492
#
# Velocity S-wave (km/s) = 3.19069 3.78123 3.49844
# Velocity P-wave (km/s) = 6.14418 6.62998 6.39170
#
# Compressibility (1/GPa) = 0.01902052
#
# Stress axis : x y z
#
# Youngs Moduli (GPa) = 99.66362 87.45818 95.34681
#
# Poissons Ratio (x) = 0.10150 0.15929
# Poissons Ratio (y) = 0.11566 0.34673
# Poissons Ratio (z) = 0.16650 0.31804
#
# Static dielectric constant tensor:
#      x y z
#    x 4.018420 -0.000420 0.034220 
#    y -0.000420 3.598430 -0.000360 
#    z 0.034220 -0.000360 4.364030 
# 
# 
# High freq. dielectric constant tensor:
#      x y z
#    x 1.857930 -0.000010 0.007250 
#    y -0.000010 1.825840 -0.000020 
#    z 0.007250 -0.000020 1.881470 
# 
# From -- ./inp_files/253325.got.cif
#   From: 2010.06.25/outbox.cif.g09.slc.cpg/sg15_127_cif.got.tgz:253325.got - 2010.06.28 07:06:18.
