data_PCOD8154823
_publ_section_title
;
Structure prediction by ZEFSAII (Michael W. Deem and Ramdas Pophale) SiO2 
 PCOD8154823
Probable space group: C 2/C
;
_chemical_formula_sum "Si O2"
_cell_formula_units_Z 40
_cell_length_a 14.730471
_cell_length_b 14.761781
_cell_length_c 8.427676
_cell_angle_alpha 90.000000
_cell_angle_beta 72.615175
_cell_angle_gamma 90.000000
_cell_volume 1748.867951
_symmetry_space_group_name_H-M "C 2/C"
_symmetry_group_IT_number 15
_symmetry_cell_setting 'monoclinic'
loop_
_space_group_symop_operation_xyz
x,y,z
-x,y,1/2-z
-x,-y,-z
x,-y,1/2+z
1/2+x,1/2+y,z
1/2-x,1/2+y,1/2-z
1/2-x,1/2-y,-z
1/2+x,1/2-y,1/2+z
loop_
_atom_site_type_symbol
_atom_site_label
_atom_site_fract_x
_atom_site_fract_y
_atom_site_fract_z
Si Si1 0.733917 0.947634 0.197650
Si Si2 0.020869 0.253527 0.054284
Si Si3 0.943826 0.075321 0.621209
Si Si4 0.189765 0.263912 0.375359
Si Si5 0.691540 0.122769 0.378074
O O1 0.839696 0.963187 0.212116
O O2 0.686372 0.867030 0.320411
O O3 0.679651 0.043098 0.253808
O O4 0.732311 0.924323 0.013668
O O5 0.000000 0.264667 0.250000
O O6 0.919051 0.243855 0.020527
O O7 0.074842 0.161282 0.982825
O O8 0.086536 0.335875 0.960228
O O9 0.000000 0.103017 0.750000
O O10 0.000000 0.000000 0.500000
O O11 0.250000 0.250000 0.500000
O O12 0.232378 0.199175 0.215780
#
# Coordination Sequence:
#
# PCOD8154823 Si02
#       5
#     8   8   8   8   8
#     4  12  24  46  72 102 149 193 239 302 369 432
#     4  12  25  46  73 106 147 194 242 299 366 429
#     4  12  24  43  72 109 142 185 251 305 367 428
#     4  12  25  46  73 106 145 190 240 303 368 430
#     4  12  26  48  73 108 148 190 249 303 362 445
#
# _framework density 22.871939000000001
#
# number of rings (size 3 to 8) (size 9 to 14) (size 15 to 20)
#    0.000    0.000    4.000    7.200    0.000    0.800 
#    0.000    0.000    0.000    0.000    0.000    0.000 
#    0.000    0.000    0.000    0.000    0.000    0.000 
#
# Total GULP energy -248082.664976 kJ/mol
# GULP energy per Si atom -12404.133249 kJ/mol
# Density = 2.281988 g / cm^3
# Si number density = 22.871939 Si / 1000 Ang^3
#
#
#
# Elastic Constant Matrix: (Units=GPa)
#
#
# Indices 1 2 3 4 5 6 
#
# 1 128.9038 34.6660 52.1094 0.0000 -1.6917 0.0000
# 2 34.6660 161.3273 59.1987 0.0000 -18.4843 0.0000
# 3 52.1094 59.1987 103.3682 0.0000 -11.7146 0.0000
# 4 0.0000 0.0000 0.0000 56.0889 0.0000 -8.4927
# 5 -1.6917 -18.4843 -11.7146 0.0000 32.7603 0.0000
# 6 0.0000 0.0000 0.0000 -8.4927 0.0000 34.0017
#
#
#
# Elastic Compliance Matrix: (Units=1/GPa)
#
#
# Indices 1 2 3 4 5 6 
#
# 1 0.009829 -0.000512 -0.004833 0.000000 -0.001509 0.000000
# 2 -0.000512 0.008156 -0.004059 0.000000 0.003124 0.000000
# 3 -0.004833 -0.004059 0.014745 0.000000 0.002733 0.000000
# 4 0.000000 0.000000 0.000000 0.018530 0.000000 0.004628
# 5 -0.001509 0.003124 0.002733 0.000000 0.033187 0.000000
# 6 0.000000 0.000000 0.000000 0.004628 0.000000 0.030566
#
#
# Mechanical properties :
#
#
# Convention : Reuss Voigt Hill
#
# Bulk Modulus (GPa) = 71.82503 76.17196 73.99849
# Shear Modulus (GPa) = 36.11132 41.07853 38.59493
#
# Velocity S-wave (km/s) = 3.97778 4.24255 4.11230
# Velocity P-wave (km/s) = 7.25040 7.57462 7.41428
#
# Compressibility (1/GPa) = 0.01392272
#
# Stress axis : x y z
#
# Youngs Moduli (GPa) = 101.73665 122.61152 67.82014
#
# Poissons Ratio (x) = 0.06272 0.32779
# Poissons Ratio (y) = 0.05204 0.27528
# Poissons Ratio (z) = 0.49171 0.49767
#
# Static dielectric constant tensor:
#      x y z
#    x 4.232540 0.000000 0.025470 
#    y 0.000000 4.328230 0.000000 
#    z 0.025470 0.000000 4.190390 
# 
# 
# High freq. dielectric constant tensor:
#      x y z
#    x 1.905020 0.000000 -0.005320 
#    y 0.000000 1.916000 0.000000 
#    z -0.005320 0.000000 1.912940 
# 
# From -- ./inp_files/37814.got.cif
#   From: 2010.06.25/outbox.cif.g09.slc.cpg/sg15_19_cif.got.tgz:37814.got - 2010.06.28 07:06:18.
