data_PCOD8154341
_publ_section_title
;
Structure prediction by ZEFSAII (Michael W. Deem and Ramdas Pophale) SiO2 
 PCOD8154341
Probable space group: C 2/C
;
_chemical_formula_sum "Si O2"
_cell_formula_units_Z 40
_cell_length_a 8.535004
_cell_length_b 12.050196
_cell_length_c 17.875436
_cell_angle_alpha 90.000000
_cell_angle_beta 99.657416
_cell_angle_gamma 90.000000
_cell_volume 1812.407367
_symmetry_space_group_name_H-M "C 2/C"
_symmetry_group_IT_number 15
_symmetry_cell_setting 'monoclinic'
loop_
_space_group_symop_operation_xyz
x,y,z
-x,y,1/2-z
-x,-y,-z
x,-y,1/2+z
1/2+x,1/2+y,z
1/2-x,1/2+y,1/2-z
1/2-x,1/2-y,-z
1/2+x,1/2-y,1/2+z
loop_
_atom_site_type_symbol
_atom_site_label
_atom_site_fract_x
_atom_site_fract_y
_atom_site_fract_z
Si Si1 0.674173 0.197368 0.920287
Si Si2 0.173346 0.360833 0.676702
Si Si3 0.178038 0.978621 0.538714
Si Si4 0.821161 0.695204 0.151206
Si Si5 0.169030 0.410860 0.100330
O O1 0.694823 0.288100 0.856400
O O2 0.491943 0.161052 0.914295
O O3 0.767629 0.084425 0.908562
O O4 0.750000 0.250000 0.000000
O O5 0.203532 0.340527 0.765832
O O6 0.180779 0.491823 0.662008
O O7 0.997908 0.327279 0.636198
O O8 0.191072 0.870373 0.591432
O O9 0.295412 0.963533 0.477601
O O10 0.000000 0.000000 0.500000
O O11 0.803891 0.825856 0.137209
#
# Coordination Sequence:
#
# PCOD8154341 Si02
#       5
#     8   8   8   8   8
#     4  12  23  43  74 104 139 187 234 291 351 424
#     4  11  26  47  68 105 142 188 233 291 361 419
#     4  12  24  45  73 104 140 186 238 294 351 418
#     4  11  26  45  70 102 145 183 235 292 354 426
#     4  12  25  47  71 103 143 183 239 294 349 422
#
# _framework density 22.070094999999998
#
# number of rings (size 3 to 8) (size 9 to 14) (size 15 to 20)
#    0.000    0.400    4.000    4.800    2.800    0.800 
#    0.000    0.000    0.000    0.000    0.000    0.000 
#    0.000    0.000    0.000    0.000    0.000    0.000 
#
# Total GULP energy -248051.089032 kJ/mol
# GULP energy per Si atom -12402.554452 kJ/mol
# Density = 2.201986 g / cm^3
# Si number density = 22.070095 Si / 1000 Ang^3
#
#
#
# Elastic Constant Matrix: (Units=GPa)
#
#
# Indices 1 2 3 4 5 6 
#
# 1 106.1409 38.1038 15.1323 0.0000 -0.6100 0.0000
# 2 38.1038 160.3444 25.4818 0.0000 0.7615 0.0000
# 3 15.1323 25.4818 76.8762 0.0000 -4.6084 0.0000
# 4 0.0000 0.0000 0.0000 26.8513 0.0000 -1.2323
# 5 -0.6100 0.7615 -4.6084 0.0000 30.5108 0.0000
# 6 0.0000 0.0000 0.0000 -1.2323 0.0000 48.1817
#
#
#
# Elastic Compliance Matrix: (Units=1/GPa)
#
#
# Indices 1 2 3 4 5 6 
#
# 1 0.010422 -0.002271 -0.001294 0.000000 0.000070 0.000000
# 2 -0.002271 0.007086 -0.001932 0.000000 -0.000514 0.000000
# 3 -0.001294 -0.001932 0.014032 0.000000 0.002142 0.000000
# 4 0.000000 0.000000 0.000000 0.037286 0.000000 0.000954
# 5 0.000070 -0.000514 0.002142 0.000000 0.033113 0.000000
# 6 0.000000 0.000000 0.000000 0.000954 0.000000 0.020779
#
#
# Mechanical properties :
#
#
# Convention : Reuss Voigt Hill
#
# Bulk Modulus (GPa) = 48.67831 55.64414 52.16123
# Shear Modulus (GPa) = 35.57172 38.75167 37.16170
#
# Velocity S-wave (km/s) = 4.01903 4.19483 4.10787
# Velocity P-wave (km/s) = 6.60613 6.98064 6.79596
#
# Compressibility (1/GPa) = 0.02054303
#
# Stress axis : x y z
#
# Youngs Moduli (GPa) = 95.95340 141.12635 71.26751
#
# Poissons Ratio (x) = 0.32053 0.09225
# Poissons Ratio (y) = 0.21793 0.13772
# Poissons Ratio (z) = 0.12420 0.27272
#
# Static dielectric constant tensor:
#      x y z
#    x 4.135520 0.000000 -0.046470 
#    y 0.000000 4.680810 0.000000 
#    z -0.046470 0.000000 3.851710 
# 
# 
# High freq. dielectric constant tensor:
#      x y z
#    x 1.873450 0.000000 0.001440 
#    y 0.000000 1.896050 0.000000 
#    z 0.001440 0.000000 1.860880 
# 
# From -- ./inp_files/187793.got.cif
#   From: 2010.06.25/outbox.cif.g09.slc.cpg/sg15_94_cif.got.tgz:187793.got - 2010.06.28 07:06:18.
