data_PCOD8154830
_publ_section_title
;
Structure prediction by ZEFSAII (Michael W. Deem and Ramdas Pophale) SiO2 
 PCOD8154830
Probable space group: C 2/C
;
_chemical_formula_sum "Si O2"
_cell_formula_units_Z 40
_cell_length_a 26.831209
_cell_length_b 7.462352
_cell_length_c 9.731924
_cell_angle_alpha 90.000000
_cell_angle_beta 69.305517
_cell_angle_gamma 90.000000
_cell_volume 1822.838906
_symmetry_space_group_name_H-M "C 2/C"
_symmetry_group_IT_number 15
_symmetry_cell_setting 'monoclinic'
loop_
_space_group_symop_operation_xyz
x,y,z
-x,y,1/2-z
-x,-y,-z
x,-y,1/2+z
1/2+x,1/2+y,z
1/2-x,1/2+y,1/2-z
1/2-x,1/2-y,-z
1/2+x,1/2-y,1/2+z
loop_
_atom_site_type_symbol
_atom_site_label
_atom_site_fract_x
_atom_site_fract_y
_atom_site_fract_z
Si Si1 0.221741 0.199016 0.888409
Si Si2 0.904389 0.662788 0.371173
Si Si3 0.108539 0.331523 0.939765
Si Si4 0.536465 0.484493 0.595442
Si Si5 0.708417 0.292603 0.925047
O O1 0.172716 0.330692 0.898551
O O2 0.269700 0.205122 0.734285
O O3 0.197883 0.001700 0.917128
O O4 0.250000 0.250000 0.000000
O O5 0.920019 0.481582 0.437577
O O6 0.905342 0.632507 0.206195
O O7 0.846086 0.703725 0.480996
O O8 0.944393 0.820151 0.373725
O O9 0.086464 0.140743 0.012307
O O10 0.500000 0.398210 0.750000
O O11 0.500000 0.500000 0.500000
O O12 0.750000 0.250000 0.000000
#
# Coordination Sequence:
#
# PCOD8154830 Si02
#       5
#     8   8   8   8   8
#     4  12  26  42  71 105 149 197 242 300 367 443
#     4  12  28  48  75 110 154 194 251 308 371 449
#     4  12  28  49  74 111 151 197 249 310 372 446
#     4  12  28  52  81 109 145 197 255 314 376 432
#     4  12  24  44  67 105 148 193 246 293 364 445
#
# _framework density 21.943792999999999
#
# number of rings (size 3 to 8) (size 9 to 14) (size 15 to 20)
#    0.000    0.000    6.000    3.600    5.600    1.600 
#    0.000    0.000    0.000    0.000    0.000    0.000 
#    0.000    0.000    0.000    0.000    0.000    0.000 
#
# Total GULP energy -248072.563528 kJ/mol
# GULP energy per Si atom -12403.628176 kJ/mol
# Density = 2.189385 g / cm^3
# Si number density = 21.943793 Si / 1000 Ang^3
#
#
#
# Elastic Constant Matrix: (Units=GPa)
#
#
# Indices 1 2 3 4 5 6 
#
# 1 107.1238 19.6704 54.4982 0.0000 14.6549 0.0000
# 2 19.6704 117.1349 42.3114 0.0000 12.4352 0.0000
# 3 54.4982 42.3114 188.3457 0.0000 21.2074 0.0000
# 4 0.0000 0.0000 0.0000 40.1958 0.0000 -0.6378
# 5 14.6549 12.4352 21.2074 0.0000 46.6733 0.0000
# 6 0.0000 0.0000 0.0000 -0.6378 0.0000 32.3477
#
#
#
# Elastic Compliance Matrix: (Units=1/GPa)
#
#
# Indices 1 2 3 4 5 6 
#
# 1 0.011188 -0.000626 -0.002866 0.000000 -0.002044 0.000000
# 2 -0.000626 0.009442 -0.001769 0.000000 -0.001515 0.000000
# 3 -0.002866 -0.001769 0.006726 0.000000 -0.001685 0.000000
# 4 0.000000 0.000000 0.000000 0.024886 0.000000 0.000491
# 5 -0.002044 -0.001515 -0.001685 0.000000 0.023236 0.000000
# 6 0.000000 0.000000 0.000000 0.000491 0.000000 0.030924
#
#
# Mechanical properties :
#
#
# Convention : Reuss Voigt Hill
#
# Bulk Modulus (GPa) = 59.41142 71.72938 65.57040
# Shear Modulus (GPa) = 40.80396 43.58499 42.19448
#
# Velocity S-wave (km/s) = 4.31684 4.46153 4.38978
# Velocity P-wave (km/s) = 7.20971 7.70059 7.45919
#
# Compressibility (1/GPa) = 0.01683178
#
# Stress axis : x y z
#
# Youngs Moduli (GPa) = 89.38281 105.90610 148.67767
#
# Poissons Ratio (x) = 0.06634 0.42617
# Poissons Ratio (y) = 0.05599 0.26306
# Poissons Ratio (z) = 0.25621 0.18738
#
# Static dielectric constant tensor:
#      x y z
#    x 3.802000 0.000000 -0.093410 
#    y 0.000000 4.107480 0.000000 
#    z -0.093410 0.000000 4.658570 
# 
# 
# High freq. dielectric constant tensor:
#      x y z
#    x 1.868410 0.000000 -0.000850 
#    y 0.000000 1.872620 0.000000 
#    z -0.000850 0.000000 1.883230 
# 
# From -- ./inp_files/59903.got.cif
#   From: 2010.06.25/outbox.cif.g09.slc.cpg/sg15_30_cif.got.tgz:59903.got - 2010.06.28 07:06:18.
