data_PCOD8154722
_publ_section_title
;
Structure prediction by ZEFSAII (Michael W. Deem and Ramdas Pophale) SiO2 
 PCOD8154722
Probable space group: C 2/C
;
_chemical_formula_sum "Si O2"
_cell_formula_units_Z 28
_cell_length_a 9.701542
_cell_length_b 22.894245
_cell_length_c 9.103745
_cell_angle_alpha 90.000000
_cell_angle_beta 149.568945
_cell_angle_gamma 90.000000
_cell_volume 1024.159605
_symmetry_space_group_name_H-M "C 2/C"
_symmetry_group_IT_number 15
_symmetry_cell_setting 'monoclinic'
loop_
_space_group_symop_operation_xyz
x,y,z
-x,y,1/2-z
-x,-y,-z
x,-y,1/2+z
1/2+x,1/2+y,z
1/2-x,1/2+y,1/2-z
1/2-x,1/2-y,-z
1/2+x,1/2-y,1/2+z
loop_
_atom_site_type_symbol
_atom_site_label
_atom_site_fract_x
_atom_site_fract_y
_atom_site_fract_z
Si Si1 0.000000 0.973141 0.250000
Si Si2 0.279175 0.380168 0.255955
Si Si3 0.000000 0.443036 0.250000
Si Si4 0.644052 0.280217 0.680613
Si Si5 0.000000 0.698834 0.250000
O O1 0.047970 0.933259 0.151317
O O2 0.249509 0.014864 0.502336
O O3 0.044339 0.402499 0.148602
O O4 0.500457 0.342818 0.555311
O O5 0.132778 0.343439 0.994777
O O6 0.421797 0.230517 0.528402
O O7 0.751367 0.266489 0.609789
#
# Coordination Sequence:
#
# PCOD8154722 Si02
#       5
#     4   8   4   8   4
#     4  12  26  49  76 106 136 194 249 294 348 426
#     4  12  27  47  76 108 148 184 243 297 354 430
#     4  12  31  48  74 104 150 190 236 299 370 412
#     4  12  25  42  74 111 143 186 239 296 352 421
#     4  12  23  43  74 106 148 180 245 287 354 408
#
# _framework density 27.339490000000001
#
# number of rings (size 3 to 8) (size 9 to 14) (size 15 to 20)
#    0.000    0.000    5.714    3.429    4.000    0.000 
#    0.000    1.429    0.000    0.000    0.000    0.000 
#    0.000    0.000    0.000    0.000    0.000    0.000 
#
# Total GULP energy -173502.196907 kJ/mol
# GULP energy per Si atom -12393.014065 kJ/mol
# Density = 2.727726 g / cm^3
# Si number density = 27.339490 Si / 1000 Ang^3
#
#
#
# Elastic Constant Matrix: (Units=GPa)
#
#
# Indices 1 2 3 4 5 6 
#
# 1 175.4401 61.6019 56.8126 0.0000 18.7599 0.0000
# 2 61.6019 98.8523 73.8488 0.0000 -51.1775 0.0000
# 3 56.8126 73.8488 144.2243 0.0000 74.8241 0.0000
# 4 0.0000 0.0000 0.0000 10.7408 0.0000 57.2671
# 5 18.7599 -51.1775 74.8241 0.0000 -62.6607 0.0000
# 6 0.0000 0.0000 0.0000 57.2671 0.0000 -106.6284
#
#
#
# Elastic Compliance Matrix: (Units=1/GPa)
#
#
# Indices 1 2 3 4 5 6 
#
# 1 0.007062 -0.002117 -0.002279 0.000000 0.001121 0.000000
# 2 -0.002117 0.007780 0.000294 0.000000 -0.006637 0.000000
# 3 -0.002279 0.000294 0.005038 0.000000 0.005094 0.000000
# 4 0.000000 0.000000 0.000000 0.024098 0.000000 0.012942
# 5 0.001121 -0.006637 0.005094 0.000000 -0.004120 0.000000
# 6 0.000000 0.000000 0.000000 0.012942 0.000000 -0.002427
#
#
# Mechanical properties :
#
#
# Convention : Reuss Voigt Hill
#
# Bulk Modulus (GPa) = 85.65924 89.22703 87.44313
# Shear Modulus (GPa) = 100.95378 -16.62610 42.16384
#
# Velocity S-wave (km/s) = 6.08327 -2.46871 3.93139
# Velocity P-wave (km/s) = 8.98561 4.95797 7.25681
#
# Compressibility (1/GPa) = 0.01167416
#
# Stress axis : x y z
#
# Youngs Moduli (GPa) = 141.61175 128.53773 198.47813
#
# Poissons Ratio (x) = 0.27213 0.45241
# Poissons Ratio (y) = 0.29981 -0.05831
# Poissons Ratio (z) = 0.32279 -0.03776
#
# Static dielectric constant tensor:
#      x y z
#    x 5.606640 0.000000 0.394390 
#    y 0.000000 5.480850 0.000000 
#    z 0.394390 0.000000 4.924870 
# 
# 
# High freq. dielectric constant tensor:
#      x y z
#    x 2.121050 0.000000 0.029760 
#    y 0.000000 2.118410 0.000000 
#    z 0.029760 0.000000 2.110340 
# 
# From -- ./inp_files/1669.got.cif
#   From: 2010.06.25/outbox.cif.g09.slc.cpg/sg15_1_cif.got.tgz:1669.got - 2010.06.28 07:06:18.
