data_PCOD8154962
_publ_section_title
;
Structure prediction by ZEFSAII (Michael W. Deem and Ramdas Pophale) SiO2 
 PCOD8154962
Probable space group: C 2/C
;
_chemical_formula_sum "Si O2"
_cell_formula_units_Z 28
_cell_length_a 5.189607
_cell_length_b 16.384968
_cell_length_c 14.164055
_cell_angle_alpha 90.000000
_cell_angle_beta 115.994733
_cell_angle_gamma 90.000000
_cell_volume 1082.548417
_symmetry_space_group_name_H-M "C 2/C"
_symmetry_group_IT_number 15
_symmetry_cell_setting 'monoclinic'
loop_
_space_group_symop_operation_xyz
x,y,z
-x,y,1/2-z
-x,-y,-z
x,-y,1/2+z
1/2+x,1/2+y,z
1/2-x,1/2+y,1/2-z
1/2-x,1/2-y,-z
1/2+x,1/2-y,1/2+z
loop_
_atom_site_type_symbol
_atom_site_label
_atom_site_fract_x
_atom_site_fract_y
_atom_site_fract_z
Si Si1 0.392962 0.118860 0.330317
Si Si2 0.730568 0.352823 0.440363
Si Si3 0.351510 0.771602 0.136042
Si Si4 0.000000 0.026234 0.750000
O O1 0.500000 0.163548 0.250000
O O2 0.651373 0.104234 0.446224
O O3 0.147803 0.173622 0.343949
O O4 0.274616 0.031405 0.278060
O O5 0.487326 0.288065 0.428140
O O6 0.570584 0.420220 0.352432
O O7 0.985988 0.302448 0.430221
O O8 0.500000 0.816333 0.250000
#
# Coordination Sequence:
#
# PCOD8154962 Si02
#       4
#     8   8   8   4
#     4  12  29  48  77 116 155 198 254 318 379 447
#     4  12  28  50  80 110 151 205 254 309 380 450
#     4  12  24  51  79 111 147 197 263 314 370 445
#     4  12  28  48  76 110 162 200 248 312 380 464
#
# _framework density 25.864894
#
# number of rings (size 3 to 8) (size 9 to 14) (size 15 to 20)
#    0.000    0.000    4.286    4.286    8.000    1.143 
#    0.000    0.000    0.000    0.000    0.000    0.000 
#    0.000    0.000    0.000    0.000    0.000    0.000 
#
# Total GULP energy -173581.857419 kJ/mol
# GULP energy per Si atom -12398.704101 kJ/mol
# Density = 2.580602 g / cm^3
# Si number density = 25.864894 Si / 1000 Ang^3
#
#
#
# Elastic Constant Matrix: (Units=GPa)
#
#
# Indices 1 2 3 4 5 6 
#
# 1 143.8232 36.1176 55.6323 0.0000 1.7154 0.0000
# 2 36.1176 120.1112 40.5442 0.0000 -15.4317 0.0000
# 3 55.6323 40.5442 230.8033 0.0000 -19.2344 0.0000
# 4 0.0000 0.0000 0.0000 0.2581 0.0000 3.1780
# 5 1.7154 -15.4317 -19.2344 0.0000 32.0111 0.0000
# 6 0.0000 0.0000 0.0000 3.1780 0.0000 19.9266
#
#
#
# Elastic Compliance Matrix: (Units=1/GPa)
#
#
# Indices 1 2 3 4 5 6 
#
# 1 0.008238 -0.002197 -0.001816 0.000000 -0.002592 0.000000
# 2 -0.002197 0.009827 -0.000834 0.000000 0.004354 0.000000
# 3 -0.001816 -0.000834 0.005149 0.000000 0.002789 0.000000
# 4 0.000000 0.000000 0.000000 -4.020826 0.000000 0.641255
# 5 -0.002592 0.004354 0.002789 0.000000 0.035153 0.000000
# 6 0.000000 0.000000 0.000000 0.641255 0.000000 -0.052085
#
#
# Mechanical properties :
#
#
# Convention : Reuss Voigt Hill
#
# Bulk Modulus (GPa) = 73.95911 84.36955 79.16433
# Shear Modulus (GPa) = -1.24989 34.60206 16.67608
#
# Velocity S-wave (km/s) = -0.69591 3.66156 2.54192
# Velocity P-wave (km/s) = 5.29252 7.11099 6.26805
#
# Compressibility (1/GPa) = 0.01352099
#
# Stress axis : x y z
#
# Youngs Moduli (GPa) = 121.38863 101.75825 194.20230
#
# Poissons Ratio (x) = 0.22359 0.35261
# Poissons Ratio (y) = 0.26672 0.16193
# Poissons Ratio (z) = 0.22040 0.08485
#
# Static dielectric constant tensor:
#      x y z
#    x 4.560830 0.000000 0.274070 
#    y 0.000000 4.418900 0.000000 
#    z 0.274070 0.000000 5.218900 
# 
# 
# High freq. dielectric constant tensor:
#      x y z
#    x 2.027740 0.000000 0.020130 
#    y 0.000000 2.017380 0.000000 
#    z 0.020130 0.000000 2.084810 
# 
# From -- ./inp_files/128081.got.cif
#   From: 2010.06.25/outbox.cif.g09.slc.cpg/sg15_65_cif.got.tgz:128081.got - 2010.06.28 07:06:18.
