data_PCOD8154592
_publ_section_title
;
Structure prediction by ZEFSAII (Michael W. Deem and Ramdas Pophale) SiO2 
 PCOD8154592
Probable space group: C 2/C
;
_chemical_formula_sum "Si O2"
_cell_formula_units_Z 36
_cell_length_a 6.691726
_cell_length_b 19.731284
_cell_length_c 13.267009
_cell_angle_alpha 90.000000
_cell_angle_beta 74.884063
_cell_angle_gamma 90.000000
_cell_volume 1691.117859
_symmetry_space_group_name_H-M "C 2/C"
_symmetry_group_IT_number 15
_symmetry_cell_setting 'monoclinic'
loop_
_space_group_symop_operation_xyz
x,y,z
-x,y,1/2-z
-x,-y,-z
x,-y,1/2+z
1/2+x,1/2+y,z
1/2-x,1/2+y,1/2-z
1/2-x,1/2-y,-z
1/2+x,1/2-y,1/2+z
loop_
_atom_site_type_symbol
_atom_site_label
_atom_site_fract_x
_atom_site_fract_y
_atom_site_fract_z
Si Si1 0.895194 0.852545 0.363339
Si Si2 0.466693 0.076488 0.473805
Si Si3 0.500000 0.874807 0.750000
Si Si4 0.331260 0.325258 0.994291
Si Si5 0.157133 0.224514 0.310678
O O1 0.742280 0.902722 0.441012
O O2 0.771874 0.783191 0.357058
O O3 0.000000 0.885137 0.250000
O O4 0.099788 0.838517 0.401012
O O5 0.438536 0.080798 0.355874
O O6 0.659837 0.120826 0.484656
O O7 0.500000 0.000000 0.500000
O O8 0.681276 0.824932 0.765594
O O9 0.536863 0.327452 0.899455
O O10 0.250000 0.250000 0.000000
O O11 0.000000 0.257242 0.250000
#
# Coordination Sequence:
#
# PCOD8154592 Si02
#       5
#     8   8   4   8   8
#     4  12  26  42  70 110 147 181 235 301 362 428
#     4  12  29  49  72 102 148 200 244 296 361 445
#     4  12  24  48  72 102 140 190 242 296 360 434
#     4  12  23  43  73 103 142 185 240 301 362 421
#     4  12  22  40  75 111 139 183 238 305 371 421
#
# _framework density 21.287693999999998
#
# number of rings (size 3 to 8) (size 9 to 14) (size 15 to 20)
#    0.000    0.000    7.778    3.333    0.000    2.667 
#    4.000    0.000    0.000    0.000    0.000    0.000 
#    0.000    0.000    0.000    0.000    0.000    0.000 
#
# Total GULP energy -223169.782003 kJ/mol
# GULP energy per Si atom -12398.321222 kJ/mol
# Density = 2.123924 g / cm^3
# Si number density = 21.287694 Si / 1000 Ang^3
#
#
#
# Elastic Constant Matrix: (Units=GPa)
#
#
# Indices 1 2 3 4 5 6 
#
# 1 115.8027 53.3341 64.1810 0.0000 7.0623 0.0000
# 2 53.3341 142.3668 54.6035 0.0000 -0.4476 0.0000
# 3 64.1810 54.6035 169.4029 0.0000 -4.0058 0.0000
# 4 0.0000 0.0000 0.0000 24.4494 0.0000 1.3807
# 5 7.0623 -0.4476 -4.0058 0.0000 50.6878 0.0000
# 6 0.0000 0.0000 0.0000 1.3807 0.0000 26.9306
#
#
#
# Elastic Compliance Matrix: (Units=1/GPa)
#
#
# Indices 1 2 3 4 5 6 
#
# 1 0.012260 -0.003194 -0.003663 0.000000 -0.002026 0.000000
# 2 -0.003194 0.008848 -0.001632 0.000000 0.000394 0.000000
# 3 -0.003663 -0.001632 0.007844 0.000000 0.001116 0.000000
# 4 0.000000 0.000000 0.000000 0.041020 0.000000 -0.002103
# 5 -0.002026 0.000394 0.001116 0.000000 0.020103 0.000000
# 6 0.000000 0.000000 0.000000 -0.002103 0.000000 0.037240
#
#
# Mechanical properties :
#
#
# Convention : Reuss Voigt Hill
#
# Bulk Modulus (GPa) = 83.52942 85.75664 84.64303
# Shear Modulus (GPa) = 33.71869 37.44380 35.58125
#
# Velocity S-wave (km/s) = 3.98421 4.19852 4.09277
# Velocity P-wave (km/s) = 7.77745 7.99222 7.88557
#
# Compressibility (1/GPa) = 0.01197183
#
# Stress axis : x y z
#
# Youngs Moduli (GPa) = 81.56301 113.01789 127.49291
#
# Poissons Ratio (x) = 0.36102 0.46705
# Poissons Ratio (y) = 0.26054 0.20813
# Poissons Ratio (z) = 0.29879 0.18450
#
# Static dielectric constant tensor:
#      x y z
#    x 4.762550 0.000000 -2.583110 
#    y 0.000000 3.391210 0.000000 
#    z -2.583110 0.000000 13.977720 
# 
# 
# High freq. dielectric constant tensor:
#      x y z
#    x 1.859410 0.000000 -0.004170 
#    y 0.000000 1.797460 0.000000 
#    z -0.004170 0.000000 1.860500 
# 
# From -- ./inp_files/128660.got.cif
#   From: 2010.06.25/outbox.cif.g09.slc.cpg/sg15_65_cif.got.tgz:128660.got - 2010.06.28 07:06:18.
