data_PCOD8154348
_publ_section_title
;
Structure prediction by ZEFSAII (Michael W. Deem and Ramdas Pophale) SiO2 
 PCOD8154348
Probable space group: C 2/C
;
_chemical_formula_sum "Si O2"
_cell_formula_units_Z 40
_cell_length_a 21.926541
_cell_length_b 7.809296
_cell_length_c 9.728396
_cell_angle_alpha 90.000000
_cell_angle_beta 99.178090
_cell_angle_gamma 90.000000
_cell_volume 1644.474802
_symmetry_space_group_name_H-M "C 2/C"
_symmetry_group_IT_number 15
_symmetry_cell_setting 'monoclinic'
loop_
_space_group_symop_operation_xyz
x,y,z
-x,y,1/2-z
-x,-y,-z
x,-y,1/2+z
1/2+x,1/2+y,z
1/2-x,1/2+y,1/2-z
1/2-x,1/2-y,-z
1/2+x,1/2-y,1/2+z
loop_
_atom_site_type_symbol
_atom_site_label
_atom_site_fract_x
_atom_site_fract_y
_atom_site_fract_z
Si Si1 0.129737 0.923193 0.465864
Si Si2 0.837470 0.350543 0.722139
Si Si3 0.240238 0.882540 0.116846
Si Si4 0.041695 0.512101 0.148903
Si Si5 0.064338 0.873760 0.716721
O O1 0.134676 0.729652 0.408600
O O2 0.077763 0.935813 0.565993
O O3 0.195927 0.964897 0.553981
O O4 0.116541 0.058544 0.339535
O O5 0.788872 0.215882 0.764757
O O6 0.805240 0.532708 0.682467
O O7 0.895228 0.378692 0.848519
O O8 0.250000 0.750000 0.000000
O O9 0.062651 0.330467 0.218205
O O10 0.000000 0.604389 0.250000
O O11 0.000000 0.500000 0.000000
O O12 0.000000 0.951720 0.750000
#
# Coordination Sequence:
#
# PCOD8154348 Si02
#       5
#     8   8   8   8   8
#     4  12  25  49  74 113 153 198 258 321 391 457
#     4  12  28  49  80 112 154 205 265 319 390 462
#     4  12  28  47  79 111 155 202 260 320 389 458
#     4  11  27  48  76 110 152 204 255 314 385 460
#     4  11  26  45  77 110 158 200 259 311 388 461
#
# _framework density 24.323877
#
# number of rings (size 3 to 8) (size 9 to 14) (size 15 to 20)
#    0.000    0.400    2.000    4.800   14.000    2.400 
#    0.000    0.000    0.000    0.000    0.000    0.000 
#    0.000    0.000    0.000    0.000    0.000    0.000 
#
# Total GULP energy -248063.045646 kJ/mol
# GULP energy per Si atom -12403.152282 kJ/mol
# Density = 2.426851 g / cm^3
# Si number density = 24.323877 Si / 1000 Ang^3
#
#
#
# Elastic Constant Matrix: (Units=GPa)
#
#
# Indices 1 2 3 4 5 6 
#
# 1 147.7956 55.8856 78.6668 0.0000 4.5482 0.0000
# 2 55.8856 91.3244 35.4732 0.0000 2.9240 0.0000
# 3 78.6668 35.4732 147.5781 0.0000 -13.8098 0.0000
# 4 0.0000 0.0000 0.0000 40.6981 0.0000 -3.0397
# 5 4.5482 2.9240 -13.8098 0.0000 47.7135 0.0000
# 6 0.0000 0.0000 0.0000 -3.0397 0.0000 42.5443
#
#
#
# Elastic Compliance Matrix: (Units=1/GPa)
#
#
# Indices 1 2 3 4 5 6 
#
# 1 0.011424 -0.004931 -0.005116 0.000000 -0.002268 0.000000
# 2 -0.004931 0.014330 -0.000878 0.000000 -0.000662 0.000000
# 3 -0.005116 -0.000878 0.010037 0.000000 0.003447 0.000000
# 4 0.000000 0.000000 0.000000 0.024703 0.000000 0.001765
# 5 -0.002268 -0.000662 0.003447 0.000000 0.022213 0.000000
# 6 0.000000 0.000000 0.000000 0.001765 0.000000 0.023631
#
#
# Mechanical properties :
#
#
# Convention : Reuss Voigt Hill
#
# Bulk Modulus (GPa) = 71.73665 80.74994 76.24329
# Shear Modulus (GPa) = 37.64107 40.63600 39.13853
#
# Velocity S-wave (km/s) = 3.93809 4.09176 4.01566
# Velocity P-wave (km/s) = 7.08762 7.45608 7.27419
#
# Compressibility (1/GPa) = 0.01393988
#
# Stress axis : x y z
#
# Youngs Moduli (GPa) = 87.53816 69.78591 99.63187
#
# Poissons Ratio (x) = 0.34409 0.50976
# Poissons Ratio (y) = 0.43162 0.08748
# Poissons Ratio (z) = 0.44788 0.06128
#
# Static dielectric constant tensor:
#      x y z
#    x 5.028860 0.000000 -0.219220 
#    y 0.000000 4.225960 0.000000 
#    z -0.219220 0.000000 4.352490 
# 
# 
# High freq. dielectric constant tensor:
#      x y z
#    x 1.982990 0.000000 -0.004690 
#    y 0.000000 1.961630 0.000000 
#    z -0.004690 0.000000 1.967500 
# 
# From -- ./inp_files/60082.got.cif
#   From: 2010.06.25/outbox.cif.g09.slc.cpg/sg15_31_cif.got.tgz:60082.got - 2010.06.28 07:06:18.
