data_PCOD8154315
_publ_section_title
;
Structure prediction by ZEFSAII (Michael W. Deem and Ramdas Pophale) SiO2 
 PCOD8154315
Probable space group: C 2/C
;
_chemical_formula_sum "Si O2"
_cell_formula_units_Z 44
_cell_length_a 10.759027
_cell_length_b 10.515418
_cell_length_c 21.141841
_cell_angle_alpha 90.000000
_cell_angle_beta 138.406962
_cell_angle_gamma 90.000000
_cell_volume 1587.825278
_symmetry_space_group_name_H-M "C 2/C"
_symmetry_group_IT_number 15
_symmetry_cell_setting 'monoclinic'
loop_
_space_group_symop_operation_xyz
x,y,z
-x,y,1/2-z
-x,-y,-z
x,-y,1/2+z
1/2+x,1/2+y,z
1/2-x,1/2+y,1/2-z
1/2-x,1/2-y,-z
1/2+x,1/2-y,1/2+z
loop_
_atom_site_type_symbol
_atom_site_label
_atom_site_fract_x
_atom_site_fract_y
_atom_site_fract_z
Si Si1 0.378057 0.370429 0.559751
Si Si2 0.525701 0.218999 0.098590
Si Si3 0.210156 0.015511 0.349442
Si Si4 0.173706 0.321794 0.204719
Si Si5 0.212899 0.087504 0.056204
Si Si6 0.500000 0.982420 0.250000
O O1 0.250000 0.250000 0.500000
O O2 0.286143 0.473821 0.573128
O O3 0.581240 0.317263 0.657955
O O4 0.394169 0.454676 0.502107
O O5 0.706279 0.148531 0.141219
O O6 0.613579 0.309016 0.187504
O O7 0.377511 0.120207 0.069210
O O8 0.435654 0.297620 0.005647
O O9 0.000000 0.007654 0.250000
O O10 0.320426 0.896022 0.360708
O O11 0.044787 0.398456 0.205430
O O12 0.317806 0.070201 0.163884
#
# Coordination Sequence:
#
# PCOD8154315 Si02
#       6
#     8   8   8   8   8   4
#     4  12  25  49  79 118 160 216 275 346 418 499
#     4  11  25  51  76 117 158 214 273 346 408 501
#     4  12  25  51  81 121 166 215 280 341 426 507
#     4  12  26  49  86 115 166 216 274 352 422 502
#     4  11  27  50  78 114 162 217 279 337 427 488
#     4  12  24  54  74 116 162 216 276 342 414 502
#
# _framework density 27.710857000000001
#
# number of rings (size 3 to 8) (size 9 to 14) (size 15 to 20)
#    0.000    0.364    5.455    2.182    0.000    3.636 
#   14.727    0.000    0.000    0.000    0.000    0.000 
#    0.000    0.000    0.000    0.000    0.000    0.000 
#
# Total GULP energy -272753.168353 kJ/mol
# GULP energy per Si atom -12397.871289 kJ/mol
# Density = 2.764779 g / cm^3
# Si number density = 27.710857 Si / 1000 Ang^3
#
#
#
# Elastic Constant Matrix: (Units=GPa)
#
#
# Indices 1 2 3 4 5 6 
#
# 1 97.7975 43.0586 10.2799 0.0000 -11.3501 0.0000
# 2 43.0586 106.2258 49.4396 0.0000 -14.6353 0.0000
# 3 10.2799 49.4396 150.3043 0.0000 -10.2698 0.0000
# 4 0.0000 0.0000 0.0000 63.3378 0.0000 8.1932
# 5 -11.3501 -14.6353 -10.2698 0.0000 31.4003 0.0000
# 6 0.0000 0.0000 0.0000 8.1932 0.0000 21.0128
#
#
#
# Elastic Compliance Matrix: (Units=1/GPa)
#
#
# Indices 1 2 3 4 5 6 
#
# 1 0.012740 -0.005310 0.001044 0.000000 0.002472 0.000000
# 2 -0.005310 0.013863 -0.003975 0.000000 0.003242 0.000000
# 3 0.001044 -0.003975 0.007967 0.000000 0.001130 0.000000
# 4 0.000000 0.000000 0.000000 0.016627 0.000000 -0.006483
# 5 0.002472 0.003242 0.001130 0.000000 0.034621 0.000000
# 6 0.000000 0.000000 0.000000 -0.006483 0.000000 0.050118
#
#
# Mechanical properties :
#
#
# Convention : Reuss Voigt Hill
#
# Bulk Modulus (GPa) = 55.28532 62.20932 58.74732
# Shear Modulus (GPa) = 31.55641 39.92014 35.73827
#
# Velocity S-wave (km/s) = 3.37823 3.79964 3.59511
# Velocity P-wave (km/s) = 5.93386 6.46125 6.20317
#
# Compressibility (1/GPa) = 0.01808798
#
# Stress axis : x y z
#
# Youngs Moduli (GPa) = 78.49267 72.13458 125.52442
#
# Poissons Ratio (x) = 0.38300 -0.13105
# Poissons Ratio (y) = 0.41676 0.49900
# Poissons Ratio (z) = -0.08195 0.28676
#
# Static dielectric constant tensor:
#      x y z
#    x 4.405730 0.000000 0.051730 
#    y 0.000000 5.179000 0.000000 
#    z 0.051730 0.000000 5.483600 
# 
# 
# High freq. dielectric constant tensor:
#      x y z
#    x 2.122260 0.000000 0.006800 
#    y 0.000000 2.119420 0.000000 
#    z 0.006800 0.000000 2.133160 
# 
# From -- ./inp_files/269371.got.cif
#   From: 2010.06.25/outbox.cif.g09.slc.cpg/sg15_135_cif.got.tgz:269371.got - 2010.06.28 07:06:18.
