data_PCOD8154555
_publ_section_title
;
Structure prediction by ZEFSAII (Michael W. Deem and Ramdas Pophale) SiO2 
 PCOD8154555
Probable space group: C 2/C
;
_chemical_formula_sum "Si O2"
_cell_formula_units_Z 60
_cell_length_a 25.708697
_cell_length_b 18.855321
_cell_length_c 14.091217
_cell_angle_alpha 90.000000
_cell_angle_beta 157.856924
_cell_angle_gamma 90.000000
_cell_volume 2574.616401
_symmetry_space_group_name_H-M "C 2/C"
_symmetry_group_IT_number 15
_symmetry_cell_setting 'monoclinic'
loop_
_space_group_symop_operation_xyz
x,y,z
-x,y,1/2-z
-x,-y,-z
x,-y,1/2+z
1/2+x,1/2+y,z
1/2-x,1/2+y,1/2-z
1/2-x,1/2-y,-z
1/2+x,1/2-y,1/2+z
loop_
_atom_site_type_symbol
_atom_site_label
_atom_site_fract_x
_atom_site_fract_y
_atom_site_fract_z
Si Si1 0.603054 0.642332 0.276707
Si Si2 0.715355 0.912642 0.921404
Si Si3 0.007121 0.907268 0.364020
Si Si4 0.724129 0.961656 0.299760
Si Si5 0.000000 0.253949 0.250000
Si Si6 0.467787 0.158099 0.085186
Si Si7 0.795609 0.794502 0.743453
Si Si8 0.372506 0.463361 0.356144
O O1 0.690224 0.584234 0.479992
O O2 0.561791 0.708580 0.269921
O O3 0.692608 0.674394 0.342486
O O4 0.458731 0.609370 0.998556
O O5 0.608520 0.848696 0.761696
O O6 0.669360 0.967381 0.760402
O O7 0.745352 0.958739 0.068123
O O8 0.857555 0.873651 0.132978
O O9 0.118889 0.845489 0.543068
O O10 0.000000 0.946379 0.250000
O O11 0.034016 0.964053 0.496294
O O12 0.818083 0.980986 0.369441
O O13 0.597027 0.919129 0.040371
O O14 0.135940 0.298993 0.509693
O O15 0.500000 0.173122 0.250000
O O16 0.362413 0.216062 0.864414
#
# Coordination Sequence:
#
# PCOD8154555 Si02
#       8
#     8   8   8   8   4   8   8   8
#     4  12  22  45  77 103 134 190 248 300 351 434
#     4  12  25  43  75 107 143 188 240 302 360 423
#     4  12  24  43  69 106 143 185 239 300 358 428
#     4  12  23  46  77 104 141 192 247 300 358 435
#     4  12  26  46  72 102 134 194 242 292 354 432
#     4  12  27  49  70 103 149 200 240 293 367 441
#     4  12  28  46  72 105 147 187 247 295 363 437
#     4  12  21  45  78 105 141 190 247 298 362 434
#
# _framework density 23.304442000000002
#
# number of rings (size 3 to 8) (size 9 to 14) (size 15 to 20)
#    0.000    0.000    8.000    2.400    0.000    1.600 
#    0.000    1.333    0.000    0.000    0.000    0.000 
#    0.000    0.000    0.000    0.000    0.000    0.000 
#
# Total GULP energy -371900.843600 kJ/mol
# GULP energy per Si atom -12396.694787 kJ/mol
# Density = 2.325140 g / cm^3
# Si number density = 23.304442 Si / 1000 Ang^3
#
#
#
# Elastic Constant Matrix: (Units=GPa)
#
#
# Indices 1 2 3 4 5 6 
#
# 1 96.5519 2.4961 19.3796 0.0000 -5.0865 0.0000
# 2 2.4961 64.0434 26.8813 0.0000 5.7514 0.0000
# 3 19.3796 26.8813 109.9653 0.0000 18.9886 0.0000
# 4 0.0000 0.0000 0.0000 45.6770 0.0000 -3.8212
# 5 -5.0865 5.7514 18.9886 0.0000 39.1949 0.0000
# 6 0.0000 0.0000 0.0000 -3.8212 0.0000 23.7401
#
#
#
# Elastic Compliance Matrix: (Units=1/GPa)
#
#
# Indices 1 2 3 4 5 6 
#
# 1 0.010978 0.000379 -0.002470 0.000000 0.002566 0.000000
# 2 0.000379 0.017423 -0.004248 0.000000 -0.000449 0.000000
# 3 -0.002470 -0.004248 0.011475 0.000000 -0.005257 0.000000
# 4 0.000000 0.000000 0.000000 0.022192 0.000000 0.003572
# 5 0.002566 -0.000449 -0.005257 0.000000 0.028459 0.000000
# 6 0.000000 0.000000 0.000000 0.003572 0.000000 0.042698
#
#
# Mechanical properties :
#
#
# Convention : Reuss Voigt Hill
#
# Bulk Modulus (GPa) = 36.76909 40.89717 38.83313
# Shear Modulus (GPa) = 32.26408 36.50930 34.38669
#
# Velocity S-wave (km/s) = 3.72487 3.96235 3.84545
# Velocity P-wave (km/s) = 5.85760 6.20652 6.03458
#
# Compressibility (1/GPa) = 0.02719675
#
# Stress axis : x y z
#
# Youngs Moduli (GPa) = 91.08824 57.39484 87.14327
#
# Poissons Ratio (x) = -0.02173 0.21528
# Poissons Ratio (y) = -0.03449 0.37021
# Poissons Ratio (z) = 0.22502 0.24383
#
# Static dielectric constant tensor:
#      x y z
#    x 4.463330 0.000000 -0.037200 
#    y 0.000000 4.032270 0.000000 
#    z -0.037200 0.000000 4.459260 
# 
# 
# High freq. dielectric constant tensor:
#      x y z
#    x 1.946810 0.000000 -0.006040 
#    y 0.000000 1.905830 0.000000 
#    z -0.006040 0.000000 1.925170 
# 
# From -- ./inp_files/179136.got.cif
#   From: 2010.06.25/outbox.cif.g09.slc.cpg/sg15_90_cif.got.tgz:179136.got - 2010.06.28 07:06:18.
