data_PCOD8154664
_publ_section_title
;
Structure prediction by ZEFSAII (Michael W. Deem and Ramdas Pophale) SiO2 
 PCOD8154664
Probable space group: C 2/C
;
_chemical_formula_sum "Si O2"
_cell_formula_units_Z 52
_cell_length_a 18.542744
_cell_length_b 6.561538
_cell_length_c 23.298457
_cell_angle_alpha 90.000000
_cell_angle_beta 55.656639
_cell_angle_gamma 90.000000
_cell_volume 2340.529664
_symmetry_space_group_name_H-M "C 2/C"
_symmetry_group_IT_number 15
_symmetry_cell_setting 'monoclinic'
loop_
_space_group_symop_operation_xyz
x,y,z
-x,y,1/2-z
-x,-y,-z
x,-y,1/2+z
1/2+x,1/2+y,z
1/2-x,1/2+y,1/2-z
1/2-x,1/2-y,-z
1/2+x,1/2-y,1/2+z
loop_
_atom_site_type_symbol
_atom_site_label
_atom_site_fract_x
_atom_site_fract_y
_atom_site_fract_z
Si Si1 0.837224 0.438253 0.087932
Si Si2 0.951398 0.110693 0.971320
Si Si3 0.342148 0.764762 0.487940
Si Si4 0.000000 0.926225 0.750000
Si Si5 0.349377 0.735080 0.797612
Si Si6 0.917041 0.634348 0.159974
Si Si7 0.432355 0.056018 0.846133
O O1 0.740632 0.353308 0.138375
O O2 0.884089 0.472276 0.127977
O O3 0.894662 0.290412 0.023493
O O4 0.833270 0.655657 0.057179
O O5 0.025236 0.188712 0.894558
O O6 0.888653 0.954608 0.966009
O O7 0.000000 0.000000 0.000000
O O8 0.250000 0.750000 0.500000
O O9 0.392525 0.933664 0.427805
O O10 0.052637 0.785573 0.681750
O O11 0.075190 0.066654 0.742238
O O12 0.335035 0.793505 0.736299
O O13 0.373884 0.920663 0.829593
O O14 0.972632 0.539007 0.187551
#
# Coordination Sequence:
#
# PCOD8154664 Si02
#       7
#     8   8   8   4   8   8   8
#     4  12  28  46  71 110 149 181 247 307 361 426
#     4  12  25  48  76 102 144 195 240 291 368 433
#     4  12  26  44  72 108 141 186 242 300 360 423
#     4  12  22  46  74 104 138 196 242 286 372 438
#     4  12  27  47  72 109 146 192 244 301 367 437
#     4  12  24  49  70 102 147 193 236 300 362 437
#     4  12  24  45  74 100 142 189 244 295 354 442
#
# _framework density 22.217195
#
# number of rings (size 3 to 8) (size 9 to 14) (size 15 to 20)
#    0.000    0.000    6.154    4.154    2.154    3.692 
#    2.769    0.000    0.000    0.000    0.000    0.000 
#    0.000    0.000    0.000    0.000    0.000    0.000 
#
# Total GULP energy -322314.574906 kJ/mol
# GULP energy per Si atom -12396.714419 kJ/mol
# Density = 2.216663 g / cm^3
# Si number density = 22.217195 Si / 1000 Ang^3
#
#
#
# Elastic Constant Matrix: (Units=GPa)
#
#
# Indices 1 2 3 4 5 6 
#
# 1 94.9044 31.8414 21.6856 0.0011 8.1543 0.0017
# 2 31.8414 99.5239 27.4710 -0.0102 14.7507 0.0072
# 3 21.6856 27.4710 112.7023 0.0050 21.0129 0.0073
# 4 0.0011 -0.0102 0.0050 34.7004 -0.0013 1.3888
# 5 8.1543 14.7507 21.0129 -0.0013 27.7969 -0.0023
# 6 0.0017 0.0072 0.0073 1.3888 -0.0023 38.8370
#
#
#
# Elastic Compliance Matrix: (Units=1/GPa)
#
#
# Indices 1 2 3 4 5 6 
#
# 1 0.012040 -0.003370 -0.001362 -0.000001 -0.000714 0.000000
# 2 -0.003370 0.012186 -0.001514 0.000004 -0.004334 -0.000002
# 3 -0.001362 -0.001514 0.010802 -0.000002 -0.006963 -0.000002
# 4 -0.000001 0.000004 -0.000002 0.028859 0.000001 -0.001032
# 5 -0.000714 -0.004334 -0.006963 0.000001 0.043748 0.000005
# 6 0.000000 -0.000002 -0.000002 -0.001032 0.000005 0.025786
#
#
# Mechanical properties :
#
#
# Convention : Reuss Voigt Hill
#
# Bulk Modulus (GPa) = 44.37322 52.12519 48.24921
# Shear Modulus (GPa) = 32.58887 35.34235 33.96561
#
# Velocity S-wave (km/s) = 3.83408 3.99277 3.91423
# Velocity P-wave (km/s) = 6.29413 6.69095 6.49557
#
# Compressibility (1/GPa) = 0.02253611
#
# Stress axis : x y z
#
# Youngs Moduli (GPa) = 83.05446 82.05924 92.57332
#
# Poissons Ratio (x) = 0.27657 0.12610
# Poissons Ratio (y) = 0.27992 0.14015
# Poissons Ratio (z) = 0.11313 0.12423
#
# Static dielectric constant tensor:
#      x y z
#    x 3.970680 -0.000110 0.008760 
#    y -0.000110 4.579200 0.000010 
#    z 0.008760 0.000010 3.942460 
# 
# 
# High freq. dielectric constant tensor:
#      x y z
#    x 1.873340 0.000000 0.007000 
#    y 0.000000 1.880290 0.000000 
#    z 0.007000 0.000000 1.901160 
# 
# From -- ./inp_files/300075.got.cif
#   From: 2010.06.25/outbox.cif.g09.slc.cpg/sg15_151_cif.got.tgz:300075.got - 2010.06.28 07:06:18.
