data_PCOD8154938
_publ_section_title
;
Structure prediction by ZEFSAII (Michael W. Deem and Ramdas Pophale) SiO2 
 PCOD8154938
Probable space group: C 2/C
;
_chemical_formula_sum "Si O2"
_cell_formula_units_Z 36
_cell_length_a 10.736601
_cell_length_b 21.702358
_cell_length_c 11.173544
_cell_angle_alpha 90.000000
_cell_angle_beta 33.185755
_cell_angle_gamma 90.000000
_cell_volume 1425.062474
_symmetry_space_group_name_H-M "C 2/C"
_symmetry_group_IT_number 15
_symmetry_cell_setting 'monoclinic'
loop_
_space_group_symop_operation_xyz
x,y,z
-x,y,1/2-z
-x,-y,-z
x,-y,1/2+z
1/2+x,1/2+y,z
1/2-x,1/2+y,1/2-z
1/2-x,1/2-y,-z
1/2+x,1/2-y,1/2+z
loop_
_atom_site_type_symbol
_atom_site_label
_atom_site_fract_x
_atom_site_fract_y
_atom_site_fract_z
Si Si1 0.000000 0.516404 0.750000
Si Si2 0.708684 0.232238 0.660041
Si Si3 0.909139 0.923086 0.448907
Si Si4 0.849432 0.605403 0.692089
Si Si5 0.389029 0.820170 0.714932
O O1 0.034020 0.560629 0.606685
O O2 0.225470 0.476546 0.582951
O O3 0.729650 0.159014 0.653311
O O4 0.789008 0.263332 0.719697
O O5 0.915059 0.254834 0.396207
O O6 0.820192 0.862744 0.585349
O O7 0.000000 0.900521 0.250000
O O8 0.136208 0.940834 0.340317
O O9 0.940373 0.636419 0.497448
O O10 0.500000 0.795666 0.750000
#
# Coordination Sequence:
#
# PCOD8154938 Si02
#       5
#     4   8   8   8   8
#     4  12  26  50  78 112 162 202 268 326 376 472
#     4  12  24  48  77 114 156 204 256 320 397 474
#     4  12  26  48  76 115 152 207 266 318 395 454
#     4  12  26  48  78 113 157 201 263 319 394 466
#     4  12  26  49  77 115 160 205 260 325 396 473
#
# _framework density 25.262051
#
# number of rings (size 3 to 8) (size 9 to 14) (size 15 to 20)
#    0.000    0.000    6.667    2.000    0.000    7.111 
#    0.000    1.111    0.000    0.000    0.000    0.000 
#    0.000    0.000    0.000    0.000    0.000    0.000 
#
# Total GULP energy -223050.217866 kJ/mol
# GULP energy per Si atom -12391.678770 kJ/mol
# Density = 2.520455 g / cm^3
# Si number density = 25.262051 Si / 1000 Ang^3
#
#
#
# Elastic Constant Matrix: (Units=GPa)
#
#
# Indices 1 2 3 4 5 6 
#
# 1 204.2117 70.9871 73.7958 -0.0008 -17.7717 -0.0004
# 2 70.9871 120.9614 49.4415 -0.0005 -10.4849 0.0002
# 3 73.7958 49.4415 110.8550 -0.0003 10.4774 -0.0005
# 4 -0.0008 -0.0005 -0.0003 36.0904 0.0003 -6.7111
# 5 -17.7717 -10.4849 10.4774 0.0003 52.2611 0.0005
# 6 -0.0004 0.0002 -0.0005 -6.7111 0.0005 46.8133
#
#
#
# Elastic Compliance Matrix: (Units=1/GPa)
#
#
# Indices 1 2 3 4 5 6 
#
# 1 0.007512 -0.002447 -0.004184 0.000000 0.002902 0.000000
# 2 -0.002447 0.011387 -0.003656 0.000000 0.002185 0.000000
# 3 -0.004184 -0.003656 0.013904 0.000000 -0.004944 0.000000
# 4 0.000000 0.000000 0.000000 0.028467 0.000000 0.004081
# 5 0.002902 0.002185 -0.004944 0.000000 0.021551 0.000000
# 6 0.000000 0.000000 0.000000 0.004081 0.000000 0.021946
#
#
# Mechanical properties :
#
#
# Convention : Reuss Voigt Hill
#
# Bulk Modulus (GPa) = 81.77250 91.60856 86.69053
# Shear Modulus (GPa) = 38.63474 43.15322 40.89398
#
# Velocity S-wave (km/s) = 3.91494 4.13755 4.02778
# Velocity P-wave (km/s) = 7.27157 7.69206 7.48477
#
# Compressibility (1/GPa) = 0.01222905
#
# Stress axis : x y z
#
# Youngs Moduli (GPa) = 133.12322 87.81996 71.92275
#
# Poissons Ratio (x) = 0.21488 0.30090
# Poissons Ratio (y) = 0.32573 0.26297
# Poissons Ratio (z) = 0.55694 0.32110
#
# Static dielectric constant tensor:
#      x y z
#    x 5.367940 0.000000 -0.308500 
#    y 0.000000 4.275030 0.000000 
#    z -0.308500 0.000000 5.399020 
# 
# 
# High freq. dielectric constant tensor:
#      x y z
#    x 2.059130 0.000000 -0.006610 
#    y 0.000000 1.991920 0.000000 
#    z -0.006610 0.000000 2.040570 
# 
# From -- ./inp_files/4252.got.cif
#   From: 2010.06.25/outbox.cif.g09.slc.cpg/sg15_3_cif.got.tgz:4252.got - 2010.06.28 07:06:18.
