data_PCOD8154943
_publ_section_title
;
Structure prediction by ZEFSAII (Michael W. Deem and Ramdas Pophale) SiO2 
 PCOD8154943
Probable space group: C 2/C
;
_chemical_formula_sum "Si O2"
_cell_formula_units_Z 36
_cell_length_a 23.967938
_cell_length_b 11.143913
_cell_length_c 12.721112
_cell_angle_alpha 90.000000
_cell_angle_beta 153.270500
_cell_angle_gamma 90.000000
_cell_volume 1528.243476
_symmetry_space_group_name_H-M "C 2/C"
_symmetry_group_IT_number 15
_symmetry_cell_setting 'monoclinic'
loop_
_space_group_symop_operation_xyz
x,y,z
-x,y,1/2-z
-x,-y,-z
x,-y,1/2+z
1/2+x,1/2+y,z
1/2-x,1/2+y,1/2-z
1/2-x,1/2-y,-z
1/2+x,1/2-y,1/2+z
loop_
_atom_site_type_symbol
_atom_site_label
_atom_site_fract_x
_atom_site_fract_y
_atom_site_fract_z
Si Si1 0.500000 0.954278 0.250000
Si Si2 0.845880 0.343702 0.385659
Si Si3 0.620134 0.564804 0.393239
Si Si4 0.754451 0.819422 0.900533
Si Si5 0.025891 0.284612 0.115293
O O1 0.574673 0.873444 0.289463
O O2 0.605793 0.033890 0.482141
O O3 0.853101 0.237993 0.484596
O O4 0.928733 0.315364 0.424099
O O5 0.702654 0.357422 0.112017
O O6 0.500000 0.514475 0.250000
O O7 0.704115 0.453495 0.497241
O O8 0.573588 0.649520 0.219280
O O9 0.620244 0.808170 0.622940
O O10 0.750000 0.750000 0.000000
#
# Coordination Sequence:
#
# PCOD8154943 Si02
#       5
#     4   8   8   8   8
#     4  12  24  48  80 110 154 204 272 326 394 480
#     4  12  27  48  79 112 157 208 266 331 401 477
#     4  12  27  50  79 113 159 209 264 329 401 475
#     4  12  29  49  74 117 159 207 269 328 399 478
#     4  12  26  52  77 113 156 212 269 326 404 476
#
# _framework density 23.556456000000001
#
# number of rings (size 3 to 8) (size 9 to 14) (size 15 to 20)
#    0.000    0.000    5.556    2.667    7.778    2.667 
#    0.000    0.000    0.000    0.000    0.000    0.000 
#    0.000    0.000    0.000    0.000    0.000    0.000 
#
# Total GULP energy -223197.273817 kJ/mol
# GULP energy per Si atom -12399.848545 kJ/mol
# Density = 2.350284 g / cm^3
# Si number density = 23.556456 Si / 1000 Ang^3
#
#
#
# Elastic Constant Matrix: (Units=GPa)
#
#
# Indices 1 2 3 4 5 6 
#
# 1 172.6441 73.2652 33.7206 0.0000 -22.2974 0.0000
# 2 73.2652 174.9405 55.7956 0.0000 -12.2814 0.0000
# 3 33.7206 55.7956 88.2293 0.0000 3.0234 0.0000
# 4 0.0000 0.0000 0.0000 50.5002 0.0000 -3.7995
# 5 -22.2974 -12.2814 3.0234 0.0000 37.3465 0.0000
# 6 0.0000 0.0000 0.0000 -3.7995 0.0000 35.2524
#
#
#
# Elastic Compliance Matrix: (Units=1/GPa)
#
#
# Indices 1 2 3 4 5 6 
#
# 1 0.007621 -0.002441 -0.001502 0.000000 0.003869 0.000000
# 2 -0.002441 0.008231 -0.004327 0.000000 0.001600 0.000000
# 3 -0.001502 -0.004327 0.014765 0.000000 -0.003515 0.000000
# 4 0.000000 0.000000 0.000000 0.019964 0.000000 0.002152
# 5 0.003869 0.001600 -0.003515 0.000000 0.029897 0.000000
# 6 0.000000 0.000000 0.000000 0.002152 0.000000 0.028599
#
#
# Mechanical properties :
#
#
# Convention : Reuss Voigt Hill
#
# Bulk Modulus (GPa) = 71.03575 84.59743 77.81659
# Shear Modulus (GPa) = 38.37056 42.82199 40.59627
#
# Velocity S-wave (km/s) = 4.04031 4.26825 4.15584
# Velocity P-wave (km/s) = 7.21017 7.76409 7.49225
#
# Compressibility (1/GPa) = 0.01407742
#
# Stress axis : x y z
#
# Youngs Moduli (GPa) = 131.21251 121.49229 67.72885
#
# Poissons Ratio (x) = 0.29660 0.10170
# Poissons Ratio (y) = 0.32033 0.29306
# Poissons Ratio (z) = 0.19702 0.52569
#
# Static dielectric constant tensor:
#      x y z
#    x 4.167330 0.000000 -0.513740 
#    y 0.000000 4.833290 0.000000 
#    z -0.513740 0.000000 6.333500 
# 
# 
# High freq. dielectric constant tensor:
#      x y z
#    x 1.933310 0.000000 -0.005150 
#    y 0.000000 1.941460 0.000000 
#    z -0.005150 0.000000 1.946520 
# 
# From -- ./inp_files/117861.got.cif
#   From: 2010.06.25/outbox.cif.g09.slc.cpg/sg15_59_cif.got.tgz:117861.got - 2010.06.28 07:06:18.
