data_PCOD8154235
_publ_section_title
;
Structure prediction by ZEFSAII (Michael W. Deem and Ramdas Pophale) SiO2 
 PCOD8154235
Probable space group: C 2/C
;
_chemical_formula_sum "Si O2"
_cell_formula_units_Z 40
_cell_length_a 9.983385
_cell_length_b 18.143778
_cell_length_c 9.209651
_cell_angle_alpha 90.000000
_cell_angle_beta 74.189217
_cell_angle_gamma 90.000000
_cell_volume 1605.088759
_symmetry_space_group_name_H-M "C 2/C"
_symmetry_group_IT_number 15
_symmetry_cell_setting 'monoclinic'
loop_
_space_group_symop_operation_xyz
x,y,z
-x,y,1/2-z
-x,-y,-z
x,-y,1/2+z
1/2+x,1/2+y,z
1/2-x,1/2+y,1/2-z
1/2-x,1/2-y,-z
1/2+x,1/2-y,1/2+z
loop_
_atom_site_type_symbol
_atom_site_label
_atom_site_fract_x
_atom_site_fract_y
_atom_site_fract_z
Si Si1 0.431391 0.318696 0.615294
Si Si2 0.385353 0.559113 0.561897
Si Si3 0.138267 0.621151 0.285607
Si Si4 0.285673 0.022489 0.625853
Si Si5 0.020808 0.345061 0.414103
O O1 0.500000 0.323130 0.750000
O O2 0.457725 0.361189 0.018710
O O3 0.279052 0.355231 0.662305
O O4 0.409135 0.233956 0.576646
O O5 0.500000 0.500000 0.500000
O O6 0.337632 0.559538 0.743577
O O7 0.263958 0.533125 0.486868
O O8 0.132877 0.532148 0.288963
O O9 0.000000 0.653045 0.250000
O O10 0.126497 0.652771 0.455863
O O11 0.383712 0.089648 0.543021
O O12 0.000000 0.360556 0.250000
#
# Coordination Sequence:
#
# PCOD8154235 Si02
#       5
#     8   8   8   8   8
#     4  11  25  47  73 104 146 191 235 294 361 428
#     4  12  23  45  73 104 139 187 244 291 348 425
#     4  12  25  47  71 102 150 184 233 300 358 420
#     4  12  24  45  74 105 139 189 241 293 354 429
#     4  11  27  44  73 107 145 186 238 293 366 424
#
# _framework density 24.920739999999999
#
# number of rings (size 3 to 8) (size 9 to 14) (size 15 to 20)
#    0.000    0.400    4.000    4.200    2.800    2.400 
#    0.000    0.000    0.000    0.000    0.000    0.000 
#    0.000    0.000    0.000    0.000    0.000    0.000 
#
# Total GULP energy -247843.981559 kJ/mol
# GULP energy per Si atom -12392.199078 kJ/mol
# Density = 2.486402 g / cm^3
# Si number density = 24.920740 Si / 1000 Ang^3
#
#
#
# Elastic Constant Matrix: (Units=GPa)
#
#
# Indices 1 2 3 4 5 6 
#
# 1 90.8894 24.7917 -5.5624 0.0000 4.7453 0.0000
# 2 24.7917 134.7829 -11.8654 0.0000 4.7843 0.0000
# 3 -5.5624 -11.8654 69.1385 0.0000 -20.3257 0.0000
# 4 0.0000 0.0000 0.0000 27.6083 0.0000 -9.9587
# 5 4.7453 4.7843 -20.3257 0.0000 33.3858 0.0000
# 6 0.0000 0.0000 0.0000 -9.9587 0.0000 31.2734
#
#
#
# Elastic Compliance Matrix: (Units=1/GPa)
#
#
# Indices 1 2 3 4 5 6 
#
# 1 0.011647 -0.002079 0.000221 0.000000 -0.001223 0.000000
# 2 -0.002079 0.007908 0.001149 0.000000 -0.000138 0.000000
# 3 0.000221 0.001149 0.017808 0.000000 0.010646 0.000000
# 4 0.000000 0.000000 0.000000 0.040922 0.000000 0.013031
# 5 -0.001223 -0.000138 0.010646 0.000000 0.036628 0.000000
# 6 0.000000 0.000000 0.000000 0.013031 0.000000 0.036126
#
#
# Mechanical properties :
#
#
# Convention : Reuss Voigt Hill
#
# Bulk Modulus (GPa) = 27.82102 34.39318 31.10710
# Shear Modulus (GPa) = 30.40639 37.61662 34.01150
#
# Velocity S-wave (km/s) = 3.49682 3.88938 3.69831
# Velocity P-wave (km/s) = 5.24325 5.83101 5.54492
#
# Compressibility (1/GPa) = 0.03594404
#
# Stress axis : x y z
#
# Youngs Moduli (GPa) = 85.85928 126.45566 56.15303
#
# Poissons Ratio (x) = 0.26296 -0.01239
# Poissons Ratio (y) = 0.17854 -0.06454
# Poissons Ratio (z) = -0.01894 -0.14533
#
# Static dielectric constant tensor:
#      x y z
#    x 3.815940 0.000000 0.414420 
#    y 0.000000 4.961810 0.000000 
#    z 0.414420 0.000000 3.921540 
# 
# 
# High freq. dielectric constant tensor:
#      x y z
#    x 1.987820 0.000000 -0.013710 
#    y 0.000000 1.993140 0.000000 
#    z -0.013710 0.000000 2.003230 
# 
# From -- ./inp_files/29109.got.cif
#   From: 2010.06.25/outbox.cif.g09.slc.cpg/sg15_15_cif.got.tgz:29109.got - 2010.06.28 07:06:18.
