data_PCOD8154100
_publ_section_title
;
Structure prediction by ZEFSAII (Michael W. Deem and Ramdas Pophale) SiO2 
 PCOD8154100
Probable space group: C 2/C
;
_chemical_formula_sum "Si O2"
_cell_formula_units_Z 60
_cell_length_a 9.229799
_cell_length_b 22.420666
_cell_length_c 27.192811
_cell_angle_alpha 90.000000
_cell_angle_beta 150.839870
_cell_angle_gamma 90.000000
_cell_volume 2741.880876
_symmetry_space_group_name_H-M "C 2/C"
_symmetry_group_IT_number 15
_symmetry_cell_setting 'monoclinic'
loop_
_space_group_symop_operation_xyz
x,y,z
-x,y,1/2-z
-x,-y,-z
x,-y,1/2+z
1/2+x,1/2+y,z
1/2-x,1/2+y,1/2-z
1/2-x,1/2-y,-z
1/2+x,1/2-y,1/2+z
loop_
_atom_site_type_symbol
_atom_site_label
_atom_site_fract_x
_atom_site_fract_y
_atom_site_fract_z
Si Si1 0.735603 0.899853 0.387866
Si Si2 0.500000 0.799840 0.250000
Si Si3 0.227062 0.352359 0.491381
Si Si4 0.808019 0.751844 0.867692
Si Si5 0.603891 0.092767 0.423841
Si Si6 0.713152 0.053961 0.073773
Si Si7 0.573660 0.770483 0.900721
Si Si8 0.893158 0.481701 0.771105
O O1 0.627745 0.838217 0.332627
O O2 0.798873 0.891852 0.464704
O O3 0.053222 0.917048 0.457176
O O4 0.483270 0.948699 0.301832
O O5 0.749904 0.757958 0.300987
O O6 0.489470 0.308381 0.586311
O O7 0.163544 0.395858 0.517948
O O8 0.944908 0.311702 0.392814
O O9 0.500000 0.762732 0.750000
O O10 0.774409 0.747736 0.915937
O O11 0.371931 0.079721 0.398348
O O12 0.539947 0.159118 0.387148
O O13 0.560761 0.050781 0.364478
O O14 0.043712 0.027887 0.172962
O O15 0.500000 0.000000 0.000000
O O16 0.750000 0.750000 0.000000
O O17 0.000000 0.456180 0.750000
#
# Coordination Sequence:
#
# PCOD8154100 Si02
#       8
#     8   4   8   8   8   8   8   8
#     4  12  24  49  73 105 143 194 250 300 367 444
#     4  12  26  42  76 108 142 192 242 296 374 442
#     4  11  25  45  72 103 148 186 242 298 361 439
#     4  11  25  44  71 107 141 191 239 296 370 434
#     4  12  26  46  73 105 146 193 240 307 371 434
#     4  12  28  46  70 105 145 191 244 305 364 431
#     4  12  25  45  70 105 150 188 242 303 371 439
#     4  12  27  47  75 105 142 196 248 304 364 439
#
# _framework density 21.882788000000001
#
# number of rings (size 3 to 8) (size 9 to 14) (size 15 to 20)
#    0.000    0.267    3.333    4.800    3.733    3.200 
#    0.000    0.000    0.000    0.000    0.000    0.000 
#    0.000    0.000    0.000    0.000    0.000    0.000 
#
# Total GULP energy -372181.574333 kJ/mol
# GULP energy per Si atom -12406.052478 kJ/mol
# Density = 2.183298 g / cm^3
# Si number density = 21.882788 Si / 1000 Ang^3
#
#
#
# Elastic Constant Matrix: (Units=GPa)
#
#
# Indices 1 2 3 4 5 6 
#
# 1 135.8857 31.6539 36.1124 0.0018 5.7950 -0.0035
# 2 31.6539 83.1555 28.2907 -0.0012 12.8443 -0.0095
# 3 36.1124 28.2907 115.1338 0.0042 18.3648 -0.0060
# 4 0.0018 -0.0012 0.0042 36.9720 0.0021 1.8171
# 5 5.7950 12.8443 18.3648 0.0021 44.9872 -0.0023
# 6 -0.0035 -0.0095 -0.0060 1.8171 -0.0023 41.4830
#
#
#
# Elastic Compliance Matrix: (Units=1/GPa)
#
#
# Indices 1 2 3 4 5 6 
#
# 1 0.008503 -0.002597 -0.002110 0.000000 0.000508 0.000000
# 2 -0.002597 0.014207 -0.002228 0.000001 -0.002812 0.000003
# 3 -0.002110 -0.002228 0.010429 -0.000001 -0.003350 0.000001
# 4 0.000000 0.000001 -0.000001 0.027106 -0.000001 -0.001187
# 5 0.000508 -0.002812 -0.003350 -0.000001 0.024333 0.000000
# 6 0.000000 0.000003 0.000001 -0.001187 0.000000 0.024158
#
#
# Mechanical properties :
#
#
# Convention : Reuss Voigt Hill
#
# Bulk Modulus (GPa) = 51.89637 58.47652 55.18644
# Shear Modulus (GPa) = 38.75096 40.56297 39.65697
#
# Velocity S-wave (km/s) = 4.21270 4.31007 4.26167
# Velocity P-wave (km/s) = 6.88691 7.17980 7.03488
#
# Compressibility (1/GPa) = 0.01926917
#
# Stress axis : x y z
#
# Youngs Moduli (GPa) = 117.60229 70.38965 95.88702
#
# Poissons Ratio (x) = 0.18283 0.20230
# Poissons Ratio (y) = 0.30546 0.21360
# Poissons Ratio (z) = 0.24812 0.15680
#
# Static dielectric constant tensor:
#      x y z
#    x 4.015650 0.000510 0.158920 
#    y 0.000510 4.371340 0.000160 
#    z 0.158920 0.000160 4.069990 
# 
# 
# High freq. dielectric constant tensor:
#      x y z
#    x 1.876890 0.000000 0.002540 
#    y 0.000000 1.871670 0.000000 
#    z 0.002540 0.000000 1.870880 
# 
# From -- ./inp_files/290260.got.cif
#   From: 2010.06.25/outbox.cif.g09.slc.cpg/sg15_146_cif.got.tgz:290260.got - 2010.06.28 07:06:18.
