data_PCOD8154930
_publ_section_title
;
Structure prediction by ZEFSAII (Michael W. Deem and Ramdas Pophale) SiO2 
 PCOD8154930
Probable space group: C 2/C
;
_chemical_formula_sum "Si O2"
_cell_formula_units_Z 48
_cell_length_a 13.231823
_cell_length_b 17.584409
_cell_length_c 17.775867
_cell_angle_alpha 90.000000
_cell_angle_beta 147.539137
_cell_angle_gamma 90.000000
_cell_volume 2219.876286
_symmetry_space_group_name_H-M "C 2/C"
_symmetry_group_IT_number 15
_symmetry_cell_setting 'monoclinic'
loop_
_space_group_symop_operation_xyz
x,y,z
-x,y,1/2-z
-x,-y,-z
x,-y,1/2+z
1/2+x,1/2+y,z
1/2-x,1/2+y,1/2-z
1/2-x,1/2-y,-z
1/2+x,1/2-y,1/2+z
loop_
_atom_site_type_symbol
_atom_site_label
_atom_site_fract_x
_atom_site_fract_y
_atom_site_fract_z
Si Si1 0.433650 0.694410 0.981438
Si Si2 0.717784 0.992602 0.648329
Si Si3 0.500000 0.933435 0.750000
Si Si4 0.136401 0.177021 0.264235
Si Si5 0.699531 0.462702 0.140547
Si Si6 0.814222 0.172445 0.504182
Si Si7 0.500000 0.412529 0.250000
O O1 0.313306 0.768728 0.888721
O O2 0.296580 0.620835 0.894381
O O3 0.598622 0.684820 0.023605
O O4 0.524462 0.704266 0.120415
O O5 0.782067 0.906276 0.698987
O O6 0.500000 0.000000 0.500000
O O7 0.778597 0.043735 0.756920
O O8 0.819349 0.032238 0.641776
O O9 0.368480 0.881366 0.615143
O O10 0.629061 0.986866 0.780443
O O11 0.000000 0.178886 0.250000
O O12 0.500000 0.500000 0.000000
O O13 0.750000 0.250000 0.500000
O O14 0.972177 0.138026 0.658322
#
# Coordination Sequence:
#
# PCOD8154930 Si02
#       7
#     8   8   4   8   8   8   4
#     4  12  29  49  75 105 149 191 243 303 368 435
#     4  12  26  45  77 108 147 191 249 300 359 431
#     4  12  25  46  73 104 140 194 242 298 363 428
#     4  12  29  51  74 106 148 194 245 302 366 437
#     4  12  24  48  74 104 145 194 243 302 361 429
#     4  12  28  44  74 107 150 187 238 298 369 432
#     4  12  25  48  71 110 146 190 242 304 353 430
#
# _framework density 21.622826
#
# number of rings (size 3 to 8) (size 9 to 14) (size 15 to 20)
#    0.000    0.000    5.833    2.000   12.833    1.333 
#    0.000    0.000    0.000    0.000    0.000    0.000 
#    0.000    0.000    0.000    0.000    0.000    0.000 
#
# Total GULP energy -297711.686120 kJ/mol
# GULP energy per Si atom -12404.653588 kJ/mol
# Density = 2.157361 g / cm^3
# Si number density = 21.622826 Si / 1000 Ang^3
#
#
#
# Elastic Constant Matrix: (Units=GPa)
#
#
# Indices 1 2 3 4 5 6 
#
# 1 134.8480 39.1056 62.2018 0.0032 6.0985 0.0009
# 2 39.1056 115.3871 44.7259 0.0049 3.2039 0.0020
# 3 62.2018 44.7259 151.8821 0.0110 -9.3457 0.0049
# 4 0.0032 0.0049 0.0110 48.6883 0.0045 8.3091
# 5 6.0985 3.2039 -9.3457 0.0045 46.4628 0.0014
# 6 0.0009 0.0020 0.0049 8.3091 0.0014 33.5013
#
#
#
# Elastic Compliance Matrix: (Units=1/GPa)
#
#
# Indices 1 2 3 4 5 6 
#
# 1 0.009664 -0.001858 -0.003524 0.000000 -0.001849 0.000000
# 2 -0.001858 0.010215 -0.002304 0.000000 -0.000924 0.000000
# 3 -0.003524 -0.002304 0.008854 -0.000002 0.002402 -0.000001
# 4 0.000000 0.000000 -0.000002 0.021447 -0.000002 -0.005319
# 5 -0.001849 -0.000924 0.002402 -0.000002 0.022312 -0.000001
# 6 0.000000 0.000000 -0.000001 -0.005319 -0.000001 0.031169
#
#
# Mechanical properties :
#
#
# Convention : Reuss Voigt Hill
#
# Bulk Modulus (GPa) = 74.85044 77.13153 75.99098
# Shear Modulus (GPa) = 40.49037 42.80272 41.64655
#
# Velocity S-wave (km/s) = 4.33202 4.45400 4.39343
# Velocity P-wave (km/s) = 7.72745 7.88667 7.80747
#
# Compressibility (1/GPa) = 0.01335997
#
# Stress axis : x y z
#
# Youngs Moduli (GPa) = 103.47832 97.89693 112.94573
#
# Poissons Ratio (x) = 0.18186 0.39808
# Poissons Ratio (y) = 0.19223 0.26024
# Poissons Ratio (z) = 0.36471 0.22557
#
# Static dielectric constant tensor:
#      x y z
#    x 3.957290 0.000000 -0.041470 
#    y 0.000000 4.250540 -0.000010 
#    z -0.041470 -0.000010 3.833920 
# 
# 
# High freq. dielectric constant tensor:
#      x y z
#    x 1.860270 0.000000 -0.000850 
#    y 0.000000 1.865070 0.000000 
#    z -0.000850 0.000000 1.862540 
# 
# From -- ./inp_files/206533.got.cif
#   From: 2010.06.25/outbox.cif.g09.slc.cpg/sg15_104_cif.got.tgz:206533.got - 2010.06.28 07:06:18.
