data_PCOD8154783
_publ_section_title
;
Structure prediction by ZEFSAII (Michael W. Deem and Ramdas Pophale) SiO2 
 PCOD8154783
Probable space group: C 2/C
;
_chemical_formula_sum "Si O2"
_cell_formula_units_Z 44
_cell_length_a 22.693765
_cell_length_b 5.166911
_cell_length_c 18.169581
_cell_angle_alpha 90.000000
_cell_angle_beta 65.760565
_cell_angle_gamma 90.000000
_cell_volume 1942.674414
_symmetry_space_group_name_H-M "C 2/C"
_symmetry_group_IT_number 15
_symmetry_cell_setting 'monoclinic'
loop_
_space_group_symop_operation_xyz
x,y,z
-x,y,1/2-z
-x,-y,-z
x,-y,1/2+z
1/2+x,1/2+y,z
1/2-x,1/2+y,1/2-z
1/2-x,1/2-y,-z
1/2+x,1/2-y,1/2+z
loop_
_atom_site_type_symbol
_atom_site_label
_atom_site_fract_x
_atom_site_fract_y
_atom_site_fract_z
Si Si1 0.384415 0.945477 0.070588
Si Si2 0.937077 0.932798 0.118558
Si Si3 0.000000 0.575894 0.750000
Si Si4 0.883298 0.955866 0.792124
Si Si5 0.564873 0.733732 0.600303
Si Si6 0.749786 0.901810 0.797726
O O1 0.405983 0.699008 0.106817
O O2 0.309434 0.004588 0.122268
O O3 0.426563 0.196437 0.068058
O O4 0.392622 0.890217 0.979857
O O5 0.015294 0.968270 0.086077
O O6 0.902562 0.857734 0.214004
O O7 0.063363 0.733966 0.738391
O O8 0.015386 0.413006 0.669930
O O9 0.885438 0.098903 0.869395
O O10 0.811060 0.847616 0.819163
O O11 0.767810 0.129973 0.731351
#
# Coordination Sequence:
#
# PCOD8154783 Si02
#       6
#     8   8   4   8   8   8
#     4  12  27  46  74 108 145 189 241 295 351 424
#     4  12  23  47  72 107 143 189 237 291 357 424
#     4  12  24  46  70 104 148 182 240 292 372 416
#     4  12  25  43  76 101 141 194 238 287 363 428
#     4  12  27  43  73 111 148 185 237 304 357 421
#     4  12  26  48  74 102 142 192 241 290 356 433
#
# _framework density 22.649190999999998
#
# number of rings (size 3 to 8) (size 9 to 14) (size 15 to 20)
#    0.000    0.000    7.273    2.182    5.091    0.727 
#    0.000    0.909    0.000    0.000    0.000    0.000 
#    0.000    0.000    0.000    0.000    0.000    0.000 
#
# Total GULP energy -272843.184391 kJ/mol
# GULP energy per Si atom -12401.962927 kJ/mol
# Density = 2.259764 g / cm^3
# Si number density = 22.649191 Si / 1000 Ang^3
#
#
#
# Elastic Constant Matrix: (Units=GPa)
#
#
# Indices 1 2 3 4 5 6 
#
# 1 168.1598 41.2328 31.4261 -0.0380 4.1931 0.0178
# 2 41.2328 99.4801 10.5135 -0.1224 10.1714 -0.1326
# 3 31.4261 10.5135 102.7544 0.0362 -5.6008 -0.1745
# 4 -0.0380 -0.1224 0.0362 131.9802 0.0390 -67.5314
# 5 4.1931 10.1714 -5.6008 0.0390 27.4691 -0.1056
# 6 0.0178 -0.1326 -0.1745 -67.5314 -0.1056 52.7111
#
#
#
# Elastic Compliance Matrix: (Units=1/GPa)
#
#
# Indices 1 2 3 4 5 6 
#
# 1 0.006957 -0.002637 -0.001884 -0.000023 -0.000470 -0.000046
# 2 -0.002637 0.011620 -0.000602 0.000063 -0.004023 0.000101
# 3 -0.001884 -0.000602 0.010514 0.000044 0.002654 0.000096
# 4 -0.000023 0.000063 0.000044 0.021997 0.000067 0.028183
# 5 -0.000470 -0.004023 0.002654 0.000067 0.038508 0.000161
# 6 -0.000046 0.000101 0.000096 0.028183 0.000161 0.055079
#
#
# Mechanical properties :
#
#
# Convention : Reuss Voigt Hill
#
# Bulk Modulus (GPa) = 53.05645 59.63768 56.34707
# Shear Modulus (GPa) = 31.01707 61.58020 46.29864
#
# Velocity S-wave (km/s) = 3.70463 5.21994 4.52615
# Velocity P-wave (km/s) = 6.46338 7.91950 7.22820
#
# Compressibility (1/GPa) = 0.01884785
#
# Stress axis : x y z
#
# Youngs Moduli (GPa) = 143.74161 86.05740 95.10753
#
# Poissons Ratio (x) = 0.22689 0.17915
# Poissons Ratio (y) = 0.37898 0.05723
# Poissons Ratio (z) = 0.27075 0.05178
#
# Static dielectric constant tensor:
#      x y z
#    x 4.376230 -0.000250 0.229370 
#    y -0.000250 4.093050 -0.000120 
#    z 0.229370 -0.000120 4.252420 
# 
# 
# High freq. dielectric constant tensor:
#      x y z
#    x 1.900930 -0.000010 0.002660 
#    y -0.000010 1.893620 -0.000010 
#    z 0.002660 -0.000010 1.892430 
# 
# From -- ./inp_files/212814.got.cif
#   From: 2010.06.25/outbox.cif.g09.slc.cpg/sg15_107_cif.got.tgz:212814.got - 2010.06.28 07:06:18.
