data_PCOD8154400
_publ_section_title
;
Structure prediction by ZEFSAII (Michael W. Deem and Ramdas Pophale) SiO2 
 PCOD8154400
Probable space group: C 2/C
;
_chemical_formula_sum "Si O2"
_cell_formula_units_Z 44
_cell_length_a 8.693158
_cell_length_b 16.747214
_cell_length_c 18.446151
_cell_angle_alpha 90.000000
_cell_angle_beta 49.140146
_cell_angle_gamma 90.000000
_cell_volume 2031.079490
_symmetry_space_group_name_H-M "C 2/C"
_symmetry_group_IT_number 15
_symmetry_cell_setting 'monoclinic'
loop_
_space_group_symop_operation_xyz
x,y,z
-x,y,1/2-z
-x,-y,-z
x,-y,1/2+z
1/2+x,1/2+y,z
1/2-x,1/2+y,1/2-z
1/2-x,1/2-y,-z
1/2+x,1/2-y,1/2+z
loop_
_atom_site_type_symbol
_atom_site_label
_atom_site_fract_x
_atom_site_fract_y
_atom_site_fract_z
Si Si1 0.677188 0.319063 0.751821
Si Si2 0.077607 0.531198 0.363348
Si Si3 0.522287 0.262769 0.544781
Si Si4 0.500000 0.933234 0.250000
Si Si5 0.599273 0.328093 0.367987
Si Si6 0.802893 0.396421 0.066648
O O1 0.500000 0.298097 0.750000
O O2 0.752744 0.408754 0.718600
O O3 0.599349 0.311964 0.857604
O O4 0.861402 0.257741 0.680835
O O5 0.969446 0.487369 0.330046
O O6 0.194619 0.469642 0.378823
O O7 0.903472 0.578559 0.459846
O O8 0.750000 0.250000 0.500000
O O9 0.515452 0.315596 0.474702
O O10 0.425069 0.176369 0.563925
O O11 0.303408 0.878725 0.302549
O O12 0.430437 0.373413 0.373486
#
# Coordination Sequence:
#
# PCOD8154400 Si02
#       6
#     8   8   8   4   8   8
#     4  12  25  44  75 104 140 187 242 292 358 423
#     4  11  27  47  69 107 145 187 235 297 366 426
#     4  12  23  46  78 105 143 190 242 297 348 427
#     4  12  28  46  70 106 146 184 238 300 358 426
#     4  12  25  48  73 106 140 191 243 291 353 431
#     4  11  26  48  74 102 149 190 235 296 366 425
#
# _framework density 21.663357000000001
#
# number of rings (size 3 to 8) (size 9 to 14) (size 15 to 20)
#    0.000    0.364    4.545    2.727    5.091    4.364 
#    0.000    0.000    0.000    0.000    0.000    0.000 
#    0.000    0.000    0.000    0.000    0.000    0.000 
#
# Total GULP energy -272995.893124 kJ/mol
# GULP energy per Si atom -12408.904233 kJ/mol
# Density = 2.161405 g / cm^3
# Si number density = 21.663357 Si / 1000 Ang^3
#
#
#
# Elastic Constant Matrix: (Units=GPa)
#
#
# Indices 1 2 3 4 5 6 
#
# 1 117.9277 56.3168 43.0342 0.0003 -24.3476 -0.0020
# 2 56.3168 126.6204 56.5401 -0.0020 -17.3463 -0.0025
# 3 43.0342 56.5401 140.2365 -0.0026 7.2668 -0.0007
# 4 0.0003 -0.0020 -0.0026 50.8037 0.0007 14.0579
# 5 -24.3476 -17.3463 7.2668 0.0007 35.4585 0.0014
# 6 -0.0020 -0.0025 -0.0007 14.0579 0.0014 55.4477
#
#
#
# Elastic Compliance Matrix: (Units=1/GPa)
#
#
# Indices 1 2 3 4 5 6 
#
# 1 0.012733 -0.003263 -0.002994 -0.000001 0.007760 0.000000
# 2 -0.003263 0.011693 -0.003935 0.000000 0.004286 0.000000
# 3 -0.002994 -0.003935 0.009948 0.000000 -0.006020 0.000000
# 4 -0.000001 0.000000 0.000000 0.021169 -0.000001 -0.005367
# 5 0.007760 0.004286 -0.006020 -0.000001 0.036861 0.000000
# 6 0.000000 0.000000 0.000000 -0.005367 0.000000 0.019396
#
#
# Mechanical properties :
#
#
# Convention : Reuss Voigt Hill
#
# Bulk Modulus (GPa) = 71.48077 77.39630 74.43853
# Shear Modulus (GPa) = 36.53708 43.60156 40.06932
#
# Velocity S-wave (km/s) = 4.11126 4.49116 4.30540
# Velocity P-wave (km/s) = 7.45684 7.91824 7.69100
#
# Compressibility (1/GPa) = 0.01398978
#
# Stress axis : x y z
#
# Youngs Moduli (GPa) = 78.53722 85.51832 100.52262
#
# Poissons Ratio (x) = 0.27907 0.30094
# Poissons Ratio (y) = 0.25629 0.39558
# Poissons Ratio (z) = 0.23512 0.33653
#
# Static dielectric constant tensor:
#      x y z
#    x 3.935840 0.000000 0.100580 
#    y 0.000000 4.068120 0.000000 
#    z 0.100580 0.000000 4.198250 
# 
# 
# High freq. dielectric constant tensor:
#      x y z
#    x 1.853520 0.000000 0.005650 
#    y 0.000000 1.863930 0.000000 
#    z 0.005650 0.000000 1.869270 
# 
# From -- ./inp_files/134301.got.cif
#   From: 2010.06.25/outbox.cif.g09.slc.cpg/sg15_68_cif.got.tgz:134301.got - 2010.06.28 07:06:18.
