data_PCOD8154503
_publ_section_title
;
Structure prediction by ZEFSAII (Michael W. Deem and Ramdas Pophale) SiO2 
 PCOD8154503
Probable space group: C 2/C
;
_chemical_formula_sum "Si O2"
_cell_formula_units_Z 60
_cell_length_a 11.679667
_cell_length_b 7.378820
_cell_length_c 27.859939
_cell_angle_alpha 90.000000
_cell_angle_beta 93.950946
_cell_angle_gamma 90.000000
_cell_volume 2395.323462
_symmetry_space_group_name_H-M "C 2/C"
_symmetry_group_IT_number 15
_symmetry_cell_setting 'monoclinic'
loop_
_space_group_symop_operation_xyz
x,y,z
-x,y,1/2-z
-x,-y,-z
x,-y,1/2+z
1/2+x,1/2+y,z
1/2-x,1/2+y,1/2-z
1/2-x,1/2-y,-z
1/2+x,1/2-y,1/2+z
loop_
_atom_site_type_symbol
_atom_site_label
_atom_site_fract_x
_atom_site_fract_y
_atom_site_fract_z
Si Si1 0.611714 0.032371 0.777455
Si Si2 0.951192 0.911654 0.647814
Si Si3 0.781145 0.260757 0.898193
Si Si4 0.057675 0.481324 0.052624
Si Si5 0.834711 0.850450 0.900118
Si Si6 0.500000 0.495110 0.750000
Si Si7 0.674330 0.757288 0.703685
Si Si8 0.580680 0.182669 0.370458
O O1 0.500000 0.127764 0.750000
O O2 0.683861 0.927298 0.738884
O O3 0.559295 0.901296 0.816803
O O4 0.700620 0.170503 0.802935
O O5 0.853279 0.803301 0.615342
O O6 0.076705 0.829195 0.641516
O O7 0.931790 0.888273 0.705294
O O8 0.968936 0.115566 0.629213
O O9 0.830091 0.389813 0.941166
O O10 0.857842 0.312162 0.852235
O O11 0.805742 0.055631 0.915978
O O12 0.104864 0.274438 0.057462
O O13 0.964818 0.547313 0.089685
O O14 0.000000 0.500000 0.000000
O O15 0.715498 0.770619 0.878783
O O16 0.588874 0.613718 0.723084
#
# Coordination Sequence:
#
# PCOD8154503 Si02
#       8
#     8   8   8   8   8   4   8   8
#     4  12  25  43  69 109 149 203 252 303 355 441
#     4  12  24  46  76 110 158 204 250 309 366 449
#     4  12  25  50  74 108 154 196 248 313 375 452
#     4  12  29  53  84 112 142 194 256 326 398 459
#     4  12  26  49  80 109 148 195 242 307 388 451
#     4  12  20  42  68 108 156 202 254 300 348 436
#     4  12  24  44  69 104 152 203 251 299 364 439
#     4  12  24  48  75 110 157 199 250 314 382 446
#
# _framework density 25.04881
#
# number of rings (size 3 to 8) (size 9 to 14) (size 15 to 20)
#    0.000    0.000    7.333    2.400    0.000    2.133 
#    4.800    1.333    0.000    0.000    0.000    0.000 
#    0.000    0.000    0.000    0.000    0.000    0.000 
#
# Total GULP energy -371818.786758 kJ/mol
# GULP energy per Si atom -12393.959559 kJ/mol
# Density = 2.499180 g / cm^3
# Si number density = 25.048810 Si / 1000 Ang^3
#
#
#
# Elastic Constant Matrix: (Units=GPa)
#
#
# Indices 1 2 3 4 5 6 
#
# 1 123.1303 27.9039 30.5667 0.0000 19.2439 0.0000
# 2 27.9039 121.3854 54.6967 0.0000 13.9576 0.0000
# 3 30.5667 54.6967 128.3140 0.0000 34.6008 0.0000
# 4 0.0000 0.0000 0.0000 35.7900 0.0000 7.5387
# 5 19.2439 13.9576 34.6008 0.0000 34.0175 0.0000
# 6 0.0000 0.0000 0.0000 7.5387 0.0000 39.1070
#
#
#
# Elastic Compliance Matrix: (Units=1/GPa)
#
#
# Indices 1 2 3 4 5 6 
#
# 1 0.009210 -0.001430 -0.000465 0.000000 -0.004150 0.000000
# 2 -0.001430 0.010422 -0.004364 0.000000 0.000972 0.000000
# 3 -0.000465 -0.004364 0.012692 0.000000 -0.010856 0.000000
# 4 0.000000 0.000000 0.000000 0.029123 0.000000 -0.005614
# 5 -0.004150 0.000972 -0.010856 0.000000 0.042387 0.000000
# 6 0.000000 0.000000 0.000000 -0.005614 0.000000 0.026653
#
#
# Mechanical properties :
#
#
# Convention : Reuss Voigt Hill
#
# Bulk Modulus (GPa) = 50.49339 66.57380 58.53359
# Shear Modulus (GPa) = 33.42096 39.09372 36.25734
#
# Velocity S-wave (km/s) = 3.65668 3.95486 3.80869
# Velocity P-wave (km/s) = 6.16686 6.89129 6.53911
#
# Compressibility (1/GPa) = 0.01980457
#
# Stress axis : x y z
#
# Youngs Moduli (GPa) = 108.58127 95.95445 78.79209
#
# Poissons Ratio (x) = 0.13725 0.03665
# Poissons Ratio (y) = 0.15531 0.34383
# Poissons Ratio (z) = 0.05050 0.41872
#
# Static dielectric constant tensor:
#      x y z
#    x 5.271550 0.000000 0.128710 
#    y 0.000000 4.687830 0.000000 
#    z 0.128710 0.000000 4.236350 
# 
# 
# High freq. dielectric constant tensor:
#      x y z
#    x 2.035430 0.000000 0.020150 
#    y 0.000000 2.013540 0.000000 
#    z 0.020150 0.000000 1.958360 
# 
# From -- ./inp_files/310011.got.cif
#   From: 2010.06.25/outbox.cif.g09.slc.cpg/sg15_156_cif.got.tgz:310011.got - 2010.06.28 07:06:18.
