data_PCOD8154542
_publ_section_title
;
Structure prediction by ZEFSAII (Michael W. Deem and Ramdas Pophale) SiO2 
 PCOD8154542
Probable space group: C 2/C
;
_chemical_formula_sum "Si O2"
_cell_formula_units_Z 44
_cell_length_a 22.324761
_cell_length_b 7.689912
_cell_length_c 11.992187
_cell_angle_alpha 90.000000
_cell_angle_beta 114.711118
_cell_angle_gamma 90.000000
_cell_volume 1870.237022
_symmetry_space_group_name_H-M "C 2/C"
_symmetry_group_IT_number 15
_symmetry_cell_setting 'monoclinic'
loop_
_space_group_symop_operation_xyz
x,y,z
-x,y,1/2-z
-x,-y,-z
x,-y,1/2+z
1/2+x,1/2+y,z
1/2-x,1/2+y,1/2-z
1/2-x,1/2-y,-z
1/2+x,1/2-y,1/2+z
loop_
_atom_site_type_symbol
_atom_site_label
_atom_site_fract_x
_atom_site_fract_y
_atom_site_fract_z
Si Si1 0.128542 0.798462 0.165884
Si Si2 0.263331 0.197505 0.637408
Si Si3 0.399654 0.679124 0.325719
Si Si4 0.689234 0.141150 0.410460
Si Si5 0.586697 0.018403 0.497175
Si Si6 0.000000 0.644298 0.750000
O O1 0.199112 0.792578 0.162006
O O2 0.137656 0.764662 0.305590
O O3 0.085084 0.646702 0.077967
O O4 0.089675 0.981042 0.124253
O O5 0.250000 0.250000 0.500000
O O6 0.321993 0.310956 0.736358
O O7 0.286601 0.998199 0.661189
O O8 0.441976 0.729415 0.249343
O O9 0.423974 0.804067 0.443662
O O10 0.750000 0.250000 0.500000
O O11 0.655995 0.038862 0.486983
O O12 0.527247 0.986094 0.365350
#
# Coordination Sequence:
#
# PCOD8154542 Si02
#       6
#     8   8   8   8   8   4
#     4  12  25  44  73 109 148 188 246 313 373 433
#     4  12  21  42  69 108 151 183 238 306 367 442
#     4  12  27  46  74 108 143 196 248 301 371 447
#     4  12  24  41  71 109 150 192 237 305 379 440
#     4  12  25  50  71 107 144 197 249 301 372 439
#     4  12  26  52  76 100 152 202 254 302 366 446
#
# _framework density 23.526427000000002
#
# number of rings (size 3 to 8) (size 9 to 14) (size 15 to 20)
#    0.000    0.000    5.455    4.909    0.000    2.182 
#    0.000    4.545    0.000    0.000    0.000    0.000 
#    0.000    0.000    0.000    0.000    0.000    0.000 
#
# Total GULP energy -272888.362089 kJ/mol
# GULP energy per Si atom -12404.016459 kJ/mol
# Density = 2.347288 g / cm^3
# Si number density = 23.526427 Si / 1000 Ang^3
#
#
#
# Elastic Constant Matrix: (Units=GPa)
#
#
# Indices 1 2 3 4 5 6 
#
# 1 69.4648 12.5598 16.0605 0.0000 -4.2088 0.0000
# 2 12.5598 176.4453 67.5437 0.0000 -0.9821 0.0000
# 3 16.0605 67.5437 144.8623 0.0000 6.1125 0.0000
# 4 0.0000 0.0000 0.0000 28.3693 0.0000 -7.7600
# 5 -4.2088 -0.9821 6.1125 0.0000 32.4329 0.0000
# 6 0.0000 0.0000 0.0000 -7.7600 0.0000 21.9585
#
#
#
# Elastic Compliance Matrix: (Units=1/GPa)
#
#
# Indices 1 2 3 4 5 6 
#
# 1 0.014969 -0.000465 -0.001536 0.000000 0.002218 0.000000
# 2 -0.000465 0.006935 -0.003214 0.000000 0.000755 0.000000
# 3 -0.001536 -0.003214 0.008653 0.000000 -0.001928 0.000000
# 4 0.000000 0.000000 0.000000 0.039021 0.000000 0.013790
# 5 0.002218 0.000755 -0.001928 0.000000 0.031507 0.000000
# 6 0.000000 0.000000 0.000000 0.013790 0.000000 0.050414
#
#
# Mechanical properties :
#
#
# Convention : Reuss Voigt Hill
#
# Bulk Modulus (GPa) = 49.68404 64.78892 57.23648
# Shear Modulus (GPa) = 29.64905 36.19270 32.92087
#
# Velocity S-wave (km/s) = 3.55384 3.92648 3.74480
# Velocity P-wave (km/s) = 6.16474 6.93937 6.56349
#
# Compressibility (1/GPa) = 0.02012719
#
# Stress axis : x y z
#
# Youngs Moduli (GPa) = 66.80258 144.19479 115.56320
#
# Poissons Ratio (x) = 0.06706 0.17755
# Poissons Ratio (y) = 0.03107 0.37140
# Poissons Ratio (z) = 0.10263 0.46342
#
# Static dielectric constant tensor:
#      x y z
#    x 4.257980 0.000000 -0.148000 
#    y 0.000000 4.366860 0.000000 
#    z -0.148000 0.000000 4.207480 
# 
# 
# High freq. dielectric constant tensor:
#      x y z
#    x 1.930540 0.000000 -0.006770 
#    y 0.000000 1.938210 0.000000 
#    z -0.006770 0.000000 1.938080 
# 
# From -- ./inp_files/116871.got.cif
#   From: 2010.06.25/outbox.cif.g09.slc.cpg/sg15_59_cif.got.tgz:116871.got - 2010.06.28 07:06:18.
