data_PCOD8154630
_publ_section_title
;
Structure prediction by ZEFSAII (Michael W. Deem and Ramdas Pophale) SiO2 
 PCOD8154630
Probable space group: C 2/C
;
_chemical_formula_sum "Si O2"
_cell_formula_units_Z 36
_cell_length_a 27.897904
_cell_length_b 7.443805
_cell_length_c 9.366860
_cell_angle_alpha 90.000000
_cell_angle_beta 128.985366
_cell_angle_gamma 90.000000
_cell_volume 1512.004166
_symmetry_space_group_name_H-M "C 2/C"
_symmetry_group_IT_number 15
_symmetry_cell_setting 'monoclinic'
loop_
_space_group_symop_operation_xyz
x,y,z
-x,y,1/2-z
-x,-y,-z
x,-y,1/2+z
1/2+x,1/2+y,z
1/2-x,1/2+y,1/2-z
1/2-x,1/2-y,-z
1/2+x,1/2-y,1/2+z
loop_
_atom_site_type_symbol
_atom_site_label
_atom_site_fract_x
_atom_site_fract_y
_atom_site_fract_z
Si Si1 0.000000 0.548703 0.250000
Si Si2 0.817064 0.681295 0.085310
Si Si3 0.459824 0.616137 0.529696
Si Si4 0.113399 0.031697 0.358117
Si Si5 0.133556 0.607215 0.021599
O O1 0.013391 0.681072 0.410094
O O2 0.061577 0.429966 0.344394
O O3 0.854792 0.596900 0.287906
O O4 0.847968 0.852432 0.072609
O O5 0.750000 0.750000 0.000000
O O6 0.819057 0.526952 0.968124
O O7 0.500000 0.500000 0.500000
O O8 0.396363 0.612814 0.319660
O O9 0.448346 0.530644 0.667247
O O10 0.149015 0.187511 0.509564
#
# Coordination Sequence:
#
# PCOD8154630 Si02
#       5
#     4   8   8   8   8
#     4  12  26  46  76 114 162 196 266 314 406 476
#     4  12  30  54  80 115 156 211 275 328 394 467
#     4  12  22  43  71 109 156 205 249 310 381 476
#     4  12  26  47  74 113 155 204 266 314 398 462
#     4  12  29  50  79 119 158 206 261 333 399 469
#
# _framework density 23.809460999999999
#
# number of rings (size 3 to 8) (size 9 to 14) (size 15 to 20)
#    0.000    0.000    6.667    1.333    6.222    2.667 
#    0.000    0.000    0.000    0.000    0.000    0.000 
#    0.000    0.000    0.000    0.000    0.000    0.000 
#
# Total GULP energy -223113.976755 kJ/mol
# GULP energy per Si atom -12395.220931 kJ/mol
# Density = 2.375527 g / cm^3
# Si number density = 23.809461 Si / 1000 Ang^3
#
#
#
# Elastic Constant Matrix: (Units=GPa)
#
#
# Indices 1 2 3 4 5 6 
#
# 1 148.6842 65.1747 31.7383 0.0000 -1.0099 0.0000
# 2 65.1747 168.6416 31.9255 0.0000 -12.8878 0.0000
# 3 31.7383 31.9255 89.0929 0.0000 -23.8564 0.0000
# 4 0.0000 0.0000 0.0000 42.0916 0.0000 -7.9111
# 5 -1.0099 -12.8878 -23.8564 0.0000 38.6891 0.0000
# 6 0.0000 0.0000 0.0000 -7.9111 0.0000 33.9413
#
#
#
# Elastic Compliance Matrix: (Units=1/GPa)
#
#
# Indices 1 2 3 4 5 6 
#
# 1 0.008586 -0.003005 -0.002623 0.000000 -0.002394 0.000000
# 2 -0.003005 0.007436 -0.001140 0.000000 0.001696 0.000000
# 3 -0.002623 -0.001140 0.014909 0.000000 0.008745 0.000000
# 4 0.000000 0.000000 0.000000 0.024846 0.000000 0.005791
# 5 -0.002394 0.001696 0.008745 0.000000 0.031742 0.000000
# 6 0.000000 0.000000 0.000000 0.005791 0.000000 0.030812
#
#
# Mechanical properties :
#
#
# Convention : Reuss Voigt Hill
#
# Bulk Modulus (GPa) = 57.48712 73.78843 65.63777
# Shear Modulus (GPa) = 36.31949 41.44976 38.88463
#
# Velocity S-wave (km/s) = 3.90990 4.17693 4.04562
# Velocity P-wave (km/s) = 6.67684 7.37027 7.03211
#
# Compressibility (1/GPa) = 0.01739520
#
# Stress axis : x y z
#
# Youngs Moduli (GPa) = 116.46205 134.47284 67.07377
#
# Poissons Ratio (x) = 0.40406 0.17595
# Poissons Ratio (y) = 0.34994 0.07649
# Poissons Ratio (z) = 0.30551 0.15334
#
# Static dielectric constant tensor:
#      x y z
#    x 4.333950 0.000000 -1.429150 
#    y 0.000000 4.432600 0.000000 
#    z -1.429150 0.000000 7.778690 
# 
# 
# High freq. dielectric constant tensor:
#      x y z
#    x 1.930380 0.000000 -0.018490 
#    y 0.000000 1.957340 0.000000 
#    z -0.018490 0.000000 1.957240 
# 
# From -- ./inp_files/59744.got.cif
#   From: 2010.06.25/outbox.cif.g09.slc.cpg/sg15_30_cif.got.tgz:59744.got - 2010.06.28 07:06:18.
