data_PCOD8154895
_publ_section_title
;
Structure prediction by ZEFSAII (Michael W. Deem and Ramdas Pophale) SiO2 
 PCOD8154895
Probable space group: C 2/C
;
_chemical_formula_sum "Si O2"
_cell_formula_units_Z 36
_cell_length_a 13.488259
_cell_length_b 17.279931
_cell_length_c 13.087993
_cell_angle_alpha 90.000000
_cell_angle_beta 29.306045
_cell_angle_gamma 90.000000
_cell_volume 1493.141574
_symmetry_space_group_name_H-M "C 2/C"
_symmetry_group_IT_number 15
_symmetry_cell_setting 'monoclinic'
loop_
_space_group_symop_operation_xyz
x,y,z
-x,y,1/2-z
-x,-y,-z
x,-y,1/2+z
1/2+x,1/2+y,z
1/2-x,1/2+y,1/2-z
1/2-x,1/2-y,-z
1/2+x,1/2-y,1/2+z
loop_
_atom_site_type_symbol
_atom_site_label
_atom_site_fract_x
_atom_site_fract_y
_atom_site_fract_z
Si Si1 0.500000 0.615965 0.750000
Si Si2 0.682865 0.696871 0.775836
Si Si3 0.621570 0.133784 0.355806
Si Si4 0.701489 0.991106 0.616238
Si Si5 0.500979 0.369435 0.864381
O O1 0.535125 0.665330 0.820573
O O2 0.699420 0.564194 0.557559
O O3 0.713274 0.787518 0.722535
O O4 0.890814 0.648957 0.595255
O O5 0.579793 0.692812 0.980938
O O6 0.633709 0.060486 0.272066
O O7 0.763193 0.111454 0.325117
O O8 0.500000 0.030101 0.750000
O O9 0.865791 0.054296 0.500941
O O10 0.500000 0.336314 0.750000
#
# Coordination Sequence:
#
# PCOD8154895 Si02
#       5
#     4   8   8   8   8
#     4  12  24  46  78 114 150 182 246 314 380 436
#     4  12  27  47  79 112 146 196 243 308 379 432
#     4  12  26  49  74 112 149 193 246 309 370 436
#     4  12  26  45  76 112 145 197 240 309 375 434
#     4  12  29  48  72 108 156 198 253 291 360 448
#
# _framework density 24.110237999999999
#
# number of rings (size 3 to 8) (size 9 to 14) (size 15 to 20)
#    0.000    0.000    7.778    0.667    4.667    3.556 
#    0.000    0.000    0.000    0.000    0.000    0.000 
#    0.000    0.000    0.000    0.000    0.000    0.000 
#
# Total GULP energy -223159.895256 kJ/mol
# GULP energy per Si atom -12397.771959 kJ/mol
# Density = 2.405536 g / cm^3
# Si number density = 24.110238 Si / 1000 Ang^3
#
#
#
# Elastic Constant Matrix: (Units=GPa)
#
#
# Indices 1 2 3 4 5 6 
#
# 1 143.3941 27.8346 63.9539 -0.0126 -17.3624 -0.0037
# 2 27.8346 72.8872 3.9515 0.0099 -10.8681 -0.0309
# 3 63.9539 3.9515 114.3359 -0.0240 -10.5015 -0.0158
# 4 -0.0126 0.0099 -0.0240 42.4974 0.0399 -13.3938
# 5 -17.3624 -10.8681 -10.5015 0.0399 55.4410 -0.0076
# 6 -0.0037 -0.0309 -0.0158 -13.3938 -0.0076 22.1938
#
#
#
# Elastic Compliance Matrix: (Units=1/GPa)
#
#
# Indices 1 2 3 4 5 6 
#
# 1 0.010262 -0.003396 -0.005484 -0.000003 0.001509 -0.000008
# 2 -0.003396 0.015263 0.001577 0.000002 0.002227 0.000024
# 3 -0.005484 0.001577 0.011836 0.000009 0.000834 0.000015
# 4 -0.000003 0.000002 0.000009 0.029058 -0.000018 0.017536
# 5 0.001509 0.002227 0.000834 -0.000018 0.019104 0.000000
# 6 -0.000008 0.000024 0.000015 0.017536 0.000000 0.055641
#
#
# Mechanical properties :
#
#
# Convention : Reuss Voigt Hill
#
# Bulk Modulus (GPa) = 43.94864 58.01081 50.97973
# Shear Modulus (GPa) = 30.60820 39.68491 35.14656
#
# Velocity S-wave (km/s) = 3.56688 4.06147 3.82218
# Velocity P-wave (km/s) = 5.93560 6.79021 6.37723
#
# Compressibility (1/GPa) = 0.02275383
#
# Stress axis : x y z
#
# Youngs Moduli (GPa) = 97.45060 65.51580 84.49061
#
# Poissons Ratio (x) = 0.22252 0.46333
# Poissons Ratio (y) = 0.33099 -0.13323
# Poissons Ratio (z) = 0.53441 -0.10331
#
# Static dielectric constant tensor:
#      x y z
#    x 4.371270 -0.000100 -0.251010 
#    y -0.000100 4.219710 0.000220 
#    z -0.251010 0.000220 4.572330 
# 
# 
# High freq. dielectric constant tensor:
#      x y z
#    x 1.961850 -0.000020 -0.017900 
#    y -0.000020 1.946780 0.000020 
#    z -0.017900 0.000020 1.978100 
# 
# From -- ./inp_files/155035.got.cif
#   From: 2010.06.25/outbox.cif.g09.slc.cpg/sg15_78_cif.got.tgz:155035.got - 2010.06.28 07:06:18.
