data_PCOD8154052
_publ_section_title
;
Structure prediction by ZEFSAII (Michael W. Deem and Ramdas Pophale) SiO2 
 PCOD8154052
Probable space group: C 2/C
;
_chemical_formula_sum "Si O2"
_cell_formula_units_Z 40
_cell_length_a 29.207258
_cell_length_b 7.087584
_cell_length_c 9.175190
_cell_angle_alpha 90.000000
_cell_angle_beta 89.226232
_cell_angle_gamma 90.000000
_cell_volume 1899.172740
_symmetry_space_group_name_H-M "C 2/C"
_symmetry_group_IT_number 15
_symmetry_cell_setting 'monoclinic'
loop_
_space_group_symop_operation_xyz
x,y,z
-x,y,1/2-z
-x,-y,-z
x,-y,1/2+z
1/2+x,1/2+y,z
1/2-x,1/2+y,1/2-z
1/2-x,1/2-y,-z
1/2+x,1/2-y,1/2+z
loop_
_atom_site_type_symbol
_atom_site_label
_atom_site_fract_x
_atom_site_fract_y
_atom_site_fract_z
Si Si1 0.797079 0.728565 0.810631
Si Si2 0.928007 0.003143 0.024434
Si Si3 0.804540 0.638156 0.138985
Si Si4 0.495769 0.799206 0.422710
Si Si5 0.864721 0.062330 0.778065
O O1 0.806033 0.579071 0.683212
O O2 0.743549 0.770949 0.816023
O O3 0.824697 0.910959 0.759435
O O4 0.813995 0.652659 0.966335
O O5 0.964565 0.169497 0.012187
O O6 0.911788 0.980928 0.190717
O O7 0.881531 0.065066 0.943486
O O8 0.947940 0.804288 0.963475
O O9 0.844890 0.738764 0.226596
O O10 0.500000 0.826982 0.250000
O O11 0.500000 0.000000 0.500000
#
# Coordination Sequence:
#
# PCOD8154052 Si02
#       5
#     8   8   8   8   8
#     4  11  25  42  65  96 131 180 229 278 334 385
#     4  11  26  46  68  99 142 175 220 274 339 399
#     4  11  25  42  65  95 133 179 228 279 333 387
#     4  11  26  46  73 102 136 175 217 273 342 410
#     4  12  24  45  66 101 137 180 226 279 326 398
#
# _framework density 21.061800999999999
#
# number of rings (size 3 to 8) (size 9 to 14) (size 15 to 20)
#    0.000    0.800    6.000    0.000    5.600    4.000 
#    0.000    0.000    0.000    0.000    0.000    0.000 
#    0.000    0.000    0.000    0.000    0.000    0.000 
#
# Total GULP energy -248096.101802 kJ/mol
# GULP energy per Si atom -12404.805090 kJ/mol
# Density = 2.101386 g / cm^3
# Si number density = 21.061801 Si / 1000 Ang^3
#
#
#
# Elastic Constant Matrix: (Units=GPa)
#
#
# Indices 1 2 3 4 5 6 
#
# 1 72.6145 13.6138 14.3221 0.0000 4.4314 0.0000
# 2 13.6138 86.3958 29.9057 0.0000 5.2819 0.0000
# 3 14.3221 29.9057 75.0975 0.0000 -4.3514 0.0000
# 4 0.0000 0.0000 0.0000 37.5242 0.0000 0.4903
# 5 4.4314 5.2819 -4.3514 0.0000 43.8391 0.0000
# 6 0.0000 0.0000 0.0000 0.4903 0.0000 32.7821
#
#
#
# Elastic Compliance Matrix: (Units=1/GPa)
#
#
# Indices 1 2 3 4 5 6 
#
# 1 0.014584 -0.001404 -0.002311 0.000000 -0.001534 0.000000
# 2 -0.001404 0.013767 -0.005333 0.000000 -0.002046 0.000000
# 3 -0.002311 -0.005333 0.016023 0.000000 0.002467 0.000000
# 4 0.000000 0.000000 0.000000 0.026655 0.000000 -0.000399
# 5 -0.001534 -0.002046 0.002467 0.000000 0.023457 0.000000
# 6 0.000000 0.000000 0.000000 -0.000399 0.000000 0.030510
#
#
# Mechanical properties :
#
#
# Convention : Reuss Voigt Hill
#
# Bulk Modulus (GPa) = 38.05515 38.86565 38.46040
# Shear Modulus (GPa) = 32.92657 34.58016 33.75337
#
# Velocity S-wave (km/s) = 3.95819 4.05636 4.00758
# Velocity P-wave (km/s) = 6.24478 6.35861 6.30195
#
# Compressibility (1/GPa) = 0.02627765
#
# Stress axis : x y z
#
# Youngs Moduli (GPa) = 68.56785 72.63718 62.40842
#
# Poissons Ratio (x) = 0.10201 0.14423
# Poissons Ratio (y) = 0.09629 0.33283
# Poissons Ratio (z) = 0.15846 0.38738
#
# Static dielectric constant tensor:
#      x y z
#    x 3.782400 0.000000 -0.033160 
#    y 0.000000 3.703410 0.000000 
#    z -0.033160 0.000000 3.851430 
# 
# 
# High freq. dielectric constant tensor:
#      x y z
#    x 1.832770 0.000000 0.000730 
#    y 0.000000 1.823280 0.000000 
#    z 0.000730 0.000000 1.836510 
# 
# From -- ./inp_files/68168.got.cif
#   From: 2010.06.25/outbox.cif.g09.slc.cpg/sg15_35_cif.got.tgz:68168.got - 2010.06.28 07:06:18.
