data_PCOD8154989
_publ_section_title
;
Structure prediction by ZEFSAII (Michael W. Deem and Ramdas Pophale) SiO2 
 PCOD8154989
Probable space group: C 2/C
;
_chemical_formula_sum "Si O2"
_cell_formula_units_Z 52
_cell_length_a 14.444270
_cell_length_b 12.574628
_cell_length_c 14.643466
_cell_angle_alpha 90.000000
_cell_angle_beta 117.843169
_cell_angle_gamma 90.000000
_cell_volume 2351.795436
_symmetry_space_group_name_H-M "C 2/C"
_symmetry_group_IT_number 15
_symmetry_cell_setting 'monoclinic'
loop_
_space_group_symop_operation_xyz
x,y,z
-x,y,1/2-z
-x,-y,-z
x,-y,1/2+z
1/2+x,1/2+y,z
1/2-x,1/2+y,1/2-z
1/2-x,1/2-y,-z
1/2+x,1/2-y,1/2+z
loop_
_atom_site_type_symbol
_atom_site_label
_atom_site_fract_x
_atom_site_fract_y
_atom_site_fract_z
Si Si1 0.126851 0.597386 0.106346
Si Si2 0.824140 0.773281 0.747440
Si Si3 0.942997 0.050716 0.558593
Si Si4 0.000000 0.086848 0.250000
Si Si5 0.202751 0.457135 0.979566
Si Si6 0.108798 0.552885 0.765854
Si Si7 0.418542 0.775777 0.486950
O O1 0.207799 0.677488 0.193235
O O2 0.096955 0.504061 0.162715
O O3 0.020538 0.651328 0.022187
O O4 0.178577 0.549640 0.040105
O O5 0.897202 0.840291 0.712387
O O6 0.811895 0.652075 0.706563
O O7 0.876109 0.771816 0.871947
O O8 0.820904 0.027701 0.504377
O O9 0.956009 0.178203 0.567261
O O10 0.999167 0.994820 0.667364
O O11 0.000000 0.000000 0.500000
O O12 0.141181 0.467754 0.856486
O O13 0.175035 0.341839 0.008532
O O14 0.000000 0.602878 0.750000
#
# Coordination Sequence:
#
# PCOD8154989 Si02
#       7
#     8   8   8   4   8   8   8
#     4  12  27  47  73 114 147 194 254 312 368 452
#     4  12  26  45  78 104 151 199 252 301 377 444
#     4  12  28  46  73 105 150 193 248 305 368 447
#     4  12  26  48  70 108 148 200 244 310 370 444
#     4  12  26  47  75 107 148 194 247 311 377 437
#     4  12  25  45  74 106 146 192 248 309 371 442
#     4  12  26  49  76 108 150 195 250 313 375 441
#
# _framework density 22.110766999999999
#
# number of rings (size 3 to 8) (size 9 to 14) (size 15 to 20)
#    0.000    0.000    6.923    2.769    2.154    3.077 
#    0.000    0.000    0.000    0.000    0.000    0.000 
#    0.000    0.000    0.000    0.000    0.000    0.000 
#
# Total GULP energy -322442.946666 kJ/mol
# GULP energy per Si atom -12401.651795 kJ/mol
# Density = 2.206044 g / cm^3
# Si number density = 22.110767 Si / 1000 Ang^3
#
#
#
# Elastic Constant Matrix: (Units=GPa)
#
#
# Indices 1 2 3 4 5 6 
#
# 1 137.9603 36.7132 36.5024 0.0000 -2.6822 0.0000
# 2 36.7132 97.7061 37.0158 0.0000 -3.9210 0.0000
# 3 36.5024 37.0158 101.9815 0.0000 -16.4851 0.0000
# 4 0.0000 0.0000 0.0000 38.4991 0.0000 3.4498
# 5 -2.6822 -3.9210 -16.4851 0.0000 32.5366 0.0000
# 6 0.0000 0.0000 0.0000 3.4498 0.0000 35.4418
#
#
#
# Elastic Compliance Matrix: (Units=1/GPa)
#
#
# Indices 1 2 3 4 5 6 
#
# 1 0.008465 -0.002339 -0.002303 0.000000 -0.000751 0.000000
# 2 -0.002339 0.012533 -0.003811 0.000000 -0.000613 0.000000
# 3 -0.002303 -0.003811 0.012970 0.000000 0.005923 0.000000
# 4 0.000000 0.000000 0.000000 0.026203 0.000000 -0.002551
# 5 -0.000751 -0.000613 0.005923 0.000000 0.033600 0.000000
# 6 0.000000 0.000000 0.000000 -0.002551 0.000000 0.028464
#
#
# Mechanical properties :
#
#
# Convention : Reuss Voigt Hill
#
# Bulk Modulus (GPa) = 58.60221 62.01230 60.30726
# Shear Modulus (GPa) = 34.52384 36.45660 35.49022
#
# Velocity S-wave (km/s) = 3.95575 4.06497 4.01073
# Velocity P-wave (km/s) = 6.88661 7.08089 6.98443
#
# Compressibility (1/GPa) = 0.01706420
#
# Stress axis : x y z
#
# Youngs Moduli (GPa) = 118.12720 79.79103 77.09813
#
# Poissons Ratio (x) = 0.18661 0.17752
# Poissons Ratio (y) = 0.27627 0.29382
# Poissons Ratio (z) = 0.27199 0.30408
#
# Static dielectric constant tensor:
#      x y z
#    x 4.163730 0.000000 -0.074270 
#    y 0.000000 4.083410 0.000000 
#    z -0.074270 0.000000 3.901540 
# 
# 
# High freq. dielectric constant tensor:
#      x y z
#    x 1.881860 0.000000 -0.008260 
#    y 0.000000 1.882870 0.000000 
#    z -0.008260 0.000000 1.871490 
# 
# From -- ./inp_files/152665.got.cif
#   From: 2010.06.25/outbox.cif.g09.slc.cpg/sg15_77_cif.got.tgz:152665.got - 2010.06.28 07:06:18.
