data_PCOD8154875
_publ_section_title
;
Structure prediction by ZEFSAII (Michael W. Deem and Ramdas Pophale) SiO2 
 PCOD8154875
Probable space group: C 2/C
;
_chemical_formula_sum "Si O2"
_cell_formula_units_Z 40
_cell_length_a 17.731636
_cell_length_b 16.345320
_cell_length_c 12.419641
_cell_angle_alpha 90.000000
_cell_angle_beta 30.163339
_cell_angle_gamma 90.000000
_cell_volume 1808.667260
_symmetry_space_group_name_H-M "C 2/C"
_symmetry_group_IT_number 15
_symmetry_cell_setting 'monoclinic'
loop_
_space_group_symop_operation_xyz
x,y,z
-x,y,1/2-z
-x,-y,-z
x,-y,1/2+z
1/2+x,1/2+y,z
1/2-x,1/2+y,1/2-z
1/2-x,1/2-y,-z
1/2+x,1/2-y,1/2+z
loop_
_atom_site_type_symbol
_atom_site_label
_atom_site_fract_x
_atom_site_fract_y
_atom_site_fract_z
Si Si1 0.466920 0.789092 0.584263
Si Si2 0.368055 0.819937 0.330416
Si Si3 0.000000 0.954823 0.250000
Si Si4 0.500000 0.097370 0.250000
Si Si5 0.737627 0.530890 0.096530
Si Si6 0.666916 0.355064 0.884501
O O1 0.581527 0.823420 0.354854
O O2 0.467133 0.844343 0.689914
O O3 0.514869 0.694881 0.544692
O O4 0.299275 0.789652 0.742109
O O5 0.500000 0.802221 0.250000
O O6 0.250000 0.750000 0.500000
O O7 0.300063 0.909096 0.428960
O O8 0.863756 0.902638 0.467238
O O9 0.072841 0.004758 0.258919
O O10 0.355738 0.043144 0.461456
O O11 0.717379 0.579887 0.232560
#
# Coordination Sequence:
#
# PCOD8154875 Si02
#       6
#     8   8   4   4   8   8
#     4  12  26  47  77 107 149 193 249 298 372 445
#     4  12  24  46  72 106 144 190 244 300 369 440
#     4  12  29  46  71 106 148 192 248 306 373 436
#     4  12  27  46  77 108 150 198 238 312 371 446
#     4  12  26  47  71 108 146 190 245 309 373 431
#     4  12  27  49  72 108 148 196 246 306 367 447
#
# _framework density 22.115732000000001
#
# number of rings (size 3 to 8) (size 9 to 14) (size 15 to 20)
#    0.000    0.000    7.000    1.200    7.000    4.800 
#    0.000    0.000    0.000    0.000    0.000    0.000 
#    0.000    0.000    0.000    0.000    0.000    0.000 
#
# Total GULP energy -248027.078505 kJ/mol
# GULP energy per Si atom -12401.353925 kJ/mol
# Density = 2.206540 g / cm^3
# Si number density = 22.115732 Si / 1000 Ang^3
#
#
#
# Elastic Constant Matrix: (Units=GPa)
#
#
# Indices 1 2 3 4 5 6 
#
# 1 102.1540 36.4840 55.0160 -0.0005 2.2343 0.0002
# 2 36.4840 82.8251 43.7489 -0.0003 4.5390 0.0001
# 3 55.0160 43.7489 111.8396 -0.0001 5.1333 0.0001
# 4 -0.0005 -0.0003 -0.0001 52.9909 0.0003 -6.7971
# 5 2.2343 4.5390 5.1333 0.0003 50.0202 -0.0002
# 6 0.0002 0.0001 0.0001 -6.7971 -0.0002 24.5878
#
#
#
# Elastic Compliance Matrix: (Units=1/GPa)
#
#
# Indices 1 2 3 4 5 6 
#
# 1 0.013953 -0.003187 -0.005628 0.000000 0.000244 0.000000
# 2 -0.003187 0.015976 -0.004644 0.000000 -0.000831 0.000000
# 3 -0.005628 -0.004644 0.013560 0.000000 -0.000719 0.000000
# 4 0.000000 0.000000 0.000000 0.019565 0.000000 0.005409
# 5 0.000244 -0.000831 -0.000719 0.000000 0.020130 0.000000
# 6 0.000000 0.000000 0.000000 0.005409 0.000000 0.042166
#
#
# Mechanical properties :
#
#
# Convention : Reuss Voigt Hill
#
# Bulk Modulus (GPa) = 60.34636 63.03518 61.69077
# Shear Modulus (GPa) = 31.68763 36.29110 33.98937
#
# Velocity S-wave (km/s) = 3.78935 4.05528 3.92457
# Velocity P-wave (km/s) = 6.81846 7.10572 6.96358
#
# Compressibility (1/GPa) = 0.01657101
#
# Stress axis : x y z
#
# Youngs Moduli (GPa) = 71.66822 62.59538 73.74864
#
# Poissons Ratio (x) = 0.19947 0.41509
# Poissons Ratio (y) = 0.22838 0.34246
# Poissons Ratio (z) = 0.40338 0.29067
#
# Static dielectric constant tensor:
#      x y z
#    x 4.834250 -0.000010 -0.269010 
#    y -0.000010 4.014470 0.000000 
#    z -0.269010 0.000000 4.333650 
# 
# 
# High freq. dielectric constant tensor:
#      x y z
#    x 1.879530 0.000000 0.003300 
#    y 0.000000 1.872280 0.000000 
#    z 0.003300 0.000000 1.890080 
# 
# From -- ./inp_files/37923.got.cif
#   From: 2010.06.25/outbox.cif.g09.slc.cpg/sg15_19_cif.got.tgz:37923.got - 2010.06.28 07:06:18.
