data_PCOD8154134
_publ_section_title
;
Structure prediction by ZEFSAII (Michael W. Deem and Ramdas Pophale) SiO2 
 PCOD8154134
Probable space group: C 2/C
;
_chemical_formula_sum "Si O2"
_cell_formula_units_Z 44
_cell_length_a 6.624952
_cell_length_b 21.367152
_cell_length_c 17.031456
_cell_angle_alpha 90.000000
_cell_angle_beta 119.279051
_cell_angle_gamma 90.000000
_cell_volume 2102.912525
_symmetry_space_group_name_H-M "C 2/C"
_symmetry_group_IT_number 15
_symmetry_cell_setting 'monoclinic'
loop_
_space_group_symop_operation_xyz
x,y,z
-x,y,1/2-z
-x,-y,-z
x,-y,1/2+z
1/2+x,1/2+y,z
1/2-x,1/2+y,1/2-z
1/2-x,1/2-y,-z
1/2+x,1/2-y,1/2+z
loop_
_atom_site_type_symbol
_atom_site_label
_atom_site_fract_x
_atom_site_fract_y
_atom_site_fract_z
Si Si1 0.610910 0.934574 0.009526
Si Si2 0.700671 0.901724 0.852052
Si Si3 0.552580 0.513571 0.669952
Si Si4 0.389723 0.834490 0.076303
Si Si5 0.903641 0.217094 0.461083
Si Si6 0.500000 0.903684 0.250000
O O1 0.451094 0.881061 0.016945
O O2 0.865718 0.939964 0.095113
O O3 0.607171 0.925471 0.916634
O O4 0.500000 0.000000 0.000000
O O5 0.500000 0.906362 0.750000
O O6 0.764063 0.829267 0.877519
O O7 0.917409 0.945931 0.867161
O O8 0.500000 0.499695 0.750000
O O9 0.785921 0.550921 0.704640
O O10 0.500777 0.767926 0.080036
O O11 0.511651 0.859523 0.177083
O O12 0.114210 0.824341 0.037546
O O13 0.750000 0.250000 0.500000
#
# Coordination Sequence:
#
# PCOD8154134 Si02
#       6
#     8   8   8   8   8   4
#     4  12  23  44  73 104 143 190 228 298 372 426
#     4  12  25  44  69 104 142 185 240 292 359 436
#     4  12  24  45  71 106 148 181 238 299 368 444
#     4  11  25  45  71 101 135 185 242 291 359 434
#     4  11  25  49  69  95 141 190 243 296 352 432
#     4  12  24  44  70 108 138 178 238 296 366 440
#
# _framework density 20.923361
#
# number of rings (size 3 to 8) (size 9 to 14) (size 15 to 20)
#    0.000    0.364    4.545    4.909    0.000    1.455 
#    1.636    0.000    0.000    0.000    0.000    0.000 
#    0.000    0.000    0.000    0.000    0.000    0.000 
#
# Total GULP energy -272780.858405 kJ/mol
# GULP energy per Si atom -12399.129928 kJ/mol
# Density = 2.087574 g / cm^3
# Si number density = 20.923361 Si / 1000 Ang^3
#
#
#
# Elastic Constant Matrix: (Units=GPa)
#
#
# Indices 1 2 3 4 5 6 
#
# 1 119.1461 50.4511 58.6583 0.0000 -1.2443 0.0000
# 2 50.4511 134.7819 45.3862 0.0000 -1.6838 0.0000
# 3 58.6583 45.3862 129.8290 0.0000 -14.1056 0.0000
# 4 0.0000 0.0000 0.0000 43.4505 0.0000 -5.7410
# 5 -1.2443 -1.6838 -14.1056 0.0000 47.5370 0.0000
# 6 0.0000 0.0000 0.0000 -5.7410 0.0000 51.1274
#
#
#
# Elastic Compliance Matrix: (Units=1/GPa)
#
#
# Indices 1 2 3 4 5 6 
#
# 1 0.011807 -0.002943 -0.004426 0.000000 -0.001109 0.000000
# 2 -0.002943 0.009159 -0.001907 0.000000 -0.000318 0.000000
# 3 -0.004426 -0.001907 0.010694 0.000000 0.002990 0.000000
# 4 0.000000 0.000000 0.000000 0.023361 0.000000 0.002623
# 5 -0.001109 -0.000318 0.002990 0.000000 0.021883 0.000000
# 6 0.000000 0.000000 0.000000 0.002623 0.000000 0.019854
#
#
# Mechanical properties :
#
#
# Convention : Reuss Voigt Hill
#
# Bulk Modulus (GPa) = 76.29025 76.97201 76.63113
# Shear Modulus (GPa) = 41.77878 43.70708 42.74293
#
# Velocity S-wave (km/s) = 4.47335 4.57542 4.52467
# Velocity P-wave (km/s) = 7.95123 8.04861 8.00007
#
# Compressibility (1/GPa) = 0.01310783
#
# Stress axis : x y z
#
# Youngs Moduli (GPa) = 84.69815 109.18121 93.51380
#
# Poissons Ratio (x) = 0.32130 0.41390
# Poissons Ratio (y) = 0.24925 0.17832
# Poissons Ratio (z) = 0.37488 0.20819
#
# Static dielectric constant tensor:
#      x y z
#    x 4.078260 0.000000 0.018060 
#    y 0.000000 3.989300 0.000000 
#    z 0.018060 0.000000 3.723890 
# 
# 
# High freq. dielectric constant tensor:
#      x y z
#    x 1.835180 0.000000 -0.001950 
#    y 0.000000 1.840610 0.000000 
#    z -0.001950 0.000000 1.820580 
# 
# From -- ./inp_files/129347.got.cif
#   From: 2010.06.25/outbox.cif.g09.slc.cpg/sg15_65_cif.got.tgz:129347.got - 2010.06.28 07:06:18.
