data_PCOD8154686
_publ_section_title
;
Structure prediction by ZEFSAII (Michael W. Deem and Ramdas Pophale) SiO2 
 PCOD8154686
Probable space group: C 2/C
;
_chemical_formula_sum "Si O2"
_cell_formula_units_Z 52
_cell_length_a 19.859355
_cell_length_b 16.974498
_cell_length_c 8.912672
_cell_angle_alpha 90.000000
_cell_angle_beta 53.618860
_cell_angle_gamma 90.000000
_cell_volume 2418.877883
_symmetry_space_group_name_H-M "C 2/C"
_symmetry_group_IT_number 15
_symmetry_cell_setting 'monoclinic'
loop_
_space_group_symop_operation_xyz
x,y,z
-x,y,1/2-z
-x,-y,-z
x,-y,1/2+z
1/2+x,1/2+y,z
1/2-x,1/2+y,1/2-z
1/2-x,1/2-y,-z
1/2+x,1/2-y,1/2+z
loop_
_atom_site_type_symbol
_atom_site_label
_atom_site_fract_x
_atom_site_fract_y
_atom_site_fract_z
Si Si1 0.936189 0.560367 0.147708
Si Si2 0.500000 0.809992 0.750000
Si Si3 0.830268 0.461399 0.511240
Si Si4 0.674243 0.261198 0.982487
Si Si5 0.833176 0.050624 0.652985
Si Si6 0.595607 0.585519 0.628904
Si Si7 0.231750 0.673126 0.621117
O O1 0.889110 0.527767 0.358429
O O2 0.993511 0.635153 0.111194
O O3 0.869454 0.579651 0.106013
O O4 0.000000 0.500000 0.000000
O O5 0.416974 0.759201 0.834441
O O6 0.746622 0.504965 0.674818
O O7 0.819160 0.391133 0.406689
O O8 0.662489 0.354040 0.962659
O O9 0.750000 0.250000 0.000000
O O10 0.681821 0.205501 0.829423
O O11 0.887598 0.080751 0.717385
O O12 0.811987 0.126979 0.579412
O O13 0.891092 0.996570 0.472474
O O14 0.500000 0.613425 0.750000
O O15 0.250000 0.750000 0.500000
#
# Coordination Sequence:
#
# PCOD8154686 Si02
#       7
#     8   4   8   8   8   8   8
#     4  12  23  39  69 103 143 186 231 297 354 443
#     4  12  26  44  72 108 140 186 246 292 376 438
#     4  12  23  43  69 106 140 190 242 293 365 438
#     4  12  27  47  74 103 147 191 236 302 374 436
#     4  12  24  45  76 102 135 193 246 301 357 438
#     4  12  26  48  73 105 142 191 252 305 361 437
#     4  12  26  43  71 109 141 185 246 304 363 431
#
# _framework density 21.497571000000001
#
# number of rings (size 3 to 8) (size 9 to 14) (size 15 to 20)
#    0.000    0.000    6.923    3.231    4.308    0.000 
#    0.000    0.000    0.000    0.000    0.000    0.000 
#    0.000    0.000    0.000    0.000    0.000    0.000 
#
# Total GULP energy -322229.491721 kJ/mol
# GULP energy per Si atom -12393.441989 kJ/mol
# Density = 2.144864 g / cm^3
# Si number density = 21.497571 Si / 1000 Ang^3
#
#
#
# Elastic Constant Matrix: (Units=GPa)
#
#
# Indices 1 2 3 4 5 6 
#
# 1 168.8380 47.2625 35.3093 0.0000 7.4665 0.0000
# 2 47.2625 109.1428 24.5510 0.0000 3.8066 0.0000
# 3 35.3093 24.5510 70.9872 0.0000 -2.6021 0.0000
# 4 0.0000 0.0000 0.0000 36.2265 0.0000 6.0361
# 5 7.4665 3.8066 -2.6021 0.0000 41.8028 0.0000
# 6 0.0000 0.0000 0.0000 6.0361 0.0000 43.7328
#
#
#
# Elastic Compliance Matrix: (Units=1/GPa)
#
#
# Indices 1 2 3 4 5 6 
#
# 1 0.007254 -0.002468 -0.002800 0.000000 -0.001245 0.000000
# 2 -0.002468 0.010828 -0.002543 0.000000 -0.000703 0.000000
# 3 -0.002800 -0.002543 0.016424 0.000000 0.001754 0.000000
# 4 0.000000 0.000000 0.000000 0.028254 0.000000 -0.003900
# 5 -0.001245 -0.000703 0.001754 0.000000 0.024318 0.000000
# 6 0.000000 0.000000 0.000000 -0.003900 0.000000 0.023404
#
#
# Mechanical properties :
#
#
# Convention : Reuss Voigt Hill
#
# Bulk Modulus (GPa) = 52.95770 62.57928 57.76849
# Shear Modulus (GPa) = 37.76470 40.47542 39.12006
#
# Velocity S-wave (km/s) = 4.19584 4.34382 4.27047
# Velocity P-wave (km/s) = 6.93983 7.37099 7.15866
#
# Compressibility (1/GPa) = 0.01888300
#
# Stress axis : x y z
#
# Youngs Moduli (GPa) = 137.84653 92.35659 60.88728
#
# Poissons Ratio (x) = 0.22794 0.17051
# Poissons Ratio (y) = 0.34021 0.15483
# Poissons Ratio (z) = 0.38603 0.23486
#
# Static dielectric constant tensor:
#      x y z
#    x 3.694920 0.000000 -0.106130 
#    y 0.000000 4.472150 0.000000 
#    z -0.106130 0.000000 3.731580 
# 
# 
# High freq. dielectric constant tensor:
#      x y z
#    x 1.862460 0.000000 0.007810 
#    y 0.000000 1.856740 0.000000 
#    z 0.007810 0.000000 1.835420 
# 
# From -- ./inp_files/56968.got.cif
#   From: 2010.06.25/outbox.cif.g09.slc.cpg/sg15_29_cif.got.tgz:56968.got - 2010.06.28 07:06:18.
