data_PCOD8154011
_publ_section_title
;
Structure prediction by ZEFSAII (Michael W. Deem and Ramdas Pophale) SiO2 
 PCOD8154011
Probable space group: C 2/C
;
_chemical_formula_sum "Si O2"
_cell_formula_units_Z 36
_cell_length_a 20.554809
_cell_length_b 9.233656
_cell_length_c 12.679379
_cell_angle_alpha 90.000000
_cell_angle_beta 41.404910
_cell_angle_gamma 90.000000
_cell_volume 1591.598957
_symmetry_space_group_name_H-M "C 2/C"
_symmetry_group_IT_number 15
_symmetry_cell_setting 'monoclinic'
loop_
_space_group_symop_operation_xyz
x,y,z
-x,y,1/2-z
-x,-y,-z
x,-y,1/2+z
1/2+x,1/2+y,z
1/2-x,1/2+y,1/2-z
1/2-x,1/2-y,-z
1/2+x,1/2-y,1/2+z
loop_
_atom_site_type_symbol
_atom_site_label
_atom_site_fract_x
_atom_site_fract_y
_atom_site_fract_z
Si Si1 0.891346 0.168603 0.254263
Si Si2 0.141427 0.296636 0.605794
Si Si3 0.500000 0.433485 0.250000
Si Si4 0.040408 0.658898 0.449855
Si Si5 0.333067 0.112724 0.006751
O O1 0.784495 0.118286 0.346422
O O2 0.880575 0.287039 0.359437
O O3 0.955191 0.031248 0.212204
O O4 0.949540 0.235815 0.085854
O O5 0.250000 0.250000 0.500000
O O6 0.088552 0.171491 0.600311
O O7 0.082402 0.301066 0.786305
O O8 0.134013 0.447733 0.553370
O O9 0.127138 0.671704 0.430941
O O10 0.000000 0.500000 0.500000
#
# Coordination Sequence:
#
# PCOD8154011 Si02
#       5
#     8   8   4   8   8
#     4  11  24  48  74 103 140 200 240 293 354 439
#     4  12  27  47  69 111 147 184 238 308 360 420
#     4  12  24  46  74  98 152 182 242 300 358 426
#     4  12  25  45  79 105 140 195 240 291 365 428
#     4  11  24  49  74 102 151 186 243 294 362 434
#
# _framework density 22.618762
#
# number of rings (size 3 to 8) (size 9 to 14) (size 15 to 20)
#    0.000    0.444    6.667    1.333    0.000    4.444 
#    4.000    0.000    0.000    0.000    0.000    0.000 
#    0.000    0.000    0.000    0.000    0.000    0.000 
#
# Total GULP energy -223232.709285 kJ/mol
# GULP energy per Si atom -12401.817182 kJ/mol
# Density = 2.256728 g / cm^3
# Si number density = 22.618762 Si / 1000 Ang^3
#
#
#
# Elastic Constant Matrix: (Units=GPa)
#
#
# Indices 1 2 3 4 5 6 
#
# 1 68.8565 15.1452 41.0267 0.0000 -21.4073 0.0000
# 2 15.1452 146.5947 56.8645 -0.0001 -18.1189 0.0001
# 3 41.0267 56.8645 137.4917 0.0000 -18.1026 0.0000
# 4 0.0000 -0.0001 0.0000 39.0862 0.0000 -12.8701
# 5 -21.4073 -18.1189 -18.1026 0.0000 40.9728 0.0000
# 6 0.0000 0.0001 0.0000 -12.8701 0.0000 45.9745
#
#
#
# Elastic Compliance Matrix: (Units=1/GPa)
#
#
# Indices 1 2 3 4 5 6 
#
# 1 0.020140 0.001045 -0.005304 0.000000 0.008641 0.000000
# 2 0.001045 0.008377 -0.003416 0.000000 0.002741 0.000000
# 3 -0.005304 -0.003416 0.010304 0.000000 0.000271 0.000000
# 4 0.000000 0.000000 0.000000 0.028182 0.000000 0.007889
# 5 0.008641 0.002741 0.000271 0.000000 0.030253 0.000000
# 6 0.000000 0.000000 0.000000 0.007889 0.000000 0.023960
#
#
# Mechanical properties :
#
#
# Convention : Reuss Voigt Hill
#
# Bulk Modulus (GPa) = 42.60425 64.33508 53.46967
# Shear Modulus (GPa) = 34.62839 41.20047 37.91443
#
# Velocity S-wave (km/s) = 3.91699 4.27255 4.09863
# Velocity P-wave (km/s) = 6.27167 7.26943 6.78890
#
# Compressibility (1/GPa) = 0.02347184
#
# Stress axis : x y z
#
# Youngs Moduli (GPa) = 49.65251 119.36996 97.04843
#
# Poissons Ratio (x) = -0.12471 0.51474
# Poissons Ratio (y) = -0.05187 0.33147
# Poissons Ratio (z) = 0.26336 0.40771
#
# Static dielectric constant tensor:
#      x y z
#    x 4.030080 0.000000 -0.303130 
#    y 0.000000 4.472360 0.000000 
#    z -0.303130 0.000000 3.983310 
# 
# 
# High freq. dielectric constant tensor:
#      x y z
#    x 1.904590 0.000000 -0.023320 
#    y 0.000000 1.913260 0.000000 
#    z -0.023320 0.000000 1.889210 
# 
# From -- ./inp_files/159575.got.cif
#   From: 2010.06.25/outbox.cif.g09.slc.cpg/sg15_80_cif.got.tgz:159575.got - 2010.06.28 07:06:18.
