data_PCOD8154568
_publ_section_title
;
Structure prediction by ZEFSAII (Michael W. Deem and Ramdas Pophale) SiO2 
 PCOD8154568
Probable space group: C 2/C
;
_chemical_formula_sum "Si O2"
_cell_formula_units_Z 40
_cell_length_a 4.891259
_cell_length_b 17.965343
_cell_length_c 21.625316
_cell_angle_alpha 90.000000
_cell_angle_beta 104.384092
_cell_angle_gamma 90.000000
_cell_volume 1840.714749
_symmetry_space_group_name_H-M "C 2/C"
_symmetry_group_IT_number 15
_symmetry_cell_setting 'monoclinic'
loop_
_space_group_symop_operation_xyz
x,y,z
-x,y,1/2-z
-x,-y,-z
x,-y,1/2+z
1/2+x,1/2+y,z
1/2-x,1/2+y,1/2-z
1/2-x,1/2-y,-z
1/2+x,1/2-y,1/2+z
loop_
_atom_site_type_symbol
_atom_site_label
_atom_site_fract_x
_atom_site_fract_y
_atom_site_fract_z
Si Si1 0.085471 0.660816 0.597267
Si Si2 0.596356 0.406120 0.604273
Si Si3 0.300356 0.278701 0.795148
Si Si4 0.928163 0.501320 0.423421
Si Si5 0.990650 0.187047 0.518712
O O1 0.204300 0.705736 0.661949
O O2 0.986237 0.576454 0.605494
O O3 0.352087 0.642041 0.567568
O O4 0.817618 0.709474 0.554405
O O5 0.606106 0.352732 0.663876
O O6 0.397353 0.476907 0.605541
O O7 0.470178 0.360555 0.540039
O O8 0.904119 0.434001 0.602713
O O9 0.500000 0.260238 0.750000
O O10 0.000000 0.294449 0.750000
O O11 0.000000 0.500000 0.500000
O O12 0.750000 0.250000 0.500000
#
# Coordination Sequence:
#
# PCOD8154568 Si02
#       5
#     8   8   8   8   8
#     4  12  25  41  69 100 140 172 220 284 345 412
#     4  12  24  42  69 100 141 172 221 279 347 415
#     4  12  28  49  67  92 131 190 244 279 314 392
#     4  12  23  41  67 112 141 167 204 281 369 428
#     4  12  22  37  68 107 134 167 219 285 355 405
#
# _framework density 21.730689999999999
#
# number of rings (size 3 to 8) (size 9 to 14) (size 15 to 20)
#    0.000    0.000    6.000    4.800    2.800    0.000 
#    0.000    6.000    0.000    0.000    0.000    0.000 
#    0.000    0.000    0.000    0.000    0.000    0.000 
#
# Total GULP energy -247932.105132 kJ/mol
# GULP energy per Si atom -12396.605257 kJ/mol
# Density = 2.168123 g / cm^3
# Si number density = 21.730690 Si / 1000 Ang^3
#
#
#
# Elastic Constant Matrix: (Units=GPa)
#
#
# Indices 1 2 3 4 5 6 
#
# 1 90.6215 -6.2214 32.9832 0.0000 11.9610 0.0000
# 2 -6.2214 108.6807 46.4114 0.0000 -0.2780 0.0000
# 3 32.9832 46.4114 111.0925 0.0000 4.2424 0.0000
# 4 0.0000 0.0000 0.0000 21.9810 0.0000 5.5976
# 5 11.9610 -0.2780 4.2424 0.0000 25.3989 0.0000
# 6 0.0000 0.0000 0.0000 5.5976 0.0000 31.9158
#
#
#
# Elastic Compliance Matrix: (Units=1/GPa)
#
#
# Indices 1 2 3 4 5 6 
#
# 1 0.013853 0.002974 -0.005140 0.000000 -0.005633 0.000000
# 2 0.002974 0.011859 -0.005826 0.000000 -0.000298 0.000000
# 3 -0.005140 -0.005826 0.012954 0.000000 0.000193 0.000000
# 4 0.000000 0.000000 0.000000 0.047621 0.000000 -0.008352
# 5 -0.005633 -0.000298 0.000193 0.000000 0.041989 0.000000
# 6 0.000000 0.000000 0.000000 -0.008352 0.000000 0.032797
#
#
# Mechanical properties :
#
#
# Convention : Reuss Voigt Hill
#
# Bulk Modulus (GPa) = 44.08867 50.74900 47.41883
# Shear Modulus (GPa) = 27.08296 31.67392 29.37844
#
# Velocity S-wave (km/s) = 3.53413 3.82195 3.68085
# Velocity P-wave (km/s) = 6.08162 6.54834 6.31929
#
# Compressibility (1/GPa) = 0.02268156
#
# Stress axis : x y z
#
# Youngs Moduli (GPa) = 72.18425 84.32718 77.19565
#
# Poissons Ratio (x) = -0.25077 0.39681
# Poissons Ratio (y) = -0.21466 0.44972
# Poissons Ratio (z) = 0.37105 0.49127
#
# Static dielectric constant tensor:
#      x y z
#    x 1.069680 0.000000 -0.090470 
#    y 0.000000 4.077200 0.000000 
#    z -0.090470 0.000000 3.772060 
# 
# 
# High freq. dielectric constant tensor:
#      x y z
#    x 1.879140 0.000000 0.003810 
#    y 0.000000 1.863910 0.000000 
#    z 0.003810 0.000000 1.825500 
# 
# From -- ./inp_files/260808.got.cif
#   From: 2010.06.25/outbox.cif.g09.slc.cpg/sg15_131_cif.got.tgz:260808.got - 2010.06.28 07:06:18.
