data_PCOD8154056
_publ_section_title
;
Structure prediction by ZEFSAII (Michael W. Deem and Ramdas Pophale) SiO2 
 PCOD8154056
Probable space group: C 2/C
;
_chemical_formula_sum "Si O2"
_cell_formula_units_Z 48
_cell_length_a 12.342495
_cell_length_b 13.579034
_cell_length_c 30.644600
_cell_angle_alpha 90.000000
_cell_angle_beta 153.597952
_cell_angle_gamma 90.000000
_cell_volume 2283.814805
_symmetry_space_group_name_H-M "C 2/C"
_symmetry_group_IT_number 15
_symmetry_cell_setting 'monoclinic'
loop_
_space_group_symop_operation_xyz
x,y,z
-x,y,1/2-z
-x,-y,-z
x,-y,1/2+z
1/2+x,1/2+y,z
1/2-x,1/2+y,1/2-z
1/2-x,1/2-y,-z
1/2+x,1/2-y,1/2+z
loop_
_atom_site_type_symbol
_atom_site_label
_atom_site_fract_x
_atom_site_fract_y
_atom_site_fract_z
Si Si1 0.141595 0.786078 0.004987
Si Si2 0.051956 0.268274 0.219751
Si Si3 0.855443 0.990602 0.992879
Si Si4 0.107810 0.792579 0.333557
Si Si5 0.919100 0.071200 0.837993
Si Si6 0.639027 0.885451 0.709143
O O1 0.304218 0.752435 0.104278
O O2 0.155812 0.898852 0.996340
O O3 0.250000 0.750000 0.000000
O O4 0.879153 0.745005 0.923108
O O5 0.176555 0.365075 0.245009
O O6 0.228833 0.173443 0.282154
O O7 0.000000 0.293563 0.250000
O O8 0.590876 0.944255 0.891310
O O9 0.000000 0.000000 0.000000
O O10 0.979462 0.924347 0.075736
O O11 0.000000 0.838618 0.250000
O O12 0.106422 0.878647 0.370391
O O13 0.943000 0.696603 0.285225
O O14 0.844895 0.958591 0.802085
#
# Coordination Sequence:
#
# PCOD8154056 Si02
#       6
#     8   8   8   8   8   8
#     4  12  24  46  69  99 134 182 231 277 346 415
#     4  11  25  42  67  97 139 175 217 285 341 406
#     4  12  24  42  71 102 132 175 231 285 337 413
#     4  11  25  44  72  97 137 182 229 285 344 411
#     4  11  25  44  67 101 136 176 228 283 346 405
#     4  11  25  44  66 100 134 177 230 276 343 408
#
# _framework density 21.017465000000001
#
# number of rings (size 3 to 8) (size 9 to 14) (size 15 to 20)
#    0.000    0.667    3.333    5.000    2.333    2.000 
#    0.000    1.667    0.000    0.000    0.000    0.000 
#    0.000    0.000    0.000    0.000    0.000    0.000 
#
# Total GULP energy -297428.964405 kJ/mol
# GULP energy per Si atom -12392.873517 kJ/mol
# Density = 2.096963 g / cm^3
# Si number density = 21.017465 Si / 1000 Ang^3
#
#
#
# Elastic Constant Matrix: (Units=GPa)
#
#
# Indices 1 2 3 4 5 6 
#
# 1 93.5378 51.8616 36.9389 -0.0004 -9.3490 0.0003
# 2 51.8616 110.5185 28.8389 -0.0008 1.0071 0.0002
# 3 36.9389 28.8389 114.3810 -0.0020 -11.1866 0.0002
# 4 -0.0004 -0.0008 -0.0020 17.5851 -0.0002 15.3114
# 5 -9.3490 1.0071 -11.1866 -0.0002 40.1930 0.0000
# 6 0.0003 0.0002 0.0002 15.3114 0.0000 21.2451
#
#
#
# Elastic Compliance Matrix: (Units=1/GPa)
#
#
# Indices 1 2 3 4 5 6 
#
# 1 0.015949 -0.006683 -0.003173 0.000000 0.002994 0.000000
# 2 -0.006683 0.012522 -0.001214 0.000001 -0.002206 -0.000001
# 3 -0.003173 -0.001214 0.010284 0.000003 0.002155 -0.000002
# 4 0.000000 0.000001 0.000003 0.152669 0.000001 -0.110028
# 5 0.002994 -0.002206 0.002155 0.000001 0.026231 -0.000001
# 6 0.000000 -0.000001 -0.000002 -0.110028 -0.000001 0.126367
#
#
# Mechanical properties :
#
#
# Convention : Reuss Voigt Hill
#
# Bulk Modulus (GPa) = 60.19243 61.52403 60.85823
# Shear Modulus (GPa) = 13.45170 29.19116 21.32143
#
# Velocity S-wave (km/s) = 2.53262 3.73084 3.18852
# Velocity P-wave (km/s) = 6.10357 6.92064 6.52491
#
# Compressibility (1/GPa) = 0.01661338
#
# Stress axis : x y z
#
# Youngs Moduli (GPa) = 62.70139 79.86261 97.23619
#
# Poissons Ratio (x) = 0.53376 0.30849
# Poissons Ratio (y) = 0.41906 0.11809
# Poissons Ratio (z) = 0.19893 0.09699
#
# Static dielectric constant tensor:
#      x y z
#    x 3.968890 0.000000 0.050880 
#    y 0.000000 3.813890 0.000000 
#    z 0.050880 0.000000 3.796320 
# 
# 
# High freq. dielectric constant tensor:
#      x y z
#    x 1.832180 0.000000 0.001370 
#    y 0.000000 1.831810 0.000000 
#    z 0.001370 0.000000 1.829410 
# 
# From -- ./inp_files/292999.got.cif
#   From: 2010.06.25/outbox.cif.g09.slc.cpg/sg15_147_cif.got.tgz:292999.got - 2010.06.28 07:06:18.
