data_PCOD8154049
_publ_section_title
;
Structure prediction by ZEFSAII (Michael W. Deem and Ramdas Pophale) SiO2 
 PCOD8154049
Probable space group: C 2/C
;
_chemical_formula_sum "Si O2"
_cell_formula_units_Z 60
_cell_length_a 29.252451
_cell_length_b 8.177420
_cell_length_c 23.837870
_cell_angle_alpha 90.000000
_cell_angle_beta 150.735712
_cell_angle_gamma 90.000000
_cell_volume 2787.479509
_symmetry_space_group_name_H-M "C 2/C"
_symmetry_group_IT_number 15
_symmetry_cell_setting 'monoclinic'
loop_
_space_group_symop_operation_xyz
x,y,z
-x,y,1/2-z
-x,-y,-z
x,-y,1/2+z
1/2+x,1/2+y,z
1/2-x,1/2+y,1/2-z
1/2-x,1/2-y,-z
1/2+x,1/2-y,1/2+z
loop_
_atom_site_type_symbol
_atom_site_label
_atom_site_fract_x
_atom_site_fract_y
_atom_site_fract_z
Si Si1 0.500000 0.468332 0.750000
Si Si2 0.327274 0.839492 0.781919
Si Si3 0.467482 0.330385 0.831213
Si Si4 0.851710 0.294786 0.455703
Si Si5 0.642282 0.842946 0.558319
Si Si6 0.813390 0.863962 0.028595
Si Si7 0.989057 0.106865 0.932757
Si Si8 0.711157 0.878556 0.344106
O O1 0.513090 0.357224 0.819000
O O2 0.595059 0.571516 0.840400
O O3 0.253432 0.707925 0.680180
O O4 0.312542 0.860999 0.832163
O O5 0.429700 0.769968 0.879317
O O6 0.313195 0.012943 0.736393
O O7 0.438406 0.500417 0.829869
O O8 0.381149 0.208830 0.732043
O O9 0.547226 0.260337 0.957827
O O10 0.888426 0.478655 0.495381
O O11 0.856539 0.240442 0.524793
O O12 0.910236 0.168355 0.480377
O O13 0.715680 0.760430 0.594869
O O14 0.750000 0.750000 0.000000
O O15 0.750949 0.012677 0.937657
O O16 0.000000 0.000000 0.000000
#
# Coordination Sequence:
#
# PCOD8154049 Si02
#       8
#     4   8   8   8   8   8   8   8
#     4  12  26  50  76  96 146 188 238 308 362 414
#     4  11  25  41  69 101 147 190 225 290 362 435
#     4  12  26  44  72 101 143 188 238 306 355 431
#     4  11  26  44  69 104 142 185 240 291 362 434
#     4  12  24  43  67 107 144 184 237 297 355 441
#     4  11  27  49  74 102 139 189 245 302 363 433
#     4  12  25  44  69 104 144 189 237 293 362 436
#     4  11  26  45  69 108 142 182 250 289 367 440
#
# _framework density 21.524822
#
# number of rings (size 3 to 8) (size 9 to 14) (size 15 to 20)
#    0.000    0.533    4.000    3.200   11.200    3.733 
#    0.000    0.000    0.000    0.000    0.000    0.000 
#    0.000    0.000    0.000    0.000    0.000    0.000 
#
# Total GULP energy -372146.997726 kJ/mol
# GULP energy per Si atom -12404.899924 kJ/mol
# Density = 2.147583 g / cm^3
# Si number density = 21.524822 Si / 1000 Ang^3
#
#
#
# Elastic Constant Matrix: (Units=GPa)
#
#
# Indices 1 2 3 4 5 6 
#
# 1 121.4784 50.1441 31.8219 0.0000 3.7766 0.0000
# 2 50.1441 114.3031 31.1275 -0.0002 -0.2072 -0.0001
# 3 31.8219 31.1275 98.8565 0.0000 5.5800 0.0000
# 4 0.0000 -0.0002 0.0000 35.0875 0.0000 13.5261
# 5 3.7766 -0.2072 5.5800 0.0000 35.4983 0.0000
# 6 0.0000 -0.0001 0.0000 13.5261 0.0000 41.8243
#
#
#
# Elastic Compliance Matrix: (Units=1/GPa)
#
#
# Indices 1 2 3 4 5 6 
#
# 1 0.010458 -0.004031 -0.002051 0.000000 -0.000814 0.000000
# 2 -0.004031 0.011133 -0.002256 0.000000 0.000848 0.000000
# 3 -0.002051 -0.002256 0.011577 0.000000 -0.001615 0.000000
# 4 0.000000 0.000000 0.000000 0.032559 0.000000 -0.010530
# 5 -0.000814 0.000848 -0.001615 0.000000 0.028516 0.000000
# 6 0.000000 0.000000 0.000000 -0.010530 0.000000 0.027315
#
#
# Mechanical properties :
#
#
# Convention : Reuss Voigt Hill
#
# Bulk Modulus (GPa) = 60.63344 62.31389 61.47366
# Shear Modulus (GPa) = 34.78682 37.25166 36.01924
#
# Velocity S-wave (km/s) = 4.02447 4.16461 4.09514
# Velocity P-wave (km/s) = 7.05871 7.22066 7.14014
#
# Compressibility (1/GPa) = 0.01649255
#
# Stress axis : x y z
#
# Youngs Moduli (GPa) = 95.61624 89.82425 86.37472
#
# Poissons Ratio (x) = 0.36207 0.17719
# Poissons Ratio (y) = 0.38542 0.19484
# Poissons Ratio (z) = 0.19615 0.20263
#
# Static dielectric constant tensor:
#      x y z
#    x 3.836410 0.000000 0.013660 
#    y 0.000000 3.943560 0.000000 
#    z 0.013660 0.000000 3.955050 
# 
# 
# High freq. dielectric constant tensor:
#      x y z
#    x 1.849750 0.000000 0.002300 
#    y 0.000000 1.852390 0.000000 
#    z 0.002300 0.000000 1.850890 
# 
# From -- ./inp_files/283402.got.cif
#   From: 2010.06.25/outbox.cif.g09.slc.cpg/sg15_142_cif.got.tgz:283402.got - 2010.06.28 07:06:18.
