data_PCOD8154120
_publ_section_title
;
Structure prediction by ZEFSAII (Michael W. Deem and Ramdas Pophale) SiO2 
 PCOD8154120
Probable space group: C 2/C
;
_chemical_formula_sum "Si O2"
_cell_formula_units_Z 40
_cell_length_a 13.226103
_cell_length_b 5.036158
_cell_length_c 29.627843
_cell_angle_alpha 90.000000
_cell_angle_beta 62.302814
_cell_angle_gamma 90.000000
_cell_volume 1747.345841
_symmetry_space_group_name_H-M "C 2/C"
_symmetry_group_IT_number 15
_symmetry_cell_setting 'monoclinic'
loop_
_space_group_symop_operation_xyz
x,y,z
-x,y,1/2-z
-x,-y,-z
x,-y,1/2+z
1/2+x,1/2+y,z
1/2-x,1/2+y,1/2-z
1/2-x,1/2-y,-z
1/2+x,1/2-y,1/2+z
loop_
_atom_site_type_symbol
_atom_site_label
_atom_site_fract_x
_atom_site_fract_y
_atom_site_fract_z
Si Si1 0.241317 0.786759 0.606900
Si Si2 0.989826 0.895220 0.799112
Si Si3 0.062529 0.765887 0.369157
Si Si4 0.802890 0.710738 0.440477
Si Si5 0.821603 0.541119 0.725094
O O1 0.352538 0.658743 0.607790
O O2 0.217147 0.588020 0.571149
O O3 0.138057 0.798347 0.664162
O O4 0.253812 0.079431 0.582510
O O5 0.069115 0.641727 0.769465
O O6 0.000000 0.065705 0.750000
O O7 0.049561 0.034598 0.829584
O O8 0.126283 0.504637 0.336155
O O9 0.939247 0.731962 0.416537
O O10 0.750000 0.750000 0.500000
O O11 0.725096 0.769820 0.743036
#
# Coordination Sequence:
#
# PCOD8154120 Si02
#       5
#     8   8   8   8   8
#     4  11  26  45  74 103 140 187 231 291 356 416
#     4  11  25  45  68 102 146 190 236 285 341 416
#     4  11  26  47  72 103 148 181 242 286 347 425
#     4  11  26  49  75 107 140 179 237 300 357 418
#     4  12  24  42  67  96 138 188 229 282 340 408
#
# _framework density 22.891860000000001
#
# number of rings (size 3 to 8) (size 9 to 14) (size 15 to 20)
#    0.000    0.800    4.000    1.800    2.800    2.400 
#    3.600    0.000    0.000    0.000    0.000    0.000 
#    0.000    0.000    0.000    0.000    0.000    0.000 
#
# Total GULP energy -247765.071763 kJ/mol
# GULP energy per Si atom -12388.253588 kJ/mol
# Density = 2.283976 g / cm^3
# Si number density = 22.891860 Si / 1000 Ang^3
#
#
#
# Elastic Constant Matrix: (Units=GPa)
#
#
# Indices 1 2 3 4 5 6 
#
# 1 159.1152 27.8819 63.2125 -0.0004 -10.5819 -0.0004
# 2 27.8819 96.0386 38.3885 -0.0045 -9.4179 -0.0054
# 3 63.2125 38.3885 172.9624 0.0017 -16.5006 -0.0038
# 4 -0.0004 -0.0045 0.0017 29.6848 0.0011 7.8440
# 5 -10.5819 -9.4179 -16.5006 0.0011 31.4875 -0.0021
# 6 -0.0004 -0.0054 -0.0038 7.8440 -0.0021 30.6613
#
#
#
# Elastic Compliance Matrix: (Units=1/GPa)
#
#
# Indices 1 2 3 4 5 6 
#
# 1 0.007498 -0.001126 -0.002402 0.000000 0.000924 0.000000
# 2 -0.001126 0.011742 -0.001995 0.000001 0.002088 0.000002
# 3 -0.002402 -0.001995 0.007335 -0.000001 0.002440 0.000001
# 4 0.000000 0.000001 -0.000001 0.036130 -0.000002 -0.009243
# 5 0.000924 0.002088 0.002440 -0.000002 0.033972 0.000004
# 6 0.000000 0.000002 0.000001 -0.009243 0.000004 0.034979
#
#
# Mechanical properties :
#
#
# Convention : Reuss Voigt Hill
#
# Bulk Modulus (GPa) = 64.40085 76.34245 70.37165
# Shear Modulus (GPa) = 33.81156 38.27561 36.04359
#
# Velocity S-wave (km/s) = 3.84736 4.09347 3.97232
# Velocity P-wave (km/s) = 6.92315 7.46750 7.20047
#
# Compressibility (1/GPa) = 0.01552775
#
# Stress axis : x y z
#
# Youngs Moduli (GPa) = 133.37175 85.16655 136.33005
#
# Poissons Ratio (x) = 0.09589 0.32749
# Poissons Ratio (y) = 0.15017 0.27203
# Poissons Ratio (z) = 0.32038 0.16994
#
# Static dielectric constant tensor:
#      x y z
#    x 4.335570 -0.000010 -0.161870 
#    y -0.000010 4.177320 0.000000 
#    z -0.161870 0.000000 4.141830 
# 
# 
# High freq. dielectric constant tensor:
#      x y z
#    x 1.915740 0.000000 -0.010800 
#    y 0.000000 1.900060 0.000000 
#    z -0.010800 0.000000 1.901650 
# 
# From -- ./inp_files/311896.got.cif
#   From: 2010.06.25/outbox.cif.g09.slc.cpg/sg15_156_cif.got.tgz:311896.got - 2010.06.28 07:06:18.
