data_PCOD8154197
_publ_section_title
;
Structure prediction by ZEFSAII (Michael W. Deem and Ramdas Pophale) SiO2 
 PCOD8154197
Probable space group: C 2/C
;
_chemical_formula_sum "Si O2"
_cell_formula_units_Z 48
_cell_length_a 17.552226
_cell_length_b 8.941908
_cell_length_c 18.422263
_cell_angle_alpha 90.000000
_cell_angle_beta 43.232543
_cell_angle_gamma 90.000000
_cell_volume 1980.483577
_symmetry_space_group_name_H-M "C 2/C"
_symmetry_group_IT_number 15
_symmetry_cell_setting 'monoclinic'
loop_
_space_group_symop_operation_xyz
x,y,z
-x,y,1/2-z
-x,-y,-z
x,-y,1/2+z
1/2+x,1/2+y,z
1/2-x,1/2+y,1/2-z
1/2-x,1/2-y,-z
1/2+x,1/2-y,1/2+z
loop_
_atom_site_type_symbol
_atom_site_label
_atom_site_fract_x
_atom_site_fract_y
_atom_site_fract_z
Si Si1 0.837708 0.546615 0.147900
Si Si2 0.343255 0.627405 0.455027
Si Si3 0.467182 0.880677 0.421096
Si Si4 0.500000 0.962875 0.750000
Si Si5 0.000000 0.956702 0.250000
Si Si6 0.158430 0.170388 0.755077
Si Si7 0.733891 0.158784 0.084060
O O1 0.862460 0.709998 0.165822
O O2 0.710937 0.487831 0.246670
O O3 0.910970 0.418352 0.135752
O O4 0.871829 0.551822 0.039560
O O5 0.250000 0.750000 0.500000
O O6 0.443669 0.703248 0.430693
O O7 0.393385 0.555589 0.347199
O O8 0.295069 0.499062 0.540986
O O9 0.453442 0.941138 0.349109
O O10 0.395981 0.859483 0.803314
O O11 0.957086 0.863324 0.209047
O O12 0.261709 0.235461 0.633143
O O13 0.750000 0.250000 0.000000
#
# Coordination Sequence:
#
# PCOD8154197 Si02
#       7
#     8   8   8   4   4   8   8
#     4  11  28  48  75 108 165 203 259 327 411 478
#     4  12  26  43  77 114 152 196 269 334 383 466
#     4  11  25  46  72 109 154 208 259 318 399 472
#     4  12  22  46  78 104 154 210 260 326 386 460
#     4  12  28  48  82 116 154 204 282 326 388 482
#     4  12  27  49  76 111 155 210 257 328 399 473
#     4  12  25  44  73 113 152 199 267 328 386 455
#
# _framework density 24.236504
#
# number of rings (size 3 to 8) (size 9 to 14) (size 15 to 20)
#    0.000    0.333    5.000    3.000    4.667    2.667 
#    0.000    1.667    0.000    0.000    0.000    0.000 
#    0.000    0.000    0.000    0.000    0.000    0.000 
#
# Total GULP energy -297384.250553 kJ/mol
# GULP energy per Si atom -12391.010440 kJ/mol
# Density = 2.418134 g / cm^3
# Si number density = 24.236504 Si / 1000 Ang^3
#
#
#
# Elastic Constant Matrix: (Units=GPa)
#
#
# Indices 1 2 3 4 5 6 
#
# 1 93.0024 47.8607 31.2166 0.0000 0.2436 0.0000
# 2 47.8607 119.8643 39.3804 0.0000 -4.6411 0.0000
# 3 31.2166 39.3804 118.6648 0.0000 10.9059 0.0000
# 4 0.0000 0.0000 0.0000 50.6483 0.0000 1.3456
# 5 0.2436 -4.6411 10.9059 0.0000 42.1056 0.0000
# 6 0.0000 0.0000 0.0000 1.3456 0.0000 27.0465
#
#
#
# Elastic Compliance Matrix: (Units=1/GPa)
#
#
# Indices 1 2 3 4 5 6 
#
# 1 0.013963 -0.004910 -0.002035 0.000000 -0.000095 0.000000
# 2 -0.004910 0.011238 -0.002617 0.000000 0.001945 0.000000
# 3 -0.002035 -0.002617 0.010097 0.000000 -0.002892 0.000000
# 4 0.000000 0.000000 0.000000 0.019770 0.000000 -0.000984
# 5 -0.000095 0.001945 -0.002892 0.000000 0.024714 0.000000
# 6 0.000000 0.000000 0.000000 -0.000984 0.000000 0.037022
#
#
# Mechanical properties :
#
#
# Convention : Reuss Voigt Hill
#
# Bulk Modulus (GPa) = 61.82745 63.16077 62.49411
# Shear Modulus (GPa) = 35.38113 38.16502 36.77308
#
# Velocity S-wave (km/s) = 3.82491 3.97254 3.89943
# Velocity P-wave (km/s) = 6.71357 6.86718 6.79081
#
# Compressibility (1/GPa) = 0.01617405
#
# Stress axis : x y z
#
# Youngs Moduli (GPa) = 71.62010 88.98094 99.04413
#
# Poissons Ratio (x) = 0.43692 0.20154
# Poissons Ratio (y) = 0.35167 0.25916
# Poissons Ratio (z) = 0.14573 0.23283
#
# Static dielectric constant tensor:
#      x y z
#    x 4.369120 0.000000 0.041560 
#    y 0.000000 4.683900 0.000000 
#    z 0.041560 0.000000 4.315170 
# 
# 
# High freq. dielectric constant tensor:
#      x y z
#    x 1.947580 0.000000 0.003500 
#    y 0.000000 1.980140 0.000000 
#    z 0.003500 0.000000 1.962950 
# 
# From -- ./inp_files/251808.got.cif
#   From: 2010.06.25/outbox.cif.g09.slc.cpg/sg15_126_cif.got.tgz:251808.got - 2010.06.28 07:06:18.
