data_PCOD8154157
_publ_section_title
;
Structure prediction by ZEFSAII (Michael W. Deem and Ramdas Pophale) SiO2 
 PCOD8154157
Probable space group: C 2/C
;
_chemical_formula_sum "Si O2"
_cell_formula_units_Z 40
_cell_length_a 18.478305
_cell_length_b 12.225477
_cell_length_c 11.534140
_cell_angle_alpha 90.000000
_cell_angle_beta 41.438437
_cell_angle_gamma 90.000000
_cell_volume 1724.446492
_symmetry_space_group_name_H-M "C 2/C"
_symmetry_group_IT_number 15
_symmetry_cell_setting 'monoclinic'
loop_
_space_group_symop_operation_xyz
x,y,z
-x,y,1/2-z
-x,-y,-z
x,-y,1/2+z
1/2+x,1/2+y,z
1/2-x,1/2+y,1/2-z
1/2-x,1/2-y,-z
1/2+x,1/2-y,1/2+z
loop_
_atom_site_type_symbol
_atom_site_label
_atom_site_fract_x
_atom_site_fract_y
_atom_site_fract_z
Si Si1 0.318777 0.429875 0.493894
Si Si2 0.218207 0.334304 0.136058
Si Si3 0.970247 0.102282 0.613710
Si Si4 0.165616 0.712487 0.318348
Si Si5 0.492687 0.063530 0.887251
O O1 0.290466 0.555609 0.550860
O O2 0.422976 0.382348 0.436948
O O3 0.355072 0.422644 0.316987
O O4 0.214088 0.353131 0.648858
O O5 0.238039 0.281790 0.238736
O O6 0.091280 0.352174 0.270663
O O7 0.250000 0.250000 0.000000
O O8 0.941718 0.215087 0.582773
O O9 0.000000 0.000000 0.500000
O O10 0.122762 0.626604 0.467189
O O11 0.500000 0.002143 0.750000
O O12 0.500000 0.000000 0.000000
#
# Coordination Sequence:
#
# PCOD8154157 Si02
#       5
#     8   8   8   8   8
#     4  11  26  46  70 111 147 195 252 322 380 461
#     4  12  26  44  79 106 148 202 258 309 390 468
#     4  11  25  45  73 105 146 195 255 312 386 459
#     4  12  25  47  74 105 150 202 253 316 388 461
#     4  12  27  49  75 110 153 203 257 318 388 466
#
# _framework density 23.195848999999999
#
# number of rings (size 3 to 8) (size 9 to 14) (size 15 to 20)
#    0.000    0.400    6.000    1.800    5.600    1.600 
#    7.200    0.000    0.000    0.000    0.000    0.000 
#    0.000    0.000    0.000    0.000    0.000    0.000 
#
# Total GULP energy -247763.984835 kJ/mol
# GULP energy per Si atom -12388.199242 kJ/mol
# Density = 2.314305 g / cm^3
# Si number density = 23.195849 Si / 1000 Ang^3
#
#
#
# Elastic Constant Matrix: (Units=GPa)
#
#
# Indices 1 2 3 4 5 6 
#
# 1 86.1193 29.4835 33.9126 0.0000 9.0158 0.0000
# 2 29.4835 117.4289 56.8299 0.0000 12.0562 0.0000
# 3 33.9126 56.8299 159.1412 0.0000 15.5172 0.0000
# 4 0.0000 0.0000 0.0000 52.5064 0.0000 0.5054
# 5 9.0158 12.0562 15.5172 0.0000 43.9931 0.0000
# 6 0.0000 0.0000 0.0000 0.5054 0.0000 33.3368
#
#
#
# Elastic Compliance Matrix: (Units=1/GPa)
#
#
# Indices 1 2 3 4 5 6 
#
# 1 0.013281 -0.002279 -0.001876 0.000000 -0.001435 0.000000
# 2 -0.002279 0.010793 -0.003237 0.000000 -0.001349 0.000000
# 3 -0.001876 -0.003237 0.007990 0.000000 -0.001547 0.000000
# 4 0.000000 0.000000 0.000000 0.019048 0.000000 -0.000289
# 5 -0.001435 -0.001349 -0.001547 0.000000 0.023940 0.000000
# 6 0.000000 0.000000 0.000000 -0.000289 0.000000 0.030001
#
#
# Mechanical properties :
#
#
# Convention : Reuss Voigt Hill
#
# Bulk Modulus (GPa) = 57.87174 67.01570 62.44372
# Shear Modulus (GPa) = 39.80918 42.13150 40.97034
#
# Velocity S-wave (km/s) = 4.14722 4.26647 4.20727
# Velocity P-wave (km/s) = 6.92358 7.29550 7.11197
#
# Compressibility (1/GPa) = 0.01727959
#
# Stress axis : x y z
#
# Youngs Moduli (GPa) = 75.29424 92.65185 125.15118
#
# Poissons Ratio (x) = 0.21117 0.23483
# Poissons Ratio (y) = 0.17161 0.40512
# Poissons Ratio (z) = 0.14128 0.29992
#
# Static dielectric constant tensor:
#      x y z
#    x 4.472220 0.000000 0.159120 
#    y 0.000000 3.999690 0.000000 
#    z 0.159120 0.000000 4.470820 
# 
# 
# High freq. dielectric constant tensor:
#      x y z
#    x 1.916640 0.000000 -0.001310 
#    y 0.000000 1.910960 0.000000 
#    z -0.001310 0.000000 1.937000 
# 
# From -- ./inp_files/111355.got.cif
#   From: 2010.06.25/outbox.cif.g09.slc.cpg/sg15_56_cif.got.tgz:111355.got - 2010.06.28 07:06:18.
