data_PCOD8154870
_publ_section_title
;
Structure prediction by ZEFSAII (Michael W. Deem and Ramdas Pophale) SiO2 
 PCOD8154870
Probable space group: C 2/C
;
_chemical_formula_sum "Si O2"
_cell_formula_units_Z 40
_cell_length_a 8.680018
_cell_length_b 16.710622
_cell_length_c 10.939330
_cell_angle_alpha 90.000000
_cell_angle_beta 107.786863
_cell_angle_gamma 90.000000
_cell_volume 1510.886689
_symmetry_space_group_name_H-M "C 2/C"
_symmetry_group_IT_number 15
_symmetry_cell_setting 'monoclinic'
loop_
_space_group_symop_operation_xyz
x,y,z
-x,y,1/2-z
-x,-y,-z
x,-y,1/2+z
1/2+x,1/2+y,z
1/2-x,1/2+y,1/2-z
1/2-x,1/2-y,-z
1/2+x,1/2-y,1/2+z
loop_
_atom_site_type_symbol
_atom_site_label
_atom_site_fract_x
_atom_site_fract_y
_atom_site_fract_z
Si Si1 0.974663 0.891519 0.431567
Si Si2 0.276241 0.000163 0.748194
Si Si3 0.169849 0.558881 0.485986
Si Si4 0.654631 0.349876 0.843911
Si Si5 0.989559 0.712589 0.386195
O O1 0.851922 0.926617 0.298954
O O2 0.876337 0.890343 0.533603
O O3 0.043995 0.803565 0.415840
O O4 0.134088 0.946125 0.478639
O O5 0.380736 0.013925 0.899491
O O6 0.387082 0.987383 0.652565
O O7 0.183669 0.916965 0.747343
O O8 0.101876 0.649000 0.484025
O O9 0.500000 0.301587 0.750000
O O10 0.806076 0.290667 0.891643
O O11 0.000000 0.685229 0.250000
#
# Coordination Sequence:
#
# PCOD8154870 Si02
#       5
#     8   8   8   8   8
#     4  12  25  45  76 107 147 194 253 298 369 444
#     4  12  24  45  77 107 142 197 249 297 366 438
#     4  12  25  46  77 107 150 191 252 307 366 435
#     4  12  24  46  73 102 148 195 246 305 365 437
#     4  12  26  47  70 111 151 194 241 311 375 436
#
# _framework density 26.474519999999998
#
# number of rings (size 3 to 8) (size 9 to 14) (size 15 to 20)
#    0.000    0.000    6.000    4.800    0.000    2.400 
#    3.600    0.000    0.000    0.000    0.000    0.000 
#    0.000    0.000    0.000    0.000    0.000    0.000 
#
# Total GULP energy -248029.679392 kJ/mol
# GULP energy per Si atom -12401.483970 kJ/mol
# Density = 2.641426 g / cm^3
# Si number density = 26.474520 Si / 1000 Ang^3
#
#
#
# Elastic Constant Matrix: (Units=GPa)
#
#
# Indices 1 2 3 4 5 6 
#
# 1 92.6752 -4.8854 41.4445 0.0000 -22.3646 0.0000
# 2 -4.8854 94.9946 26.8986 0.0000 -9.6851 0.0000
# 3 41.4445 26.8986 175.3522 0.0000 -12.3194 0.0000
# 4 0.0000 0.0000 0.0000 26.1197 0.0000 10.4745
# 5 -22.3646 -9.6851 -12.3194 0.0000 39.6210 0.0000
# 6 0.0000 0.0000 0.0000 10.4745 0.0000 26.0045
#
#
#
# Elastic Compliance Matrix: (Units=1/GPa)
#
#
# Indices 1 2 3 4 5 6 
#
# 1 0.014176 0.002406 -0.003186 0.000000 0.007599 0.000000
# 2 0.002406 0.011606 -0.002100 0.000000 0.003542 0.000000
# 3 -0.003186 -0.002100 0.006763 0.000000 -0.000209 0.000000
# 4 0.000000 0.000000 0.000000 0.045661 0.000000 -0.018392
# 5 0.007599 0.003542 -0.000209 0.000000 0.030330 0.000000
# 6 0.000000 0.000000 0.000000 -0.018392 0.000000 0.045863
#
#
# Mechanical properties :
#
#
# Convention : Reuss Voigt Hill
#
# Bulk Modulus (GPa) = 37.33361 54.43749 45.88555
# Shear Modulus (GPa) = 29.57053 38.31998 33.94525
#
# Velocity S-wave (km/s) = 3.34570 3.80864 3.58465
# Velocity P-wave (km/s) = 5.39048 6.32043 5.87388
#
# Compressibility (1/GPa) = 0.02678552
#
# Stress axis : x y z
#
# Youngs Moduli (GPa) = 70.54343 86.15890 147.85837
#
# Poissons Ratio (x) = -0.20728 0.47102
# Poissons Ratio (y) = -0.16972 0.31053
# Poissons Ratio (z) = 0.22472 0.18095
#
# Static dielectric constant tensor:
#      x y z
#    x 4.740260 0.000000 -0.099270 
#    y 0.000000 4.370320 0.000000 
#    z -0.099270 0.000000 4.960070 
# 
# 
# High freq. dielectric constant tensor:
#      x y z
#    x 2.080090 0.000000 -0.007730 
#    y 0.000000 2.042190 0.000000 
#    z -0.007730 0.000000 2.080740 
# 
# From -- ./inp_files/76887.got.cif
#   From: 2010.06.25/outbox.cif.g09.slc.cpg/sg15_39_cif.got.tgz:76887.got - 2010.06.28 07:06:18.
