data_PCOD8154126
_publ_section_title
;
Structure prediction by ZEFSAII (Michael W. Deem and Ramdas Pophale) SiO2 
 PCOD8154126
Probable space group: C 2/C
;
_chemical_formula_sum "Si O2"
_cell_formula_units_Z 32
_cell_length_a 8.703023
_cell_length_b 11.373565
_cell_length_c 29.391771
_cell_angle_alpha 90.000000
_cell_angle_beta 149.914783
_cell_angle_gamma 90.000000
_cell_volume 1458.409137
_symmetry_space_group_name_H-M "C 2/C"
_symmetry_group_IT_number 15
_symmetry_cell_setting 'monoclinic'
loop_
_space_group_symop_operation_xyz
x,y,z
-x,y,1/2-z
-x,-y,-z
x,-y,1/2+z
1/2+x,1/2+y,z
1/2-x,1/2+y,1/2-z
1/2-x,1/2-y,-z
1/2+x,1/2-y,1/2+z
loop_
_atom_site_type_symbol
_atom_site_label
_atom_site_fract_x
_atom_site_fract_y
_atom_site_fract_z
Si Si1 0.526981 0.226689 0.633540
Si Si2 0.538575 0.773009 0.833183
Si Si3 0.420568 0.127857 0.996640
Si Si4 0.840618 0.470870 0.572953
O O1 0.696718 0.295758 0.636649
O O2 0.197485 0.281376 0.559113
O O3 0.722585 0.230360 0.729906
O O4 0.515130 0.093601 0.611312
O O5 0.486322 0.899112 0.843137
O O6 0.630952 0.676351 0.894548
O O7 0.337647 0.114725 0.028365
O O8 0.500000 0.000000 0.000000
O O9 0.500000 0.500000 0.500000
#
# Coordination Sequence:
#
# PCOD8154126 Si02
#       4
#     8   8   8   8
#     4  11  26  46  67 103 141 174 230 282 342 407
#     4  11  25  45  69 103 135 180 227 283 340 407
#     4  12  24  45  73  97 139 183 223 283 345 398
#     4  12  25  46  70  98 138 181 231 279 338 410
#
# _framework density 21.941716
#
# number of rings (size 3 to 8) (size 9 to 14) (size 15 to 20)
#    0.000    0.500    5.000    3.000    3.500    1.000 
#    0.000    0.000    0.000    0.000    0.000    0.000 
#    0.000    0.000    0.000    0.000    0.000    0.000 
#
# Total GULP energy -198456.524191 kJ/mol
# GULP energy per Si atom -12403.532762 kJ/mol
# Density = 2.189178 g / cm^3
# Si number density = 21.941716 Si / 1000 Ang^3
#
#
#
# Elastic Constant Matrix: (Units=GPa)
#
#
# Indices 1 2 3 4 5 6 
#
# 1 89.3571 23.3778 21.9336 -0.0003 -23.1571 -0.0002
# 2 23.3778 116.2333 33.0883 -0.0002 -16.9814 -0.0001
# 3 21.9336 33.0883 113.9932 -0.0006 -29.3695 -0.0004
# 4 -0.0003 -0.0002 -0.0006 35.0544 -0.0004 -13.8575
# 5 -23.1571 -16.9814 -29.3695 -0.0004 32.0293 -0.0002
# 6 -0.0002 -0.0001 -0.0004 -13.8575 -0.0002 38.5881
#
#
#
# Elastic Compliance Matrix: (Units=1/GPa)
#
#
# Indices 1 2 3 4 5 6 
#
# 1 0.013996 -0.001479 0.000185 0.000000 0.009504 0.000000
# 2 -0.001479 0.009799 -0.001960 0.000000 0.002329 0.000000
# 3 0.000185 -0.001960 0.011879 0.000000 0.009987 0.000000
# 4 0.000000 0.000000 0.000000 0.033247 0.000001 0.011939
# 5 0.009504 0.002329 0.009987 0.000001 0.048486 0.000001
# 6 0.000000 0.000000 0.000000 0.011939 0.000001 0.030202
#
#
# Mechanical properties :
#
#
# Convention : Reuss Voigt Hill
#
# Bulk Modulus (GPa) = 34.28620 52.93145 43.60882
# Shear Modulus (GPa) = 30.51801 37.21328 33.86565
#
# Velocity S-wave (km/s) = 3.73348 4.12273 3.93292
# Velocity P-wave (km/s) = 5.85193 6.84387 6.36725
#
# Compressibility (1/GPa) = 0.02916626
#
# Stress axis : x y z
#
# Youngs Moduli (GPa) = 71.45072 102.05138 84.18361
#
# Poissons Ratio (x) = 0.15094 -0.01559
# Poissons Ratio (y) = 0.10568 0.16497
# Poissons Ratio (z) = -0.01323 0.19999
#
# Static dielectric constant tensor:
#      x y z
#    x 4.165230 0.000000 -0.292430 
#    y 0.000000 4.371870 0.000000 
#    z -0.292430 0.000000 4.013980 
# 
# 
# High freq. dielectric constant tensor:
#      x y z
#    x 1.871120 0.000000 -0.016820 
#    y 0.000000 1.876390 0.000000 
#    z -0.016820 0.000000 1.862220 
# 
# From -- ./inp_files/131718.got.cif
#   From: 2010.06.25/outbox.cif.g09.slc.cpg/sg15_66_cif.got.tgz:131718.got - 2010.06.28 07:06:18.
