data_PCOD8154287
_publ_section_title
;
Structure prediction by ZEFSAII (Michael W. Deem and Ramdas Pophale) SiO2 
 PCOD8154287
Probable space group: C 2/C
;
_chemical_formula_sum "Si O2"
_cell_formula_units_Z 40
_cell_length_a 15.523959
_cell_length_b 12.034221
_cell_length_c 16.730787
_cell_angle_alpha 90.000000
_cell_angle_beta 145.390558
_cell_angle_gamma 90.000000
_cell_volume 1775.290436
_symmetry_space_group_name_H-M "C 2/C"
_symmetry_group_IT_number 15
_symmetry_cell_setting 'monoclinic'
loop_
_space_group_symop_operation_xyz
x,y,z
-x,y,1/2-z
-x,-y,-z
x,-y,1/2+z
1/2+x,1/2+y,z
1/2-x,1/2+y,1/2-z
1/2-x,1/2-y,-z
1/2+x,1/2-y,1/2+z
loop_
_atom_site_type_symbol
_atom_site_label
_atom_site_fract_x
_atom_site_fract_y
_atom_site_fract_z
Si Si1 0.637235 0.483510 0.544966
Si Si2 0.374925 0.870348 0.830512
Si Si3 0.176246 0.642803 0.905415
Si Si4 0.326851 0.005991 0.444806
Si Si5 0.556514 0.655916 0.708499
O O1 0.500000 0.500000 0.500000
O O2 0.750391 0.393949 0.668458
O O3 0.727240 0.599644 0.597510
O O4 0.570837 0.433630 0.412404
O O5 0.434652 0.747241 0.855708
O O6 0.307060 0.888338 0.868428
O O7 0.503246 0.962579 0.924138
O O8 0.000000 0.664586 0.750000
O O9 0.250000 0.750000 0.000000
O O10 0.202016 0.544888 0.987991
O O11 0.217445 0.905080 0.337434
O O12 0.500000 0.707880 0.750000
#
# Coordination Sequence:
#
# PCOD8154287 Si02
#       5
#     8   8   8   8   8
#     4  12  26  48  72 110 151 189 249 313 371 449
#     4  11  26  45  73 104 145 192 243 306 372 440
#     4  12  29  49  79 106 148 201 251 309 377 449
#     4  11  25  49  70 105 149 188 249 305 367 451
#     4  12  26  44  77 109 144 192 244 307 379 446
#
# _framework density 22.531524000000001
#
# number of rings (size 3 to 8) (size 9 to 14) (size 15 to 20)
#    0.000    0.400    6.000    1.200    8.400    1.600 
#    0.000    0.000    0.000    0.000    0.000    0.000 
#    0.000    0.000    0.000    0.000    0.000    0.000 
#
# Total GULP energy -247972.320342 kJ/mol
# GULP energy per Si atom -12398.616017 kJ/mol
# Density = 2.248024 g / cm^3
# Si number density = 22.531524 Si / 1000 Ang^3
#
#
#
# Elastic Constant Matrix: (Units=GPa)
#
#
# Indices 1 2 3 4 5 6 
#
# 1 120.4917 41.6563 33.3252 -0.0001 7.3446 0.0000
# 2 41.6563 95.7155 30.7373 -0.0002 6.5832 -0.0001
# 3 33.3252 30.7373 125.0167 -0.0005 10.6517 -0.0002
# 4 -0.0001 -0.0002 -0.0005 43.2930 -0.0002 -2.9538
# 5 7.3446 6.5832 10.6517 -0.0002 33.2415 -0.0001
# 6 0.0000 -0.0001 -0.0002 -2.9538 -0.0001 36.0326
#
#
#
# Elastic Compliance Matrix: (Units=1/GPa)
#
#
# Indices 1 2 3 4 5 6 
#
# 1 0.010139 -0.003806 -0.001686 0.000000 -0.000946 0.000000
# 2 -0.003806 0.012835 -0.002052 0.000000 -0.001043 0.000000
# 3 -0.001686 -0.002052 0.009136 0.000000 -0.002148 0.000000
# 4 0.000000 0.000000 0.000000 0.023228 0.000000 0.001904
# 5 -0.000946 -0.001043 -0.002148 0.000000 0.031187 0.000000
# 6 0.000000 0.000000 0.000000 0.001904 0.000000 0.027909
#
#
# Mechanical properties :
#
#
# Convention : Reuss Voigt Hill
#
# Bulk Modulus (GPa) = 58.75135 61.40683 60.07909
# Shear Modulus (GPa) = 36.98303 38.21376 37.59840
#
# Velocity S-wave (km/s) = 4.05580 4.12274 4.08941
# Velocity P-wave (km/s) = 6.93286 7.06934 7.00143
#
# Compressibility (1/GPa) = 0.01702089
#
# Stress axis : x y z
#
# Youngs Moduli (GPa) = 98.62670 77.91284 109.45609
#
# Poissons Ratio (x) = 0.29654 0.18459
# Poissons Ratio (y) = 0.37538 0.22462
# Poissons Ratio (z) = 0.16632 0.15989
#
# Static dielectric constant tensor:
#      x y z
#    x 4.606330 0.000000 -0.350320 
#    y 0.000000 3.798300 0.000000 
#    z -0.350320 0.000000 4.522920 
# 
# 
# High freq. dielectric constant tensor:
#      x y z
#    x 1.898750 0.000000 0.000970 
#    y 0.000000 1.874660 0.000000 
#    z 0.000970 0.000000 1.908250 
# 
# From -- ./inp_files/210768.got.cif
#   From: 2010.06.25/outbox.cif.g09.slc.cpg/sg15_106_cif.got.tgz:210768.got - 2010.06.28 07:06:18.
