data_PCOD8154366
_publ_section_title
;
Structure prediction by ZEFSAII (Michael W. Deem and Ramdas Pophale) SiO2 
 PCOD8154366
Probable space group: C 2/C
;
_chemical_formula_sum "Si O2"
_cell_formula_units_Z 40
_cell_length_a 14.645990
_cell_length_b 8.315889
_cell_length_c 15.331224
_cell_angle_alpha 90.000000
_cell_angle_beta 67.528025
_cell_angle_gamma 90.000000
_cell_volume 1725.470429
_symmetry_space_group_name_H-M "C 2/C"
_symmetry_group_IT_number 15
_symmetry_cell_setting 'monoclinic'
loop_
_space_group_symop_operation_xyz
x,y,z
-x,y,1/2-z
-x,-y,-z
x,-y,1/2+z
1/2+x,1/2+y,z
1/2-x,1/2+y,1/2-z
1/2-x,1/2-y,-z
1/2+x,1/2-y,1/2+z
loop_
_atom_site_type_symbol
_atom_site_label
_atom_site_fract_x
_atom_site_fract_y
_atom_site_fract_z
Si Si1 0.862661 0.750500 0.237268
Si Si2 0.531307 0.676779 0.459404
Si Si3 0.341841 0.621857 0.247378
Si Si4 0.143993 0.289971 0.076224
Si Si5 0.921609 0.350704 0.890607
O O1 0.773064 0.661106 0.222656
O O2 0.858772 0.750485 0.343683
O O3 0.960933 0.656556 0.170789
O O4 0.862587 0.937519 0.215213
O O5 0.500000 0.500000 0.500000
O O6 0.593916 0.708675 0.349433
O O7 0.426722 0.757365 0.479331
O O8 0.594593 0.770598 0.509411
O O9 0.377299 0.679463 0.330274
O O10 0.127190 0.475416 0.104243
O O11 0.250000 0.250000 0.000000
#
# Coordination Sequence:
#
# PCOD8154366 Si02
#       5
#     8   8   8   8   8
#     4  11  26  46  75 104 149 190 250 299 373 439
#     4  12  26  47  74 105 150 191 248 308 373 444
#     4  12  27  47  75 108 145 199 246 307 377 444
#     4  12  29  48  75 108 150 195 251 302 376 447
#     4  11  26  49  73 106 149 193 245 310 366 442
#
# _framework density 23.182085000000001
#
# number of rings (size 3 to 8) (size 9 to 14) (size 15 to 20)
#    0.000    0.400    2.000    4.800   16.800    0.800 
#    0.000    0.000    0.000    0.000    0.000    0.000 
#    0.000    0.000    0.000    0.000    0.000    0.000 
#
# Total GULP energy -247933.273915 kJ/mol
# GULP energy per Si atom -12396.663696 kJ/mol
# Density = 2.312932 g / cm^3
# Si number density = 23.182085 Si / 1000 Ang^3
#
#
#
# Elastic Constant Matrix: (Units=GPa)
#
#
# Indices 1 2 3 4 5 6 
#
# 1 78.4751 28.7489 9.6572 0.0000 7.9436 0.0000
# 2 28.7489 102.0102 28.7753 0.0000 -15.0885 0.0000
# 3 9.6572 28.7753 118.7336 0.0000 2.9619 0.0000
# 4 0.0000 0.0000 0.0000 36.9047 0.0000 6.6348
# 5 7.9436 -15.0885 2.9619 0.0000 43.6858 0.0000
# 6 0.0000 0.0000 0.0000 6.6348 0.0000 44.4015
#
#
#
# Elastic Compliance Matrix: (Units=1/GPa)
#
#
# Indices 1 2 3 4 5 6 
#
# 1 0.014974 -0.004896 0.000079 0.000000 -0.004419 0.000000
# 2 -0.004896 0.012798 -0.002841 0.000000 0.005503 0.000000
# 3 0.000079 -0.002841 0.009145 0.000000 -0.001615 0.000000
# 4 0.000000 0.000000 0.000000 0.027845 0.000000 -0.004161
# 5 -0.004419 0.005503 -0.001615 0.000000 0.025705 0.000000
# 6 0.000000 0.000000 0.000000 -0.004161 0.000000 0.023144
#
#
# Mechanical properties :
#
#
# Convention : Reuss Voigt Hill
#
# Bulk Modulus (GPa) = 46.29389 48.17575 47.23482
# Shear Modulus (GPa) = 36.73082 40.46757 38.59920
#
# Velocity S-wave (km/s) = 3.98483 4.18262 4.08492
# Velocity P-wave (km/s) = 6.41754 6.64472 6.53212
#
# Compressibility (1/GPa) = 0.02160112
#
# Stress axis : x y z
#
# Youngs Moduli (GPa) = 66.78190 78.13716 109.35480
#
# Poissons Ratio (x) = 0.38256 -0.00862
# Poissons Ratio (y) = 0.32696 0.31064
# Poissons Ratio (z) = -0.00527 0.22196
#
# Static dielectric constant tensor:
#      x y z
#    x 4.358490 0.000000 0.213570 
#    y 0.000000 -8.324640 0.000000 
#    z 0.213570 0.000000 4.151870 
# 
# 
# High freq. dielectric constant tensor:
#      x y z
#    x 1.930050 0.000000 0.013110 
#    y 0.000000 1.917910 0.000000 
#    z 0.013110 0.000000 1.932600 
# 
# From -- ./inp_files/150564.got.cif
#   From: 2010.06.25/outbox.cif.g09.slc.cpg/sg15_76_cif.got.tgz:150564.got - 2010.06.28 07:06:18.
