data_PCOD8154633
_publ_section_title
;
Structure prediction by ZEFSAII (Michael W. Deem and Ramdas Pophale) SiO2 
 PCOD8154633
Probable space group: C 2/C
;
_chemical_formula_sum "Si O2"
_cell_formula_units_Z 60
_cell_length_a 15.171766
_cell_length_b 11.710382
_cell_length_c 18.255195
_cell_angle_alpha 90.000000
_cell_angle_beta 116.835480
_cell_angle_gamma 90.000000
_cell_volume 2894.061156
_symmetry_space_group_name_H-M "C 2/C"
_symmetry_group_IT_number 15
_symmetry_cell_setting 'monoclinic'
loop_
_space_group_symop_operation_xyz
x,y,z
-x,y,1/2-z
-x,-y,-z
x,-y,1/2+z
1/2+x,1/2+y,z
1/2-x,1/2+y,1/2-z
1/2-x,1/2-y,-z
1/2+x,1/2-y,1/2+z
loop_
_atom_site_type_symbol
_atom_site_label
_atom_site_fract_x
_atom_site_fract_y
_atom_site_fract_z
Si Si1 0.485317 0.496386 0.580796
Si Si2 0.235729 0.046939 0.458640
Si Si3 0.482573 0.753255 0.884392
Si Si4 0.681161 0.807622 0.035292
Si Si5 0.000000 0.405151 0.750000
Si Si6 0.735723 0.783660 0.659397
Si Si7 0.808634 0.549717 0.642356
Si Si8 0.325571 0.367352 0.839333
O O1 0.500000 0.500000 0.500000
O O2 0.376165 0.458162 0.557621
O O3 0.499000 0.619707 0.623799
O O4 0.562693 0.402605 0.641055
O O5 0.237443 0.148443 0.402569
O O6 0.304721 0.074098 0.554174
O O7 0.276770 0.933411 0.434586
O O8 0.473578 0.821440 0.805923
O O9 0.380756 0.762495 0.889893
O O10 0.568967 0.809220 0.965173
O O11 0.682761 0.745295 0.114004
O O12 0.750000 0.750000 0.000000
O O13 0.090367 0.487650 0.800595
O O14 0.798594 0.666867 0.683567
O O15 0.762760 0.852124 0.742544
O O16 0.716858 0.470247 0.628597
#
# Coordination Sequence:
#
# PCOD8154633 Si02
#       8
#     8   8   8   8   4   8   8   8
#     4  12  22  43  75 101 135 190 239 289 349 421
#     4  12  26  46  75 104 140 186 242 287 356 431
#     4  12  23  43  72 105 137 189 237 281 362 425
#     4  12  22  43  74 105 136 181 238 296 345 422
#     4  12  26  42  74 104 140 188 236 302 358 416
#     4  12  30  45  69 106 146 186 231 297 358 431
#     4  12  24  49  67  99 148 186 227 292 359 422
#     4  12  25  44  71 104 142 182 236 299 354 408
#
# _framework density 20.732111
#
# number of rings (size 3 to 8) (size 9 to 14) (size 15 to 20)
#    0.000    0.000    9.333    0.400    1.867    3.200 
#    2.400    0.000    0.000    0.000    0.000    0.000 
#    0.000    0.000    0.000    0.000    0.000    0.000 
#
# Total GULP energy -372135.600039 kJ/mol
# GULP energy per Si atom -12404.520001 kJ/mol
# Density = 2.068492 g / cm^3
# Si number density = 20.732111 Si / 1000 Ang^3
#
#
#
# Elastic Constant Matrix: (Units=GPa)
#
#
# Indices 1 2 3 4 5 6 
#
# 1 115.1163 55.5793 44.9968 0.0000 7.3616 0.0000
# 2 55.5793 86.7707 27.9617 0.0000 -3.0005 0.0000
# 3 44.9968 27.9617 118.9472 0.0000 -0.5246 0.0000
# 4 0.0000 0.0000 0.0000 28.2501 0.0000 -3.3919
# 5 7.3616 -3.0005 -0.5246 0.0000 32.2966 0.0000
# 6 0.0000 0.0000 0.0000 -3.3919 0.0000 43.2791
#
#
#
# Elastic Compliance Matrix: (Units=1/GPa)
#
#
# Indices 1 2 3 4 5 6 
#
# 1 0.014239 -0.008136 -0.003492 0.000000 -0.004058 0.000000
# 2 -0.008136 0.017158 -0.000941 0.000000 0.003433 0.000000
# 3 -0.003492 -0.000941 0.009953 0.000000 0.000870 0.000000
# 4 0.000000 0.000000 0.000000 0.035734 0.000000 0.002801
# 5 -0.004058 0.003433 0.000870 0.000000 0.032221 0.000000
# 6 0.000000 0.000000 0.000000 0.002801 0.000000 0.023325
#
#
# Mechanical properties :
#
#
# Convention : Reuss Voigt Hill
#
# Bulk Modulus (GPa) = 61.67733 64.21221 62.94477
# Shear Modulus (GPa) = 30.64252 33.58494 32.11373
#
# Velocity S-wave (km/s) = 3.84868 4.02922 3.93998
# Velocity P-wave (km/s) = 7.04017 7.25850 7.15017
#
# Compressibility (1/GPa) = 0.01621341
#
# Stress axis : x y z
#
# Youngs Moduli (GPa) = 70.22772 58.28304 100.47202
#
# Poissons Ratio (x) = 0.47418 0.35085
# Poissons Ratio (y) = 0.57136 0.09450
# Poissons Ratio (z) = 0.24524 0.05482
#
# Static dielectric constant tensor:
#      x y z
#    x 3.788190 0.000000 0.017480 
#    y 0.000000 4.135160 0.000000 
#    z 0.017480 0.000000 3.705770 
# 
# 
# High freq. dielectric constant tensor:
#      x y z
#    x 1.824280 0.000000 0.008800 
#    y 0.000000 1.817580 0.000000 
#    z 0.008800 0.000000 1.812450 
# 
# From -- ./inp_files/204422.got.cif
#   From: 2010.06.25/outbox.cif.g09.slc.cpg/sg15_103_cif.got.tgz:204422.got - 2010.06.28 07:06:18.
