data_PCOD8154262
_publ_section_title
;
Structure prediction by ZEFSAII (Michael W. Deem and Ramdas Pophale) SiO2 
 PCOD8154262
Probable space group: C 2/C
;
_chemical_formula_sum "Si O2"
_cell_formula_units_Z 52
_cell_length_a 7.970178
_cell_length_b 21.874182
_cell_length_c 17.572489
_cell_angle_alpha 90.000000
_cell_angle_beta 127.647738
_cell_angle_gamma 90.000000
_cell_volume 2425.706213
_symmetry_space_group_name_H-M "C 2/C"
_symmetry_group_IT_number 15
_symmetry_cell_setting 'monoclinic'
loop_
_space_group_symop_operation_xyz
x,y,z
-x,y,1/2-z
-x,-y,-z
x,-y,1/2+z
1/2+x,1/2+y,z
1/2-x,1/2+y,1/2-z
1/2-x,1/2-y,-z
1/2+x,1/2-y,1/2+z
loop_
_atom_site_type_symbol
_atom_site_label
_atom_site_fract_x
_atom_site_fract_y
_atom_site_fract_z
Si Si1 0.914442 0.711980 0.311367
Si Si2 0.747631 0.122091 0.456957
Si Si3 0.561104 0.005122 0.932311
Si Si4 0.958238 0.148436 0.827510
Si Si5 0.000000 0.143259 0.250000
Si Si6 0.534400 0.572500 0.410751
Si Si7 0.218251 0.532439 0.771838
O O1 0.892984 0.782596 0.328558
O O2 0.685393 0.683157 0.263588
O O3 0.000000 0.703333 0.250000
O O4 0.090792 0.679482 0.410942
O O5 0.915258 0.120839 0.433157
O O6 0.841279 0.128547 0.567135
O O7 0.620582 0.059527 0.412532
O O8 0.339983 0.026723 0.833185
O O9 0.759198 0.052333 0.983031
O O10 0.500000 0.000000 0.000000
O O11 0.772969 0.102882 0.802738
O O12 0.000000 0.139041 0.750000
O O13 0.906135 0.103353 0.153910
O O14 0.400178 0.511939 0.353242
O O15 0.000000 0.513581 0.750000
#
# Coordination Sequence:
#
# PCOD8154262 Si02
#       7
#     8   8   8   8   4   8   8
#     4  11  25  48  71 100 137 191 236 292 345 406
#     4  12  22  45  70 100 139 186 234 284 358 412
#     4  12  24  38  66 102 140 178 225 281 352 417
#     4  11  26  45  70  96 140 184 240 287 347 420
#     4  12  26  44  74 102 140 184 238 284 352 428
#     4  12  24  43  68 108 139 180 233 289 347 436
#     4  12  24  41  66 101 139 180 218 286 356 405
#
# _framework density 21.437056999999999
#
# number of rings (size 3 to 8) (size 9 to 14) (size 15 to 20)
#    0.000    0.308    4.615    5.538    2.154    0.000 
#    0.000    0.769    0.000    0.000    0.000    0.000 
#    0.000    0.000    0.000    0.000    0.000    0.000 
#
# Total GULP energy -322289.189286 kJ/mol
# GULP energy per Si atom -12395.738049 kJ/mol
# Density = 2.138827 g / cm^3
# Si number density = 21.437057 Si / 1000 Ang^3
#
#
#
# Elastic Constant Matrix: (Units=GPa)
#
#
# Indices 1 2 3 4 5 6 
#
# 1 87.5614 34.8291 8.4778 0.0000 -5.3888 0.0000
# 2 34.8291 128.6187 41.9876 0.0000 7.5912 0.0000
# 3 8.4778 41.9876 117.4147 0.0000 0.0319 0.0000
# 4 0.0000 0.0000 0.0000 27.2904 0.0000 -2.3413
# 5 -5.3888 7.5912 0.0319 0.0000 37.3823 0.0000
# 6 0.0000 0.0000 0.0000 -2.3413 0.0000 26.0933
#
#
#
# Elastic Compliance Matrix: (Units=1/GPa)
#
#
# Indices 1 2 3 4 5 6 
#
# 1 0.013069 -0.003836 0.000427 0.000000 0.002662 0.000000
# 2 -0.003836 0.010049 -0.003316 0.000000 -0.002591 0.000000
# 3 0.000427 -0.003316 0.009672 0.000000 0.000727 0.000000
# 4 0.000000 0.000000 0.000000 0.036927 0.000000 0.003313
# 5 0.002662 -0.002591 0.000727 0.000000 0.027660 0.000000
# 6 0.000000 0.000000 0.000000 0.003313 0.000000 0.038621
#
#
# Mechanical properties :
#
#
# Convention : Reuss Voigt Hill
#
# Bulk Modulus (GPa) = 51.70396 56.02042 53.86219
# Shear Modulus (GPa) = 32.07330 34.70653 33.38992
#
# Velocity S-wave (km/s) = 3.87222 4.02804 3.95090
# Velocity P-wave (km/s) = 6.64556 6.91540 6.78182
#
# Compressibility (1/GPa) = 0.01934088
#
# Stress axis : x y z
#
# Youngs Moduli (GPa) = 76.51872 99.51306 103.39625
#
# Poissons Ratio (x) = 0.38169 -0.04418
# Poissons Ratio (y) = 0.29349 0.34285
# Poissons Ratio (z) = -0.03269 0.32997
#
# Static dielectric constant tensor:
#      x y z
#    x 3.637010 0.000000 -0.503400 
#    y 0.000000 3.930210 0.000000 
#    z -0.503400 0.000000 3.540500 
# 
# 
# High freq. dielectric constant tensor:
#      x y z
#    x 1.842280 0.000000 -0.007540 
#    y 0.000000 1.836900 0.000000 
#    z -0.007540 0.000000 1.862990 
# 
# From -- ./inp_files/192614.got.cif
#   From: 2010.06.25/outbox.cif.g09.slc.cpg/sg15_97_cif.got.tgz:192614.got - 2010.06.28 07:06:18.
