data_PCOD8154397
_publ_section_title
;
Structure prediction by ZEFSAII (Michael W. Deem and Ramdas Pophale) SiO2 
 PCOD8154397
Probable space group: C 2/C
;
_chemical_formula_sum "Si O2"
_cell_formula_units_Z 36
_cell_length_a 11.737070
_cell_length_b 14.912118
_cell_length_c 13.768518
_cell_angle_alpha 90.000000
_cell_angle_beta 43.607057
_cell_angle_gamma 90.000000
_cell_volume 1662.080094
_symmetry_space_group_name_H-M "C 2/C"
_symmetry_group_IT_number 15
_symmetry_cell_setting 'monoclinic'
loop_
_space_group_symop_operation_xyz
x,y,z
-x,y,1/2-z
-x,-y,-z
x,-y,1/2+z
1/2+x,1/2+y,z
1/2-x,1/2+y,1/2-z
1/2-x,1/2-y,-z
1/2+x,1/2-y,1/2+z
loop_
_atom_site_type_symbol
_atom_site_label
_atom_site_fract_x
_atom_site_fract_y
_atom_site_fract_z
Si Si1 0.719725 0.759384 0.280903
Si Si2 0.422087 0.211887 0.431979
Si Si3 0.216900 0.933340 0.354749
Si Si4 0.568913 0.575742 0.316145
Si Si5 0.500000 0.055427 0.250000
O O1 0.588292 0.781394 0.445879
O O2 0.693044 0.839647 0.221919
O O3 0.687538 0.663121 0.250159
O O4 0.910219 0.764611 0.203149
O O5 0.250000 0.250000 0.500000
O O6 0.450031 0.112108 0.375597
O O7 0.069813 0.909862 0.517762
O O8 0.161821 0.983631 0.288866
O O9 0.340060 0.997063 0.334216
O O10 0.500000 0.565672 0.250000
#
# Coordination Sequence:
#
# PCOD8154397 Si02
#       5
#     8   8   8   8   4
#     4  12  25  46  73 104 145 188 241 292 362 426
#     4  12  23  44  72 105 141 186 240 299 350 419
#     4  11  27  47  69 108 145 186 245 298 352 430
#     4  11  26  48  71 104 149 192 235 295 364 427
#     4  12  26  46  72 106 144 188 250 294 356 428
#
# _framework density 21.659604000000002
#
# number of rings (size 3 to 8) (size 9 to 14) (size 15 to 20)
#    0.000    0.444    6.667    0.000    7.778    3.556 
#    0.000    0.000    0.000    0.000    0.000    0.000 
#    0.000    0.000    0.000    0.000    0.000    0.000 
#
# Total GULP energy -223123.616950 kJ/mol
# GULP energy per Si atom -12395.756497 kJ/mol
# Density = 2.161031 g / cm^3
# Si number density = 21.659604 Si / 1000 Ang^3
#
#
#
# Elastic Constant Matrix: (Units=GPa)
#
#
# Indices 1 2 3 4 5 6 
#
# 1 82.0686 30.1456 21.0041 -0.0002 11.0610 -0.0003
# 2 30.1456 127.9435 41.3741 -0.0002 7.4522 -0.0002
# 3 21.0041 41.3741 83.8943 -0.0003 -2.5175 -0.0007
# 4 -0.0002 -0.0002 -0.0003 -5.1641 0.0002 -55.8800
# 5 11.0610 7.4522 -2.5175 0.0002 34.0841 0.0003
# 6 -0.0003 -0.0002 -0.0007 -55.8800 0.0003 -54.2113
#
#
#
# Elastic Compliance Matrix: (Units=1/GPa)
#
#
# Indices 1 2 3 4 5 6 
#
# 1 0.014263 -0.002275 -0.002579 0.000000 -0.004322 0.000000
# 2 -0.002275 0.009858 -0.004344 0.000000 -0.001738 0.000000
# 3 -0.002579 -0.004344 0.014794 0.000000 0.002879 0.000000
# 4 0.000000 0.000000 0.000000 0.019071 0.000000 -0.019658
# 5 -0.004322 -0.001738 0.002879 0.000000 0.031334 0.000000
# 6 0.000000 0.000000 0.000000 -0.019658 0.000000 0.001817
#
#
# Mechanical properties :
#
#
# Convention : Reuss Voigt Hill
#
# Bulk Modulus (GPa) = 48.73428 53.21711 50.97570
# Shear Modulus (GPa) = 42.96536 8.36725 25.66631
#
# Velocity S-wave (km/s) = 4.45867 1.96760 3.44610
# Velocity P-wave (km/s) = 7.00394 5.45757 6.27854
#
# Compressibility (1/GPa) = 0.02051944
#
# Stress axis : x y z
#
# Youngs Moduli (GPa) = 70.11136 101.44009 67.59400
#
# Poissons Ratio (x) = 0.23078 0.17430
# Poissons Ratio (y) = 0.15950 0.29365
# Poissons Ratio (z) = 0.18079 0.44068
#
# Static dielectric constant tensor:
#      x y z
#    x 3.896990 0.000000 -0.006040 
#    y 0.000000 4.064120 0.000000 
#    z -0.006040 0.000000 4.566780 
# 
# 
# High freq. dielectric constant tensor:
#      x y z
#    x 1.842730 0.000000 -0.008190 
#    y 0.000000 1.858320 0.000000 
#    z -0.008190 0.000000 1.863160 
# 
# From -- ./inp_files/55585.got.cif
#   From: 2010.06.25/outbox.cif.g09.slc.cpg/sg15_28_cif.got.tgz:55585.got - 2010.06.28 07:06:18.
