data_PCOD8154343
_publ_section_title
;
Structure prediction by ZEFSAII (Michael W. Deem and Ramdas Pophale) SiO2 
 PCOD8154343
Probable space group: C 2/C
;
_chemical_formula_sum "Si O2"
_cell_formula_units_Z 40
_cell_length_a 12.222355
_cell_length_b 13.570046
_cell_length_c 10.985116
_cell_angle_alpha 90.000000
_cell_angle_beta 99.144707
_cell_angle_gamma 90.000000
_cell_volume 1798.811445
_symmetry_space_group_name_H-M "C 2/C"
_symmetry_group_IT_number 15
_symmetry_cell_setting 'monoclinic'
loop_
_space_group_symop_operation_xyz
x,y,z
-x,y,1/2-z
-x,-y,-z
x,-y,1/2+z
1/2+x,1/2+y,z
1/2-x,1/2+y,1/2-z
1/2-x,1/2-y,-z
1/2+x,1/2-y,1/2+z
loop_
_atom_site_type_symbol
_atom_site_label
_atom_site_fract_x
_atom_site_fract_y
_atom_site_fract_z
Si Si1 0.724969 0.182455 0.880442
Si Si2 0.125585 0.065966 0.757981
Si Si3 0.732055 0.637238 0.012068
Si Si4 0.385069 0.655109 0.279206
Si Si5 0.569587 0.003318 0.886877
O O1 0.827522 0.110772 0.860656
O O2 0.704567 0.261287 0.769039
O O3 0.620256 0.112905 0.888701
O O4 0.750000 0.250000 0.000000
O O5 0.209434 0.098501 0.875582
O O6 0.000000 0.103898 0.750000
O O7 0.134670 0.950115 0.785177
O O8 0.750000 0.750000 0.000000
O O9 0.622875 0.629993 0.078753
O O10 0.835742 0.580541 0.091503
O O11 0.500000 0.698669 0.250000
O O12 0.500000 0.983746 0.750000
O O13 0.500000 0.000000 0.000000
#
# Coordination Sequence:
#
# PCOD8154343 Si02
#       5
#     8   8   8   8   8
#     4  12  26  46  74 108 149 191 249 304 369 450
#     4  11  26  47  72 107 145 193 242 304 375 439
#     4  12  26  46  73 105 148 186 248 308 364 450
#     4  11  26  45  72 101 143 189 243 295 373 432
#     4  12  29  50  78 109 153 201 252 313 381 444
#
# _framework density 22.236906999999999
#
# number of rings (size 3 to 8) (size 9 to 14) (size 15 to 20)
#    0.000    0.400    4.000    3.000    8.400    2.400 
#    0.000    0.000    0.000    0.000    0.000    0.000 
#    0.000    0.000    0.000    0.000    0.000    0.000 
#
# Total GULP energy -247827.916704 kJ/mol
# GULP energy per Si atom -12391.395835 kJ/mol
# Density = 2.218630 g / cm^3
# Si number density = 22.236907 Si / 1000 Ang^3
#
#
#
# Elastic Constant Matrix: (Units=GPa)
#
#
# Indices 1 2 3 4 5 6 
#
# 1 111.7380 48.6203 54.2823 0.0000 -9.1981 0.0000
# 2 48.6203 137.9267 28.6738 0.0000 8.0319 0.0000
# 3 54.2823 28.6738 127.3727 0.0000 -10.6272 0.0000
# 4 0.0000 0.0000 0.0000 39.8477 0.0000 -7.8545
# 5 -9.1981 8.0319 -10.6272 0.0000 52.9953 0.0000
# 6 0.0000 0.0000 0.0000 -7.8545 0.0000 29.2553
#
#
#
# Elastic Compliance Matrix: (Units=1/GPa)
#
#
# Indices 1 2 3 4 5 6 
#
# 1 0.012918 -0.003727 -0.004507 0.000000 0.001903 0.000000
# 2 -0.003727 0.008804 -0.000568 0.000000 -0.002095 0.000000
# 3 -0.004507 -0.000568 0.010009 0.000000 0.001311 0.000000
# 4 0.000000 0.000000 0.000000 0.026498 0.000000 0.007114
# 5 0.001903 -0.002095 0.001311 0.000000 0.019780 0.000000
# 6 0.000000 0.000000 0.000000 0.007114 0.000000 0.036092
#
#
# Mechanical properties :
#
#
# Convention : Reuss Voigt Hill
#
# Bulk Modulus (GPa) = 70.79522 71.13225 70.96373
# Shear Modulus (GPa) = 36.65272 40.78374 38.71823
#
# Velocity S-wave (km/s) = 4.06431 4.28723 4.17726
# Velocity P-wave (km/s) = 7.34376 7.52097 7.43289
#
# Compressibility (1/GPa) = 0.01412525
#
# Stress axis : x y z
#
# Youngs Moduli (GPa) = 77.41336 113.58052 99.90873
#
# Poissons Ratio (x) = 0.42336 0.45031
# Poissons Ratio (y) = 0.28855 0.05678
# Poissons Ratio (z) = 0.34892 0.06455
#
# Static dielectric constant tensor:
#      x y z
#    x 3.696680 0.000000 -0.237090 
#    y 0.000000 4.439300 0.000000 
#    z -0.237090 0.000000 4.002690 
# 
# 
# High freq. dielectric constant tensor:
#      x y z
#    x 1.862460 0.000000 -0.015670 
#    y 0.000000 1.903310 0.000000 
#    z -0.015670 0.000000 1.891480 
# 
# From -- ./inp_files/85968.got.cif
#   From: 2010.06.25/outbox.cif.g09.slc.cpg/sg15_43_cif.got.tgz:85968.got - 2010.06.28 07:06:18.
