data_PCOD8154653
_publ_section_title
;
Structure prediction by ZEFSAII (Michael W. Deem and Ramdas Pophale) SiO2 
 PCOD8154653
Probable space group: C 2/C
;
_chemical_formula_sum "Si O2"
_cell_formula_units_Z 40
_cell_length_a 8.547462
_cell_length_b 21.368857
_cell_length_c 10.489197
_cell_angle_alpha 90.000000
_cell_angle_beta 116.443027
_cell_angle_gamma 90.000000
_cell_volume 1715.406062
_symmetry_space_group_name_H-M "C 2/C"
_symmetry_group_IT_number 15
_symmetry_cell_setting 'monoclinic'
loop_
_space_group_symop_operation_xyz
x,y,z
-x,y,1/2-z
-x,-y,-z
x,-y,1/2+z
1/2+x,1/2+y,z
1/2-x,1/2+y,1/2-z
1/2-x,1/2-y,-z
1/2+x,1/2-y,1/2+z
loop_
_atom_site_type_symbol
_atom_site_label
_atom_site_fract_x
_atom_site_fract_y
_atom_site_fract_z
Si Si1 0.771019 0.870963 0.483014
Si Si2 0.000000 0.716895 0.750000
Si Si3 0.886652 0.504946 0.085186
Si Si4 0.846194 0.122547 0.495603
Si Si5 0.736585 0.804054 0.736690
Si Si6 0.000000 0.207053 0.750000
O O1 0.660804 0.821350 0.363337
O O2 0.747549 0.851313 0.621433
O O3 0.970290 0.876593 0.511824
O O4 0.694240 0.937774 0.421544
O O5 0.083662 0.764628 0.677480
O O6 0.000000 0.524420 0.250000
O O7 0.728088 0.553622 0.002966
O O8 0.000000 0.500000 0.000000
O O9 0.705076 0.155583 0.352479
O O10 0.858384 0.161328 0.631749
O O11 0.584204 0.751790 0.672125
#
# Coordination Sequence:
#
# PCOD8154653 Si02
#       6
#     8   4   8   8   8   4
#     4  12  25  49  77 105 148 200 249 312 372 453
#     4  12  22  44  76 110 148 188 246 300 386 448
#     4  12  30  51  77 108 150 201 260 319 372 447
#     4  12  27  49  73 109 149 199 251 306 377 448
#     4  12  25  46  76 112 152 193 246 309 383 454
#     4  12  28  44  76 114 156 192 242 316 374 466
#
# _framework density 23.318093000000001
#
# number of rings (size 3 to 8) (size 9 to 14) (size 15 to 20)
#    0.000    0.000    5.000    4.200    9.800    0.000 
#    3.600    0.000    0.000    0.000    0.000    0.000 
#    0.000    0.000    0.000    0.000    0.000    0.000 
#
# Total GULP energy -247889.566286 kJ/mol
# GULP energy per Si atom -12394.478314 kJ/mol
# Density = 2.326502 g / cm^3
# Si number density = 23.318093 Si / 1000 Ang^3
#
#
#
# Elastic Constant Matrix: (Units=GPa)
#
#
# Indices 1 2 3 4 5 6 
#
# 1 87.3010 38.9225 26.1283 0.0000 -4.3738 0.0000
# 2 38.9225 116.8157 27.1958 0.0000 5.4277 0.0000
# 3 26.1283 27.1958 116.7163 0.0000 -7.6136 0.0000
# 4 0.0000 0.0000 0.0000 53.7463 0.0000 27.0535
# 5 -4.3738 5.4277 -7.6136 0.0000 32.1861 0.0000
# 6 0.0000 0.0000 0.0000 27.0535 0.0000 71.3577
#
#
#
# Elastic Compliance Matrix: (Units=1/GPa)
#
#
# Indices 1 2 3 4 5 6 
#
# 1 0.014094 -0.004330 -0.002004 0.000000 0.002171 0.000000
# 2 -0.004330 0.010518 -0.001661 0.000000 -0.002755 0.000000
# 3 -0.002004 -0.001661 0.009551 0.000000 0.002267 0.000000
# 4 0.000000 0.000000 0.000000 0.022994 0.000000 -0.008718
# 5 0.002171 -0.002755 0.002267 0.000000 0.032365 0.000000
# 6 0.000000 0.000000 0.000000 -0.008718 0.000000 0.017319
#
#
# Mechanical properties :
#
#
# Convention : Reuss Voigt Hill
#
# Bulk Modulus (GPa) = 55.03056 56.14735 55.58896
# Shear Modulus (GPa) = 38.79260 46.69713 42.74486
#
# Velocity S-wave (km/s) = 4.08318 4.47991 4.28614
# Velocity P-wave (km/s) = 6.77355 7.13377 6.95599
#
# Compressibility (1/GPa) = 0.01817172
#
# Stress axis : x y z
#
# Youngs Moduli (GPa) = 70.95250 95.07460 104.69617
#
# Poissons Ratio (x) = 0.41170 0.20986
# Poissons Ratio (y) = 0.30724 0.17391
# Poissons Ratio (z) = 0.14222 0.15793
#
# Static dielectric constant tensor:
#      x y z
#    x 4.174980 0.000000 -0.134780 
#    y 0.000000 4.684640 0.000000 
#    z -0.134780 0.000000 4.008810 
# 
# 
# High freq. dielectric constant tensor:
#      x y z
#    x 1.933910 0.000000 0.001950 
#    y 0.000000 1.944650 0.000000 
#    z 0.001950 0.000000 1.915640 
# 
# From -- ./inp_files/79553.got.cif
#   From: 2010.06.25/outbox.cif.g09.slc.cpg/sg15_40_cif.got.tgz:79553.got - 2010.06.28 07:06:18.
