data_PCOD8154841
_publ_section_title
;
Structure prediction by ZEFSAII (Michael W. Deem and Ramdas Pophale) SiO2 
 PCOD8154841
Probable space group: C 2/C
;
_chemical_formula_sum "Si O2"
_cell_formula_units_Z 40
_cell_length_a 30.739747
_cell_length_b 9.627358
_cell_length_c 8.947556
_cell_angle_alpha 90.000000
_cell_angle_beta 137.352399
_cell_angle_gamma 90.000000
_cell_volume 1793.960936
_symmetry_space_group_name_H-M "C 2/C"
_symmetry_group_IT_number 15
_symmetry_cell_setting 'monoclinic'
loop_
_space_group_symop_operation_xyz
x,y,z
-x,y,1/2-z
-x,-y,-z
x,-y,1/2+z
1/2+x,1/2+y,z
1/2-x,1/2+y,1/2-z
1/2-x,1/2-y,-z
1/2+x,1/2-y,1/2+z
loop_
_atom_site_type_symbol
_atom_site_label
_atom_site_fract_x
_atom_site_fract_y
_atom_site_fract_z
Si Si1 0.214398 0.552035 0.492259
Si Si2 0.136113 0.280960 0.259048
Si Si3 0.112292 0.247414 0.861801
Si Si4 0.304665 0.491460 0.478362
Si Si5 0.008793 0.650142 0.594434
O O1 0.189842 0.393705 0.434688
O O2 0.155484 0.655261 0.365409
O O3 0.249237 0.579900 0.422488
O O4 0.270469 0.580007 0.752520
O O5 0.079054 0.291868 0.234857
O O6 0.167501 0.129126 0.345834
O O7 0.110319 0.306823 0.025500
O O8 0.137790 0.090718 0.927382
O O9 0.042010 0.246145 0.611051
O O10 0.000000 0.644286 0.750000
O O11 0.000000 0.500000 0.500000
#
# Coordination Sequence:
#
# PCOD8154841 Si02
#       5
#     8   8   8   8   8
#     4  12  24  44  73 103 143 187 227 286 343 420
#     4  12  26  48  71 103 144 184 235 289 342 413
#     4  12  26  47  73 102 142 187 233 289 342 414
#     4  12  26  44  71 105 147 181 229 284 356 408
#     4  12  28  47  74 102 134 184 237 288 346 411
#
# _framework density 22.297028999999998
#
# number of rings (size 3 to 8) (size 9 to 14) (size 15 to 20)
#    0.000    0.000    6.000    4.200    5.600    0.800 
#    0.000    0.000    0.000    0.000    0.000    0.000 
#    0.000    0.000    0.000    0.000    0.000    0.000 
#
# Total GULP energy -248139.414035 kJ/mol
# GULP energy per Si atom -12406.970702 kJ/mol
# Density = 2.224628 g / cm^3
# Si number density = 22.297029 Si / 1000 Ang^3
#
#
#
# Elastic Constant Matrix: (Units=GPa)
#
#
# Indices 1 2 3 4 5 6 
#
# 1 113.4935 12.0953 26.9776 0.0000 5.0735 0.0000
# 2 12.0953 35.9104 9.0947 0.0000 -8.3019 0.0000
# 3 26.9776 9.0947 109.7138 0.0000 -5.7118 0.0000
# 4 0.0000 0.0000 0.0000 28.7346 0.0000 0.9184
# 5 5.0735 -8.3019 -5.7118 0.0000 32.0622 0.0000
# 6 0.0000 0.0000 0.0000 0.9184 0.0000 32.2660
#
#
#
# Elastic Compliance Matrix: (Units=1/GPa)
#
#
# Indices 1 2 3 4 5 6 
#
# 1 0.009844 -0.003394 -0.002287 0.000000 -0.002844 0.000000
# 2 -0.003394 0.031266 -0.001320 0.000000 0.008398 0.000000
# 3 -0.002287 -0.001320 0.009879 0.000000 0.001780 0.000000
# 4 0.000000 0.000000 0.000000 0.034833 0.000000 -0.000991
# 5 -0.002844 0.008398 0.001780 0.000000 0.034131 0.000000
# 6 0.000000 0.000000 0.000000 -0.000991 0.000000 0.031021
#
#
# Mechanical properties :
#
#
# Convention : Reuss Voigt Hill
#
# Bulk Modulus (GPa) = 27.03683 39.49475 33.26579
# Shear Modulus (GPa) = 28.20019 32.67589 30.43804
#
# Velocity S-wave (km/s) = 3.56019 3.83231 3.69876
# Velocity P-wave (km/s) = 5.38999 6.11013 5.76132
#
# Compressibility (1/GPa) = 0.03698658
#
# Stress axis : x y z
#
# Youngs Moduli (GPa) = 101.58947 31.98380 101.22357
#
# Poissons Ratio (x) = 0.10854 0.23152
# Poissons Ratio (y) = 0.34476 0.13363
# Poissons Ratio (z) = 0.23235 0.04222
#
# Static dielectric constant tensor:
#      x y z
#    x 4.294310 0.000000 0.102600 
#    y 0.000000 3.805570 0.000000 
#    z 0.102600 0.000000 4.046380 
# 
# 
# High freq. dielectric constant tensor:
#      x y z
#    x 1.893840 0.000000 -0.002630 
#    y 0.000000 1.868790 0.000000 
#    z -0.002630 0.000000 1.884670 
# 
# From -- ./inp_files/46185.got.cif
#   From: 2010.06.25/outbox.cif.g09.slc.cpg/sg15_24_cif.got.tgz:46185.got - 2010.06.28 07:06:18.
