data_PCOD8154690
_publ_section_title
;
Structure prediction by ZEFSAII (Michael W. Deem and Ramdas Pophale) SiO2 
 PCOD8154690
Probable space group: C 2/C
;
_chemical_formula_sum "Si O2"
_cell_formula_units_Z 40
_cell_length_a 18.525829
_cell_length_b 5.061007
_cell_length_c 19.790864
_cell_angle_alpha 90.000000
_cell_angle_beta 96.793070
_cell_angle_gamma 90.000000
_cell_volume 1842.552058
_symmetry_space_group_name_H-M "C 2/C"
_symmetry_group_IT_number 15
_symmetry_cell_setting 'monoclinic'
loop_
_space_group_symop_operation_xyz
x,y,z
-x,y,1/2-z
-x,-y,-z
x,-y,1/2+z
1/2+x,1/2+y,z
1/2-x,1/2+y,1/2-z
1/2-x,1/2-y,-z
1/2+x,1/2-y,1/2+z
loop_
_atom_site_type_symbol
_atom_site_label
_atom_site_fract_x
_atom_site_fract_y
_atom_site_fract_z
Si Si1 0.375731 0.515122 0.132121
Si Si2 0.897781 0.484764 0.398056
Si Si3 0.413768 0.515896 0.984857
Si Si4 0.739041 0.037042 0.704592
Si Si5 0.536592 0.980966 0.824552
O O1 0.293871 0.475356 0.147865
O O2 0.429015 0.309773 0.175531
O O3 0.400397 0.809821 0.153145
O O4 0.376288 0.464756 0.052379
O O5 0.888024 0.701013 0.455246
O O6 0.841349 0.528065 0.331080
O O7 0.978894 0.507096 0.378441
O O8 0.884570 0.199676 0.429046
O O9 0.500000 0.500000 0.000000
O O10 0.760572 0.829137 0.764388
O O11 0.500000 0.052973 0.750000
#
# Coordination Sequence:
#
# PCOD8154690 Si02
#       5
#     8   8   8   8   8
#     4  12  25  42  68  94 134 173 214 275 326 381
#     4  12  24  42  70  96 134 177 215 272 330 384
#     4  12  23  43  68 102 134 166 224 276 321 387
#     4  12  27  48  66  97 138 174 218 274 329 392
#     4  12  23  40  66  98 126 173 226 266 321 388
#
# _framework density 21.709021
#
# number of rings (size 3 to 8) (size 9 to 14) (size 15 to 20)
#    0.000    0.000    4.000    7.200    0.000    1.600 
#    0.000    0.000    0.000    0.000    0.000    0.000 
#    0.000    0.000    0.000    0.000    0.000    0.000 
#
# Total GULP energy -248233.866305 kJ/mol
# GULP energy per Si atom -12411.693315 kJ/mol
# Density = 2.165961 g / cm^3
# Si number density = 21.709021 Si / 1000 Ang^3
#
#
#
# Elastic Constant Matrix: (Units=GPa)
#
#
# Indices 1 2 3 4 5 6 
#
# 1 70.7368 18.5282 20.1538 0.0000 -14.7445 0.0000
# 2 18.5282 96.9366 21.0087 0.0000 -3.5051 0.0000
# 3 20.1538 21.0087 79.5355 0.0000 -4.0224 0.0000
# 4 0.0000 0.0000 0.0000 47.6992 0.0000 6.3080
# 5 -14.7445 -3.5051 -4.0224 0.0000 46.4187 0.0000
# 6 0.0000 0.0000 0.0000 6.3080 0.0000 26.5896
#
#
#
# Elastic Compliance Matrix: (Units=1/GPa)
#
#
# Indices 1 2 3 4 5 6 
#
# 1 0.016709 -0.002285 -0.003386 0.000000 0.004842 0.000000
# 2 -0.002285 0.011270 -0.002402 0.000000 -0.000083 0.000000
# 3 -0.003386 -0.002402 0.014063 0.000000 -0.000038 0.000000
# 4 0.000000 0.000000 0.000000 0.021644 0.000000 -0.005135
# 5 0.004842 -0.000083 -0.000038 0.000000 0.023071 0.000000
# 6 0.000000 0.000000 0.000000 -0.005135 0.000000 0.038827
#
#
# Mechanical properties :
#
#
# Convention : Reuss Voigt Hill
#
# Bulk Modulus (GPa) = 38.61360 40.73226 39.67293
# Shear Modulus (GPa) = 33.25288 36.64272 34.94780
#
# Velocity S-wave (km/s) = 3.91801 4.11287 4.01662
# Velocity P-wave (km/s) = 6.18815 6.43100 6.31075
#
# Compressibility (1/GPa) = 0.02589761
#
# Stress axis : x y z
#
# Youngs Moduli (GPa) = 59.84728 88.72824 71.10609
#
# Poissons Ratio (x) = 0.20274 0.24074
# Poissons Ratio (y) = 0.13675 0.17081
# Poissons Ratio (z) = 0.20262 0.21314
#
# Static dielectric constant tensor:
#      x y z
#    x 3.903420 0.000000 -0.156370 
#    y 0.000000 4.082930 0.000000 
#    z -0.156370 0.000000 3.917720 
# 
# 
# High freq. dielectric constant tensor:
#      x y z
#    x 1.848280 0.000000 -0.008500 
#    y 0.000000 1.869690 0.000000 
#    z -0.008500 0.000000 1.863250 
# 
# From -- ./inp_files/207972.got.cif
#   From: 2010.06.25/outbox.cif.g09.slc.cpg/sg15_104_cif.got.tgz:207972.got - 2010.06.28 07:06:18.
