data_PCOD8154497
_publ_section_title
;
Structure prediction by ZEFSAII (Michael W. Deem and Ramdas Pophale) SiO2 
 PCOD8154497
Probable space group: C 2/C
;
_chemical_formula_sum "Si O2"
_cell_formula_units_Z 48
_cell_length_a 26.963163
_cell_length_b 17.219365
_cell_length_c 13.912194
_cell_angle_alpha 90.000000
_cell_angle_beta 158.963474
_cell_angle_gamma 90.000000
_cell_volume 2318.639982
_symmetry_space_group_name_H-M "C 2/C"
_symmetry_group_IT_number 15
_symmetry_cell_setting 'monoclinic'
loop_
_space_group_symop_operation_xyz
x,y,z
-x,y,1/2-z
-x,-y,-z
x,-y,1/2+z
1/2+x,1/2+y,z
1/2-x,1/2+y,1/2-z
1/2-x,1/2-y,-z
1/2+x,1/2-y,1/2+z
loop_
_atom_site_type_symbol
_atom_site_label
_atom_site_fract_x
_atom_site_fract_y
_atom_site_fract_z
Si Si1 0.842479 0.484280 0.692342
Si Si2 0.752351 0.039401 0.787455
Si Si3 0.500000 0.355854 0.750000
Si Si4 0.000000 0.638711 0.250000
Si Si5 0.146942 0.577865 0.973625
Si Si6 0.890697 0.266809 0.200769
Si Si7 0.876571 0.690704 0.221976
O O1 0.747852 0.527940 0.598640
O O2 0.805436 0.523778 0.526535
O O3 0.813011 0.392957 0.632163
O O4 0.000000 0.500000 0.000000
O O5 0.617741 0.084488 0.506862
O O6 0.756341 0.950677 0.752465
O O7 0.883327 0.089549 0.993262
O O8 0.559189 0.306482 0.768966
O O9 0.058534 0.692168 0.268442
O O10 0.146564 0.667663 0.945388
O O11 0.000000 0.554285 0.750000
O O12 0.006670 0.291314 0.487015
O O13 0.750000 0.250000 0.000000
O O14 0.750000 0.750000 0.000000
#
# Coordination Sequence:
#
# PCOD8154497 Si02
#       7
#     8   8   4   4   8   8   8
#     4  12  20  40  69  97 130 174 238 276 327 412
#     4  12  23  44  71 101 133 183 229 286 338 407
#     4  12  28  45  67 106 152 174 218 296 368 391
#     4  12  20  43  73  92 128 184 232 274 332 411
#     4  12  20  40  71  98 122 180 239 271 317 418
#     4  12  26  45  67  99 141 187 223 280 349 417
#     4  12  25  42  68 103 137 173 230 287 340 402
#
# _framework density 20.701791
#
# number of rings (size 3 to 8) (size 9 to 14) (size 15 to 20)
#    0.000    0.000    8.333    3.000    0.000    0.000 
#    3.000    1.667    0.000    0.000    0.000    0.000 
#    0.000    0.000    0.000    0.000    0.000    0.000 
#
# Total GULP energy -297493.725816 kJ/mol
# GULP energy per Si atom -12395.571909 kJ/mol
# Density = 2.065467 g / cm^3
# Si number density = 20.701791 Si / 1000 Ang^3
#
#
#
# Elastic Constant Matrix: (Units=GPa)
#
#
# Indices 1 2 3 4 5 6 
#
# 1 146.2400 55.6523 46.6295 0.0000 3.8527 0.0000
# 2 55.6523 132.6772 56.5068 0.0000 13.8658 0.0000
# 3 46.6295 56.5068 78.9811 0.0000 14.5711 0.0000
# 4 0.0000 0.0000 0.0000 24.4303 0.0000 -8.8673
# 5 3.8527 13.8658 14.5711 0.0000 27.2745 0.0000
# 6 0.0000 0.0000 0.0000 -8.8673 0.0000 21.5443
#
#
#
# Elastic Compliance Matrix: (Units=1/GPa)
#
#
# Indices 1 2 3 4 5 6 
#
# 1 0.008925 -0.002233 -0.004047 0.000000 0.002037 0.000000
# 2 -0.002233 0.011456 -0.006502 0.000000 -0.002035 0.000000
# 3 -0.004047 -0.006502 0.021064 0.000000 -0.007376 0.000000
# 4 0.000000 0.000000 0.000000 0.048122 0.000000 0.019806
# 5 0.002037 -0.002035 -0.007376 0.000000 0.041351 0.000000
# 6 0.000000 0.000000 0.000000 0.019806 0.000000 0.054568
#
#
# Mechanical properties :
#
#
# Convention : Reuss Voigt Hill
#
# Bulk Modulus (GPa) = 62.97625 75.05284 69.01454
# Shear Modulus (GPa) = 23.11153 27.92379 25.51766
#
# Velocity S-wave (km/s) = 3.34489 3.67667 3.51469
# Velocity P-wave (km/s) = 6.73828 7.37271 7.06262
#
# Compressibility (1/GPa) = 0.01587900
#
# Stress axis : x y z
#
# Youngs Moduli (GPa) = 112.05031 87.29423 47.47513
#
# Poissons Ratio (x) = 0.19489 0.19215
# Poissons Ratio (y) = 0.25015 0.30870
# Poissons Ratio (z) = 0.45352 0.56762
#
# Static dielectric constant tensor:
#      x y z
#    x 4.215540 0.000000 -0.126390 
#    y 0.000000 3.930280 0.000000 
#    z -0.126390 0.000000 3.679170 
# 
# 
# High freq. dielectric constant tensor:
#      x y z
#    x 1.833620 0.000000 -0.011020 
#    y 0.000000 1.817990 0.000000 
#    z -0.011020 0.000000 1.785770 
# 
# From -- ./inp_files/182548.got.cif
#   From: 2010.06.25/outbox.cif.g09.slc.cpg/sg15_92_cif.got.tgz:182548.got - 2010.06.28 07:06:18.
