data_PCOD8154222
_publ_section_title
;
Structure prediction by ZEFSAII (Michael W. Deem and Ramdas Pophale) SiO2 
 PCOD8154222
Probable space group: C 2/C
;
_chemical_formula_sum "Si O2"
_cell_formula_units_Z 48
_cell_length_a 14.355516
_cell_length_b 11.660459
_cell_length_c 26.144883
_cell_angle_alpha 90.000000
_cell_angle_beta 30.062662
_cell_angle_gamma 90.000000
_cell_volume 2192.364671
_symmetry_space_group_name_H-M "C 2/C"
_symmetry_group_IT_number 15
_symmetry_cell_setting 'monoclinic'
loop_
_space_group_symop_operation_xyz
x,y,z
-x,y,1/2-z
-x,-y,-z
x,-y,1/2+z
1/2+x,1/2+y,z
1/2-x,1/2+y,1/2-z
1/2-x,1/2-y,-z
1/2+x,1/2-y,1/2+z
loop_
_atom_site_type_symbol
_atom_site_label
_atom_site_fract_x
_atom_site_fract_y
_atom_site_fract_z
Si Si1 0.967046 0.232406 0.396803
Si Si2 0.671966 0.038559 0.793892
Si Si3 0.483025 0.518594 0.317025
Si Si4 0.526824 0.681179 0.484509
Si Si5 0.784384 0.514809 0.839802
Si Si6 0.920559 0.576499 0.492049
O O1 0.750000 0.250000 0.500000
O O2 0.017273 0.130741 0.334698
O O3 0.066372 0.345733 0.328897
O O4 0.036002 0.215068 0.421326
O O5 0.741307 0.984281 0.707725
O O6 0.536610 0.947842 0.885807
O O7 0.848515 0.066022 0.746880
O O8 0.500000 0.553737 0.250000
O O9 0.290703 0.456320 0.419955
O O10 0.323441 0.632162 0.595171
O O11 0.688579 0.587267 0.418189
O O12 0.566940 0.789988 0.500944
O O13 0.000000 0.528114 0.750000
O O14 0.000000 0.500000 0.500000
#
# Coordination Sequence:
#
# PCOD8154222 Si02
#       6
#     8   8   8   8   8   8
#     4  12  23  42  73  99 148 190 239 302 355 431
#     4  12  26  44  70 108 142 190 245 290 366 437
#     4  12  25  44  73 109 145 188 245 300 363 427
#     4  11  25  47  69 105 145 184 243 298 357 428
#     4  11  27  47  72  99 144 194 241 294 358 437
#     4  12  24  46  70 106 147 182 238 303 355 431
#
# _framework density 21.894169000000002
#
# number of rings (size 3 to 8) (size 9 to 14) (size 15 to 20)
#    0.000    0.333    6.667    1.000    2.333    2.667 
#    0.000    1.667    0.000    0.000    0.000    0.000 
#    0.000    0.000    0.000    0.000    0.000    0.000 
#
# Total GULP energy -297705.612068 kJ/mol
# GULP energy per Si atom -12404.400503 kJ/mol
# Density = 2.184434 g / cm^3
# Si number density = 21.894169 Si / 1000 Ang^3
#
#
#
# Elastic Constant Matrix: (Units=GPa)
#
#
# Indices 1 2 3 4 5 6 
#
# 1 94.7277 36.9808 38.9142 0.0000 -13.6228 0.0001
# 2 36.9808 143.5491 46.1875 -0.0001 -11.9574 0.0000
# 3 38.9142 46.1875 124.7149 0.0006 -24.4800 -0.0002
# 4 0.0000 -0.0001 0.0006 27.0553 -0.0006 0.3865
# 5 -13.6228 -11.9574 -24.4800 -0.0006 53.8968 0.0000
# 6 0.0001 0.0000 -0.0002 0.3865 0.0000 39.0096
#
#
#
# Elastic Compliance Matrix: (Units=1/GPa)
#
#
# Indices 1 2 3 4 5 6 
#
# 1 0.012829 -0.002257 -0.002886 0.000000 0.001431 0.000000
# 2 -0.002257 0.008316 -0.002334 0.000000 0.000215 0.000000
# 3 -0.002886 -0.002334 0.010472 0.000000 0.003509 0.000000
# 4 0.000000 0.000000 0.000000 0.036967 0.000000 -0.000366
# 5 0.001431 0.000215 0.003509 0.000000 0.020557 0.000000
# 6 0.000000 0.000000 0.000000 -0.000366 0.000000 0.025638
#
#
# Mechanical properties :
#
#
# Convention : Reuss Voigt Hill
#
# Bulk Modulus (GPa) = 60.01073 67.46184 63.73629
# Shear Modulus (GPa) = 36.95822 40.05296 38.50559
#
# Velocity S-wave (km/s) = 4.11303 4.28178 4.19825
# Velocity P-wave (km/s) = 7.07284 7.43804 7.25773
#
# Compressibility (1/GPa) = 0.01666369
#
# Stress axis : x y z
#
# Youngs Moduli (GPa) = 77.94714 120.24361 95.49403
#
# Poissons Ratio (x) = 0.27141 0.27562
# Poissons Ratio (y) = 0.17594 0.22284
# Poissons Ratio (z) = 0.22497 0.28059
#
# Static dielectric constant tensor:
#      x y z
#    x 4.006240 0.000000 0.004270 
#    y 0.000000 4.076860 0.000000 
#    z 0.004270 0.000000 4.275840 
# 
# 
# High freq. dielectric constant tensor:
#      x y z
#    x 1.864430 0.000000 -0.001290 
#    y 0.000000 1.855220 0.000000 
#    z -0.001290 0.000000 1.884800 
# 
# From -- ./inp_files/152738.got.cif
#   From: 2010.06.25/outbox.cif.g09.slc.cpg/sg15_77_cif.got.tgz:152738.got - 2010.06.28 07:06:18.
