data_PCOD8154533
_publ_section_title
;
Structure prediction by ZEFSAII (Michael W. Deem and Ramdas Pophale) SiO2 
 PCOD8154533
Probable space group: C 2/C
;
_chemical_formula_sum "Si O2"
_cell_formula_units_Z 48
_cell_length_a 19.253274
_cell_length_b 13.825438
_cell_length_c 19.253818
_cell_angle_alpha 90.000000
_cell_angle_beta 29.011653
_cell_angle_gamma 90.000000
_cell_volume 2485.598006
_symmetry_space_group_name_H-M "C 2/C"
_symmetry_group_IT_number 15
_symmetry_cell_setting 'monoclinic'
loop_
_space_group_symop_operation_xyz
x,y,z
-x,y,1/2-z
-x,-y,-z
x,-y,1/2+z
1/2+x,1/2+y,z
1/2-x,1/2+y,1/2-z
1/2-x,1/2-y,-z
1/2+x,1/2-y,1/2+z
loop_
_atom_site_type_symbol
_atom_site_label
_atom_site_fract_x
_atom_site_fract_y
_atom_site_fract_z
Si Si1 0.342336 0.737278 0.143177
Si Si2 0.055015 0.551636 0.125571
Si Si3 0.579998 0.059929 0.872171
Si Si4 0.117266 0.934676 0.200149
Si Si5 0.042224 0.246122 0.845646
Si Si6 0.368259 0.472128 0.661843
O O1 0.425250 0.825893 0.107136
O O2 0.176837 0.764146 0.279253
O O3 0.354448 0.643306 0.180556
O O4 0.405085 0.716102 0.011432
O O5 0.000000 0.530671 0.250000
O O6 0.002577 0.458895 0.127551
O O7 0.975148 0.645934 0.166798
O O8 0.226480 0.564335 0.971976
O O9 0.740354 0.020644 0.730868
O O10 0.500000 0.000000 0.000000
O O11 0.064114 0.825319 0.261518
O O12 0.000000 0.980819 0.250000
O O13 0.120471 0.991569 0.269483
O O14 0.500000 0.500000 0.500000
#
# Coordination Sequence:
#
# PCOD8154533 Si02
#       6
#     8   8   8   8   8   8
#     4  12  22  38  70 100 124 164 218 276 317 375
#     4  12  27  42  65  93 133 179 212 264 327 391
#     4  12  21  44  67  91 129 173 221 263 313 387
#     4  12  27  43  61  97 137 170 213 268 329 389
#     4  12  21  40  66  96 128 165 213 267 332 385
#     4  12  23  40  67  97 130 168 214 269 322 381
#
# _framework density 19.311247999999999
#
# number of rings (size 3 to 8) (size 9 to 14) (size 15 to 20)
#    0.000    0.000   10.000    0.500    4.667    1.333 
#    0.000    0.833    0.000    2.000    0.000    0.000 
#    0.000    0.000    0.000    0.000    0.000    0.000 
#
# Total GULP energy -297666.107466 kJ/mol
# GULP energy per Si atom -12402.754478 kJ/mol
# Density = 1.926730 g / cm^3
# Si number density = 19.311248 Si / 1000 Ang^3
#
#
#
# Elastic Constant Matrix: (Units=GPa)
#
#
# Indices 1 2 3 4 5 6 
#
# 1 100.1754 25.8877 37.3094 0.0001 2.3692 0.0000
# 2 25.8877 89.4734 20.6960 0.0003 1.0170 -0.0004
# 3 37.3094 20.6960 128.5320 0.0016 2.4997 -0.0005
# 4 0.0001 0.0003 0.0016 22.7809 -0.0012 -2.9454
# 5 2.3692 1.0170 2.4997 -0.0012 36.0904 0.0005
# 6 0.0000 -0.0004 -0.0005 -2.9454 0.0005 28.6579
#
#
#
# Elastic Compliance Matrix: (Units=1/GPa)
#
#
# Indices 1 2 3 4 5 6 
#
# 1 0.011807 -0.002721 -0.002980 0.000000 -0.000492 0.000000
# 2 -0.002721 0.012238 -0.001179 0.000000 -0.000085 0.000000
# 3 -0.002980 -0.001179 0.008842 -0.000001 -0.000384 0.000000
# 4 0.000000 0.000000 -0.000001 0.044488 0.000002 0.004572
# 5 -0.000492 -0.000085 -0.000384 0.000002 0.027769 0.000000
# 6 0.000000 0.000000 0.000000 0.004572 0.000000 0.035364
#
#
# Mechanical properties :
#
#
# Convention : Reuss Voigt Hill
#
# Bulk Modulus (GPa) = 52.28115 53.99636 53.13875
# Shear Modulus (GPa) = 31.12474 33.12500 32.12487
#
# Velocity S-wave (km/s) = 4.01901 4.14614 4.08307
# Velocity P-wave (km/s) = 6.97626 7.13739 7.05729
#
# Compressibility (1/GPa) = 0.01912735
#
# Stress axis : x y z
#
# Youngs Moduli (GPa) = 84.69479 81.71566 113.09253
#
# Poissons Ratio (x) = 0.22238 0.33696
# Poissons Ratio (y) = 0.23049 0.13332
# Poissons Ratio (z) = 0.25235 0.09633
#
# Static dielectric constant tensor:
#      x y z
#    x 3.938580 0.000010 0.204870 
#    y 0.000010 3.860370 0.000010 
#    z 0.204870 0.000010 3.852790 
# 
# 
# High freq. dielectric constant tensor:
#      x y z
#    x 1.738080 0.000000 -0.009980 
#    y 0.000000 1.746480 0.000000 
#    z -0.009980 0.000000 1.774350 
# 
# From -- ./inp_files/47443.got.cif
#   From: 2010.06.25/outbox.cif.g09.slc.cpg/sg15_24_cif.got.tgz:47443.got - 2010.06.28 07:06:18.
