data_PCOD8154352
_publ_section_title
;
Structure prediction by ZEFSAII (Michael W. Deem and Ramdas Pophale) SiO2 
 PCOD8154352
Probable space group: C 2/C
;
_chemical_formula_sum "Si O2"
_cell_formula_units_Z 40
_cell_length_a 17.054382
_cell_length_b 12.133657
_cell_length_c 8.985709
_cell_angle_alpha 90.000000
_cell_angle_beta 101.949171
_cell_angle_gamma 90.000000
_cell_volume 1819.140149
_symmetry_space_group_name_H-M "C 2/C"
_symmetry_group_IT_number 15
_symmetry_cell_setting 'monoclinic'
loop_
_space_group_symop_operation_xyz
x,y,z
-x,y,1/2-z
-x,-y,-z
x,-y,1/2+z
1/2+x,1/2+y,z
1/2-x,1/2+y,1/2-z
1/2-x,1/2-y,-z
1/2+x,1/2-y,1/2+z
loop_
_atom_site_type_symbol
_atom_site_label
_atom_site_fract_x
_atom_site_fract_y
_atom_site_fract_z
Si Si1 0.942759 0.035152 0.607965
Si Si2 0.162121 0.621271 0.039474
Si Si3 0.591680 0.922470 0.829745
Si Si4 0.837179 0.230598 0.466939
Si Si5 0.340766 0.331715 0.635394
O O1 0.870076 0.112516 0.531016
O O2 0.000000 0.096144 0.750000
O O3 0.907312 0.925700 0.671018
O O4 0.000000 0.000000 0.500000
O O5 0.143520 0.601808 0.204457
O O6 0.257457 0.611233 0.055894
O O7 0.119208 0.535068 0.915642
O O8 0.133550 0.743466 0.980386
O O9 0.500000 0.933648 0.750000
O O10 0.602732 0.825481 0.954385
O O11 0.750000 0.250000 0.500000
O O12 0.832494 0.233797 0.287197
#
# Coordination Sequence:
#
# PCOD8154352 Si02
#       5
#     8   8   8   8   8
#     4  12  27  45  73 108 146 188 239 304 368 430
#     4  11  26  46  71 102 140 188 237 290 355 432
#     4  12  26  45  73 104 142 184 234 297 359 427
#     4  12  25  47  73 103 142 189 241 294 360 435
#     4  11  26  46  71 102 144 189 241 292 357 436
#
# _framework density 21.988409999999998
#
# number of rings (size 3 to 8) (size 9 to 14) (size 15 to 20)
#    0.000    0.400    4.000    3.600    5.600    0.800 
#    0.000    0.000    0.000    0.000    0.000    0.000 
#    0.000    0.000    0.000    0.000    0.000    0.000 
#
# Total GULP energy -248119.613097 kJ/mol
# GULP energy per Si atom -12405.980655 kJ/mol
# Density = 2.193836 g / cm^3
# Si number density = 21.988410 Si / 1000 Ang^3
#
#
#
# Elastic Constant Matrix: (Units=GPa)
#
#
# Indices 1 2 3 4 5 6 
#
# 1 105.9772 61.7056 43.1761 0.0000 10.6798 0.0000
# 2 61.7056 102.6157 25.7085 0.0000 10.7863 0.0000
# 3 43.1761 25.7085 86.5975 0.0000 16.8709 0.0000
# 4 0.0000 0.0000 0.0000 44.5471 0.0000 8.4561
# 5 10.6798 10.7863 16.8709 0.0000 41.2958 0.0000
# 6 0.0000 0.0000 0.0000 8.4561 0.0000 37.0293
#
#
#
# Elastic Compliance Matrix: (Units=1/GPa)
#
#
# Indices 1 2 3 4 5 6 
#
# 1 0.016871 -0.008702 -0.005889 0.000000 0.000316 0.000000
# 2 -0.008702 0.015115 0.000198 0.000000 -0.001778 0.000000
# 3 -0.005889 0.000198 0.015361 0.000000 -0.004804 0.000000
# 4 0.000000 0.000000 0.000000 0.023465 0.000000 -0.005359
# 5 0.000316 -0.001778 -0.004804 0.000000 0.026561 0.000000
# 6 0.000000 0.000000 0.000000 -0.005359 0.000000 0.028229
#
#
# Mechanical properties :
#
#
# Convention : Reuss Voigt Hill
#
# Bulk Modulus (GPa) = 53.88093 61.81897 57.84995
# Shear Modulus (GPa) = 31.13764 35.54780 33.34272
#
# Velocity S-wave (km/s) = 3.76718 4.02513 3.89829
# Velocity P-wave (km/s) = 6.59391 7.05533 6.82852
#
# Compressibility (1/GPa) = 0.01855944
#
# Stress axis : x y z
#
# Youngs Moduli (GPa) = 59.27469 66.15742 65.09884
#
# Poissons Ratio (x) = 0.57573 0.38340
# Poissons Ratio (y) = 0.51584 -0.01289
# Poissons Ratio (z) = 0.34910 -0.01310
#
# Static dielectric constant tensor:
#      x y z
#    x 3.852320 0.000000 -0.030780 
#    y 0.000000 3.904320 0.000000 
#    z -0.030780 0.000000 4.045160 
# 
# 
# High freq. dielectric constant tensor:
#      x y z
#    x 1.873480 0.000000 0.009190 
#    y 0.000000 1.869320 0.000000 
#    z 0.009190 0.000000 1.885840 
# 
# From -- ./inp_files/46236.got.cif
#   From: 2010.06.25/outbox.cif.g09.slc.cpg/sg15_24_cif.got.tgz:46236.got - 2010.06.28 07:06:18.
