data_PCOD8154236
_publ_section_title
;
Structure prediction by ZEFSAII (Michael W. Deem and Ramdas Pophale) SiO2 
 PCOD8154236
Probable space group: C 2/C
;
_chemical_formula_sum "Si O2"
_cell_formula_units_Z 32
_cell_length_a 9.920516
_cell_length_b 12.306985
_cell_length_c 11.449155
_cell_angle_alpha 90.000000
_cell_angle_beta 76.273527
_cell_angle_gamma 90.000000
_cell_volume 1357.923067
_symmetry_space_group_name_H-M "C 2/C"
_symmetry_group_IT_number 15
_symmetry_cell_setting 'monoclinic'
loop_
_space_group_symop_operation_xyz
x,y,z
-x,y,1/2-z
-x,-y,-z
x,-y,1/2+z
1/2+x,1/2+y,z
1/2-x,1/2+y,1/2-z
1/2-x,1/2-y,-z
1/2+x,1/2-y,1/2+z
loop_
_atom_site_type_symbol
_atom_site_label
_atom_site_fract_x
_atom_site_fract_y
_atom_site_fract_z
Si Si1 0.122212 0.738659 0.606862
Si Si2 0.000000 0.298885 0.750000
Si Si3 0.787307 0.879313 0.257967
Si Si4 0.000000 0.940935 0.750000
Si Si5 0.582423 0.109320 0.995799
O O1 0.250000 0.750000 0.500000
O O2 0.155742 0.646264 0.699803
O O3 0.090522 0.861134 0.652139
O O4 0.989996 0.705124 0.559883
O O5 0.119961 0.226949 0.781767
O O6 0.080870 0.368461 0.634885
O O7 0.735143 0.897339 0.403580
O O8 0.886043 0.982710 0.206014
O O9 0.500000 0.000000 0.000000
#
# Coordination Sequence:
#
# PCOD8154236 Si02
#       5
#     8   4   8   4   8
#     4  12  24  47  75 105 149 189 241 301 355 430
#     4  11  26  47  68 102 146 185 238 301 356 434
#     4  11  25  47  73 106 141 191 243 292 367 428
#     4  11  26  47  76 110 142 195 238 301 362 430
#     4  12  26  44  72 104 143 192 235 301 366 428
#
# _framework density 23.565398999999999
#
# number of rings (size 3 to 8) (size 9 to 14) (size 15 to 20)
#    0.000    0.500    5.000    2.250    3.500    1.000 
#    4.500    0.000    0.000    0.000    0.000    0.000 
#    0.000    0.000    0.000    0.000    0.000    0.000 
#
# Total GULP energy -198213.447279 kJ/mol
# GULP energy per Si atom -12388.340455 kJ/mol
# Density = 2.351176 g / cm^3
# Si number density = 23.565399 Si / 1000 Ang^3
#
#
#
# Elastic Constant Matrix: (Units=GPa)
#
#
# Indices 1 2 3 4 5 6 
#
# 1 70.5998 28.5057 25.4155 0.0000 -8.9601 0.0000
# 2 28.5057 145.9898 37.6744 0.0000 0.7940 0.0000
# 3 25.4155 37.6744 150.9773 0.0000 -31.0468 0.0000
# 4 0.0000 0.0000 0.0000 26.2125 0.0000 -14.5995
# 5 -8.9601 0.7940 -31.0468 0.0000 51.8390 0.0000
# 6 0.0000 0.0000 0.0000 -14.5995 0.0000 43.0523
#
#
#
# Elastic Compliance Matrix: (Units=1/GPa)
#
#
# Indices 1 2 3 4 5 6 
#
# 1 0.016092 -0.002726 -0.001652 0.000000 0.001834 0.000000
# 2 -0.002726 0.007870 -0.001855 0.000000 -0.001703 0.000000
# 3 -0.001652 -0.001855 0.008339 0.000000 0.004737 0.000000
# 4 0.000000 0.000000 0.000000 0.047033 0.000000 0.015949
# 5 0.001834 -0.001703 0.004737 0.000000 0.022471 0.000000
# 6 0.000000 0.000000 0.000000 0.015949 0.000000 0.028636
#
#
# Mechanical properties :
#
#
# Convention : Reuss Voigt Hill
#
# Bulk Modulus (GPa) = 50.41439 61.19537 55.80488
# Shear Modulus (GPa) = 33.44080 42.61884 38.02982
#
# Velocity S-wave (km/s) = 3.77113 4.25730 4.02157
# Velocity P-wave (km/s) = 6.35624 7.08455 6.73025
#
# Compressibility (1/GPa) = 0.01983561
#
# Stress axis : x y z
#
# Youngs Moduli (GPa) = 62.14150 127.06390 119.92456
#
# Poissons Ratio (x) = 0.34637 0.19807
# Poissons Ratio (y) = 0.16939 0.22248
# Poissons Ratio (z) = 0.10263 0.23572
#
# Static dielectric constant tensor:
#      x y z
#    x 4.580000 0.000000 -0.446580 
#    y 0.000000 4.485400 0.000000 
#    z -0.446580 0.000000 4.276700 
# 
# 
# High freq. dielectric constant tensor:
#      x y z
#    x 1.933710 0.000000 -0.028240 
#    y 0.000000 1.939580 0.000000 
#    z -0.028240 0.000000 1.938390 
# 
# From -- ./inp_files/83902.got.cif
#   From: 2010.06.25/outbox.cif.g09.slc.cpg/sg15_42_cif.got.tgz:83902.got - 2010.06.28 07:06:18.
