data_PCOD8154604
_publ_section_title
;
Structure prediction by ZEFSAII (Michael W. Deem and Ramdas Pophale) SiO2 
 PCOD8154604
Probable space group: C 2/C
;
_chemical_formula_sum "Si O2"
_cell_formula_units_Z 40
_cell_length_a 5.711169
_cell_length_b 14.013584
_cell_length_c 22.244047
_cell_angle_alpha 90.000000
_cell_angle_beta 72.076705
_cell_angle_gamma 90.000000
_cell_volume 1693.880798
_symmetry_space_group_name_H-M "C 2/C"
_symmetry_group_IT_number 15
_symmetry_cell_setting 'monoclinic'
loop_
_space_group_symop_operation_xyz
x,y,z
-x,y,1/2-z
-x,-y,-z
x,-y,1/2+z
1/2+x,1/2+y,z
1/2-x,1/2+y,1/2-z
1/2-x,1/2-y,-z
1/2+x,1/2-y,1/2+z
loop_
_atom_site_type_symbol
_atom_site_label
_atom_site_fract_x
_atom_site_fract_y
_atom_site_fract_z
Si Si1 0.263234 0.622937 0.875354
Si Si2 0.581916 0.166366 0.489858
Si Si3 0.407133 0.827348 0.878599
Si Si4 0.706426 0.967631 0.786448
Si Si5 0.485789 0.527309 0.431775
O O1 0.343322 0.729134 0.848658
O O2 0.161665 0.566697 0.825567
O O3 0.489842 0.564912 0.887881
O O4 0.054519 0.623837 0.942439
O O5 0.750000 0.250000 0.500000
O O6 0.413266 0.204532 0.448492
O O7 0.729326 0.082302 0.445190
O O8 0.653404 0.873678 0.831381
O O9 0.197270 0.906122 0.888978
O O10 0.500000 0.966522 0.750000
O O11 0.000000 0.961106 0.750000
O O12 0.500000 0.500000 0.500000
#
# Coordination Sequence:
#
# PCOD8154604 Si02
#       5
#     8   8   8   8   8
#     4  12  25  49  77 116 151 205 251 322 399 465
#     4  12  23  41  73 119 158 191 245 308 403 486
#     4  12  26  49  75 112 154 199 254 321 397 465
#     4  12  30  56  80 109 152 213 280 329 376 452
#     4  12  22  41  71 111 163 200 238 308 383 482
#
# _framework density 23.614411
#
# number of rings (size 3 to 8) (size 9 to 14) (size 15 to 20)
#    0.000    0.000    6.000    4.800    0.000    2.400 
#    0.000    6.000    0.000    0.000    0.000    0.000 
#    0.000    0.000    0.000    0.000    0.000    0.000 
#
# Total GULP energy -247899.386683 kJ/mol
# GULP energy per Si atom -12394.969334 kJ/mol
# Density = 2.356066 g / cm^3
# Si number density = 23.614411 Si / 1000 Ang^3
#
#
#
# Elastic Constant Matrix: (Units=GPa)
#
#
# Indices 1 2 3 4 5 6 
#
# 1 117.5822 50.2647 56.4473 0.0000 -5.0970 0.0000
# 2 50.2647 170.6204 52.6534 0.0000 -8.3401 0.0000
# 3 56.4473 52.6534 117.2770 0.0000 -3.1024 0.0000
# 4 0.0000 0.0000 0.0000 29.4142 0.0000 2.3427
# 5 -5.0970 -8.3401 -3.1024 0.0000 41.8505 0.0000
# 6 0.0000 0.0000 0.0000 2.3427 0.0000 48.0585
#
#
#
# Elastic Compliance Matrix: (Units=1/GPa)
#
#
# Indices 1 2 3 4 5 6 
#
# 1 0.011622 -0.001938 -0.004705 0.000000 0.000680 0.000000
# 2 -0.001938 0.007181 -0.002264 0.000000 0.001027 0.000000
# 3 -0.004705 -0.002264 0.011804 0.000000 -0.000149 0.000000
# 4 0.000000 0.000000 0.000000 0.034130 0.000000 -0.001664
# 5 0.000680 0.001027 -0.000149 0.000000 0.024171 0.000000
# 6 0.000000 0.000000 0.000000 -0.001664 0.000000 0.020889
#
#
# Mechanical properties :
#
#
# Convention : Reuss Voigt Hill
#
# Bulk Modulus (GPa) = 78.17802 80.46783 79.32292
# Shear Modulus (GPa) = 37.91455 40.27226 39.09340
#
# Velocity S-wave (km/s) = 4.01130 4.13414 4.07318
# Velocity P-wave (km/s) = 7.39135 7.54572 7.46893
#
# Compressibility (1/GPa) = 0.01279132
#
# Stress axis : x y z
#
# Youngs Moduli (GPa) = 86.04555 139.25965 84.71665
#
# Poissons Ratio (x) = 0.26994 0.39863
# Poissons Ratio (y) = 0.16679 0.19178
# Poissons Ratio (z) = 0.40488 0.31526
#
# Static dielectric constant tensor:
#      x y z
#    x 3.341180 0.000000 -0.016120 
#    y 0.000000 4.538320 0.000000 
#    z -0.016120 0.000000 4.430540 
# 
# 
# High freq. dielectric constant tensor:
#      x y z
#    x 1.937050 0.000000 0.001390 
#    y 0.000000 1.950010 0.000000 
#    z 0.001390 0.000000 1.934050 
# 
# From -- ./inp_files/260096.got.cif
#   From: 2010.06.25/outbox.cif.g09.slc.cpg/sg15_131_cif.got.tgz:260096.got - 2010.06.28 07:06:18.
