data_PCOD8154726
_publ_section_title
;
Structure prediction by ZEFSAII (Michael W. Deem and Ramdas Pophale) SiO2 
 PCOD8154726
Probable space group: C 2/C
;
_chemical_formula_sum "Si O2"
_cell_formula_units_Z 32
_cell_length_a 13.757232
_cell_length_b 13.501646
_cell_length_c 17.282706
_cell_angle_alpha 90.000000
_cell_angle_beta 156.337019
_cell_angle_gamma 90.000000
_cell_volume 1288.425664
_symmetry_space_group_name_H-M "C 2/C"
_symmetry_group_IT_number 15
_symmetry_cell_setting 'monoclinic'
loop_
_space_group_symop_operation_xyz
x,y,z
-x,y,1/2-z
-x,-y,-z
x,-y,1/2+z
1/2+x,1/2+y,z
1/2-x,1/2+y,1/2-z
1/2-x,1/2-y,-z
1/2+x,1/2-y,1/2+z
loop_
_atom_site_type_symbol
_atom_site_label
_atom_site_fract_x
_atom_site_fract_y
_atom_site_fract_z
Si Si1 0.917320 0.844686 0.606991
Si Si2 0.649836 0.857759 0.685911
Si Si3 0.623852 0.661363 0.758245
Si Si4 0.749156 0.532706 0.099762
O O1 0.750000 0.750000 0.500000
O O2 0.000000 0.890938 0.750000
O O3 0.161643 0.816720 0.739607
O O4 0.769666 0.921100 0.446075
O O5 0.615547 0.774637 0.726282
O O6 0.396835 0.880715 0.459758
O O7 0.742388 0.956478 0.799745
O O8 0.500000 0.651460 0.750000
O O9 0.482587 0.594418 0.594936
O O10 0.000000 0.577600 0.250000
#
# Coordination Sequence:
#
# PCOD8154726 Si02
#       4
#     8   8   8   8
#     4  12  29  54  75 107 159 213 264 314 384 466
#     4  12  25  46  80 113 155 206 252 325 389 462
#     4  12  23  43  77 118 152 191 257 323 399 455
#     4  12  26  48  79 114 152 200 261 326 389 461
#
# _framework density 24.836513
#
# number of rings (size 3 to 8) (size 9 to 14) (size 15 to 20)
#    0.000    0.000    5.000    5.250    0.000    1.000 
#    9.000    0.000    0.000    0.000    0.000    0.000 
#    0.000    0.000    0.000    0.000    0.000    0.000 
#
# Total GULP energy -198455.745695 kJ/mol
# GULP energy per Si atom -12403.484106 kJ/mol
# Density = 2.477998 g / cm^3
# Si number density = 24.836513 Si / 1000 Ang^3
#
#
#
# Elastic Constant Matrix: (Units=GPa)
#
#
# Indices 1 2 3 4 5 6 
#
# 1 109.8791 33.9928 65.8766 0.0303 18.2454 0.0016
# 2 33.9928 115.5344 60.5438 0.0964 -6.1503 0.0447
# 3 65.8766 60.5438 223.1977 -0.0327 1.1010 0.0015
# 4 0.0303 0.0964 -0.0327 17.3284 0.0196 0.5312
# 5 18.2454 -6.1503 1.1010 0.0196 48.8528 0.0142
# 6 0.0016 0.0447 0.0015 0.5312 0.0142 30.1929
#
#
#
# Elastic Compliance Matrix: (Units=1/GPa)
#
#
# Indices 1 2 3 4 5 6 
#
# 1 0.012441 -0.002341 -0.003013 -0.000009 -0.004873 0.000005
# 2 -0.002341 0.010618 -0.002200 -0.000061 0.002261 -0.000015
# 3 -0.003013 -0.002200 0.005963 0.000028 0.000714 0.000002
# 4 -0.000009 -0.000061 0.000028 0.057740 -0.000028 -0.001016
# 5 -0.004873 0.002261 0.000714 -0.000028 0.022558 -0.000013
# 6 0.000005 -0.000015 0.000002 -0.001016 -0.000013 0.033138
#
#
# Mechanical properties :
#
#
# Convention : Reuss Voigt Hill
#
# Bulk Modulus (GPa) = 71.87519 85.49308 78.68413
# Shear Modulus (GPa) = 30.82548 38.48803 34.65675
#
# Velocity S-wave (km/s) = 3.52680 3.94084 3.73955
# Velocity P-wave (km/s) = 6.75178 7.42994 7.09896
#
# Compressibility (1/GPa) = 0.01391301
#
# Stress axis : x y z
#
# Youngs Moduli (GPa) = 80.38224 94.18304 167.70358
#
# Poissons Ratio (x) = 0.22047 0.50526
# Poissons Ratio (y) = 0.18817 0.36901
# Poissons Ratio (z) = 0.24218 0.20724
#
# Static dielectric constant tensor:
#      x y z
#    x 4.554380 0.000350 -0.105110 
#    y 0.000350 4.512960 -0.000640 
#    z -0.105110 -0.000640 5.049210 
# 
# 
# High freq. dielectric constant tensor:
#      x y z
#    x 1.999720 0.000000 0.001890 
#    y 0.000000 1.973140 -0.000010 
#    z 0.001890 -0.000010 2.016230 
# 
# From -- ./inp_files/244465.got.cif
#   From: 2010.06.25/outbox.cif.g09.slc.cpg/sg15_123_cif.got.tgz:244465.got - 2010.06.28 07:06:18.
