data_PCOD8154445
_publ_section_title
;
Structure prediction by ZEFSAII (Michael W. Deem and Ramdas Pophale) SiO2 
 PCOD8154445
Probable space group: C 2/C
;
_chemical_formula_sum "Si O2"
_cell_formula_units_Z 32
_cell_length_a 20.530533
_cell_length_b 5.265184
_cell_length_c 14.635608
_cell_angle_alpha 90.000000
_cell_angle_beta 120.803408
_cell_angle_gamma 90.000000
_cell_volume 1358.882901
_symmetry_space_group_name_H-M "C 2/C"
_symmetry_group_IT_number 15
_symmetry_cell_setting 'monoclinic'
loop_
_space_group_symop_operation_xyz
x,y,z
-x,y,1/2-z
-x,-y,-z
x,-y,1/2+z
1/2+x,1/2+y,z
1/2-x,1/2+y,1/2-z
1/2-x,1/2-y,-z
1/2+x,1/2-y,1/2+z
loop_
_atom_site_type_symbol
_atom_site_label
_atom_site_fract_x
_atom_site_fract_y
_atom_site_fract_z
Si Si1 0.145258 0.264305 0.517718
Si Si2 0.402018 0.070508 0.330111
Si Si3 0.007793 0.943028 0.648587
Si Si4 0.711132 0.949767 0.905940
O O1 0.133682 0.456438 0.594315
O O2 0.150310 0.403659 0.424262
O O3 0.073931 0.078090 0.457531
O O4 0.224164 0.122011 0.592548
O O5 0.460789 0.302018 0.374889
O O6 0.336929 0.160343 0.212415
O O7 0.440304 0.804060 0.332132
O O8 0.000000 0.989323 0.750000
O O9 0.750000 0.750000 0.000000
#
# Coordination Sequence:
#
# PCOD8154445 Si02
#       4
#     8   8   8   8
#     4  11  27  47  73 109 145 191 244 294 365 428
#     4  12  28  46  79 105 144 192 243 295 361 432
#     4  12  25  49  74 107 147 189 240 300 357 426
#     4  11  27  47  73 105 149 189 236 305 357 431
#
# _framework density 23.548755
#
# number of rings (size 3 to 8) (size 9 to 14) (size 15 to 20)
#    0.000    0.500    2.500    3.750   14.000    0.000 
#    0.000    0.000    0.000    0.000    0.000    0.000 
#    0.000    0.000    0.000    0.000    0.000    0.000 
#
# Total GULP energy -198426.469431 kJ/mol
# GULP energy per Si atom -12401.654339 kJ/mol
# Density = 2.349516 g / cm^3
# Si number density = 23.548755 Si / 1000 Ang^3
#
#
#
# Elastic Constant Matrix: (Units=GPa)
#
#
# Indices 1 2 3 4 5 6 
#
# 1 121.8700 20.2199 41.9950 0.0000 -13.4575 0.0000
# 2 20.2199 73.3943 -18.7550 0.0001 -9.6176 0.0002
# 3 41.9950 -18.7550 102.7276 0.0000 3.1338 -0.0001
# 4 0.0000 0.0001 0.0000 37.0760 0.0000 3.8533
# 5 -13.4575 -9.6176 3.1338 0.0000 26.7734 0.0002
# 6 0.0000 0.0002 -0.0001 3.8533 0.0002 0.3844
#
#
#
# Elastic Compliance Matrix: (Units=1/GPa)
#
#
# Indices 1 2 3 4 5 6 
#
# 1 0.011270 -0.003856 -0.005461 -0.000005 0.004919 0.000049
# 2 -0.003856 0.016266 0.004443 -0.000027 0.003385 0.000260
# 3 -0.005461 0.004443 0.012859 0.000004 -0.002654 -0.000037
# 4 -0.000005 -0.000027 0.000004 -0.645962 -0.000067 6.474905
# 5 0.004919 0.003385 -0.002654 -0.000067 0.041350 0.000644
# 6 0.000049 0.000260 -0.000037 6.474905 0.000644-62.300959
#
#
# Mechanical properties :
#
#
# Convention : Reuss Voigt Hill
#
# Bulk Modulus (GPa) = 32.62995 42.76795 37.69895
# Shear Modulus (GPa) = -0.07956 29.81557 14.86800
#
# Velocity S-wave (km/s) = -0.18401 3.56212 2.51544
# Velocity P-wave (km/s) = 3.72039 5.92614 4.94775
#
# Compressibility (1/GPa) = 0.03064669
#
# Stress axis : x y z
#
# Youngs Moduli (GPa) = 88.72863 61.47717 77.76549
#
# Poissons Ratio (x) = 0.23705 0.42470
# Poissons Ratio (y) = 0.34213 -0.34549
# Poissons Ratio (z) = 0.48458 -0.27313
#
# Static dielectric constant tensor:
#      x y z
#    x 4.715700 0.000000 -0.116820 
#    y 0.000000 4.200280 0.000000 
#    z -0.116820 0.000000 4.311940 
# 
# 
# High freq. dielectric constant tensor:
#      x y z
#    x 1.954410 0.000000 -0.004340 
#    y 0.000000 1.920370 0.000000 
#    z -0.004340 0.000000 1.950450 
# 
# From -- ./inp_files/158165.got.cif
#   From: 2010.06.25/outbox.cif.g09.slc.cpg/sg15_80_cif.got.tgz:158165.got - 2010.06.28 07:06:18.
