data_PCOD8154437
_publ_section_title
;
Structure prediction by ZEFSAII (Michael W. Deem and Ramdas Pophale) SiO2 
 PCOD8154437
Probable space group: C 2/C
;
_chemical_formula_sum "Si O2"
_cell_formula_units_Z 32
_cell_length_a 7.203131
_cell_length_b 21.333519
_cell_length_c 8.333458
_cell_angle_alpha 90.000000
_cell_angle_beta 78.583151
_cell_angle_gamma 90.000000
_cell_volume 1255.247960
_symmetry_space_group_name_H-M "C 2/C"
_symmetry_group_IT_number 15
_symmetry_cell_setting 'monoclinic'
loop_
_space_group_symop_operation_xyz
x,y,z
-x,y,1/2-z
-x,-y,-z
x,-y,1/2+z
1/2+x,1/2+y,z
1/2-x,1/2+y,1/2-z
1/2-x,1/2-y,-z
1/2+x,1/2-y,1/2+z
loop_
_atom_site_type_symbol
_atom_site_label
_atom_site_fract_x
_atom_site_fract_y
_atom_site_fract_z
Si Si1 0.217688 0.241566 0.691680
Si Si2 0.751732 0.370278 0.641601
Si Si3 0.892275 0.616182 0.625743
Si Si4 0.926133 0.930547 0.533762
O O1 0.250000 0.250000 0.500000
O O2 0.286648 0.301034 0.783004
O O3 0.340723 0.181684 0.722224
O O4 0.000000 0.226990 0.750000
O O5 0.606788 0.383224 0.518050
O O6 0.704650 0.422327 0.785419
O O7 0.969930 0.376127 0.551723
O O8 0.698847 0.583787 0.602205
O O9 0.000000 0.577401 0.750000
O O10 0.000000 0.000000 0.500000
#
# Coordination Sequence:
#
# PCOD8154437 Si02
#       4
#     8   8   8   8
#     4  12  24  47  82 121 170 207 263 338 416 493
#     4  11  26  52  81 117 166 215 273 340 410 482
#     4  12  29  46  81 125 165 211 271 338 423 488
#     4  11  27  52  80 110 159 221 277 332 398 485
#
# _framework density 25.492972000000002
#
# number of rings (size 3 to 8) (size 9 to 14) (size 15 to 20)
#    0.000    0.500    5.000    0.750    7.000    6.000 
#    0.000    1.250    0.000    0.000    0.000    0.000 
#    0.000    0.000    0.000    0.000    0.000    0.000 
#
# Total GULP energy -198387.092579 kJ/mol
# GULP energy per Si atom -12399.193286 kJ/mol
# Density = 2.543495 g / cm^3
# Si number density = 25.492972 Si / 1000 Ang^3
#
#
#
# Elastic Constant Matrix: (Units=GPa)
#
#
# Indices 1 2 3 4 5 6 
#
# 1 194.0603 93.3921 56.9195 0.0000 19.6456 0.0000
# 2 93.3921 163.3762 57.9937 0.0000 6.8139 0.0000
# 3 56.9195 57.9937 77.4184 0.0000 9.0701 0.0000
# 4 0.0000 0.0000 0.0000 31.4467 0.0000 -1.1564
# 5 19.6456 6.8139 9.0701 0.0000 73.1472 0.0000
# 6 0.0000 0.0000 0.0000 -1.1564 0.0000 38.8514
#
#
#
# Elastic Compliance Matrix: (Units=1/GPa)
#
#
# Indices 1 2 3 4 5 6 
#
# 1 0.007788 -0.003296 -0.003093 0.000000 -0.001401 0.000000
# 2 -0.003296 0.009733 -0.004937 0.000000 0.000591 0.000000
# 3 -0.003093 -0.004937 0.019014 0.000000 -0.001067 0.000000
# 4 0.000000 0.000000 0.000000 0.031835 0.000000 0.000948
# 5 -0.001401 0.000591 -0.001067 0.000000 0.014125 0.000000
# 6 0.000000 0.000000 0.000000 0.000948 0.000000 0.025767
#
#
# Mechanical properties :
#
#
# Convention : Reuss Voigt Hill
#
# Bulk Modulus (GPa) = 72.02675 94.60727 83.31701
# Shear Modulus (GPa) = 36.88940 43.79237 40.34089
#
# Velocity S-wave (km/s) = 3.80813 4.14916 3.98229
# Velocity P-wave (km/s) = 6.90295 7.75537 7.34154
#
# Compressibility (1/GPa) = 0.01388373
#
# Stress axis : x y z
#
# Youngs Moduli (GPa) = 128.40050 102.74841 52.59260
#
# Poissons Ratio (x) = 0.33862 0.16267
# Poissons Ratio (y) = 0.42316 0.25964
# Poissons Ratio (z) = 0.39716 0.50725
#
# Static dielectric constant tensor:
#      x y z
#    x 6.602040 0.000000 -1.229060 
#    y 0.000000 27.208930 0.000000 
#    z -1.229060 0.000000 5.566300 
# 
# 
# High freq. dielectric constant tensor:
#      x y z
#    x 2.050380 0.000000 0.000610 
#    y 0.000000 1.990350 0.000000 
#    z 0.000610 0.000000 2.026170 
# 
# From -- ./inp_files/22111.got.cif
#   From: 2010.06.25/outbox.cif.g09.slc.cpg/sg15_12_cif.got.tgz:22111.got - 2010.06.28 07:06:18.
