data_PCOD8154934
_publ_section_title
;
Structure prediction by ZEFSAII (Michael W. Deem and Ramdas Pophale) SiO2 
 PCOD8154934
Probable space group: C 2/C
;
_chemical_formula_sum "Si O2"
_cell_formula_units_Z 32
_cell_length_a 8.090999
_cell_length_b 18.357480
_cell_length_c 10.723140
_cell_angle_alpha 90.000000
_cell_angle_beta 121.080145
_cell_angle_gamma 90.000000
_cell_volume 1364.071666
_symmetry_space_group_name_H-M "C 2/C"
_symmetry_group_IT_number 15
_symmetry_cell_setting 'monoclinic'
loop_
_space_group_symop_operation_xyz
x,y,z
-x,y,1/2-z
-x,-y,-z
x,-y,1/2+z
1/2+x,1/2+y,z
1/2-x,1/2+y,1/2-z
1/2-x,1/2-y,-z
1/2+x,1/2-y,1/2+z
loop_
_atom_site_type_symbol
_atom_site_label
_atom_site_fract_x
_atom_site_fract_y
_atom_site_fract_z
Si Si1 0.309968 0.556963 0.126498
Si Si2 0.779303 0.542308 0.675502
Si Si3 0.689367 0.311163 0.254843
Si Si4 0.102139 0.297335 0.526059
O O1 0.500000 0.599625 0.250000
O O2 0.288477 0.495581 0.223880
O O3 0.328214 0.518431 0.996352
O O4 0.141558 0.616113 0.047089
O O5 0.750878 0.629322 0.675321
O O6 0.000000 0.520420 0.750000
O O7 0.500000 0.343154 0.250000
O O8 0.877187 0.290711 0.407189
O O9 0.621974 0.234992 0.170782
O O10 0.250000 0.250000 0.500000
#
# Coordination Sequence:
#
# PCOD8154934 Si02
#       4
#     8   8   8   8
#     4  12  26  46  76 107 145 190 245 297 366 435
#     4  12  25  49  73 105 149 192 240 303 365 434
#     4  12  26  46  72 107 147 185 245 305 360 431
#     4  12  24  48  75 102 142 194 242 294 366 435
#
# _framework density 23.459178000000001
#
# number of rings (size 3 to 8) (size 9 to 14) (size 15 to 20)
#    0.000    0.000    5.000    5.250    0.000    1.000 
#    0.000    0.000    0.000    0.000    0.000    0.000 
#    0.000    0.000    0.000    0.000    0.000    0.000 
#
# Total GULP energy -198283.464127 kJ/mol
# GULP energy per Si atom -12392.716508 kJ/mol
# Density = 2.340578 g / cm^3
# Si number density = 23.459178 Si / 1000 Ang^3
#
#
#
# Elastic Constant Matrix: (Units=GPa)
#
#
# Indices 1 2 3 4 5 6 
#
# 1 107.9320 12.6524 65.0093 0.0000 22.4296 0.0000
# 2 12.6524 89.9136 47.2129 0.0000 -10.2259 0.0000
# 3 65.0093 47.2129 207.9602 0.0000 10.7470 0.0000
# 4 0.0000 0.0000 0.0000 40.4195 0.0000 1.4254
# 5 22.4296 -10.2259 10.7470 0.0000 51.5063 0.0000
# 6 0.0000 0.0000 0.0000 1.4254 0.0000 2.2179
#
#
#
# Elastic Compliance Matrix: (Units=1/GPa)
#
#
# Indices 1 2 3 4 5 6 
#
# 1 0.012441 -0.000431 -0.003545 0.000000 -0.004763 0.000000
# 2 -0.000431 0.013165 -0.003032 0.000000 0.003434 0.000000
# 3 -0.003545 -0.003032 0.006628 0.000000 -0.000441 0.000000
# 4 0.000000 0.000000 0.000000 0.025314 0.000000 -0.016269
# 5 -0.004763 0.003434 -0.000441 0.000000 0.022263 0.000000
# 6 0.000000 0.000000 0.000000 -0.016269 0.000000 0.461340
#
#
# Mechanical properties :
#
#
# Convention : Reuss Voigt Hill
#
# Bulk Modulus (GPa) = 54.88954 72.83947 63.86450
# Shear Modulus (GPa) = 8.90887 37.55749 23.23318
#
# Velocity S-wave (km/s) = 1.95086 4.00556 3.15042
# Velocity P-wave (km/s) = 5.34071 7.24634 6.36524
#
# Compressibility (1/GPa) = 0.01821841
#
# Stress axis : x y z
#
# Youngs Moduli (GPa) = 80.38098 75.96018 150.87861
#
# Poissons Ratio (x) = 0.03273 0.53487
# Poissons Ratio (y) = 0.03464 0.45739
# Poissons Ratio (z) = 0.28495 0.23028
#
# Static dielectric constant tensor:
#      x y z
#    x 4.706080 0.000000 0.000850 
#    y 0.000000 3.952910 0.000000 
#    z 0.000850 0.000000 4.576150 
# 
# 
# High freq. dielectric constant tensor:
#      x y z
#    x 1.933610 0.000000 0.008240 
#    y 0.000000 1.916510 0.000000 
#    z 0.008240 0.000000 1.952570 
# 
# From -- ./inp_files/76516.got.cif
#   From: 2010.06.25/outbox.cif.g09.slc.cpg/sg15_39_cif.got.tgz:76516.got - 2010.06.28 07:06:18.
