data_PCOD8154325
_publ_section_title
;
Structure prediction by ZEFSAII (Michael W. Deem and Ramdas Pophale) SiO2 
 PCOD8154325
Probable space group: C 2/C
;
_chemical_formula_sum "Si O2"
_cell_formula_units_Z 48
_cell_length_a 4.900861
_cell_length_b 32.728955
_cell_length_c 14.493766
_cell_angle_alpha 90.000000
_cell_angle_beta 66.832862
_cell_angle_gamma 90.000000
_cell_volume 2137.331612
_symmetry_space_group_name_H-M "C 2/C"
_symmetry_group_IT_number 15
_symmetry_cell_setting 'monoclinic'
loop_
_space_group_symop_operation_xyz
x,y,z
-x,y,1/2-z
-x,-y,-z
x,-y,1/2+z
1/2+x,1/2+y,z
1/2-x,1/2+y,1/2-z
1/2-x,1/2-y,-z
1/2+x,1/2-y,1/2+z
loop_
_atom_site_type_symbol
_atom_site_label
_atom_site_fract_x
_atom_site_fract_y
_atom_site_fract_z
Si Si1 0.500000 0.049547 0.750000
Si Si2 0.500000 0.736065 0.750000
Si Si3 0.500000 0.604505 0.750000
Si Si4 0.739869 0.657916 0.050144
Si Si5 0.847115 0.930129 0.867428
Si Si6 0.000000 0.208172 0.250000
Si Si7 0.611399 0.670205 0.585814
Si Si8 0.225456 0.482350 0.590772
O O1 0.292650 0.077032 0.712912
O O2 0.690238 0.020571 0.661258
O O3 0.787526 0.764338 0.715535
O O4 0.495305 0.709673 0.656564
O O5 0.502867 0.630632 0.656143
O O6 0.780573 0.610177 0.067797
O O7 0.680284 0.680514 0.154192
O O8 0.491908 0.667167 0.006293
O O9 0.036366 0.673963 0.962986
O O10 0.592121 0.966303 0.908749
O O11 0.000000 0.920711 0.750000
O O12 0.148004 0.942172 0.878983
O O13 0.500000 0.500000 0.500000
#
# Coordination Sequence:
#
# PCOD8154325 Si02
#       8
#     4   4   4   8   8   4   8   8
#     4  12  24  43  67  96 133 178 235 294 343 405
#     4  11  26  48  73 102 147 176 223 286 345 412
#     4  11  26  44  69  96 135 180 237 288 339 412
#     4  12  26  44  73 104 138 181 235 276 344 418
#     4  12  24  48  66  95 142 184 226 293 345 413
#     4  12  26  45  73 110 139 178 229 282 337 421
#     4  11  26  47  70 102 137 185 225 281 352 412
#     4  12  27  43  68  98 136 182 235 287 356 406
#
# _framework density 22.457909000000001
#
# number of rings (size 3 to 8) (size 9 to 14) (size 15 to 20)
#    0.000    0.333    2.500    5.500    7.000    6.667 
#    0.000    0.000    0.000    0.000    0.000    0.000 
#    0.000    0.000    0.000    0.000    0.000    0.000 
#
# Total GULP energy -297455.394649 kJ/mol
# GULP energy per Si atom -12393.974777 kJ/mol
# Density = 2.240679 g / cm^3
# Si number density = 22.457909 Si / 1000 Ang^3
#
#
#
# Elastic Constant Matrix: (Units=GPa)
#
#
# Indices 1 2 3 4 5 6 
#
# 1 103.4849 27.8919 13.4284 0.0000 -5.1727 0.0000
# 2 27.8919 112.2535 37.2002 0.0000 0.0688 0.0000
# 3 13.4284 37.2002 116.2779 0.0000 -7.1374 0.0000
# 4 0.0000 0.0000 0.0000 -12.6411 0.0000 -10.7760
# 5 -5.1727 0.0688 -7.1374 0.0000 37.7444 0.0000
# 6 0.0000 0.0000 0.0000 -10.7760 0.0000 40.2002
#
#
#
# Elastic Compliance Matrix: (Units=1/GPa)
#
#
# Indices 1 2 3 4 5 6 
#
# 1 0.010445 -0.002488 -0.000326 0.000000 0.001374 0.000000
# 2 -0.002488 0.010572 -0.003154 0.000000 -0.000957 0.000000
# 3 -0.000326 -0.003154 0.009758 0.000000 0.001806 0.000000
# 4 0.000000 0.000000 0.000000 -0.064393 0.000000 -0.017261
# 5 0.001374 -0.000957 0.001806 0.000000 0.027026 0.000000
# 6 0.000000 0.000000 0.000000 -0.017261 0.000000 0.020249
#
#
# Mechanical properties :
#
#
# Convention : Reuss Voigt Hill
#
# Bulk Modulus (GPa) = 53.08044 54.33969 53.71007
# Shear Modulus (GPa) = 156.88001 29.96040 93.42021
#
# Velocity S-wave (km/s) = 8.36701 3.65645 6.45664
# Velocity P-wave (km/s) = 10.81800 6.48652 8.91920
#
# Compressibility (1/GPa) = 0.01883933
#
# Stress axis : x y z
#
# Youngs Moduli (GPa) = 95.74105 94.58629 102.48469
#
# Poissons Ratio (x) = 0.23534 0.03340
# Poissons Ratio (y) = 0.23821 0.32321
# Poissons Ratio (z) = 0.03120 0.29830
#
# Static dielectric constant tensor:
#      x y z
#    x 4.539220 0.000000 0.197530 
#    y 0.000000 4.072020 0.000000 
#    z 0.197530 0.000000 4.124170 
# 
# 
# High freq. dielectric constant tensor:
#      x y z
#    x 1.897240 0.000000 -0.007690 
#    y 0.000000 1.895480 0.000000 
#    z -0.007690 0.000000 1.897370 
# 
# From -- ./inp_files/130674.got.cif
#   From: 2010.06.25/outbox.cif.g09.slc.cpg/sg15_66_cif.got.tgz:130674.got - 2010.06.28 07:06:18.
