data_PCOD8154807
_publ_section_title
;
Structure prediction by ZEFSAII (Michael W. Deem and Ramdas Pophale) SiO2 
 PCOD8154807
Probable space group: C 2/C
;
_chemical_formula_sum "Si O2"
_cell_formula_units_Z 48
_cell_length_a 15.858201
_cell_length_b 30.267411
_cell_length_c 9.988428
_cell_angle_alpha 90.000000
_cell_angle_beta 29.922731
_cell_angle_gamma 90.000000
_cell_volume 2391.554680
_symmetry_space_group_name_H-M "C 2/C"
_symmetry_group_IT_number 15
_symmetry_cell_setting 'monoclinic'
loop_
_space_group_symop_operation_xyz
x,y,z
-x,y,1/2-z
-x,-y,-z
x,-y,1/2+z
1/2+x,1/2+y,z
1/2-x,1/2+y,1/2-z
1/2-x,1/2-y,-z
1/2+x,1/2-y,1/2+z
loop_
_atom_site_type_symbol
_atom_site_label
_atom_site_fract_x
_atom_site_fract_y
_atom_site_fract_z
Si Si1 0.800585 0.635119 0.174304
Si Si2 0.204519 0.536325 0.323171
Si Si3 0.685078 0.134394 0.660779
Si Si4 0.301819 0.035763 0.871076
Si Si5 0.866247 0.214283 0.542856
Si Si6 0.914436 0.783618 0.502410
O O1 0.738579 0.585717 0.297241
O O2 0.679631 0.670975 0.409570
O O3 0.792943 0.643089 0.026337
O O4 0.989934 0.642031 0.969098
O O5 0.271682 0.525809 0.379967
O O6 0.279020 0.500225 0.118008
O O7 0.003089 0.533475 0.599880
O O8 0.747333 0.084854 0.610276
O O9 0.800912 0.166741 0.586232
O O10 0.943853 0.207541 0.582077
O O11 0.715014 0.248872 0.757138
O O12 0.000000 0.232698 0.250000
O O13 0.000000 0.764622 0.250000
#
# Coordination Sequence:
#
# PCOD8154807 Si02
#       6
#     8   8   8   8   8   8
#     4   9  18  35  59  85 117 153 192 236 288 334
#     4   8  14  27  50  79 111 147 187 232 274 328
#     4   9  18  34  60  89 112 148 201 244 269 333
#     4   8  14  27  49  80 114 144 185 234 278 321
#     4  12  24  41  65  88 110 153 201 238 282 354
#     4  12  26  42  60  86 122 151 185 244 302 346
#
# _framework density 20.070626000000001
#
# number of rings (size 3 to 8) (size 9 to 14) (size 15 to 20)
#    0.000    2.333    1.667    4.000    2.333    0.000 
#    3.000    0.000    3.667    2.000    0.000    0.000 
#    0.000    0.000    0.000    0.000    0.000    0.000 
#
# Total GULP energy -297590.115686 kJ/mol
# GULP energy per Si atom -12399.588154 kJ/mol
# Density = 2.002494 g / cm^3
# Si number density = 20.070626 Si / 1000 Ang^3
#
#
#
# Elastic Constant Matrix: (Units=GPa)
#
#
# Indices 1 2 3 4 5 6 
#
# 1 103.9110 57.6849 33.8002 0.0000 8.0061 0.0000
# 2 57.6849 145.8399 42.7035 0.0000 6.9387 0.0000
# 3 33.8002 42.7035 68.0145 0.0000 11.4932 0.0000
# 4 0.0000 0.0000 0.0000 22.6484 0.0000 3.1359
# 5 8.0061 6.9387 11.4932 0.0000 20.4606 0.0000
# 6 0.0000 0.0000 0.0000 3.1359 0.0000 31.6334
#
#
#
# Elastic Compliance Matrix: (Units=1/GPa)
#
#
# Indices 1 2 3 4 5 6 
#
# 1 0.013221 -0.004054 -0.003738 0.000000 -0.001699 0.000000
# 2 -0.004054 0.009645 -0.004150 0.000000 0.000647 0.000000
# 3 -0.003738 -0.004150 0.020640 0.000000 -0.008724 0.000000
# 4 0.000000 0.000000 0.000000 0.044768 0.000000 -0.004438
# 5 -0.001699 0.000647 -0.008724 0.000000 0.054220 0.000000
# 6 0.000000 0.000000 0.000000 -0.004438 0.000000 0.032052
#
#
# Mechanical properties :
#
#
# Convention : Reuss Voigt Hill
#
# Bulk Modulus (GPa) = 50.96352 65.12696 58.04524
# Shear Modulus (GPa) = 24.39375 27.18694 25.79035
#
# Velocity S-wave (km/s) = 3.49003 3.68443 3.58855
# Velocity P-wave (km/s) = 6.45660 7.11473 6.79364
#
# Compressibility (1/GPa) = 0.01962188
#
# Stress axis : x y z
#
# Youngs Moduli (GPa) = 75.63789 103.68271 48.44926
#
# Poissons Ratio (x) = 0.42034 0.18109
# Poissons Ratio (y) = 0.30664 0.20107
# Poissons Ratio (z) = 0.28271 0.43030
#
# Static dielectric constant tensor:
#      x y z
#    x 3.577210 0.000000 0.089490 
#    y 0.000000 3.861400 0.000000 
#    z 0.089490 0.000000 3.482600 
# 
# 
# High freq. dielectric constant tensor:
#      x y z
#    x 1.772070 0.000000 0.001540 
#    y 0.000000 1.793220 0.000000 
#    z 0.001540 0.000000 1.754830 
# 
# From -- ./inp_files/44443.got.cif
#   From: 2010.06.25/outbox.cif.g09.slc.cpg/sg15_23_cif.got.tgz:44443.got - 2010.06.28 07:06:18.
