data_PCOD8154321
_publ_section_title
;
Structure prediction by ZEFSAII (Michael W. Deem and Ramdas Pophale) SiO2 
 PCOD8154321
Probable space group: C 2/C
;
_chemical_formula_sum "Si O2"
_cell_formula_units_Z 32
_cell_length_a 15.989523
_cell_length_b 16.126378
_cell_length_c 9.541887
_cell_angle_alpha 90.000000
_cell_angle_beta 147.435177
_cell_angle_gamma 90.000000
_cell_volume 1324.321530
_symmetry_space_group_name_H-M "C 2/C"
_symmetry_group_IT_number 15
_symmetry_cell_setting 'monoclinic'
loop_
_space_group_symop_operation_xyz
x,y,z
-x,y,1/2-z
-x,-y,-z
x,-y,1/2+z
1/2+x,1/2+y,z
1/2-x,1/2+y,1/2-z
1/2-x,1/2-y,-z
1/2+x,1/2-y,1/2+z
loop_
_atom_site_type_symbol
_atom_site_label
_atom_site_fract_x
_atom_site_fract_y
_atom_site_fract_z
Si Si1 0.314919 0.674814 0.001193
Si Si2 0.681256 0.019710 0.976720
Si Si3 0.167262 0.928824 0.534497
Si Si4 0.335038 0.758607 0.476704
O O1 0.249443 0.681319 0.751026
O O2 0.500000 0.677219 0.250000
O O3 0.250000 0.750000 0.000000
O O4 0.250641 0.591199 0.976241
O O5 0.771607 0.015304 0.251112
O O6 0.500000 0.033452 0.750000
O O7 0.715188 0.936370 0.933765
O O8 0.152680 0.834663 0.569586
O O9 0.000000 0.963566 0.250000
O O10 0.250000 0.750000 0.500000
O O11 0.500000 0.797462 0.750000
#
# Coordination Sequence:
#
# PCOD8154321 Si02
#       4
#     8   8   8   8
#     4  12  25  46  73 103 140 184 232 286 346 413
#     4  12  27  47  73 104 142 184 234 289 349 417
#     4  11  26  47  71 103 140 183 236 283 350 415
#     4  11  26  43  71 103 140 180 229 286 345 412
#
# _framework density 24.163315999999998
#
# number of rings (size 3 to 8) (size 9 to 14) (size 15 to 20)
#    0.000    0.500    2.500    4.500   10.500    1.000 
#    0.000    0.000    0.000    0.000    0.000    0.000 
#    0.000    0.000    0.000    0.000    0.000    0.000 
#
# Total GULP energy -198446.409123 kJ/mol
# GULP energy per Si atom -12402.900570 kJ/mol
# Density = 2.410832 g / cm^3
# Si number density = 24.163316 Si / 1000 Ang^3
#
#
#
# Elastic Constant Matrix: (Units=GPa)
#
#
# Indices 1 2 3 4 5 6 
#
# 1 155.8746 3.4764 96.0096 0.0000 13.0213 0.0000
# 2 3.4764 33.7805 31.1946 0.0000 12.2676 0.0000
# 3 96.0096 31.1946 233.2174 0.0000 2.3657 0.0000
# 4 0.0000 0.0000 0.0000 -56.7616 0.0000 8.7243
# 5 13.0213 12.2676 2.3657 0.0000 65.6979 0.0000
# 6 0.0000 0.0000 0.0000 8.7243 0.0000 50.9819
#
#
#
# Elastic Compliance Matrix: (Units=1/GPa)
#
#
# Indices 1 2 3 4 5 6 
#
# 1 0.009152 0.003856 -0.004259 0.000000 -0.002380 0.000000
# 2 0.003856 0.038077 -0.006603 0.000000 -0.007636 0.000000
# 3 -0.004259 -0.006603 0.006906 0.000000 0.001828 0.000000
# 4 0.000000 0.000000 0.000000 -0.017166 0.000000 0.002938
# 5 -0.002380 -0.007636 0.001828 0.000000 0.017053 0.000000
# 6 0.000000 0.000000 0.000000 0.002938 0.000000 0.019112
#
#
# Mechanical properties :
#
#
# Convention : Reuss Voigt Hill
#
# Bulk Modulus (GPa) = 24.92418 76.02596 50.47507
# Shear Modulus (GPa) = 49.74152 31.46311 40.60231
#
# Velocity S-wave (km/s) = 4.54205 3.61238 4.10363
# Velocity P-wave (km/s) = 6.15177 6.99505 6.58692
#
# Compressibility (1/GPa) = 0.04012168
#
# Stress axis : x y z
#
# Youngs Moduli (GPa) = 109.27035 26.26278 144.80519
#
# Poissons Ratio (x) = -0.10126 0.61674
# Poissons Ratio (y) = -0.42132 0.95613
# Poissons Ratio (z) = 0.46539 0.17341
#
# Static dielectric constant tensor:
#      x y z
#    x 4.599090 0.000000 -0.088600 
#    y 0.000000 5.533080 0.000000 
#    z -0.088600 0.000000 4.452930 
# 
# 
# High freq. dielectric constant tensor:
#      x y z
#    x 1.980800 0.000000 -0.005730 
#    y 0.000000 1.964080 0.000000 
#    z -0.005730 0.000000 1.969770 
# 
# From -- ./inp_files/42807.got.cif
#   From: 2010.06.25/outbox.cif.g09.slc.cpg/sg15_22_cif.got.tgz:42807.got - 2010.06.28 07:06:18.
