data_PCOD8154081
_publ_section_title
;
Structure prediction by ZEFSAII (Michael W. Deem and Ramdas Pophale) SiO2 
 PCOD8154081
Probable space group: C 2/C
;
_chemical_formula_sum "Si O2"
_cell_formula_units_Z 48
_cell_length_a 18.955103
_cell_length_b 11.501253
_cell_length_c 11.507285
_cell_angle_alpha 90.000000
_cell_angle_beta 117.262849
_cell_angle_gamma 90.000000
_cell_volume 2229.996262
_symmetry_space_group_name_H-M "C 2/C"
_symmetry_group_IT_number 15
_symmetry_cell_setting 'monoclinic'
loop_
_space_group_symop_operation_xyz
x,y,z
-x,y,1/2-z
-x,-y,-z
x,-y,1/2+z
1/2+x,1/2+y,z
1/2-x,1/2+y,1/2-z
1/2-x,1/2-y,-z
1/2+x,1/2-y,1/2+z
loop_
_atom_site_type_symbol
_atom_site_label
_atom_site_fract_x
_atom_site_fract_y
_atom_site_fract_z
Si Si1 0.916362 0.150510 0.728465
Si Si2 0.351732 0.587979 0.125533
Si Si3 0.673825 0.091297 0.946845
Si Si4 0.428943 0.737944 0.997445
Si Si5 0.890656 0.721687 0.819896
Si Si6 0.326656 0.819700 0.516387
O O1 0.912144 0.184541 0.859242
O O2 0.901198 0.263389 0.638606
O O3 0.000000 0.098613 0.750000
O O4 0.852815 0.049848 0.649698
O O5 0.371077 0.647989 0.263305
O O6 0.265775 0.628851 0.015481
O O7 0.415343 0.633234 0.078881
O O8 0.629204 0.130440 0.796456
O O9 0.671117 0.953758 0.950752
O O10 0.630128 0.153629 0.022628
O O11 0.517625 0.787488 0.074855
O O12 0.833902 0.693617 0.884207
O O13 0.250000 0.750000 0.500000
#
# Coordination Sequence:
#
# PCOD8154081 Si02
#       6
#     8   8   8   8   8   8
#     4  12  26  45  71 105 140 181 234 291 351 412
#     4  11  25  43  73 102 138 185 231 289 352 408
#     4  11  26  45  72 101 138 189 228 290 351 410
#     4  11  25  47  70 102 141 185 235 284 349 422
#     4  11  25  47  71 101 141 183 237 285 346 419
#     4  12  28  45  68 103 139 183 235 289 348 412
#
# _framework density 21.524699999999999
#
# number of rings (size 3 to 8) (size 9 to 14) (size 15 to 20)
#    0.000    0.667    3.333    5.000    9.333    3.333 
#    0.000    0.000    0.000    0.000    0.000    0.000 
#    0.000    0.000    0.000    0.000    0.000    0.000 
#
# Total GULP energy -297678.039395 kJ/mol
# GULP energy per Si atom -12403.251641 kJ/mol
# Density = 2.147571 g / cm^3
# Si number density = 21.524700 Si / 1000 Ang^3
#
#
#
# Elastic Constant Matrix: (Units=GPa)
#
#
# Indices 1 2 3 4 5 6 
#
# 1 109.1463 46.2585 35.6034 0.0000 -6.8123 0.0000
# 2 46.2585 142.6869 47.1182 0.0000 -13.3942 0.0000
# 3 35.6034 47.1182 104.8037 0.0000 -13.9312 0.0000
# 4 0.0000 0.0000 0.0000 35.2531 0.0000 8.5570
# 5 -6.8123 -13.3942 -13.9312 0.0000 41.6981 0.0000
# 6 0.0000 0.0000 0.0000 8.5570 0.0000 26.8837
#
#
#
# Elastic Compliance Matrix: (Units=1/GPa)
#
#
# Indices 1 2 3 4 5 6 
#
# 1 0.011171 -0.002776 -0.002535 0.000000 0.000086 0.000000
# 2 -0.002776 0.009008 -0.002912 0.000000 0.001467 0.000000
# 3 -0.002535 -0.002912 0.012069 0.000000 0.002683 0.000000
# 4 0.000000 0.000000 0.000000 0.030741 0.000000 -0.009785
# 5 0.000086 0.001467 0.002683 0.000000 0.025363 0.000000
# 6 0.000000 0.000000 0.000000 -0.009785 0.000000 0.040312
#
#
# Mechanical properties :
#
#
# Convention : Reuss Voigt Hill
#
# Bulk Modulus (GPa) = 63.28773 68.28858 65.78816
# Shear Modulus (GPa) = 33.24974 35.94410 34.59692
#
# Velocity S-wave (km/s) = 3.93456 4.09087 4.01348
# Velocity P-wave (km/s) = 7.07865 7.35583 7.21857
#
# Compressibility (1/GPa) = 0.01580085
#
# Stress axis : x y z
#
# Youngs Moduli (GPa) = 89.51692 111.01764 82.86033
#
# Poissons Ratio (x) = 0.30822 0.21008
# Poissons Ratio (y) = 0.24853 0.24125
# Poissons Ratio (z) = 0.22696 0.32323
#
# Static dielectric constant tensor:
#      x y z
#    x 4.036820 0.000000 0.096570 
#    y 0.000000 3.908650 0.000000 
#    z 0.096570 0.000000 3.958720 
# 
# 
# High freq. dielectric constant tensor:
#      x y z
#    x 1.856660 0.000000 0.005420 
#    y 0.000000 1.853010 0.000000 
#    z 0.005420 0.000000 1.851370 
# 
# From -- ./inp_files/104251.got.cif
#   From: 2010.06.25/outbox.cif.g09.slc.cpg/sg15_53_cif.got.tgz:104251.got - 2010.06.28 07:06:18.
