data_PCOD8154990
_publ_section_title
;
Structure prediction by ZEFSAII (Michael W. Deem and Ramdas Pophale) SiO2 
 PCOD8154990
Probable space group: C 2/C
;
_chemical_formula_sum "Si O2"
_cell_formula_units_Z 40
_cell_length_a 8.659737
_cell_length_b 23.200646
_cell_length_c 9.341793
_cell_angle_alpha 90.000000
_cell_angle_beta 67.435662
_cell_angle_gamma 90.000000
_cell_volume 1733.197460
_symmetry_space_group_name_H-M "C 2/C"
_symmetry_group_IT_number 15
_symmetry_cell_setting 'monoclinic'
loop_
_space_group_symop_operation_xyz
x,y,z
-x,y,1/2-z
-x,-y,-z
x,-y,1/2+z
1/2+x,1/2+y,z
1/2-x,1/2+y,1/2-z
1/2-x,1/2-y,-z
1/2+x,1/2-y,1/2+z
loop_
_atom_site_type_symbol
_atom_site_label
_atom_site_fract_x
_atom_site_fract_y
_atom_site_fract_z
Si Si1 0.753008 0.219292 0.650912
Si Si2 0.378917 0.488710 0.669472
Si Si3 0.664918 0.108331 0.112795
Si Si4 0.879707 0.784380 0.543616
Si Si5 0.653657 0.905239 0.285221
O O1 0.750000 0.250000 0.500000
O O2 0.627669 0.255407 0.796861
O O3 0.697494 0.152777 0.680939
O O4 0.951340 0.219802 0.609258
O O5 0.500000 0.462348 0.750000
O O6 0.500000 0.500000 0.500000
O O7 0.223910 0.449526 0.672723
O O8 0.305946 0.550370 0.740769
O O9 0.500000 0.132288 0.250000
O O10 0.823727 0.149688 0.075486
O O11 0.608971 0.104976 0.967032
O O12 0.750000 0.750000 0.500000
O O13 0.500000 0.932876 0.250000
#
# Coordination Sequence:
#
# PCOD8154990 Si02
#       5
#     8   8   8   8   8
#     4  12  27  47  73 110 146 194 246 307 369 447
#     4  12  27  48  78 109 147 196 252 312 376 441
#     4  12  28  48  75 110 149 198 251 306 374 445
#     4  12  25  45  75 104 147 192 244 300 376 437
#     4  12  28  49  74 106 155 196 246 311 372 440
#
# _framework density 23.07873
#
# number of rings (size 3 to 8) (size 9 to 14) (size 15 to 20)
#    0.000    0.000    4.000    5.400    5.600    3.200 
#    0.000    0.000    0.000    0.000    0.000    0.000 
#    0.000    0.000    0.000    0.000    0.000    0.000 
#
# Total GULP energy -247849.235847 kJ/mol
# GULP energy per Si atom -12392.461792 kJ/mol
# Density = 2.302620 g / cm^3
# Si number density = 23.078730 Si / 1000 Ang^3
#
#
#
# Elastic Constant Matrix: (Units=GPa)
#
#
# Indices 1 2 3 4 5 6 
#
# 1 101.5719 11.2239 20.5012 0.0000 3.2611 0.0000
# 2 11.2239 93.4692 19.5882 0.0000 11.6368 0.0000
# 3 20.5012 19.5882 117.2816 0.0000 8.0476 0.0000
# 4 0.0000 0.0000 0.0000 31.4116 0.0000 6.7696
# 5 3.2611 11.6368 8.0476 0.0000 54.0203 0.0000
# 6 0.0000 0.0000 0.0000 6.7696 0.0000 37.6935
#
#
#
# Elastic Compliance Matrix: (Units=1/GPa)
#
#
# Indices 1 2 3 4 5 6 
#
# 1 0.010278 -0.000867 -0.001639 0.000000 -0.000190 0.000000
# 2 -0.000867 0.011409 -0.001605 0.000000 -0.002166 0.000000
# 3 -0.001639 -0.001605 0.009144 0.000000 -0.000917 0.000000
# 4 0.000000 0.000000 0.000000 0.033117 0.000000 -0.005948
# 5 -0.000190 -0.002166 -0.000917 0.000000 0.019126 0.000000
# 6 0.000000 0.000000 0.000000 -0.005948 0.000000 0.027598
#
#
# Mechanical properties :
#
#
# Convention : Reuss Voigt Hill
#
# Bulk Modulus (GPa) = 44.23127 46.10549 45.16838
# Shear Modulus (GPa) = 39.54727 42.02569 40.78648
#
# Velocity S-wave (km/s) = 4.14403 4.27191 4.20846
# Velocity P-wave (km/s) = 6.48879 6.65982 6.57486
#
# Compressibility (1/GPa) = 0.02260844
#
# Stress axis : x y z
#
# Youngs Moduli (GPa) = 97.29592 87.65046 109.36103
#
# Poissons Ratio (x) = 0.07601 0.17922
# Poissons Ratio (y) = 0.08437 0.17556
# Poissons Ratio (z) = 0.15945 0.14070
#
# Static dielectric constant tensor:
#      x y z
#    x -10.048920 0.000000 11.102240 
#    y 0.000000 3.572200 0.000000 
#    z 11.102240 0.000000 -4.936590 
# 
# 
# High freq. dielectric constant tensor:
#      x y z
#    x 1.930740 0.000000 -0.003400 
#    y 0.000000 1.911550 0.000000 
#    z -0.003400 0.000000 1.927750 
# 
# From -- ./inp_files/23489.got.cif
#   From: 2010.06.25/outbox.cif.g09.slc.cpg/sg15_12_cif.got.tgz:23489.got - 2010.06.28 07:06:18.
