data_PCOD8154855
_publ_section_title
;
Structure prediction by ZEFSAII (Michael W. Deem and Ramdas Pophale) SiO2 
 PCOD8154855
Probable space group: C 2/C
;
_chemical_formula_sum "Si O2"
_cell_formula_units_Z 64
_cell_length_a 26.430303
_cell_length_b 11.690690
_cell_length_c 14.905538
_cell_angle_alpha 90.000000
_cell_angle_beta 140.065095
_cell_angle_gamma 90.000000
_cell_volume 2956.437725
_symmetry_space_group_name_H-M "C 2/C"
_symmetry_group_IT_number 15
_symmetry_cell_setting 'monoclinic'
loop_
_space_group_symop_operation_xyz
x,y,z
-x,y,1/2-z
-x,-y,-z
x,-y,1/2+z
1/2+x,1/2+y,z
1/2-x,1/2+y,1/2-z
1/2-x,1/2-y,-z
1/2+x,1/2-y,1/2+z
loop_
_atom_site_type_symbol
_atom_site_label
_atom_site_fract_x
_atom_site_fract_y
_atom_site_fract_z
Si Si1 0.217116 0.477366 0.788380
Si Si2 0.949139 0.112317 0.425148
Si Si3 0.024140 0.709052 0.688076
Si Si4 0.758556 0.260540 0.407853
Si Si5 0.712747 0.493734 0.798029
Si Si6 0.948196 0.492264 0.517283
Si Si7 0.939566 0.256399 0.591837
Si Si8 0.702967 0.132658 0.938311
O O1 0.209227 0.344626 0.800964
O O2 0.285805 0.484164 0.807836
O O3 0.141202 0.524143 0.634130
O O4 0.234958 0.553887 0.900054
O O5 0.987151 0.198294 0.405025
O O6 0.944121 0.171540 0.514486
O O7 0.864323 0.072887 0.272986
O O8 0.000000 0.000000 0.500000
O O9 0.111054 0.655815 0.802267
O O10 0.000000 0.767070 0.750000
O O11 0.961559 0.606367 0.592600
O O12 0.750000 0.250000 0.500000
O O13 0.711077 0.372057 0.314147
O O14 0.850068 0.261041 0.504953
O O15 0.784366 0.434166 0.950366
O O16 0.970340 0.381827 0.605851
O O17 0.000000 0.500000 0.500000
O O18 0.000000 0.211208 0.750000
O O19 0.750000 0.250000 0.000000
#
# Coordination Sequence:
#
# PCOD8154855 Si02
#       8
#     8   8   8   8   8   8   8   8
#     4  12  26  46  75 106 144 193 242 295 365 423
#     4  12  29  51  70 104 148 195 239 289 358 436
#     4  12  27  48  74 108 144 187 241 296 363 422
#     4  12  28  47  73 108 145 192 243 292 360 431
#     4  12  27  48  74 105 144 189 242 297 356 429
#     4  12  24  44  79 107 144 187 238 303 363 419
#     4  12  28  49  75 106 147 186 241 304 358 427
#     4  12  26  47  75 105 146 185 239 304 356 424
#
# _framework density 21.647673000000001
#
# number of rings (size 3 to 8) (size 9 to 14) (size 15 to 20)
#    0.000    0.000    7.500    1.125    8.750    1.500 
#    0.000    0.000    0.000    0.000    0.000    0.000 
#    0.000    0.000    0.000    0.000    0.000    0.000 
#
# Total GULP energy -396904.052818 kJ/mol
# GULP energy per Si atom -12403.251651 kJ/mol
# Density = 2.159840 g / cm^3
# Si number density = 21.647673 Si / 1000 Ang^3
#
#
#
# Elastic Constant Matrix: (Units=GPa)
#
#
# Indices 1 2 3 4 5 6 
#
# 1 123.9213 46.1786 26.1537 0.0000 -29.4098 0.0000
# 2 46.1786 165.6111 46.1327 0.0000 -20.0737 0.0000
# 3 26.1537 46.1327 91.4816 0.0000 -14.5040 0.0000
# 4 0.0000 0.0000 0.0000 24.6831 0.0000 5.1567
# 5 -29.4098 -20.0737 -14.5040 0.0000 39.7194 0.0000
# 6 0.0000 0.0000 0.0000 5.1567 0.0000 29.1204
#
#
#
# Elastic Compliance Matrix: (Units=1/GPa)
#
#
# Indices 1 2 3 4 5 6 
#
# 1 0.010517 -0.001858 -0.001045 0.000000 0.006467 0.000000
# 2 -0.001858 0.007575 -0.003078 0.000000 0.001329 0.000000
# 3 -0.001045 -0.003078 0.013176 0.000000 0.002482 0.000000
# 4 0.000000 0.000000 0.000000 0.042070 0.000000 -0.007450
# 5 0.006467 0.001329 0.002482 0.000000 0.031543 0.000000
# 6 0.000000 0.000000 0.000000 -0.007450 0.000000 0.035659
#
#
# Mechanical properties :
#
#
# Convention : Reuss Voigt Hill
#
# Bulk Modulus (GPa) = 51.79565 68.66043 60.22804
# Shear Modulus (GPa) = 31.45922 36.20786 33.83354
#
# Velocity S-wave (km/s) = 3.81627 4.09418 3.95766
# Velocity P-wave (km/s) = 6.58765 7.35770 6.98330
#
# Compressibility (1/GPa) = 0.01930664
#
# Stress axis : x y z
#
# Youngs Moduli (GPa) = 95.08258 132.01814 75.89819
#
# Poissons Ratio (x) = 0.24525 0.07928
# Poissons Ratio (y) = 0.17664 0.23362
# Poissons Ratio (z) = 0.09933 0.40636
#
# Static dielectric constant tensor:
#      x y z
#    x 4.274280 0.000000 -0.224800 
#    y 0.000000 4.054550 0.000000 
#    z -0.224800 0.000000 3.890050 
# 
# 
# High freq. dielectric constant tensor:
#      x y z
#    x 1.863450 0.000000 -0.011500 
#    y 0.000000 1.863210 0.000000 
#    z -0.011500 0.000000 1.853690 
# 
# From -- ./inp_files/177853.got.cif
#   From: 2010.06.25/outbox.cif.g09.slc.cpg/sg15_89_cif.got.tgz:177853.got - 2010.06.28 07:06:18.
