data_PCOD8154537
_publ_section_title
;
Structure prediction by ZEFSAII (Michael W. Deem and Ramdas Pophale) SiO2 
 PCOD8154537
Probable space group: C 2/C
;
_chemical_formula_sum "Si O2"
_cell_formula_units_Z 24
_cell_length_a 18.839275
_cell_length_b 9.012505
_cell_length_c 9.776924
_cell_angle_alpha 90.000000
_cell_angle_beta 36.725559
_cell_angle_gamma 90.000000
_cell_volume 992.660178
_symmetry_space_group_name_H-M "C 2/C"
_symmetry_group_IT_number 15
_symmetry_cell_setting 'monoclinic'
loop_
_space_group_symop_operation_xyz
x,y,z
-x,y,1/2-z
-x,-y,-z
x,-y,1/2+z
1/2+x,1/2+y,z
1/2-x,1/2+y,1/2-z
1/2-x,1/2-y,-z
1/2+x,1/2-y,1/2+z
loop_
_atom_site_type_symbol
_atom_site_label
_atom_site_fract_x
_atom_site_fract_y
_atom_site_fract_z
Si Si1 0.532932 0.851599 0.339968
Si Si2 0.896023 0.823163 0.511750
Si Si3 0.184139 0.513329 0.916090
O O1 0.500000 0.762262 0.250000
O O2 0.546107 0.730575 0.436057
O O3 0.422892 0.972055 0.529368
O O4 0.654267 0.942196 0.111381
O O5 0.815836 0.691299 0.571889
O O6 0.812547 0.963845 0.665983
O O7 0.000000 0.872574 0.250000
#
# Coordination Sequence:
#
# PCOD8154537 Si02
#       3
#     8   8   8
#     4   8  20  41  60  82 119 161 186 236 296 344
#     4  12  21  41  61  90 115 154 197 241 287 345
#     4   9  22  37  65  83 120 155 191 239 295 340
#
# _framework density 24.177461000000001
#
# number of rings (size 3 to 8) (size 9 to 14) (size 15 to 20)
#    2.000    0.000    3.333    2.000    0.000    1.333 
#    6.000    1.667    0.000    0.000    0.000    0.000 
#    0.000    0.000    0.000    0.000    0.000    0.000 
#
# Total GULP energy -148667.822274 kJ/mol
# GULP energy per Si atom -12388.985189 kJ/mol
# Density = 2.412243 g / cm^3
# Si number density = 24.177461 Si / 1000 Ang^3
#
#
#
# Elastic Constant Matrix: (Units=GPa)
#
#
# Indices 1 2 3 4 5 6 
#
# 1 21.2043 5.5449 20.0451 0.0000 0.5965 0.0000
# 2 5.5449 28.7747 43.9215 0.0000 -16.1248 0.0000
# 3 20.0451 43.9215 204.9331 0.0000 -16.2466 0.0000
# 4 0.0000 0.0000 0.0000 38.2306 0.0000 -8.7313
# 5 0.5965 -16.1248 -16.2466 0.0000 36.0234 0.0000
# 6 0.0000 0.0000 0.0000 -8.7313 0.0000 16.1831
#
#
#
# Elastic Compliance Matrix: (Units=1/GPa)
#
#
# Indices 1 2 3 4 5 6 
#
# 1 0.053127 -0.007359 -0.004097 0.000000 -0.006021 0.000000
# 2 -0.007359 0.068771 -0.011998 0.000000 0.025494 0.000000
# 3 -0.004097 -0.011998 0.007707 0.000000 -0.001827 0.000000
# 4 0.000000 0.000000 0.000000 0.029833 0.000000 0.016096
# 5 -0.006021 0.025494 -0.001827 0.000000 0.038447 0.000000
# 6 0.000000 0.000000 0.000000 0.016096 0.000000 0.070477
#
#
# Mechanical properties :
#
#
# Convention : Reuss Voigt Hill
#
# Bulk Modulus (GPa) = 12.09220 43.77055 27.93138
# Shear Modulus (GPa) = 14.58427 30.44748 22.51587
#
# Velocity S-wave (km/s) = 2.45871 3.55256 3.05499
# Velocity P-wave (km/s) = 3.61561 5.91361 4.90119
#
# Compressibility (1/GPa) = 0.08269796
#
# Stress axis : x y z
#
# Youngs Moduli (GPa) = 18.82292 14.54096 129.75220
#
# Poissons Ratio (x) = 0.10700 0.53156
# Poissons Ratio (y) = 0.13851 1.55680
# Poissons Ratio (z) = 0.07711 0.17447
#
# Static dielectric constant tensor:
#      x y z
#    x 4.059450 0.000000 0.218120 
#    y 0.000000 3.758880 0.000000 
#    z 0.218120 0.000000 4.399860 
# 
# 
# High freq. dielectric constant tensor:
#      x y z
#    x 1.943320 0.000000 0.016070 
#    y 0.000000 1.923870 0.000000 
#    z 0.016070 0.000000 1.970660 
# 
# From -- ./inp_files/64798.got.cif
#   From: 2010.06.25/outbox.cif.g09.slc.cpg/sg15_33_cif.got.tgz:64798.got - 2010.06.28 07:06:18.
