data_PCOD8154015
_publ_section_title
;
Structure prediction by ZEFSAII (Michael W. Deem and Ramdas Pophale) SiO2 
 PCOD8154015
Probable space group: C 2/C
;
_chemical_formula_sum "Si O2"
_cell_formula_units_Z 24
_cell_length_a 13.030948
_cell_length_b 5.266141
_cell_length_c 18.800316
_cell_angle_alpha 90.000000
_cell_angle_beta 128.377404
_cell_angle_gamma 90.000000
_cell_volume 1011.382793
_symmetry_space_group_name_H-M "C 2/C"
_symmetry_group_IT_number 15
_symmetry_cell_setting 'monoclinic'
loop_
_space_group_symop_operation_xyz
x,y,z
-x,y,1/2-z
-x,-y,-z
x,-y,1/2+z
1/2+x,1/2+y,z
1/2-x,1/2+y,1/2-z
1/2-x,1/2-y,-z
1/2+x,1/2-y,1/2+z
loop_
_atom_site_type_symbol
_atom_site_label
_atom_site_fract_x
_atom_site_fract_y
_atom_site_fract_z
Si Si1 0.544561 0.799662 0.959809
Si Si2 0.791810 0.453926 0.075835
Si Si3 0.222657 0.887142 0.194290
O O1 0.428583 0.599107 0.896985
O O2 0.572287 0.932104 0.895123
O O3 0.679733 0.666743 0.040088
O O4 0.500000 0.000000 0.000000
O O5 0.813886 0.337734 0.163894
O O6 0.750000 0.250000 0.000000
O O7 0.243575 0.653654 0.255853
#
# Coordination Sequence:
#
# PCOD8154015 Si02
#       3
#     8   8   8
#     4  11  24  48  75 104 142 195 249 299 354 449
#     4  11  25  46  78 101 137 199 254 286 360 449
#     4  12  28  48  70 111 153 183 234 312 372 421
#
# _framework density 23.729887999999999
#
# number of rings (size 3 to 8) (size 9 to 14) (size 15 to 20)
#    0.000    0.667    3.333    3.000    9.333    1.333 
#    0.000    0.000    0.000    0.000    0.000    0.000 
#    0.000    0.000    0.000    0.000    0.000    0.000 
#
# Total GULP energy -148771.924114 kJ/mol
# GULP energy per Si atom -12397.660343 kJ/mol
# Density = 2.367588 g / cm^3
# Si number density = 23.729888 Si / 1000 Ang^3
#
#
#
# Elastic Constant Matrix: (Units=GPa)
#
#
# Indices 1 2 3 4 5 6 
#
# 1 184.4594 30.3624 33.9490 0.0000 -38.9155 0.0000
# 2 30.3624 66.1349 -4.3289 0.0000 -13.4294 0.0000
# 3 33.9490 -4.3289 54.1567 0.0000 -28.3725 0.0000
# 4 0.0000 0.0000 0.0000 35.4543 0.0000 0.4235
# 5 -38.9155 -13.4294 -28.3725 0.0000 53.7850 0.0000
# 6 0.0000 0.0000 0.0000 0.4235 0.0000 56.0231
#
#
#
# Elastic Compliance Matrix: (Units=1/GPa)
#
#
# Indices 1 2 3 4 5 6 
#
# 1 0.007064 -0.002917 -0.003269 0.000000 0.002658 0.000000
# 2 -0.002917 0.018023 0.006248 0.000000 0.005685 0.000000
# 3 -0.003269 0.006248 0.028456 0.000000 0.014206 0.000000
# 4 0.000000 0.000000 0.000000 0.028208 0.000000 -0.000213
# 5 0.002658 0.005685 0.014206 0.000000 0.029429 0.000000
# 6 0.000000 0.000000 0.000000 -0.000213 0.000000 0.017851
#
#
# Mechanical properties :
#
#
# Convention : Reuss Voigt Hill
#
# Bulk Modulus (GPa) = 18.63333 47.19067 32.91200
# Shear Modulus (GPa) = 34.06083 45.37038 39.71561
#
# Velocity S-wave (km/s) = 3.79272 4.37733 4.09547
# Velocity P-wave (km/s) = 5.20086 6.74372 6.02191
#
# Compressibility (1/GPa) = 0.05366727
#
# Stress axis : x y z
#
# Youngs Moduli (GPa) = 141.56677 55.48381 35.14228
#
# Poissons Ratio (x) = 0.16185 0.11486
# Poissons Ratio (y) = 0.41297 -0.21956
# Poissons Ratio (z) = 0.46272 -0.34665
#
# Static dielectric constant tensor:
#      x y z
#    x 5.201050 0.000000 -0.321340 
#    y 0.000000 4.375340 0.000000 
#    z -0.321340 0.000000 4.412030 
# 
# 
# High freq. dielectric constant tensor:
#      x y z
#    x 1.972490 0.000000 -0.023720 
#    y 0.000000 1.944460 0.000000 
#    z -0.023720 0.000000 1.921180 
# 
# From -- ./inp_files/149354.got.cif
#   From: 2010.06.25/outbox.cif.g09.slc.cpg/sg15_75_cif.got.tgz:149354.got - 2010.06.28 07:06:18.
