data_PCOD8154107
_publ_section_title
;
Structure prediction by ZEFSAII (Michael W. Deem and Ramdas Pophale) SiO2 
 PCOD8154107
Probable space group: C 2/C
;
_chemical_formula_sum "Si O2"
_cell_formula_units_Z 56
_cell_length_a 16.136664
_cell_length_b 12.789614
_cell_length_c 14.116263
_cell_angle_alpha 90.000000
_cell_angle_beta 58.433462
_cell_angle_gamma 90.000000
_cell_volume 2482.259906
_symmetry_space_group_name_H-M "C 2/C"
_symmetry_group_IT_number 15
_symmetry_cell_setting 'monoclinic'
loop_
_space_group_symop_operation_xyz
x,y,z
-x,y,1/2-z
-x,-y,-z
x,-y,1/2+z
1/2+x,1/2+y,z
1/2-x,1/2+y,1/2-z
1/2-x,1/2-y,-z
1/2+x,1/2-y,1/2+z
loop_
_atom_site_type_symbol
_atom_site_label
_atom_site_fract_x
_atom_site_fract_y
_atom_site_fract_z
Si Si1 0.324328 0.234722 0.700894
Si Si2 0.106797 0.489970 0.295272
Si Si3 0.239056 0.154536 0.574697
Si Si4 0.834058 0.661648 0.093629
Si Si5 0.120295 0.497643 0.076437
Si Si6 0.445518 0.477139 0.379506
Si Si7 0.987497 0.158086 0.491691
O O1 0.380351 0.132569 0.698917
O O2 0.235641 0.203207 0.682379
O O3 0.270807 0.286492 0.823454
O O4 0.403539 0.314125 0.609047
O O5 0.158758 0.563987 0.338851
O O6 0.151700 0.516382 0.165781
O O7 0.993367 0.508846 0.368578
O O8 0.250000 0.250000 0.500000
O O9 0.154478 0.076115 0.593711
O O10 0.339055 0.090549 0.512201
O O11 0.837971 0.613855 0.985466
O O12 0.923179 0.740845 0.050706
O O13 0.500000 0.503678 0.250000
O O14 0.432711 0.584751 0.446772
O O15 0.505569 0.398839 0.410804
#
# Coordination Sequence:
#
# PCOD8154107 Si02
#       7
#     8   8   8   8   8   8   8
#     4  12  25  44  74 101 145 187 239 293 363 425
#     4  11  25  46  70 104 139 183 240 293 356 430
#     4  12  24  45  71 104 139 185 240 296 345 429
#     4  12  25  45  75 103 143 186 237 295 361 417
#     4  11  25  44  73 102 137 182 238 296 352 426
#     4  11  27  46  72 103 150 188 237 292 367 439
#     4  11  26  48  71 107 144 190 236 303 360 429
#
# _framework density 22.560088
#
# number of rings (size 3 to 8) (size 9 to 14) (size 15 to 20)
#    0.000    0.571    4.286    3.000    4.000    2.857 
#    0.000    0.000    0.000    0.000    0.000    0.000 
#    0.000    0.000    0.000    0.000    0.000    0.000 
#
# Total GULP energy -347161.527549 kJ/mol
# GULP energy per Si atom -12398.625984 kJ/mol
# Density = 2.250874 g / cm^3
# Si number density = 22.560088 Si / 1000 Ang^3
#
#
#
# Elastic Constant Matrix: (Units=GPa)
#
#
# Indices 1 2 3 4 5 6 
#
# 1 69.6824 21.0051 22.2576 0.0000 -2.3735 0.0000
# 2 21.0051 104.0989 26.9080 0.0000 -3.8554 0.0000
# 3 22.2576 26.9080 103.2911 0.0000 -9.3156 0.0000
# 4 0.0000 0.0000 0.0000 39.1454 0.0000 -2.7128
# 5 -2.3735 -3.8554 -9.3156 0.0000 15.9416 0.0000
# 6 0.0000 0.0000 0.0000 -2.7128 0.0000 43.6238
#
#
#
# Elastic Compliance Matrix: (Units=1/GPa)
#
#
# Indices 1 2 3 4 5 6 
#
# 1 0.015999 -0.002504 -0.002782 0.000000 0.000151 0.000000
# 2 -0.002504 0.010706 -0.002164 0.000000 0.000952 0.000000
# 3 -0.002782 -0.002164 0.011358 0.000000 0.005700 0.000000
# 4 0.000000 0.000000 0.000000 0.025656 0.000000 0.001595
# 5 0.000151 0.000952 0.005700 0.000000 0.066312 0.000000
# 6 0.000000 0.000000 0.000000 0.001595 0.000000 0.023023
#
#
# Mechanical properties :
#
#
# Convention : Reuss Voigt Hill
#
# Bulk Modulus (GPa) = 43.16740 46.37931 44.77336
# Shear Modulus (GPa) = 28.46168 33.53561 30.99864
#
# Velocity S-wave (km/s) = 3.55575 3.85970 3.71084
# Velocity P-wave (km/s) = 6.00281 6.36127 6.18464
#
# Compressibility (1/GPa) = 0.02316563
#
# Stress axis : x y z
#
# Youngs Moduli (GPa) = 62.50310 93.40585 88.03984
#
# Poissons Ratio (x) = 0.23386 0.24490
# Poissons Ratio (y) = 0.15649 0.19048
# Poissons Ratio (z) = 0.17387 0.20209
#
# Static dielectric constant tensor:
#      x y z
#    x 3.112590 0.000000 0.531820 
#    y 0.000000 4.216870 0.000000 
#    z 0.531820 0.000000 4.278510 
# 
# 
# High freq. dielectric constant tensor:
#      x y z
#    x 1.879950 0.000000 0.005170 
#    y 0.000000 1.905370 0.000000 
#    z 0.005170 0.000000 1.903430 
# 
# From -- ./inp_files/161224.got.cif
#   From: 2010.06.25/outbox.cif.g09.slc.cpg/sg15_81_cif.got.tgz:161224.got - 2010.06.28 07:06:18.
