data_PCOD8154271
_publ_section_title
;
Structure prediction by ZEFSAII (Michael W. Deem and Ramdas Pophale) SiO2 
 PCOD8154271
Probable space group: C 2/C
;
_chemical_formula_sum "Si O2"
_cell_formula_units_Z 32
_cell_length_a 13.400195
_cell_length_b 5.491853
_cell_length_c 18.824653
_cell_angle_alpha 90.000000
_cell_angle_beta 110.708570
_cell_angle_gamma 90.000000
_cell_volume 1295.836648
_symmetry_space_group_name_H-M "C 2/C"
_symmetry_group_IT_number 15
_symmetry_cell_setting 'monoclinic'
loop_
_space_group_symop_operation_xyz
x,y,z
-x,y,1/2-z
-x,-y,-z
x,-y,1/2+z
1/2+x,1/2+y,z
1/2-x,1/2+y,1/2-z
1/2-x,1/2-y,-z
1/2+x,1/2-y,1/2+z
loop_
_atom_site_type_symbol
_atom_site_label
_atom_site_fract_x
_atom_site_fract_y
_atom_site_fract_z
Si Si1 0.374955 0.768202 0.020496
Si Si2 0.044106 0.378236 0.600441
Si Si3 0.941221 0.032799 0.669664
Si Si4 0.760631 0.630579 0.796619
O O1 0.432595 0.614322 0.095243
O O2 0.426915 0.037183 0.042888
O O3 0.250000 0.750000 0.000000
O O4 0.404089 0.696646 0.946392
O O5 0.124955 0.600986 0.636395
O O6 0.025772 0.244998 0.671097
O O7 0.000000 0.890500 0.750000
O O8 0.827226 0.140237 0.663302
O O9 0.761410 0.885557 0.755164
#
# Coordination Sequence:
#
# PCOD8154271 Si02
#       4
#     8   8   8   8
#     4  11  25  48  73 108 154 203 259 318 391 463
#     4  11  26  47  73 110 151 206 255 324 384 466
#     4  12  25  46  77 108 150 204 254 323 385 466
#     4  12  27  49  79 116 157 207 262 324 392 461
#
# _framework density 24.694471
#
# number of rings (size 3 to 8) (size 9 to 14) (size 15 to 20)
#    0.000    0.500    5.000    2.250    3.500    2.000 
#    0.000    0.000    0.000    0.000    0.000    0.000 
#    0.000    0.000    0.000    0.000    0.000    0.000 
#
# Total GULP energy -198252.166472 kJ/mol
# GULP energy per Si atom -12390.760405 kJ/mol
# Density = 2.463826 g / cm^3
# Si number density = 24.694471 Si / 1000 Ang^3
#
#
#
# Elastic Constant Matrix: (Units=GPa)
#
#
# Indices 1 2 3 4 5 6 
#
# 1 192.3602 36.6412 58.8577 0.0000 -15.8135 0.0000
# 2 36.6412 64.6728 25.3950 0.0000 -15.4227 -0.0001
# 3 58.8577 25.3950 119.8585 0.0000 -5.9215 0.0000
# 4 0.0000 0.0000 0.0000 36.8892 0.0000 6.1792
# 5 -15.8135 -15.4227 -5.9215 0.0000 55.8159 0.0000
# 6 0.0000 -0.0001 0.0000 6.1792 0.0000 32.4846
#
#
#
# Elastic Compliance Matrix: (Units=1/GPa)
#
#
# Indices 1 2 3 4 5 6 
#
# 1 0.006552 -0.002457 -0.002653 0.000000 0.000896 0.000000
# 2 -0.002457 0.018882 -0.002584 0.000000 0.004247 0.000000
# 3 -0.002653 -0.002584 0.010174 0.000000 -0.000386 0.000000
# 4 0.000000 0.000000 0.000000 0.028000 0.000000 -0.005326
# 5 0.000896 0.004247 -0.000386 0.000000 0.019302 0.000000
# 6 0.000000 0.000000 0.000000 -0.005326 0.000000 0.031797
#
#
# Mechanical properties :
#
#
# Convention : Reuss Voigt Hill
#
# Bulk Modulus (GPa) = 49.45441 68.74216 59.09829
# Shear Modulus (GPa) = 36.54026 42.10447 39.32236
#
# Velocity S-wave (km/s) = 3.85085 4.13366 3.99476
# Velocity P-wave (km/s) = 6.31206 7.11902 6.72765
#
# Compressibility (1/GPa) = 0.02022064
#
# Stress axis : x y z
#
# Youngs Moduli (GPa) = 152.62923 52.96053 98.28770
#
# Poissons Ratio (x) = 0.13011 0.26071
# Poissons Ratio (y) = 0.37498 0.25401
# Poissons Ratio (z) = 0.40486 0.13687
#
# Static dielectric constant tensor:
#      x y z
#    x 4.798510 0.000000 -0.072050 
#    y 0.000000 4.141880 0.000000 
#    z -0.072050 0.000000 4.739390 
# 
# 
# High freq. dielectric constant tensor:
#      x y z
#    x 2.014790 0.000000 -0.003510 
#    y 0.000000 1.940590 0.000000 
#    z -0.003510 0.000000 2.004750 
# 
# From -- ./inp_files/201815.got.cif
#   From: 2010.06.25/outbox.cif.g09.slc.cpg/sg15_101_cif.got.tgz:201815.got - 2010.06.28 07:06:18.
