data_PCOD8154773
_publ_section_title
;
Structure prediction by ZEFSAII (Michael W. Deem and Ramdas Pophale) SiO2 
 PCOD8154773
Probable space group: C 2/C
;
_chemical_formula_sum "Si O2"
_cell_formula_units_Z 44
_cell_length_a 11.299481
_cell_length_b 15.418862
_cell_length_c 11.027831
_cell_angle_alpha 90.000000
_cell_angle_beta 90.781763
_cell_angle_gamma 90.000000
_cell_volume 1921.146538
_symmetry_space_group_name_H-M "C 2/C"
_symmetry_group_IT_number 15
_symmetry_cell_setting 'monoclinic'
loop_
_space_group_symop_operation_xyz
x,y,z
-x,y,1/2-z
-x,-y,-z
x,-y,1/2+z
1/2+x,1/2+y,z
1/2-x,1/2+y,1/2-z
1/2-x,1/2-y,-z
1/2+x,1/2-y,1/2+z
loop_
_atom_site_type_symbol
_atom_site_label
_atom_site_fract_x
_atom_site_fract_y
_atom_site_fract_z
Si Si1 0.863774 0.764388 0.717446
Si Si2 0.781386 0.102269 0.763219
Si Si3 0.500000 0.826231 0.750000
Si Si4 0.410744 0.422453 0.028379
Si Si5 0.723696 0.081464 0.328311
Si Si6 0.903427 0.206251 0.955002
O O1 0.800694 0.682729 0.782083
O O2 0.809631 0.856950 0.751696
O O3 0.839001 0.752062 0.571507
O O4 0.000000 0.760999 0.750000
O O5 0.887935 0.085321 0.671250
O O6 0.835497 0.123690 0.896339
O O7 0.708607 0.012988 0.768418
O O8 0.409251 0.881597 0.666888
O O9 0.420907 0.772830 0.844154
O O10 0.472653 0.331574 0.990599
O O11 0.500000 0.500000 0.000000
O O12 0.283671 0.429263 0.960796
#
# Coordination Sequence:
#
# PCOD8154773 Si02
#       6
#     8   8   4   8   8   8
#     4  12  27  46  73 108 147 194 248 301 375 445
#     4  12  27  45  72 109 147 193 240 308 373 440
#     4  12  28  48  70 104 150 196 242 304 384 436
#     4  12  24  44  76 110 141 189 255 310 360 436
#     4  12  28  46  73 108 145 189 249 305 368 449
#     4  12  23  46  74  99 150 193 241 303 369 441
#
# _framework density 22.902989999999999
#
# number of rings (size 3 to 8) (size 9 to 14) (size 15 to 20)
#    0.000    0.000    7.273    1.636    3.818    1.455 
#    0.000    1.818    0.000    0.000    0.000    0.000 
#    0.000    0.000    0.000    0.000    0.000    0.000 
#
# Total GULP energy -272788.984133 kJ/mol
# GULP energy per Si atom -12399.499279 kJ/mol
# Density = 2.285086 g / cm^3
# Si number density = 22.902990 Si / 1000 Ang^3
#
#
#
# Elastic Constant Matrix: (Units=GPa)
#
#
# Indices 1 2 3 4 5 6 
#
# 1 98.8533 38.6622 16.8532 0.0000 23.3805 0.0000
# 2 38.6622 149.4306 32.8203 0.0000 -6.2639 0.0000
# 3 16.8532 32.8203 107.5894 0.0000 -7.0021 0.0000
# 4 0.0000 0.0000 0.0000 26.8482 0.0000 -6.1682
# 5 23.3805 -6.2639 -7.0021 0.0000 40.8328 0.0000
# 6 0.0000 0.0000 0.0000 -6.1682 0.0000 33.0893
#
#
#
# Elastic Compliance Matrix: (Units=1/GPa)
#
#
# Indices 1 2 3 4 5 6 
#
# 1 0.013881 -0.003598 -0.001649 0.000000 -0.008783 0.000000
# 2 -0.003598 0.008127 -0.001720 0.000000 0.003012 0.000000
# 3 -0.001649 -0.001720 0.010236 0.000000 0.002435 0.000000
# 4 0.000000 0.000000 0.000000 0.038913 0.000000 0.007254
# 5 -0.008783 0.003012 0.002435 0.000000 0.030399 0.000000
# 6 0.000000 0.000000 0.000000 0.007254 0.000000 0.031573
#
#
# Mechanical properties :
#
#
# Convention : Reuss Voigt Hill
#
# Bulk Modulus (GPa) = 54.60710 59.17162 56.88936
# Shear Modulus (GPa) = 32.64454 37.98993 35.31723
#
# Velocity S-wave (km/s) = 3.77946 4.07717 3.93114
# Velocity P-wave (km/s) = 6.55289 6.93226 6.74524
#
# Compressibility (1/GPa) = 0.01831264
#
# Stress axis : x y z
#
# Youngs Moduli (GPa) = 72.03859 123.04963 97.69551
#
# Poissons Ratio (x) = 0.44269 0.16106
# Poissons Ratio (y) = 0.25917 0.16799
# Poissons Ratio (z) = 0.11876 0.21159
#
# Static dielectric constant tensor:
#      x y z
#    x 4.168090 0.000000 0.103990 
#    y 0.000000 4.203890 0.000000 
#    z 0.103990 0.000000 4.046170 
# 
# 
# High freq. dielectric constant tensor:
#      x y z
#    x 1.912270 0.000000 0.010400 
#    y 0.000000 1.909350 0.000000 
#    z 0.010400 0.000000 1.899100 
# 
# From -- ./inp_files/86053.got.cif
#   From: 2010.06.25/outbox.cif.g09.slc.cpg/sg15_44_cif.got.tgz:86053.got - 2010.06.28 07:06:18.
