data_PCOD8154511
_publ_section_title
;
Structure prediction by ZEFSAII (Michael W. Deem and Ramdas Pophale) SiO2 
 PCOD8154511
Probable space group: C 2/C
;
_chemical_formula_sum "Si O2"
_cell_formula_units_Z 44
_cell_length_a 22.612987
_cell_length_b 11.004452
_cell_length_c 9.267845
_cell_angle_alpha 90.000000
_cell_angle_beta 126.092114
_cell_angle_gamma 90.000000
_cell_volume 1863.608235
_symmetry_space_group_name_H-M "C 2/C"
_symmetry_group_IT_number 15
_symmetry_cell_setting 'monoclinic'
loop_
_space_group_symop_operation_xyz
x,y,z
-x,y,1/2-z
-x,-y,-z
x,-y,1/2+z
1/2+x,1/2+y,z
1/2-x,1/2+y,1/2-z
1/2-x,1/2-y,-z
1/2+x,1/2-y,1/2+z
loop_
_atom_site_type_symbol
_atom_site_label
_atom_site_fract_x
_atom_site_fract_y
_atom_site_fract_z
Si Si1 0.892177 0.146450 0.376822
Si Si2 0.000000 0.431644 0.250000
Si Si3 0.138251 0.929683 0.978226
Si Si4 0.699773 0.115956 0.725147
Si Si5 0.865292 0.580631 0.161959
Si Si6 0.544324 0.739503 0.541303
O O1 0.845145 0.267607 0.286960
O O2 0.977200 0.176910 0.529765
O O3 0.860607 0.068290 0.464002
O O4 0.884773 0.066518 0.221424
O O5 0.069986 0.514810 0.329392
O O6 0.010526 0.353392 0.408194
O O7 0.216493 0.865644 0.109663
O O8 0.077904 0.854324 0.977435
O O9 0.696958 0.102992 0.547671
O O10 0.667882 0.995824 0.754940
O O11 0.894587 0.710798 0.260447
#
# Coordination Sequence:
#
# PCOD8154511 Si02
#       6
#     8   4   8   8   8   8
#     4  12  27  50  71 108 142 191 240 291 355 425
#     4  12  20  46  68 112 130 190 230 306 350 410
#     4  12  28  47  74 101 150 189 237 289 364 424
#     4  12  27  47  75 107 145 187 237 299 352 426
#     4  12  25  44  76 108 142 183 247 291 360 412
#     4  12  24  45  75 101 145 190 237 296 352 420
#
# _framework density 23.610112000000001
#
# number of rings (size 3 to 8) (size 9 to 14) (size 15 to 20)
#    0.000    0.000    5.455    3.818    5.091    0.727 
#    0.000    0.000    0.000    0.000    0.000    0.000 
#    0.000    0.000    0.000    0.000    0.000    0.000 
#
# Total GULP energy -273009.999753 kJ/mol
# GULP energy per Si atom -12409.545443 kJ/mol
# Density = 2.355637 g / cm^3
# Si number density = 23.610112 Si / 1000 Ang^3
#
#
#
# Elastic Constant Matrix: (Units=GPa)
#
#
# Indices 1 2 3 4 5 6 
#
# 1 88.5513 26.6943 10.7186 0.0000 10.5596 0.0000
# 2 26.6943 78.9731 31.1585 0.0000 -3.7581 0.0000
# 3 10.7186 31.1585 108.5747 0.0000 -13.9448 0.0000
# 4 0.0000 0.0000 0.0000 33.7838 0.0000 -8.0657
# 5 10.5596 -3.7581 -13.9448 0.0000 36.9292 0.0000
# 6 0.0000 0.0000 0.0000 -8.0657 0.0000 37.7900
#
#
#
# Elastic Compliance Matrix: (Units=1/GPa)
#
#
# Indices 1 2 3 4 5 6 
#
# 1 0.013240 -0.004450 -0.000604 0.000000 -0.004467 0.000000
# 2 -0.004450 0.015775 -0.003908 0.000000 0.001402 0.000000
# 3 -0.000604 -0.003908 0.010891 0.000000 0.003887 0.000000
# 4 0.000000 0.000000 0.000000 0.031189 0.000000 0.006657
# 5 -0.004467 0.001402 0.003887 0.000000 0.029967 0.000000
# 6 0.000000 0.000000 0.000000 0.006657 0.000000 0.027883
#
#
# Mechanical properties :
#
#
# Convention : Reuss Voigt Hill
#
# Bulk Modulus (GPa) = 45.48922 45.91579 45.70251
# Shear Modulus (GPa) = 32.42656 35.53578 33.98117
#
# Velocity S-wave (km/s) = 3.70999 3.88378 3.79788
# Velocity P-wave (km/s) = 6.13683 6.29297 6.21539
#
# Compressibility (1/GPa) = 0.02198323
#
# Stress axis : x y z
#
# Youngs Moduli (GPa) = 75.52874 63.39092 91.82260
#
# Poissons Ratio (x) = 0.28207 0.05544
# Poissons Ratio (y) = 0.33608 0.35882
# Poissons Ratio (z) = 0.04560 0.24772
#
# Static dielectric constant tensor:
#      x y z
#    x 4.259410 0.000000 0.031090 
#    y 0.000000 4.253790 0.000000 
#    z 0.031090 0.000000 4.376240 
# 
# 
# High freq. dielectric constant tensor:
#      x y z
#    x 1.937970 0.000000 0.001490 
#    y 0.000000 1.937830 0.000000 
#    z 0.001490 0.000000 1.944660 
# 
# From -- ./inp_files/54374.got.cif
#   From: 2010.06.25/outbox.cif.g09.slc.cpg/sg15_28_cif.got.tgz:54374.got - 2010.06.28 07:06:18.
