data_PCOD8154119
_publ_section_title
;
Structure prediction by ZEFSAII (Michael W. Deem and Ramdas Pophale) SiO2 
 PCOD8154119
Probable space group: C 2/C
;
_chemical_formula_sum "Si O2"
_cell_formula_units_Z 32
_cell_length_a 12.937072
_cell_length_b 24.251419
_cell_length_c 11.202239
_cell_angle_alpha 90.000000
_cell_angle_beta 157.307656
_cell_angle_gamma 90.000000
_cell_volume 1355.878606
_symmetry_space_group_name_H-M "C 2/C"
_symmetry_group_IT_number 15
_symmetry_cell_setting 'monoclinic'
loop_
_space_group_symop_operation_xyz
x,y,z
-x,y,1/2-z
-x,-y,-z
x,-y,1/2+z
1/2+x,1/2+y,z
1/2-x,1/2+y,1/2-z
1/2-x,1/2-y,-z
1/2+x,1/2-y,1/2+z
loop_
_atom_site_type_symbol
_atom_site_label
_atom_site_fract_x
_atom_site_fract_y
_atom_site_fract_z
Si Si1 0.737398 0.377503 0.911180
Si Si2 0.000000 0.163477 0.750000
Si Si3 0.039405 0.784051 0.538408
Si Si4 0.339960 0.498246 0.706207
Si Si5 0.500000 0.911749 0.750000
O O1 0.500000 0.379906 0.750000
O O2 0.635503 0.341979 0.692378
O O3 0.810950 0.439558 0.949943
O O4 0.000000 0.350069 0.250000
O O5 0.025851 0.205050 0.668236
O O6 0.736061 0.126159 0.449084
O O7 0.764829 0.762167 0.303413
O O8 0.500000 0.505633 0.750000
O O9 0.122650 0.547847 0.482753
O O10 0.500000 0.500000 0.000000
#
# Coordination Sequence:
#
# PCOD8154119 Si02
#       5
#     8   4   8   8   4
#     4  11  25  45  68 101 142 183 235 294 347 424
#     4  12  26  45  72 108 144 179 240 296 362 428
#     4  12  26  47  72 101 137 188 238 301 355 415
#     4  11  25  46  71 109 151 196 239 294 360 438
#     4  12  24  45  72 110 142 197 228 298 360 444
#
# _framework density 23.600932
#
# number of rings (size 3 to 8) (size 9 to 14) (size 15 to 20)
#    0.000    0.500    2.500    5.250    0.000    8.000 
#    0.000    0.000    0.000    0.000    0.000    0.000 
#    0.000    0.000    0.000    0.000    0.000    0.000 
#
# Total GULP energy -198359.038186 kJ/mol
# GULP energy per Si atom -12397.439887 kJ/mol
# Density = 2.354722 g / cm^3
# Si number density = 23.600932 Si / 1000 Ang^3
#
#
#
# Elastic Constant Matrix: (Units=GPa)
#
#
# Indices 1 2 3 4 5 6 
#
# 1 66.8099 7.6231 34.6330 0.0001 -8.2260 0.0000
# 2 7.6231 80.8675 23.7596 0.0005 9.1598 0.0000
# 3 34.6330 23.7596 146.7397 0.0018 0.9656 0.0023
# 4 0.0001 0.0005 0.0018 37.8537 0.0010 0.0952
# 5 -8.2260 9.1598 0.9656 0.0010 44.6224 0.0012
# 6 0.0000 0.0000 0.0023 0.0952 0.0012 15.7178
#
#
#
# Elastic Compliance Matrix: (Units=1/GPa)
#
#
# Indices 1 2 3 4 5 6 
#
# 1 0.017590 -0.000870 -0.004034 0.000000 0.003509 0.000000
# 2 -0.000870 0.013340 -0.001936 0.000000 -0.002857 0.000001
# 3 -0.004034 -0.001936 0.008084 0.000000 -0.000521 -0.000001
# 4 0.000000 0.000000 0.000000 0.026418 -0.000001 -0.000160
# 5 0.003509 -0.002857 -0.000521 -0.000001 0.023655 -0.000002
# 6 0.000000 0.000001 -0.000001 -0.000160 -0.000002 0.063623
#
#
# Mechanical properties :
#
#
# Convention : Reuss Voigt Hill
#
# Bulk Modulus (GPa) = 39.47221 47.38317 43.42769
# Shear Modulus (GPa) = 28.59844 34.86554 31.73199
#
# Velocity S-wave (km/s) = 3.48480 3.84773 3.67075
# Velocity P-wave (km/s) = 5.74046 6.31351 6.03379
#
# Compressibility (1/GPa) = 0.02533428
#
# Stress axis : x y z
#
# Youngs Moduli (GPa) = 56.84996 74.96070 123.70607
#
# Poissons Ratio (x) = 0.06525 0.49900
# Poissons Ratio (y) = 0.04948 0.23947
# Poissons Ratio (z) = 0.22932 0.14511
#
# Static dielectric constant tensor:
#      x y z
#    x 4.058670 0.000000 0.089370 
#    y 0.000000 4.645660 0.000000 
#    z 0.089370 0.000000 4.461750 
# 
# 
# High freq. dielectric constant tensor:
#      x y z
#    x 1.913250 0.000000 -0.000630 
#    y 0.000000 1.952080 0.000000 
#    z -0.000630 0.000000 1.955170 
# 
# From -- ./inp_files/101192.got.cif
#   From: 2010.06.25/outbox.cif.g09.slc.cpg/sg15_51_cif.got.tgz:101192.got - 2010.06.28 07:06:18.
