data_PCOD8154615
_publ_section_title
;
Structure prediction by ZEFSAII (Michael W. Deem and Ramdas Pophale) SiO2 
 PCOD8154615
Probable space group: C 2/C
;
_chemical_formula_sum "Si O2"
_cell_formula_units_Z 40
_cell_length_a 8.152251
_cell_length_b 16.737500
_cell_length_c 22.123552
_cell_angle_alpha 90.000000
_cell_angle_beta 145.986075
_cell_angle_gamma 90.000000
_cell_volume 1688.655591
_symmetry_space_group_name_H-M "C 2/C"
_symmetry_group_IT_number 15
_symmetry_cell_setting 'monoclinic'
loop_
_space_group_symop_operation_xyz
x,y,z
-x,y,1/2-z
-x,-y,-z
x,-y,1/2+z
1/2+x,1/2+y,z
1/2-x,1/2+y,1/2-z
1/2-x,1/2-y,-z
1/2+x,1/2-y,1/2+z
loop_
_atom_site_type_symbol
_atom_site_label
_atom_site_fract_x
_atom_site_fract_y
_atom_site_fract_z
Si Si1 0.023931 0.265719 0.627666
Si Si2 0.500000 0.604061 0.250000
Si Si3 0.204606 0.105521 0.640352
Si Si4 0.000000 0.780111 0.250000
Si Si5 0.183316 0.974560 0.922311
Si Si6 0.855703 0.334215 0.056800
O O1 0.210485 0.340213 0.659831
O O2 0.201030 0.182744 0.682974
O O3 0.750000 0.250000 0.500000
O O4 0.949675 0.277814 0.676160
O O5 0.513323 0.545325 0.196470
O O6 0.500000 0.058804 0.750000
O O7 0.201159 0.139895 0.571829
O O8 0.941481 0.044583 0.572851
O O9 0.288897 0.836392 0.331676
O O10 0.213910 0.893433 0.966728
O O11 0.500000 0.000000 0.000000
O O12 0.750000 0.250000 0.000000
#
# Coordination Sequence:
#
# PCOD8154615 Si02
#       6
#     8   4   8   4   8   8
#     4  12  24  46  77 109 147 201 261 323 386 467
#     4  12  26  51  72 111 154 196 266 322 384 475
#     4  12  25  48  75 106 157 196 249 321 391 450
#     4  12  22  41  78 107 148 196 246 324 388 445
#     4  12  29  47  76 111 153 205 255 320 398 471
#     4  12  26  49  76 112 149 203 265 313 385 470
#
# _framework density 23.687483
#
# number of rings (size 3 to 8) (size 9 to 14) (size 15 to 20)
#    0.000    0.000    3.000    7.800    2.800    0.800 
#   10.800    0.000    0.000    0.000    0.000    0.000 
#    0.000    0.000    0.000    0.000    0.000    0.000 
#
# Total GULP energy -247936.176448 kJ/mol
# GULP energy per Si atom -12396.808822 kJ/mol
# Density = 2.363357 g / cm^3
# Si number density = 23.687483 Si / 1000 Ang^3
#
#
#
# Elastic Constant Matrix: (Units=GPa)
#
#
# Indices 1 2 3 4 5 6 
#
# 1 168.2893 71.5772 67.6945 -0.0003 -16.3645 0.0000
# 2 71.5772 134.6044 38.0213 0.0007 -2.5554 -0.0001
# 3 67.6945 38.0213 136.7527 -0.0009 -11.4487 -0.0025
# 4 -0.0003 0.0007 -0.0009 33.1386 -0.0005 -5.1426
# 5 -16.3645 -2.5554 -11.4487 -0.0005 53.2586 -0.0003
# 6 0.0000 -0.0001 -0.0025 -5.1426 -0.0003 48.0278
#
#
#
# Elastic Compliance Matrix: (Units=1/GPa)
#
#
# Indices 1 2 3 4 5 6 
#
# 1 0.009087 -0.003875 -0.003262 0.000000 0.001905 0.000000
# 2 -0.003875 0.009715 -0.000859 0.000000 -0.000909 0.000000
# 3 -0.003262 -0.000859 0.009245 0.000000 0.000944 0.000001
# 4 0.000000 0.000000 0.000000 0.030686 0.000000 0.003286
# 5 0.001905 -0.000909 0.000944 0.000000 0.019521 0.000000
# 6 0.000000 0.000000 0.000001 0.003286 0.000000 0.021173
#
#
# Mechanical properties :
#
#
# Convention : Reuss Voigt Hill
#
# Bulk Modulus (GPa) = 82.94394 88.24803 85.59598
# Shear Modulus (GPa) = 41.86287 44.37522 43.11904
#
# Velocity S-wave (km/s) = 4.20849 4.33293 4.27116
# Velocity P-wave (km/s) = 7.66206 7.89737 7.78060
#
# Compressibility (1/GPa) = 0.01205634
#
# Stress axis : x y z
#
# Youngs Moduli (GPa) = 110.04174 102.93270 108.16810
#
# Poissons Ratio (x) = 0.39885 0.35280
# Poissons Ratio (y) = 0.42640 0.09292
# Poissons Ratio (z) = 0.35891 0.08843
#
# Static dielectric constant tensor:
#      x y z
#    x 4.533320 -0.000030 0.041840 
#    y -0.000030 4.189680 -0.000010 
#    z 0.041840 -0.000010 4.312040 
# 
# 
# High freq. dielectric constant tensor:
#      x y z
#    x 1.958270 0.000000 -0.007020 
#    y 0.000000 1.928010 0.000000 
#    z -0.007020 0.000000 1.954960 
# 
# From -- ./inp_files/265688.got.cif
#   From: 2010.06.25/outbox.cif.g09.slc.cpg/sg15_133_cif.got.tgz:265688.got - 2010.06.28 07:06:18.
