data_PCOD8154387
_publ_section_title
;
Structure prediction by ZEFSAII (Michael W. Deem and Ramdas Pophale) SiO2 
 PCOD8154387
Probable space group: C 2/C
;
_chemical_formula_sum "Si O2"
_cell_formula_units_Z 48
_cell_length_a 13.696142
_cell_length_b 17.235967
_cell_length_c 8.915928
_cell_angle_alpha 90.000000
_cell_angle_beta 85.114511
_cell_angle_gamma 90.000000
_cell_volume 2097.102930
_symmetry_space_group_name_H-M "C 2/C"
_symmetry_group_IT_number 15
_symmetry_cell_setting 'monoclinic'
loop_
_space_group_symop_operation_xyz
x,y,z
-x,y,1/2-z
-x,-y,-z
x,-y,1/2+z
1/2+x,1/2+y,z
1/2-x,1/2+y,1/2-z
1/2-x,1/2-y,-z
1/2+x,1/2-y,1/2+z
loop_
_atom_site_type_symbol
_atom_site_label
_atom_site_fract_x
_atom_site_fract_y
_atom_site_fract_z
Si Si1 0.068313 0.046164 0.879163
Si Si2 0.385254 0.977353 0.524217
Si Si3 0.422120 0.281374 0.128362
Si Si4 0.234201 0.769273 0.827757
Si Si5 0.410948 0.174093 0.854155
Si Si6 0.241027 0.555041 0.177675
O O1 0.094835 0.132033 0.935379
O O2 0.000000 0.062346 0.750000
O O3 0.167589 0.003056 0.819214
O O4 0.000000 0.000000 0.000000
O O5 0.357630 0.900713 0.430917
O O6 0.347821 0.961690 0.696081
O O7 0.500000 0.000000 0.500000
O O8 0.315123 0.046152 0.473313
O O9 0.500000 0.274735 0.250000
O O10 0.325064 0.248693 0.212505
O O11 0.450308 0.229413 0.981910
O O12 0.148352 0.720687 0.763673
O O13 0.211604 0.860370 0.816568
O O14 0.250000 0.750000 0.000000
O O15 0.500000 0.138217 0.750000
#
# Coordination Sequence:
#
# PCOD8154387 Si02
#       6
#     8   8   8   8   8   8
#     4  11  27  45  74 107 146 189 242 306 372 447
#     4  12  28  49  75 112 148 200 251 314 386 459
#     4  11  26  47  74 106 146 190 248 307 378 453
#     4  12  29  46  76 108 148 199 252 313 381 450
#     4  12  27  48  76 106 150 195 251 313 380 459
#     4  12  28  47  77 107 153 193 254 311 380 458
#
# _framework density 22.888717
#
# number of rings (size 3 to 8) (size 9 to 14) (size 15 to 20)
#    0.000    0.333    1.667    5.000   21.000    0.000 
#    0.000    0.000    0.000    0.000    0.000    0.000 
#    0.000    0.000    0.000    0.000    0.000    0.000 
#
# Total GULP energy -297521.118914 kJ/mol
# GULP energy per Si atom -12396.713288 kJ/mol
# Density = 2.283662 g / cm^3
# Si number density = 22.888717 Si / 1000 Ang^3
#
#
#
# Elastic Constant Matrix: (Units=GPa)
#
#
# Indices 1 2 3 4 5 6 
#
# 1 97.4993 17.4875 10.7443 0.0000 -0.2585 0.0000
# 2 17.4875 120.3967 26.1145 0.0000 1.9121 0.0000
# 3 10.7443 26.1145 108.0892 0.0000 -3.2527 0.0000
# 4 0.0000 0.0000 0.0000 37.8133 0.0000 -0.9138
# 5 -0.2585 1.9121 -3.2527 0.0000 49.8934 0.0000
# 6 0.0000 0.0000 0.0000 -0.9138 0.0000 38.3657
#
#
#
# Elastic Compliance Matrix: (Units=1/GPa)
#
#
# Indices 1 2 3 4 5 6 
#
# 1 0.010584 -0.001383 -0.000716 0.000000 0.000061 0.000000
# 2 -0.001383 0.008957 -0.002041 0.000000 -0.000484 0.000000
# 3 -0.000716 -0.002041 0.009837 0.000000 0.000716 0.000000
# 4 0.000000 0.000000 0.000000 0.026461 0.000000 0.000630
# 5 0.000061 -0.000484 0.000716 0.000000 0.020108 0.000000
# 6 0.000000 0.000000 0.000000 0.000630 0.000000 0.026080
#
#
# Mechanical properties :
#
#
# Convention : Reuss Voigt Hill
#
# Bulk Modulus (GPa) = 47.39793 48.29752 47.84772
# Shear Modulus (GPa) = 42.61109 43.32373 42.96741
#
# Velocity S-wave (km/s) = 4.31938 4.35535 4.33740
# Velocity P-wave (km/s) = 6.75493 6.81461 6.78483
#
# Compressibility (1/GPa) = 0.02109797
#
# Stress axis : x y z
#
# Youngs Moduli (GPa) = 94.48580 111.64261 101.65205
#
# Poissons Ratio (x) = 0.15439 0.07279
# Poissons Ratio (y) = 0.13066 0.20749
# Poissons Ratio (z) = 0.06766 0.22788
#
# Static dielectric constant tensor:
#      x y z
#    x 3.921630 0.000000 -0.109220 
#    y 0.000000 4.529140 0.000000 
#    z -0.109220 0.000000 4.214130 
# 
# 
# High freq. dielectric constant tensor:
#      x y z
#    x 1.910780 0.000000 -0.003720 
#    y 0.000000 1.922400 0.000000 
#    z -0.003720 0.000000 1.918610 
# 
# From -- ./inp_files/39653.got.cif
#   From: 2010.06.25/outbox.cif.g09.slc.cpg/sg15_20_cif.got.tgz:39653.got - 2010.06.28 07:06:18.
