data_PCOD8154068
_publ_section_title
;
Structure prediction by ZEFSAII (Michael W. Deem and Ramdas Pophale) SiO2 
 PCOD8154068
Probable space group: C 2/C
;
_chemical_formula_sum "Si O2"
_cell_formula_units_Z 40
_cell_length_a 8.494935
_cell_length_b 24.800116
_cell_length_c 9.037837
_cell_angle_alpha 90.000000
_cell_angle_beta 84.384086
_cell_angle_gamma 90.000000
_cell_volume 1894.910737
_symmetry_space_group_name_H-M "C 2/C"
_symmetry_group_IT_number 15
_symmetry_cell_setting 'monoclinic'
loop_
_space_group_symop_operation_xyz
x,y,z
-x,y,1/2-z
-x,-y,-z
x,-y,1/2+z
1/2+x,1/2+y,z
1/2-x,1/2+y,1/2-z
1/2-x,1/2-y,-z
1/2+x,1/2-y,1/2+z
loop_
_atom_site_type_symbol
_atom_site_label
_atom_site_fract_x
_atom_site_fract_y
_atom_site_fract_z
Si Si1 0.844530 0.400171 0.954015
Si Si2 0.882476 0.987766 0.386008
Si Si3 0.830584 0.196582 0.560245
Si Si4 0.310473 0.698922 0.910839
Si Si5 0.298531 0.097972 0.123582
O O1 0.795913 0.382093 0.792730
O O2 0.026282 0.418129 0.945033
O O3 0.747148 0.446559 0.044283
O O4 0.816307 0.347386 0.050596
O O5 0.801890 0.043822 0.352907
O O6 0.000000 0.963362 0.250000
O O7 0.000000 0.000000 0.500000
O O8 0.750000 0.250000 0.500000
O O9 0.801808 0.203491 0.736176
O O10 0.764046 0.143158 0.484859
O O11 0.018833 0.189327 0.529955
O O12 0.250000 0.750000 0.000000
#
# Coordination Sequence:
#
# PCOD8154068 Si02
#       5
#     8   8   8   8   8
#     4  11  25  44  69  97 136 177 224 278 331 398
#     4  12  25  44  69  98 135 179 226 277 336 395
#     4  11  25  43  68  98 134 176 222 274 334 397
#     4  11  25  43  67  99 134 174 223 275 332 398
#     4  11  25  45  67  98 136 178 224 275 335 396
#
# _framework density 21.109173999999999
#
# number of rings (size 3 to 8) (size 9 to 14) (size 15 to 20)
#    0.000    0.800    2.000    4.200    5.600    8.000 
#    0.000    0.000    0.000    0.000    0.000    0.000 
#    0.000    0.000    0.000    0.000    0.000    0.000 
#
# Total GULP energy -247760.953382 kJ/mol
# GULP energy per Si atom -12388.047669 kJ/mol
# Density = 2.106113 g / cm^3
# Si number density = 21.109174 Si / 1000 Ang^3
#
#
#
# Elastic Constant Matrix: (Units=GPa)
#
#
# Indices 1 2 3 4 5 6 
#
# 1 122.9277 38.9057 70.4090 0.0000 -10.2933 0.0000
# 2 38.9057 110.5545 38.9675 0.0000 -10.0374 0.0000
# 3 70.4090 38.9675 118.3542 0.0000 -6.8854 0.0000
# 4 0.0000 0.0000 0.0000 39.9312 0.0000 -5.0549
# 5 -10.2933 -10.0374 -6.8854 0.0000 41.6669 0.0000
# 6 0.0000 0.0000 0.0000 -5.0549 0.0000 42.7662
#
#
#
# Elastic Compliance Matrix: (Units=1/GPa)
#
#
# Indices 1 2 3 4 5 6 
#
# 1 0.012835 -0.001941 -0.006906 0.000000 0.001562 0.000000
# 2 -0.001941 0.010682 -0.002262 0.000000 0.001720 0.000000
# 3 -0.006906 -0.002262 0.013299 0.000000 -0.000053 0.000000
# 4 0.000000 0.000000 0.000000 0.025423 0.000000 0.003005
# 5 0.001562 0.001720 -0.000053 0.000000 0.024791 0.000000
# 6 0.000000 0.000000 0.000000 0.003005 0.000000 0.023738
#
#
# Mechanical properties :
#
#
# Convention : Reuss Voigt Hill
#
# Bulk Modulus (GPa) = 68.50053 72.04452 70.27253
# Shear Modulus (GPa) = 36.27031 38.44314 37.35672
#
# Velocity S-wave (km/s) = 4.14964 4.27213 4.21133
# Velocity P-wave (km/s) = 7.44852 7.65104 7.55046
#
# Compressibility (1/GPa) = 0.01459843
#
# Stress axis : x y z
#
# Youngs Moduli (GPa) = 77.90922 93.61638 75.19225
#
# Poissons Ratio (x) = 0.18171 0.51927
# Poissons Ratio (y) = 0.15122 0.17010
# Poissons Ratio (z) = 0.53803 0.21178
#
# Static dielectric constant tensor:
#      x y z
#    x 4.151110 0.000000 0.075710 
#    y 0.000000 3.308420 0.000000 
#    z 0.075710 0.000000 4.127390 
# 
# 
# High freq. dielectric constant tensor:
#      x y z
#    x 1.847570 0.000000 -0.004560 
#    y 0.000000 1.834270 0.000000 
#    z -0.004560 0.000000 1.849550 
# 
# From -- ./inp_files/23447.got.cif
#   From: 2010.06.25/outbox.cif.g09.slc.cpg/sg15_12_cif.got.tgz:23447.got - 2010.06.28 07:06:18.
