data_PCOD8154143
_publ_section_title
;
Structure prediction by ZEFSAII (Michael W. Deem and Ramdas Pophale) SiO2 
 PCOD8154143
Probable space group: C 2/C
;
_chemical_formula_sum "Si O2"
_cell_formula_units_Z 44
_cell_length_a 11.440508
_cell_length_b 8.713296
_cell_length_c 26.498638
_cell_angle_alpha 90.000000
_cell_angle_beta 50.352196
_cell_angle_gamma 90.000000
_cell_volume 2033.908547
_symmetry_space_group_name_H-M "C 2/C"
_symmetry_group_IT_number 15
_symmetry_cell_setting 'monoclinic'
loop_
_space_group_symop_operation_xyz
x,y,z
-x,y,1/2-z
-x,-y,-z
x,-y,1/2+z
1/2+x,1/2+y,z
1/2-x,1/2+y,1/2-z
1/2-x,1/2-y,-z
1/2+x,1/2-y,1/2+z
loop_
_atom_site_type_symbol
_atom_site_label
_atom_site_fract_x
_atom_site_fract_y
_atom_site_fract_z
Si Si1 0.200436 0.144773 0.871420
Si Si2 0.051494 0.362926 0.521621
Si Si3 0.770825 0.391883 0.930144
Si Si4 0.500000 0.697536 0.250000
Si Si5 0.340151 0.525303 0.722321
Si Si6 0.945557 0.347640 0.711861
O O1 0.362644 0.197603 0.806175
O O2 0.127883 0.040026 0.846763
O O3 0.095815 0.292365 0.910225
O O4 0.216595 0.047563 0.918154
O O5 0.173055 0.429179 0.528548
O O6 0.132582 0.228396 0.467402
O O7 0.000000 0.500000 0.500000
O O8 0.911176 0.315044 0.862644
O O9 0.542010 0.594249 0.286673
O O10 0.168242 0.470847 0.781361
O O11 0.355915 0.688990 0.745292
O O12 0.000000 0.414777 0.750000
#
# Coordination Sequence:
#
# PCOD8154143 Si02
#       6
#     8   8   8   4   8   8
#     4  12  25  45  67 101 139 179 230 282 344 407
#     4  11  27  46  71  99 135 184 236 286 336 405
#     4  11  25  45  71  97 136 179 232 282 342 406
#     4  12  26  38  72 104 140 178 228 278 346 416
#     4  12  24  40  66 100 139 175 223 279 341 410
#     4  12  24  42  70 101 138 180 223 283 351 410
#
# _framework density 21.633223000000001
#
# number of rings (size 3 to 8) (size 9 to 14) (size 15 to 20)
#    0.000    0.364    6.364    1.636    2.545    3.636 
#    0.000    0.000    0.000    0.000    0.000    0.000 
#    0.000    0.000    0.000    0.000    0.000    0.000 
#
# Total GULP energy -272877.256375 kJ/mol
# GULP energy per Si atom -12403.511653 kJ/mol
# Density = 2.158399 g / cm^3
# Si number density = 21.633223 Si / 1000 Ang^3
#
#
#
# Elastic Constant Matrix: (Units=GPa)
#
#
# Indices 1 2 3 4 5 6 
#
# 1 130.5853 63.5701 37.1086 0.0000 14.1263 0.0000
# 2 63.5701 105.6727 36.1714 0.0000 4.7964 0.0000
# 3 37.1086 36.1714 100.7139 0.0000 -6.9084 0.0000
# 4 0.0000 0.0000 0.0000 33.9434 0.0000 13.1602
# 5 14.1263 4.7964 -6.9084 0.0000 38.9771 0.0000
# 6 0.0000 0.0000 0.0000 13.1602 0.0000 37.4075
#
#
#
# Elastic Compliance Matrix: (Units=1/GPa)
#
#
# Indices 1 2 3 4 5 6 
#
# 1 0.011709 -0.006039 -0.002415 0.000000 -0.003928 0.000000
# 2 -0.006039 0.014067 -0.002830 0.000000 -0.000044 0.000000
# 3 -0.002415 -0.002830 0.012066 0.000000 0.003362 0.000000
# 4 0.000000 0.000000 0.000000 0.034114 0.000000 -0.012002
# 5 -0.003928 -0.000044 0.003362 0.000000 0.027681 0.000000
# 6 0.000000 0.000000 0.000000 -0.012002 0.000000 0.030955
#
#
# Mechanical properties :
#
#
# Convention : Reuss Voigt Hill
#
# Bulk Modulus (GPa) = 65.47051 67.85247 66.66149
# Shear Modulus (GPa) = 31.59558 35.40704 33.50131
#
# Velocity S-wave (km/s) = 3.82581 4.05000 3.93950
# Velocity P-wave (km/s) = 7.06012 7.30089 7.18152
#
# Compressibility (1/GPa) = 0.01527405
#
# Stress axis : x y z
#
# Youngs Moduli (GPa) = 85.40612 71.08985 82.87836
#
# Poissons Ratio (x) = 0.42930 0.20013
# Poissons Ratio (y) = 0.51575 0.23455
# Poissons Ratio (z) = 0.20624 0.20119
#
# Static dielectric constant tensor:
#      x y z
#    x 4.348660 0.000000 0.056490 
#    y 0.000000 3.874010 0.000000 
#    z 0.056490 0.000000 3.841510 
# 
# 
# High freq. dielectric constant tensor:
#      x y z
#    x 1.873080 0.000000 -0.000850 
#    y 0.000000 1.849830 0.000000 
#    z -0.000850 0.000000 1.838250 
# 
# From -- ./inp_files/236058.got.cif
#   From: 2010.06.25/outbox.cif.g09.slc.cpg/sg15_119_cif.got.tgz:236058.got - 2010.06.28 07:06:18.
