data_PCOD8154243
_publ_section_title
;
Structure prediction by ZEFSAII (Michael W. Deem and Ramdas Pophale) SiO2 
 PCOD8154243
Probable space group: C 2/C
;
_chemical_formula_sum "Si O2"
_cell_formula_units_Z 24
_cell_length_a 7.734835
_cell_length_b 27.066699
_cell_length_c 9.154025
_cell_angle_alpha 90.000000
_cell_angle_beta 34.009607
_cell_angle_gamma 90.000000
_cell_volume 1071.933967
_symmetry_space_group_name_H-M "C 2/C"
_symmetry_group_IT_number 15
_symmetry_cell_setting 'monoclinic'
loop_
_space_group_symop_operation_xyz
x,y,z
-x,y,1/2-z
-x,-y,-z
x,-y,1/2+z
1/2+x,1/2+y,z
1/2-x,1/2+y,1/2-z
1/2-x,1/2-y,-z
1/2+x,1/2-y,1/2+z
loop_
_atom_site_type_symbol
_atom_site_label
_atom_site_fract_x
_atom_site_fract_y
_atom_site_fract_z
Si Si1 0.642635 0.955937 0.490067
Si Si2 0.500000 0.784306 0.750000
Si Si3 0.500000 0.215302 0.750000
Si Si4 0.829422 0.347675 0.102115
O O1 0.583112 0.905123 0.442773
O O2 0.000000 0.967870 0.250000
O O3 0.500000 0.000000 0.500000
O O4 0.500000 0.951513 0.750000
O O5 0.403717 0.820978 0.684292
O O6 0.750000 0.750000 0.500000
O O7 0.680595 0.179732 0.736038
O O8 0.750000 0.250000 0.500000
O O9 0.500000 0.342048 0.250000
#
# Coordination Sequence:
#
# PCOD8154243 Si02
#       4
#     8   4   4   8
#     4  11  25  47  75 107 141 186 237 297 367 426
#     4  12  22  38  69  96 131 182 226 280 336 410
#     4  12  30  44  67 110 141 184 242 290 348 418
#     4  11  26  48  73 101 143 189 237 288 357 424
#
# _framework density 22.389437000000001
#
# number of rings (size 3 to 8) (size 9 to 14) (size 15 to 20)
#    0.000    0.667    3.333    3.000    7.000    0.000 
#    3.000    0.000    0.000    0.000    0.000    0.000 
#    0.000    0.000    0.000    0.000    0.000    0.000 
#
# Total GULP energy -148693.534125 kJ/mol
# GULP energy per Si atom -12391.127844 kJ/mol
# Density = 2.233848 g / cm^3
# Si number density = 22.389437 Si / 1000 Ang^3
#
#
#
# Elastic Constant Matrix: (Units=GPa)
#
#
# Indices 1 2 3 4 5 6 
#
# 1 128.2559 96.6100 56.9742 0.0000 18.5220 0.0000
# 2 96.6100 248.0640 84.3267 0.0000 10.9807 0.0000
# 3 56.9742 84.3267 161.3885 0.0000 3.4070 0.0000
# 4 0.0000 0.0000 0.0000 27.2395 0.0000 18.3992
# 5 18.5220 10.9807 3.4070 0.0000 35.9356 0.0000
# 6 0.0000 0.0000 0.0000 18.3992 0.0000 53.9665
#
#
#
# Elastic Compliance Matrix: (Units=1/GPa)
#
#
# Indices 1 2 3 4 5 6 
#
# 1 0.012427 -0.003845 -0.002272 0.000000 -0.005015 0.000000
# 2 -0.003845 0.006149 -0.001861 0.000000 0.000280 0.000000
# 3 -0.002272 -0.001861 0.007950 0.000000 0.000986 0.000000
# 4 0.000000 0.000000 0.000000 0.047695 0.000000 -0.016261
# 5 -0.005015 0.000280 0.000986 0.000000 0.030233 0.000000
# 6 0.000000 0.000000 0.000000 -0.016261 0.000000 0.024074
#
#
# Mechanical properties :
#
#
# Convention : Reuss Voigt Hill
#
# Bulk Modulus (GPa) = 94.61837 112.61447 103.61642
# Shear Modulus (GPa) = 33.78175 43.41483 38.59829
#
# Velocity S-wave (km/s) = 3.88857 4.40827 4.15655
# Velocity P-wave (km/s) = 7.90654 8.73600 8.33160
#
# Compressibility (1/GPa) = 0.01056877
#
# Stress axis : x y z
#
# Youngs Moduli (GPa) = 80.47025 162.62168 125.78578
#
# Poissons Ratio (x) = 0.62536 0.28577
# Poissons Ratio (y) = 0.30945 0.23413
# Poissons Ratio (z) = 0.18282 0.30270
#
# Static dielectric constant tensor:
#      x y z
#    x 4.041910 0.000000 -0.477650 
#    y 0.000000 4.816130 0.000000 
#    z -0.477650 0.000000 8.835810 
# 
# 
# High freq. dielectric constant tensor:
#      x y z
#    x 1.857980 0.000000 0.014210 
#    y 0.000000 1.913790 0.000000 
#    z 0.014210 0.000000 1.904040 
# 
# From -- ./inp_files/25241.got.cif
#   From: 2010.06.25/outbox.cif.g09.slc.cpg/sg15_13_cif.got.tgz:25241.got - 2010.06.28 07:06:18.
