data_PCOD8154148
_publ_section_title
;
Structure prediction by ZEFSAII (Michael W. Deem and Ramdas Pophale) SiO2 
 PCOD8154148
Probable space group: C 2/C
;
_chemical_formula_sum "Si O2"
_cell_formula_units_Z 40
_cell_length_a 6.204949
_cell_length_b 20.637123
_cell_length_c 15.757403
_cell_angle_alpha 90.000000
_cell_angle_beta 114.380705
_cell_angle_gamma 90.000000
_cell_volume 1837.832257
_symmetry_space_group_name_H-M "C 2/C"
_symmetry_group_IT_number 15
_symmetry_cell_setting 'monoclinic'
loop_
_space_group_symop_operation_xyz
x,y,z
-x,y,1/2-z
-x,-y,-z
x,-y,1/2+z
1/2+x,1/2+y,z
1/2-x,1/2+y,1/2-z
1/2-x,1/2-y,-z
1/2+x,1/2-y,1/2+z
loop_
_atom_site_type_symbol
_atom_site_label
_atom_site_fract_x
_atom_site_fract_y
_atom_site_fract_z
Si Si1 0.011611 0.478340 0.099797
Si Si2 0.760573 0.144943 0.980759
Si Si3 0.000000 0.000111 0.750000
Si Si4 0.479258 0.236475 0.430637
Si Si5 0.684667 0.417655 0.634633
Si Si6 0.000000 0.689494 0.250000
O O1 0.885952 0.409676 0.092054
O O2 0.893205 0.537708 0.131382
O O3 0.263667 0.461214 0.185242
O O4 0.000000 0.500000 0.000000
O O5 0.802737 0.205901 0.926928
O O6 0.617598 0.169938 0.041321
O O7 0.013641 0.111115 0.035725
O O8 0.976519 0.957958 0.829667
O O9 0.750000 0.250000 0.500000
O O10 0.458724 0.233017 0.325984
O O11 0.775642 0.355967 0.700363
#
# Coordination Sequence:
#
# PCOD8154148 Si02
#       6
#     8   8   4   8   8   4
#     4  12  25  42  72 105 140 183 224 295 360 415
#     4  11  25  45  72 101 143 181 240 289 356 415
#     4  12  24  40  67 110 139 180 230 276 366 424
#     4  11  25  46  71 100 137 193 237 290 344 418
#     4  12  23  44  75 103 133 179 240 294 348 427
#     4  12  22  44  75  98 135 180 244 284 342 422
#
# _framework density 21.764772000000001
#
# number of rings (size 3 to 8) (size 9 to 14) (size 15 to 20)
#    0.000    0.400    6.000    3.000    0.000    0.000 
#    0.000    6.000    0.000    0.000    0.000    0.000 
#    0.000    0.000    0.000    0.000    0.000    0.000 
#
# Total GULP energy -247908.971986 kJ/mol
# GULP energy per Si atom -12395.448599 kJ/mol
# Density = 2.171523 g / cm^3
# Si number density = 21.764772 Si / 1000 Ang^3
#
#
#
# Elastic Constant Matrix: (Units=GPa)
#
#
# Indices 1 2 3 4 5 6 
#
# 1 104.7190 41.3569 55.3678 0.0000 17.6399 0.0000
# 2 41.3569 103.8285 57.0991 0.0000 11.5397 0.0000
# 3 55.3678 57.0991 136.8096 0.0000 10.0149 0.0000
# 4 0.0000 0.0000 0.0000 36.7347 0.0000 1.6068
# 5 17.6399 11.5397 10.0149 0.0000 56.7631 0.0000
# 6 0.0000 0.0000 0.0000 1.6068 0.0000 75.0461
#
#
#
# Elastic Compliance Matrix: (Units=1/GPa)
#
#
# Indices 1 2 3 4 5 6 
#
# 1 0.013230 -0.002756 -0.003996 0.000000 -0.002846 0.000000
# 2 -0.002756 0.013227 -0.004327 0.000000 -0.001069 0.000000
# 3 -0.003996 -0.004327 0.010715 0.000000 0.000231 0.000000
# 4 0.000000 0.000000 0.000000 0.027248 0.000000 -0.000583
# 5 -0.002846 -0.001069 0.000231 0.000000 0.018678 0.000000
# 6 0.000000 0.000000 0.000000 -0.000583 0.000000 0.013338
#
#
# Mechanical properties :
#
#
# Convention : Reuss Voigt Hill
#
# Bulk Modulus (GPa) = 66.59767 72.55607 69.57687
# Shear Modulus (GPa) = 40.45348 46.47766 43.46557
#
# Velocity S-wave (km/s) = 4.31590 4.62611 4.47370
# Velocity P-wave (km/s) = 7.44992 7.87041 7.66305
#
# Compressibility (1/GPa) = 0.01501554
#
# Stress axis : x y z
#
# Youngs Moduli (GPa) = 75.58681 75.60035 93.32281
#
# Poissons Ratio (x) = 0.20836 0.37288
# Poissons Ratio (y) = 0.20832 0.40381
# Poissons Ratio (z) = 0.30201 0.32712
#
# Static dielectric constant tensor:
#      x y z
#    x 4.440650 0.000000 1.155630 
#    y 0.000000 4.010930 0.000000 
#    z 1.155630 0.000000 7.912010 
# 
# 
# High freq. dielectric constant tensor:
#      x y z
#    x 1.871240 0.000000 0.005180 
#    y 0.000000 1.854220 0.000000 
#    z 0.005180 0.000000 1.855810 
# 
# From -- ./inp_files/129576.got.cif
#   From: 2010.06.25/outbox.cif.g09.slc.cpg/sg15_65_cif.got.tgz:129576.got - 2010.06.28 07:06:18.
