data_PCOD8154032
_publ_section_title
;
Structure prediction by ZEFSAII (Michael W. Deem and Ramdas Pophale) SiO2 
 PCOD8154032
Probable space group: C 2/C
;
_chemical_formula_sum "Si O2"
_cell_formula_units_Z 40
_cell_length_a 7.822808
_cell_length_b 25.110096
_cell_length_c 8.888792
_cell_angle_alpha 90.000000
_cell_angle_beta 93.883094
_cell_angle_gamma 90.000000
_cell_volume 1742.030016
_symmetry_space_group_name_H-M "C 2/C"
_symmetry_group_IT_number 15
_symmetry_cell_setting 'monoclinic'
loop_
_space_group_symop_operation_xyz
x,y,z
-x,y,1/2-z
-x,-y,-z
x,-y,1/2+z
1/2+x,1/2+y,z
1/2-x,1/2+y,1/2-z
1/2-x,1/2-y,-z
1/2+x,1/2-y,1/2+z
loop_
_atom_site_type_symbol
_atom_site_label
_atom_site_fract_x
_atom_site_fract_y
_atom_site_fract_z
Si Si1 0.477972 0.648614 0.909591
Si Si2 0.708824 0.194738 0.416876
Si Si3 0.336514 0.845011 0.900216
Si Si4 0.687637 0.041405 0.264567
Si Si5 0.875633 0.038711 0.570840
O O1 0.500000 0.679827 0.750000
O O2 0.504833 0.587114 0.870445
O O3 0.626925 0.659569 0.036573
O O4 0.292306 0.662913 0.967767
O O5 0.750000 0.250000 0.500000
O O6 0.702962 0.197899 0.234517
O O7 0.531463 0.167384 0.466640
O O8 0.310601 0.904556 0.834811
O O9 0.500000 0.016764 0.250000
O O10 0.732563 0.055890 0.439547
O O11 0.802807 0.993346 0.209403
O O12 0.000000 0.000000 0.500000
#
# Coordination Sequence:
#
# PCOD8154032 Si02
#       5
#     8   8   8   8   8
#     4  12  26  46  70 107 151 194 246 308 367 443
#     4  11  26  49  77 107 137 185 255 314 383 449
#     4  11  24  49  78 104 146 198 244 309 385 440
#     4  12  23  43  69 104 149 197 245 301 363 442
#     4  12  24  40  69 105 145 197 242 294 364 438
#
# _framework density 22.961715999999999
#
# number of rings (size 3 to 8) (size 9 to 14) (size 15 to 20)
#    0.000    0.400    6.000    3.000    2.800    1.600 
#    3.600    0.000    0.000    0.000    0.000    0.000 
#    0.000    0.000    0.000    0.000    0.000    0.000 
#
# Total GULP energy -247788.849838 kJ/mol
# GULP energy per Si atom -12389.442492 kJ/mol
# Density = 2.290945 g / cm^3
# Si number density = 22.961716 Si / 1000 Ang^3
#
#
#
# Elastic Constant Matrix: (Units=GPa)
#
#
# Indices 1 2 3 4 5 6 
#
# 1 130.7578 12.0724 44.8356 0.0000 -17.8382 0.0000
# 2 12.0724 94.5450 10.8463 0.0000 -13.6251 0.0000
# 3 44.8356 10.8463 116.8958 0.0000 -23.7982 0.0000
# 4 0.0000 0.0000 0.0000 29.1312 0.0000 2.5415
# 5 -17.8382 -13.6251 -23.7982 0.0000 41.7327 0.0000
# 6 0.0000 0.0000 0.0000 2.5415 0.0000 29.7954
#
#
#
# Elastic Compliance Matrix: (Units=1/GPa)
#
#
# Indices 1 2 3 4 5 6 
#
# 1 0.008993 -0.000521 -0.003001 0.000000 0.001962 0.000000
# 2 -0.000521 0.011141 -0.000157 0.000000 0.003325 0.000000
# 3 -0.003001 -0.000157 0.010690 0.000000 0.004762 0.000000
# 4 0.000000 0.000000 0.000000 0.034585 0.000000 -0.002950
# 5 0.001962 0.003325 0.004762 0.000000 0.028602 0.000000
# 6 0.000000 0.000000 0.000000 -0.002950 0.000000 0.033814
#
#
# Mechanical properties :
#
#
# Convention : Reuss Voigt Hill
#
# Bulk Modulus (GPa) = 42.61784 53.07859 47.84821
# Shear Modulus (GPa) = 34.96412 38.42815 36.69613
#
# Velocity S-wave (km/s) = 3.90643 4.09537 4.00202
# Velocity P-wave (km/s) = 6.24080 6.74752 6.49910
#
# Compressibility (1/GPa) = 0.02346435
#
# Stress axis : x y z
#
# Youngs Moduli (GPa) = 111.20195 89.76096 93.54728
#
# Poissons Ratio (x) = 0.04678 0.28077
# Poissons Ratio (y) = 0.05796 0.01467
# Poissons Ratio (z) = 0.33375 0.01408
#
# Static dielectric constant tensor:
#      x y z
#    x 3.785940 0.000000 -0.905700 
#    y 0.000000 3.961220 0.000000 
#    z -0.905700 0.000000 2.251980 
# 
# 
# High freq. dielectric constant tensor:
#      x y z
#    x 1.920420 0.000000 0.012730 
#    y 0.000000 1.901050 0.000000 
#    z 0.012730 0.000000 1.909190 
# 
# From -- ./inp_files/23498.got.cif
#   From: 2010.06.25/outbox.cif.g09.slc.cpg/sg15_12_cif.got.tgz:23498.got - 2010.06.28 07:06:18.
