data_PCOD8154781
_publ_section_title
;
Structure prediction by ZEFSAII (Michael W. Deem and Ramdas Pophale) SiO2 
 PCOD8154781
Probable space group: C 2/C
;
_chemical_formula_sum "Si O2"
_cell_formula_units_Z 36
_cell_length_a 12.863587
_cell_length_b 19.772257
_cell_length_c 8.898229
_cell_angle_alpha 90.000000
_cell_angle_beta 41.399518
_cell_angle_gamma 90.000000
_cell_volume 1496.663213
_symmetry_space_group_name_H-M "C 2/C"
_symmetry_group_IT_number 15
_symmetry_cell_setting 'monoclinic'
loop_
_space_group_symop_operation_xyz
x,y,z
-x,y,1/2-z
-x,-y,-z
x,-y,1/2+z
1/2+x,1/2+y,z
1/2-x,1/2+y,1/2-z
1/2-x,1/2-y,-z
1/2+x,1/2-y,1/2+z
loop_
_atom_site_type_symbol
_atom_site_label
_atom_site_fract_x
_atom_site_fract_y
_atom_site_fract_z
Si Si1 0.745945 0.939998 0.812472
Si Si2 0.554587 0.194795 0.531930
Si Si3 0.677045 0.072023 0.048553
Si Si4 0.000000 0.103056 0.250000
Si Si5 0.218155 0.825521 0.284966
O O1 0.658121 0.871088 0.951169
O O2 0.756965 0.946126 0.620855
O O3 0.917038 0.940572 0.707860
O O4 0.653915 0.005062 0.972881
O O5 0.404218 0.175008 0.600886
O O6 0.653090 0.249822 0.328578
O O7 0.500000 0.226549 0.750000
O O8 0.500000 0.102375 0.250000
O O9 0.799457 0.125360 0.840054
O O10 0.865963 0.147006 0.475118
#
# Coordination Sequence:
#
# PCOD8154781 Si02
#       5
#     8   8   8   4   8
#     4  12  27  47  81 108 153 193 256 305 382 435
#     4  12  23  46  78 113 144 207 245 313 363 458
#     4  12  27  50  76 115 148 202 246 318 370 452
#     4  12  26  48  74 118 146 200 244 318 364 458
#     4  12  26  46  78 110 155 193 259 296 383 438
#
# _framework density 24.053505999999999
#
# number of rings (size 3 to 8) (size 9 to 14) (size 15 to 20)
#    0.000    0.000    5.556    4.667    0.000    5.333 
#    0.000    0.000    0.000    0.000    0.000    0.000 
#    0.000    0.000    0.000    0.000    0.000    0.000 
#
# Total GULP energy -223203.584517 kJ/mol
# GULP energy per Si atom -12400.199140 kJ/mol
# Density = 2.399876 g / cm^3
# Si number density = 24.053506 Si / 1000 Ang^3
#
#
#
# Elastic Constant Matrix: (Units=GPa)
#
#
# Indices 1 2 3 4 5 6 
#
# 1 140.0821 24.9065 58.2921 -0.0002 16.0268 -0.0001
# 2 24.9065 148.7169 84.1213 0.0000 9.0560 0.0000
# 3 58.2921 84.1213 122.6947 -0.0001 21.9736 -0.0001
# 4 -0.0002 0.0000 -0.0001 20.2110 0.0001 1.8334
# 5 16.0268 9.0560 21.9736 0.0001 41.9184 0.0001
# 6 -0.0001 0.0000 -0.0001 1.8334 0.0001 23.6688
#
#
#
# Elastic Compliance Matrix: (Units=1/GPa)
#
#
# Indices 1 2 3 4 5 6 
#
# 1 0.009146 0.001439 -0.005132 0.000000 -0.001118 0.000000
# 2 0.001439 0.011326 -0.008732 0.000000 0.001580 0.000000
# 3 -0.005132 -0.008732 0.017532 0.000000 -0.005342 0.000000
# 4 0.000000 0.000000 0.000000 0.049828 0.000000 -0.003860
# 5 -0.001118 0.001580 -0.005342 0.000000 0.026742 0.000000
# 6 0.000000 0.000000 0.000000 -0.003860 0.000000 0.042549
#
#
# Mechanical properties :
#
#
# Convention : Reuss Voigt Hill
#
# Bulk Modulus (GPa) = 76.01894 82.90372 79.46133
# Shear Modulus (GPa) = 26.83008 33.43789 30.13398
#
# Velocity S-wave (km/s) = 3.34343 3.73251 3.54332
# Velocity P-wave (km/s) = 6.82477 7.28812 7.06025
#
# Compressibility (1/GPa) = 0.01315462
#
# Stress axis : x y z
#
# Youngs Moduli (GPa) = 109.33527 88.29032 57.03854
#
# Poissons Ratio (x) = -0.12706 0.29271
# Poissons Ratio (y) = -0.15734 0.49807
# Poissons Ratio (z) = 0.56109 0.77097
#
# Static dielectric constant tensor:
#      x y z
#    x 4.246180 0.000000 0.053030 
#    y 0.000000 4.319630 0.000000 
#    z 0.053030 0.000000 4.316120 
# 
# 
# High freq. dielectric constant tensor:
#      x y z
#    x 1.952860 0.000000 0.001580 
#    y 0.000000 1.957740 0.000000 
#    z 0.001580 0.000000 1.956820 
# 
# From -- ./inp_files/41175.got.cif
#   From: 2010.06.25/outbox.cif.g09.slc.cpg/sg15_21_cif.got.tgz:41175.got - 2010.06.28 07:06:18.
