data_PCOD8154504
_publ_section_title
;
Structure prediction by ZEFSAII (Michael W. Deem and Ramdas Pophale) SiO2 
 PCOD8154504
Probable space group: C 2/C
;
_chemical_formula_sum "Si O2"
_cell_formula_units_Z 56
_cell_length_a 8.838143
_cell_length_b 20.339781
_cell_length_c 13.387828
_cell_angle_alpha 90.000000
_cell_angle_beta 92.036147
_cell_angle_gamma 90.000000
_cell_volume 2405.155308
_symmetry_space_group_name_H-M "C 2/C"
_symmetry_group_IT_number 15
_symmetry_cell_setting 'monoclinic'
loop_
_space_group_symop_operation_xyz
x,y,z
-x,y,1/2-z
-x,-y,-z
x,-y,1/2+z
1/2+x,1/2+y,z
1/2-x,1/2+y,1/2-z
1/2-x,1/2-y,-z
1/2+x,1/2-y,1/2+z
loop_
_atom_site_type_symbol
_atom_site_label
_atom_site_fract_x
_atom_site_fract_y
_atom_site_fract_z
Si Si1 0.267956 0.148499 0.019353
Si Si2 0.460630 0.424848 0.481879
Si Si3 0.716853 0.460060 0.211174
Si Si4 0.543142 0.968556 0.898442
Si Si5 0.176751 0.290072 0.781539
Si Si6 0.342800 0.837852 0.304199
Si Si7 0.771715 0.916126 0.672088
O O1 0.336494 0.088173 0.082226
O O2 0.287447 0.208027 0.098443
O O3 0.364049 0.169486 0.924233
O O4 0.096044 0.127898 0.989531
O O5 0.500000 0.500000 0.500000
O O6 0.393679 0.423569 0.369077
O O7 0.340652 0.404710 0.564438
O O8 0.876607 0.475033 0.162805
O O9 0.752710 0.406610 0.296273
O O10 0.644832 0.525778 0.261805
O O11 0.400640 0.940329 0.836675
O O12 0.500000 0.000000 0.000000
O O13 0.242783 0.219628 0.750858
O O14 0.274884 0.346848 0.729502
O O15 0.000000 0.295068 0.750000
O O16 0.500000 0.838979 0.250000
#
# Coordination Sequence:
#
# PCOD8154504 Si02
#       7
#     8   8   8   8   8   8   8
#     4  12  26  49  72 103 152 189 243 302 362 434
#     4  12  25  42  69 119 149 189 235 306 369 432
#     4  12  24  44  74 108 148 189 247 305 365 429
#     4  12  20  42  72 105 141 187 243 304 357 421
#     4  12  27  52  75 106 144 197 248 301 366 440
#     4  12  30  49  75 108 145 192 246 305 367 440
#     4  12  24  44  79 103 147 194 251 297 363 443
#
# _framework density 23.283321000000001
#
# number of rings (size 3 to 8) (size 9 to 14) (size 15 to 20)
#    0.000    0.000    5.714    4.286    4.000    2.857 
#    0.000    1.429    0.000    0.000    0.000    0.000 
#    0.000    0.000    0.000    0.000    0.000    0.000 
#
# Total GULP energy -347201.251376 kJ/mol
# GULP energy per Si atom -12400.044692 kJ/mol
# Density = 2.323033 g / cm^3
# Si number density = 23.283321 Si / 1000 Ang^3
#
#
#
# Elastic Constant Matrix: (Units=GPa)
#
#
# Indices 1 2 3 4 5 6 
#
# 1 107.1863 17.6516 27.3523 0.0000 10.3341 0.0000
# 2 17.6516 114.6008 17.0134 0.0000 -2.4564 0.0000
# 3 27.3523 17.0134 98.6529 0.0000 14.4683 0.0000
# 4 0.0000 0.0000 0.0000 27.1060 0.0000 6.1844
# 5 10.3341 -2.4564 14.4683 0.0000 29.8258 0.0000
# 6 0.0000 0.0000 0.0000 6.1844 0.0000 24.6185
#
#
#
# Elastic Compliance Matrix: (Units=1/GPa)
#
#
# Indices 1 2 3 4 5 6 
#
# 1 0.010376 -0.001317 -0.002268 0.000000 -0.002604 0.000000
# 2 -0.001317 0.009194 -0.001505 0.000000 0.001944 0.000000
# 3 -0.002268 -0.001505 0.011765 0.000000 -0.005045 0.000000
# 4 0.000000 0.000000 0.000000 0.039135 0.000000 -0.009831
# 5 -0.002604 0.001944 -0.005045 0.000000 0.037038 0.000000
# 6 0.000000 0.000000 0.000000 -0.009831 0.000000 0.043090
#
#
# Mechanical properties :
#
#
# Convention : Reuss Voigt Hill
#
# Bulk Modulus (GPa) = 47.27266 49.38605 48.32935
# Shear Modulus (GPa) = 29.79204 33.53824 31.66514
#
# Velocity S-wave (km/s) = 3.58095 3.79943 3.69181
# Velocity P-wave (km/s) = 6.11923 6.36432 6.24297
#
# Compressibility (1/GPa) = 0.02115388
#
# Stress axis : x y z
#
# Youngs Moduli (GPa) = 96.37409 108.76658 84.99864
#
# Poissons Ratio (x) = 0.14328 0.19277
# Poissons Ratio (y) = 0.12696 0.12796
# Poissons Ratio (z) = 0.21856 0.16374
#
# Static dielectric constant tensor:
#      x y z
#    x 4.391350 0.000000 0.221790 
#    y 0.000000 4.176430 0.000000 
#    z 0.221790 0.000000 4.574660 
# 
# 
# High freq. dielectric constant tensor:
#      x y z
#    x 1.918180 0.000000 -0.003410 
#    y 0.000000 1.918900 0.000000 
#    z -0.003410 0.000000 1.942200 
# 
# From -- ./inp_files/136433.got.cif
#   From: 2010.06.25/outbox.cif.g09.slc.cpg/sg15_69_cif.got.tgz:136433.got - 2010.06.28 07:06:18.
