data_PCOD8154360
_publ_section_title
;
Structure prediction by ZEFSAII (Michael W. Deem and Ramdas Pophale) SiO2 
 PCOD8154360
Probable space group: C 2/C
;
_chemical_formula_sum "Si O2"
_cell_formula_units_Z 40
_cell_length_a 8.102956
_cell_length_b 21.896185
_cell_length_c 10.032453
_cell_angle_alpha 90.000000
_cell_angle_beta 71.344061
_cell_angle_gamma 90.000000
_cell_volume 1686.469035
_symmetry_space_group_name_H-M "C 2/C"
_symmetry_group_IT_number 15
_symmetry_cell_setting 'monoclinic'
loop_
_space_group_symop_operation_xyz
x,y,z
-x,y,1/2-z
-x,-y,-z
x,-y,1/2+z
1/2+x,1/2+y,z
1/2-x,1/2+y,1/2-z
1/2-x,1/2-y,-z
1/2+x,1/2-y,1/2+z
loop_
_atom_site_type_symbol
_atom_site_label
_atom_site_fract_x
_atom_site_fract_y
_atom_site_fract_z
Si Si1 0.686614 0.373108 0.754849
Si Si2 0.199638 0.749895 0.166832
Si Si3 0.640341 0.075291 0.537029
Si Si4 0.743530 0.112743 0.783285
Si Si5 0.337638 0.540691 0.997176
O O1 0.500000 0.393771 0.750000
O O2 0.685225 0.301887 0.792183
O O3 0.825605 0.385080 0.603277
O O4 0.731235 0.414447 0.870491
O O5 0.245900 0.814619 0.217507
O O6 0.000000 0.733802 0.250000
O O7 0.250000 0.750000 0.000000
O O8 0.776448 0.093723 0.621392
O O9 0.445873 0.089112 0.628141
O O10 0.675759 0.003668 0.501415
O O11 0.878393 0.081560 0.853995
O O12 0.500000 0.500000 0.000000
#
# Coordination Sequence:
#
# PCOD8154360 Si02
#       5
#     8   8   8   8   8
#     4  12  27  47  75 108 149 194 249 303 376 444
#     4  12  28  51  78 105 148 199 254 316 373 449
#     4  11  26  46  72 112 147 197 238 311 370 451
#     4  11  27  48  74 107 147 195 253 302 378 443
#     4  12  25  47  74 110 154 195 248 305 381 448
#
# _framework density 23.718191999999998
#
# number of rings (size 3 to 8) (size 9 to 14) (size 15 to 20)
#    0.000    0.400    4.000    3.000    8.400    2.400 
#    0.000    0.000    0.000    0.000    0.000    0.000 
#    0.000    0.000    0.000    0.000    0.000    0.000 
#
# Total GULP energy -248076.422443 kJ/mol
# GULP energy per Si atom -12403.821122 kJ/mol
# Density = 2.366421 g / cm^3
# Si number density = 23.718192 Si / 1000 Ang^3
#
#
#
# Elastic Constant Matrix: (Units=GPa)
#
#
# Indices 1 2 3 4 5 6 
#
# 1 53.9529 6.7430 8.1648 0.0000 3.6236 0.0000
# 2 6.7430 168.5937 53.5846 0.0000 13.9764 0.0000
# 3 8.1648 53.5846 176.9386 0.0000 11.5940 0.0000
# 4 0.0000 0.0000 0.0000 42.6508 0.0000 13.5000
# 5 3.6236 13.9764 11.5940 0.0000 37.7517 0.0000
# 6 0.0000 0.0000 0.0000 13.5000 0.0000 35.4014
#
#
#
# Elastic Compliance Matrix: (Units=1/GPa)
#
#
# Indices 1 2 3 4 5 6 
#
# 1 0.018782 -0.000427 -0.000643 0.000000 -0.001447 0.000000
# 2 -0.000427 0.006703 -0.001888 0.000000 -0.001861 0.000000
# 3 -0.000643 -0.001888 0.006331 0.000000 -0.001183 0.000000
# 4 0.000000 0.000000 0.000000 0.026665 0.000000 -0.010168
# 5 -0.001447 -0.001861 -0.001183 0.000000 0.027680 0.000000
# 6 0.000000 0.000000 0.000000 -0.010168 0.000000 0.032125
#
#
# Mechanical properties :
#
#
# Convention : Reuss Voigt Hill
#
# Bulk Modulus (GPa) = 38.60943 59.60779 49.10861
# Shear Modulus (GPa) = 37.64060 45.22697 41.43379
#
# Velocity S-wave (km/s) = 3.98803 4.37148 4.18415
# Velocity P-wave (km/s) = 6.12532 7.11801 6.64024
#
# Compressibility (1/GPa) = 0.02590041
#
# Stress axis : x y z
#
# Youngs Moduli (GPa) = 53.24107 149.18893 157.95952
#
# Poissons Ratio (x) = 0.06370 0.10150
# Poissons Ratio (y) = 0.02273 0.29828
# Poissons Ratio (z) = 0.03421 0.28171
#
# Static dielectric constant tensor:
#      x y z
#    x 5.040890 0.000000 0.685810 
#    y 0.000000 4.466050 0.000000 
#    z 0.685810 0.000000 4.898150 
# 
# 
# High freq. dielectric constant tensor:
#      x y z
#    x 1.943370 0.000000 0.002470 
#    y 0.000000 1.952480 0.000000 
#    z 0.002470 0.000000 1.959390 
# 
# From -- ./inp_files/23496.got.cif
#   From: 2010.06.25/outbox.cif.g09.slc.cpg/sg15_12_cif.got.tgz:23496.got - 2010.06.28 07:06:18.
