data_PCOD8154327
_publ_section_title
;
Structure prediction by ZEFSAII (Michael W. Deem and Ramdas Pophale) SiO2 
 PCOD8154327
Probable space group: C 2/C
;
_chemical_formula_sum "Si O2"
_cell_formula_units_Z 32
_cell_length_a 23.662802
_cell_length_b 7.382657
_cell_length_c 10.352545
_cell_angle_alpha 90.000000
_cell_angle_beta 133.514298
_cell_angle_gamma 90.000000
_cell_volume 1311.551425
_symmetry_space_group_name_H-M "C 2/C"
_symmetry_group_IT_number 15
_symmetry_cell_setting 'monoclinic'
loop_
_space_group_symop_operation_xyz
x,y,z
-x,y,1/2-z
-x,-y,-z
x,-y,1/2+z
1/2+x,1/2+y,z
1/2-x,1/2+y,1/2-z
1/2-x,1/2-y,-z
1/2+x,1/2-y,1/2+z
loop_
_atom_site_type_symbol
_atom_site_label
_atom_site_fract_x
_atom_site_fract_y
_atom_site_fract_z
Si Si1 0.598955 0.116958 0.604475
Si Si2 0.038227 0.746760 0.940626
Si Si3 0.669263 0.532347 0.142098
Si Si4 0.759870 0.463069 0.531375
O O1 0.525838 0.225314 0.548791
O O2 0.639041 0.262949 0.573988
O O3 0.574950 0.951621 0.474056
O O4 0.652607 0.032305 0.803010
O O5 0.000000 0.821175 0.750000
O O6 0.103584 0.890996 0.086051
O O7 0.732205 0.554895 0.355641
O O8 0.707478 0.466942 0.069282
O O9 0.750000 0.250000 0.500000
#
# Coordination Sequence:
#
# PCOD8154327 Si02
#       4
#     8   8   8   8
#     4  11  26  44  72 105 149 199 247 311 372 451
#     4  11  26  45  70 106 151 193 254 303 381 445
#     4  12  26  47  77 108 151 196 252 310 376 449
#     4  12  26  47  78 112 150 197 258 309 380 448
#
# _framework density 24.398586999999999
#
# number of rings (size 3 to 8) (size 9 to 14) (size 15 to 20)
#    0.000    0.500    2.500    4.500    7.000    1.000 
#    0.000    0.000    0.000    0.000    0.000    0.000 
#    0.000    0.000    0.000    0.000    0.000    0.000 
#
# Total GULP energy -198457.461922 kJ/mol
# GULP energy per Si atom -12403.591370 kJ/mol
# Density = 2.434305 g / cm^3
# Si number density = 24.398587 Si / 1000 Ang^3
#
#
#
# Elastic Constant Matrix: (Units=GPa)
#
#
# Indices 1 2 3 4 5 6 
#
# 1 63.4842 22.8797 28.0551 0.0000 4.8250 0.0000
# 2 22.8797 91.2372 -2.3482 0.0000 14.2892 0.0000
# 3 28.0551 -2.3482 92.0964 0.0000 6.0031 0.0000
# 4 0.0000 0.0000 0.0000 43.5839 0.0000 12.2775
# 5 4.8250 14.2892 6.0031 0.0000 40.1335 0.0000
# 6 0.0000 0.0000 0.0000 12.2775 0.0000 40.9457
#
#
#
# Elastic Compliance Matrix: (Units=1/GPa)
#
#
# Indices 1 2 3 4 5 6 
#
# 1 0.020485 -0.005365 -0.006403 0.000000 0.000405 0.000000
# 2 -0.005365 0.013043 0.002250 0.000000 -0.004335 0.000000
# 3 -0.006403 0.002250 0.012995 0.000000 -0.001975 0.000000
# 4 0.000000 0.000000 0.000000 0.025061 0.000000 -0.007515
# 5 0.000405 -0.004335 -0.001975 0.000000 0.026707 0.000000
# 6 0.000000 0.000000 0.000000 -0.007515 0.000000 0.026676
#
#
# Mechanical properties :
#
#
# Convention : Reuss Voigt Hill
#
# Bulk Modulus (GPa) = 36.38471 38.22121 37.30296
# Shear Modulus (GPa) = 32.64435 38.14802 35.39618
#
# Velocity S-wave (km/s) = 3.66178 3.95844 3.81300
# Velocity P-wave (km/s) = 5.72915 6.04911 5.89130
#
# Compressibility (1/GPa) = 0.02748408
#
# Stress axis : x y z
#
# Youngs Moduli (GPa) = 48.81712 76.67084 76.95306
#
# Poissons Ratio (x) = 0.41136 0.49276
# Poissons Ratio (y) = 0.26192 -0.17311
# Poissons Ratio (z) = 0.31260 -0.17247
#
# Static dielectric constant tensor:
#      x y z
#    x 4.232720 0.000000 0.330110 
#    y 0.000000 4.481200 0.000000 
#    z 0.330110 0.000000 4.633890 
# 
# 
# High freq. dielectric constant tensor:
#      x y z
#    x 1.963090 0.000000 0.014100 
#    y 0.000000 1.986450 0.000000 
#    z 0.014100 0.000000 1.970810 
# 
# From -- ./inp_files/109878.got.cif
#   From: 2010.06.25/outbox.cif.g09.slc.cpg/sg15_55_cif.got.tgz:109878.got - 2010.06.28 07:06:18.
