data_PCOD8154931
_publ_section_title
;
Structure prediction by ZEFSAII (Michael W. Deem and Ramdas Pophale) SiO2 
 PCOD8154931
Probable space group: C 2/C
;
_chemical_formula_sum "Si O2"
_cell_formula_units_Z 36
_cell_length_a 7.066199
_cell_length_b 16.597749
_cell_length_c 16.632187
_cell_angle_alpha 90.000000
_cell_angle_beta 59.916529
_cell_angle_gamma 90.000000
_cell_volume 1687.909446
_symmetry_space_group_name_H-M "C 2/C"
_symmetry_group_IT_number 15
_symmetry_cell_setting 'monoclinic'
loop_
_space_group_symop_operation_xyz
x,y,z
-x,y,1/2-z
-x,-y,-z
x,-y,1/2+z
1/2+x,1/2+y,z
1/2-x,1/2+y,1/2-z
1/2-x,1/2-y,-z
1/2+x,1/2-y,1/2+z
loop_
_atom_site_type_symbol
_atom_site_label
_atom_site_fract_x
_atom_site_fract_y
_atom_site_fract_z
Si Si1 0.852776 0.925363 0.007981
Si Si2 0.500000 0.359717 0.250000
Si Si3 0.986269 0.777243 0.421708
Si Si4 0.914559 0.526646 0.678381
Si Si5 0.706069 0.372066 0.654388
O O1 0.599331 0.943984 0.077627
O O2 0.930452 0.849114 0.041180
O O3 0.886088 0.912663 0.906514
O O4 0.000000 0.000000 0.000000
O O5 0.478916 0.301914 0.330597
O O6 0.290741 0.415950 0.288639
O O7 0.750000 0.750000 0.500000
O O8 0.151929 0.704460 0.399230
O O9 0.851625 0.434954 0.673243
O O10 0.000000 0.532838 0.750000
O O11 0.500000 0.342779 0.750000
#
# Coordination Sequence:
#
# PCOD8154931 Si02
#       5
#     8   4   8   8   8
#     4  12  25  48  77 107 147 197 246 298 364 436
#     4  12  26  48  74 108 144 200 244 298 362 436
#     4  12  28  46  72 109 153 190 241 305 367 433
#     4  12  24  48  74 107 144 195 250 297 357 437
#     4  12  27  44  73 109 147 189 244 304 367 428
#
# _framework density 21.328157000000001
#
# number of rings (size 3 to 8) (size 9 to 14) (size 15 to 20)
#    0.000    0.000    3.333    6.667    7.778    0.000 
#    0.000    0.000    0.000    0.000    0.000    0.000 
#    0.000    0.000    0.000    0.000    0.000    0.000 
#
# Total GULP energy -223383.815328 kJ/mol
# GULP energy per Si atom -12410.211963 kJ/mol
# Density = 2.127961 g / cm^3
# Si number density = 21.328157 Si / 1000 Ang^3
#
#
#
# Elastic Constant Matrix: (Units=GPa)
#
#
# Indices 1 2 3 4 5 6 
#
# 1 127.0559 51.8981 53.7790 0.0000 -22.8303 0.0000
# 2 51.8981 124.3152 29.3714 0.0000 -28.1316 0.0000
# 3 53.7790 29.3714 131.3999 0.0000 -23.9437 0.0000
# 4 0.0000 0.0000 0.0000 40.7009 0.0000 8.5798
# 5 -22.8303 -28.1316 -23.9437 0.0000 52.5586 0.0000
# 6 0.0000 0.0000 0.0000 8.5798 0.0000 11.3644
#
#
#
# Elastic Compliance Matrix: (Units=1/GPa)
#
#
# Indices 1 2 3 4 5 6 
#
# 1 0.011002 -0.003467 -0.003484 0.000000 0.001336 0.000000
# 2 -0.003467 0.010440 -0.000186 0.000000 0.003997 0.000000
# 3 -0.003484 -0.000186 0.009579 0.000000 0.002751 0.000000
# 4 0.000000 0.000000 0.000000 0.029220 0.000000 -0.022060
# 5 0.001336 0.003997 0.002751 0.000000 0.022999 0.000000
# 6 0.000000 0.000000 0.000000 -0.022060 0.000000 0.104648
#
#
# Mechanical properties :
#
#
# Convention : Reuss Voigt Hill
#
# Bulk Modulus (GPa) = 59.71837 72.54088 66.12963
# Shear Modulus (GPa) = 24.06787 37.43962 30.75374
#
# Velocity S-wave (km/s) = 3.36289 4.19430 3.80140
# Velocity P-wave (km/s) = 6.56805 7.58564 7.09511
#
# Compressibility (1/GPa) = 0.01674527
#
# Stress axis : x y z
#
# Youngs Moduli (GPa) = 90.89519 95.78454 104.39211
#
# Poissons Ratio (x) = 0.33213 0.36373
# Poissons Ratio (y) = 0.31517 0.01943
# Poissons Ratio (z) = 0.31671 0.01783
#
# Static dielectric constant tensor:
#      x y z
#    x 3.237340 0.000000 -1.117270 
#    y 0.000000 4.033400 0.000000 
#    z -1.117270 0.000000 2.827070 
# 
# 
# High freq. dielectric constant tensor:
#      x y z
#    x 1.856270 0.000000 -0.001670 
#    y 0.000000 1.853240 0.000000 
#    z -0.001670 0.000000 1.860880 
# 
# From -- ./inp_files/184194.got.cif
#   From: 2010.06.25/outbox.cif.g09.slc.cpg/sg15_93_cif.got.tgz:184194.got - 2010.06.28 07:06:18.
