data_PCOD8154767
_publ_section_title
;
Structure prediction by ZEFSAII (Michael W. Deem and Ramdas Pophale) SiO2 
 PCOD8154767
Probable space group: C 2/C
;
_chemical_formula_sum "Si O2"
_cell_formula_units_Z 36
_cell_length_a 25.878161
_cell_length_b 8.042650
_cell_length_c 13.916287
_cell_angle_alpha 90.000000
_cell_angle_beta 33.164616
_cell_angle_gamma 90.000000
_cell_volume 1584.455659
_symmetry_space_group_name_H-M "C 2/C"
_symmetry_group_IT_number 15
_symmetry_cell_setting 'monoclinic'
loop_
_space_group_symop_operation_xyz
x,y,z
-x,y,1/2-z
-x,-y,-z
x,-y,1/2+z
1/2+x,1/2+y,z
1/2-x,1/2+y,1/2-z
1/2-x,1/2-y,-z
1/2+x,1/2-y,1/2+z
loop_
_atom_site_type_symbol
_atom_site_label
_atom_site_fract_x
_atom_site_fract_y
_atom_site_fract_z
Si Si1 0.184350 0.453541 0.962007
Si Si2 0.177274 0.087418 0.895553
Si Si3 0.000000 0.338553 0.750000
Si Si4 0.228051 0.937137 0.999921
Si Si5 0.483328 0.456416 0.136825
O O1 0.187290 0.274165 0.912652
O O2 0.273935 0.561469 0.783611
O O3 0.200398 0.445149 0.052093
O O4 0.087960 0.545754 0.088488
O O5 0.239321 0.963709 0.868150
O O6 0.065445 0.047831 0.069400
O O7 0.014147 0.234018 0.827103
O O8 0.122882 0.013591 0.178449
O O9 0.250000 0.750000 0.000000
O O10 0.500000 0.500000 0.000000
#
# Coordination Sequence:
#
# PCOD8154767 Si02
#       5
#     8   8   4   8   8
#     4  12  27  46  72 103 142 187 240 287 357 418
#     4  12  26  47  72 105 141 190 234 293 349 423
#     4  12  26  48  70 104 146 184 232 302 350 420
#     4  12  23  46  73 102 144 188 232 293 351 417
#     4  12  24  43  76 103 142 188 234 288 358 414
#
# _framework density 22.720738999999998
#
# number of rings (size 3 to 8) (size 9 to 14) (size 15 to 20)
#    0.000    0.000    6.667    3.333    3.111    0.000 
#    0.000    2.222    0.000    0.000    0.000    0.000 
#    0.000    0.000    0.000    0.000    0.000    0.000 
#
# Total GULP energy -223019.559782 kJ/mol
# GULP energy per Si atom -12389.975543 kJ/mol
# Density = 2.266903 g / cm^3
# Si number density = 22.720739 Si / 1000 Ang^3
#
#
#
# Elastic Constant Matrix: (Units=GPa)
#
#
# Indices 1 2 3 4 5 6 
#
# 1 119.7882 43.9492 9.0876 0.0000 0.9410 0.0000
# 2 43.9492 115.1338 18.0322 0.0010 -4.0719 -0.0003
# 3 9.0876 18.0322 83.1452 0.0004 -17.7399 -0.0001
# 4 0.0000 0.0010 0.0004 38.5484 -0.0001 -1.8645
# 5 0.9410 -4.0719 -17.7399 -0.0001 41.1320 0.0000
# 6 0.0000 -0.0003 -0.0001 -1.8645 0.0000 32.3894
#
#
#
# Elastic Compliance Matrix: (Units=1/GPa)
#
#
# Indices 1 2 3 4 5 6 
#
# 1 0.009736 -0.003676 -0.000432 0.000000 -0.000773 0.000000
# 2 -0.003676 0.010379 -0.001775 0.000000 0.000346 0.000000
# 3 -0.000432 -0.001775 0.013683 0.000000 0.005736 0.000000
# 4 0.000000 0.000000 0.000000 0.026014 0.000000 0.001497
# 5 -0.000773 0.000346 0.005736 0.000000 0.026838 0.000000
# 6 0.000000 0.000000 0.000000 0.001497 0.000000 0.030961
#
#
# Mechanical properties :
#
#
# Convention : Reuss Voigt Hill
#
# Bulk Modulus (GPa) = 45.38960 51.13391 48.26175
# Shear Modulus (GPa) = 36.57113 38.88049 37.72581
#
# Velocity S-wave (km/s) = 4.01633 4.14119 4.07924
# Velocity P-wave (km/s) = 6.44425 6.73945 6.59350
#
# Compressibility (1/GPa) = 0.02203148
#
# Stress axis : x y z
#
# Youngs Moduli (GPa) = 102.71590 96.34782 73.08279
#
# Poissons Ratio (x) = 0.35418 0.03155
# Poissons Ratio (y) = 0.37759 0.12975
# Poissons Ratio (z) = 0.04435 0.17106
#
# Static dielectric constant tensor:
#      x y z
#    x 5.585300 0.000000 -0.396080 
#    y 0.000000 3.905030 0.000000 
#    z -0.396080 0.000000 4.891630 
# 
# 
# High freq. dielectric constant tensor:
#      x y z
#    x 1.924870 0.000000 -0.003270 
#    y 0.000000 1.886000 0.000000 
#    z -0.003270 0.000000 1.896710 
# 
# From -- ./inp_files/150145.got.cif
#   From: 2010.06.25/outbox.cif.g09.slc.cpg/sg15_76_cif.got.tgz:150145.got - 2010.06.28 07:06:18.
