data_PCOD8154970
_publ_section_title
;
Structure prediction by ZEFSAII (Michael W. Deem and Ramdas Pophale) SiO2 
 PCOD8154970
Probable space group: C 2/C
;
_chemical_formula_sum "Si O2"
_cell_formula_units_Z 40
_cell_length_a 11.414622
_cell_length_b 17.866142
_cell_length_c 12.910650
_cell_angle_alpha 90.000000
_cell_angle_beta 138.522162
_cell_angle_gamma 90.000000
_cell_volume 1743.873783
_symmetry_space_group_name_H-M "C 2/C"
_symmetry_group_IT_number 15
_symmetry_cell_setting 'monoclinic'
loop_
_space_group_symop_operation_xyz
x,y,z
-x,y,1/2-z
-x,-y,-z
x,-y,1/2+z
1/2+x,1/2+y,z
1/2-x,1/2+y,1/2-z
1/2-x,1/2-y,-z
1/2+x,1/2-y,1/2+z
loop_
_atom_site_type_symbol
_atom_site_label
_atom_site_fract_x
_atom_site_fract_y
_atom_site_fract_z
Si Si1 0.404814 0.694157 0.791129
Si Si2 0.692345 0.392301 0.842550
Si Si3 0.089029 0.079464 0.045755
Si Si4 0.637007 0.028063 0.425155
Si Si5 0.517145 0.835886 0.974338
O O1 0.500000 0.663823 0.750000
O O2 0.448040 0.642568 0.919480
O O3 0.466616 0.779227 0.849118
O O4 0.194398 0.693674 0.644204
O O5 0.500000 0.360458 0.750000
O O6 0.685930 0.404560 0.716161
O O7 0.861801 0.336305 0.960429
O O8 0.740498 0.465472 0.940459
O O9 0.233210 0.082338 0.050891
O O10 0.000000 0.000000 0.000000
O O11 0.500000 0.992644 0.250000
O O12 0.541314 0.079120 0.447877
#
# Coordination Sequence:
#
# PCOD8154970 Si02
#       5
#     8   8   8   8   8
#     4  12  26  46  75 108 146 185 239 304 361 418
#     4  12  27  46  70 107 149 193 240 296 356 429
#     4  12  25  44  72 104 147 187 238 294 359 420
#     4  12  25  43  74 108 145 187 241 299 357 420
#     4  12  26  45  72 109 145 187 243 295 358 427
#
# _framework density 22.937441
#
# number of rings (size 3 to 8) (size 9 to 14) (size 15 to 20)
#    0.000    0.000    6.000    4.200    2.800    0.000 
#    0.000    4.000    0.000    0.000    0.000    0.000 
#    0.000    0.000    0.000    0.000    0.000    0.000 
#
# Total GULP energy -247944.233905 kJ/mol
# GULP energy per Si atom -12397.211695 kJ/mol
# Density = 2.288523 g / cm^3
# Si number density = 22.937441 Si / 1000 Ang^3
#
#
#
# Elastic Constant Matrix: (Units=GPa)
#
#
# Indices 1 2 3 4 5 6 
#
# 1 130.1439 22.4616 51.3562 0.0000 34.0106 0.0000
# 2 22.4616 60.1570 31.3846 0.0000 5.1646 0.0000
# 3 51.3562 31.3846 155.0813 0.0000 20.2870 0.0000
# 4 0.0000 0.0000 0.0000 31.5437 0.0000 0.5611
# 5 34.0106 5.1646 20.2870 0.0000 46.6607 0.0000
# 6 0.0000 0.0000 0.0000 0.5611 0.0000 31.5225
#
#
#
# Elastic Compliance Matrix: (Units=1/GPa)
#
#
# Indices 1 2 3 4 5 6 
#
# 1 0.010662 -0.002262 -0.002215 0.000000 -0.006558 0.000000
# 2 -0.002262 0.019074 -0.003234 0.000000 0.000944 0.000000
# 3 -0.002215 -0.003234 0.008035 0.000000 -0.001521 0.000000
# 4 0.000000 0.000000 0.000000 0.031712 0.000000 -0.000564
# 5 -0.006558 0.000944 -0.001521 0.000000 0.026768 0.000000
# 6 0.000000 0.000000 0.000000 -0.000564 0.000000 0.031733
#
#
# Mechanical properties :
#
#
# Convention : Reuss Voigt Hill
#
# Bulk Modulus (GPa) = 44.74697 61.75412 53.25054
# Shear Modulus (GPa) = 33.14355 37.95736 35.55046
#
# Velocity S-wave (km/s) = 3.80538 4.07236 3.94113
# Velocity P-wave (km/s) = 6.23366 7.00667 6.63144
#
# Compressibility (1/GPa) = 0.02234788
#
# Stress axis : x y z
#
# Youngs Moduli (GPa) = 93.78919 52.42655 124.45057
#
# Poissons Ratio (x) = 0.11861 0.27567
# Poissons Ratio (y) = 0.21219 0.40253
# Poissons Ratio (z) = 0.20775 0.16957
#
# Static dielectric constant tensor:
#      x y z
#    x 3.596100 0.000000 -0.288200 
#    y 0.000000 4.718980 0.000000 
#    z -0.288200 0.000000 4.021860 
# 
# 
# High freq. dielectric constant tensor:
#      x y z
#    x 1.908190 0.000000 0.020430 
#    y 0.000000 1.880590 0.000000 
#    z 0.020430 0.000000 1.929080 
# 
# From -- ./inp_files/89876.got.cif
#   From: 2010.06.25/outbox.cif.g09.slc.cpg/sg15_45_cif.got.tgz:89876.got - 2010.06.28 07:06:18.
