data_PCOD8154821
_publ_section_title
;
Structure prediction by ZEFSAII (Michael W. Deem and Ramdas Pophale) SiO2 
 PCOD8154821
Probable space group: C 2/C
;
_chemical_formula_sum "Si O2"
_cell_formula_units_Z 40
_cell_length_a 21.576379
_cell_length_b 9.536182
_cell_length_c 8.243075
_cell_angle_alpha 90.000000
_cell_angle_beta 93.688889
_cell_angle_gamma 90.000000
_cell_volume 1692.550371
_symmetry_space_group_name_H-M "C 2/C"
_symmetry_group_IT_number 15
_symmetry_cell_setting 'monoclinic'
loop_
_space_group_symop_operation_xyz
x,y,z
-x,y,1/2-z
-x,-y,-z
x,-y,1/2+z
1/2+x,1/2+y,z
1/2-x,1/2+y,1/2-z
1/2-x,1/2-y,-z
1/2+x,1/2-y,1/2+z
loop_
_atom_site_type_symbol
_atom_site_label
_atom_site_fract_x
_atom_site_fract_y
_atom_site_fract_z
Si Si1 0.123518 0.800226 0.024201
Si Si2 0.686687 0.061747 0.199718
Si Si3 0.638735 0.805313 0.021215
Si Si4 0.328490 0.444816 0.779727
Si Si5 0.502456 0.841177 0.057627
O O1 0.170668 0.668871 0.050783
O O2 0.138219 0.910063 0.170001
O O3 0.131313 0.869720 0.850975
O O4 0.053368 0.746268 0.032179
O O5 0.665504 0.130658 0.362587
O O6 0.759265 0.026656 0.206427
O O7 0.650161 0.916241 0.168885
O O8 0.673347 0.658538 0.064358
O O9 0.565533 0.773760 0.998528
O O10 0.500000 0.831913 0.250000
O O11 0.500000 0.000000 0.000000
#
# Coordination Sequence:
#
# PCOD8154821 Si02
#       5
#     8   8   8   8   8
#     4  12  26  46  72 103 148 192 232 297 357 419
#     4  12  24  44  74 106 141 192 236 293 350 428
#     4  12  24  43  71 103 142 185 244 290 350 416
#     4  12  25  46  69 108 148 183 237 291 364 423
#     4  12  25  48  73 103 139 185 248 290 344 426
#
# _framework density 23.632973
#
# number of rings (size 3 to 8) (size 9 to 14) (size 15 to 20)
#    0.000    0.000    4.000    7.200    0.000    0.800 
#    0.000    0.000    0.000    0.000    0.000    0.000 
#    0.000    0.000    0.000    0.000    0.000    0.000 
#
# Total GULP energy -248177.519315 kJ/mol
# GULP energy per Si atom -12408.875966 kJ/mol
# Density = 2.357918 g / cm^3
# Si number density = 23.632973 Si / 1000 Ang^3
#
#
#
# Elastic Constant Matrix: (Units=GPa)
#
#
# Indices 1 2 3 4 5 6 
#
# 1 160.6753 69.7240 34.3676 0.0000 24.4961 0.0000
# 2 69.7240 123.6430 15.5880 0.0000 31.8872 0.0000
# 3 34.3676 15.5880 57.2897 0.0000 18.4730 0.0000
# 4 0.0000 0.0000 0.0000 45.9499 0.0000 9.1637
# 5 24.4961 31.8872 18.4730 0.0000 38.2168 0.0000
# 6 0.0000 0.0000 0.0000 9.1637 0.0000 39.3939
#
#
#
# Elastic Compliance Matrix: (Units=1/GPa)
#
#
# Indices 1 2 3 4 5 6 
#
# 1 0.009130 -0.004629 -0.004236 0.000000 0.000058 0.000000
# 2 -0.004629 0.012653 0.002111 0.000000 -0.008610 0.000000
# 3 -0.004236 0.002111 0.022644 0.000000 -0.009991 0.000000
# 4 0.000000 0.000000 0.000000 0.022822 0.000000 -0.005309
# 5 0.000058 -0.008610 -0.009991 0.000000 0.038143 0.000000
# 6 0.000000 0.000000 0.000000 -0.005309 0.000000 0.026620
#
#
# Mechanical properties :
#
#
# Convention : Reuss Voigt Hill
#
# Bulk Modulus (GPa) = 32.34475 64.55189 48.44832
# Shear Modulus (GPa) = 32.08723 39.50737 35.79730
#
# Velocity S-wave (km/s) = 3.68874 4.09308 3.89616
# Velocity P-wave (km/s) = 5.64432 7.05063 6.38631
#
# Compressibility (1/GPa) = 0.03091691
#
# Stress axis : x y z
#
# Youngs Moduli (GPa) = 109.53125 79.03378 44.16242
#
# Poissons Ratio (x) = 0.36588 0.18707
# Poissons Ratio (y) = 0.50706 -0.09322
# Poissons Ratio (z) = 0.46398 -0.16682
#
# Static dielectric constant tensor:
#      x y z
#    x 4.315420 0.000000 0.310630 
#    y 0.000000 4.713760 0.000000 
#    z 0.310630 0.000000 4.371550 
# 
# 
# High freq. dielectric constant tensor:
#      x y z
#    x 1.937210 0.000000 0.011660 
#    y 0.000000 1.948190 0.000000 
#    z 0.011660 0.000000 1.948440 
# 
# From -- ./inp_files/60090.got.cif
#   From: 2010.06.25/outbox.cif.g09.slc.cpg/sg15_31_cif.got.tgz:60090.got - 2010.06.28 07:06:18.
