data_PCOD8154886
_publ_section_title
;
Structure prediction by ZEFSAII (Michael W. Deem and Ramdas Pophale) SiO2 
 PCOD8154886
Probable space group: C 2/C
;
_chemical_formula_sum "Si O2"
_cell_formula_units_Z 32
_cell_length_a 9.051306
_cell_length_b 23.476008
_cell_length_c 7.810148
_cell_angle_alpha 90.000000
_cell_angle_beta 132.479557
_cell_angle_gamma 90.000000
_cell_volume 1223.961011
_symmetry_space_group_name_H-M "C 2/C"
_symmetry_group_IT_number 15
_symmetry_cell_setting 'monoclinic'
loop_
_space_group_symop_operation_xyz
x,y,z
-x,y,1/2-z
-x,-y,-z
x,-y,1/2+z
1/2+x,1/2+y,z
1/2-x,1/2+y,1/2-z
1/2-x,1/2-y,-z
1/2+x,1/2-y,1/2+z
loop_
_atom_site_type_symbol
_atom_site_label
_atom_site_fract_x
_atom_site_fract_y
_atom_site_fract_z
Si Si1 0.779166 0.077930 0.020601
Si Si2 0.500000 0.610430 0.750000
Si Si3 0.500000 0.822115 0.250000
Si Si4 0.152610 0.695479 0.512398
Si Si5 0.700673 0.964168 0.809547
O O1 0.652189 0.050201 0.075852
O O2 0.000000 0.089411 0.250000
O O3 0.695477 0.139239 0.911451
O O4 0.757669 0.031328 0.853786
O O5 0.325489 0.649920 0.694833
O O6 0.396759 0.571299 0.524991
O O7 0.466076 0.787027 0.402396
O O8 0.250000 0.750000 0.500000
O O9 0.000000 0.669543 0.250000
O O10 0.500000 0.947192 0.750000
#
# Coordination Sequence:
#
# PCOD8154886 Si02
#       5
#     8   4   4   8   8
#     4  12  25  43  68 114 157 209 252 290 373 461
#     4  12  24  46  76 105 157 206 250 320 380 440
#     4  12  28  48  80 111 159 202 252 326 386 454
#     4  12  28  55  79 112 147 198 265 331 392 448
#     4  12  25  41  70 106 160 207 250 298 362 457
#
# _framework density 26.144624
#
# number of rings (size 3 to 8) (size 9 to 14) (size 15 to 20)
#    0.000    0.000    3.750    6.750    3.500    1.000 
#    0.000    0.000    0.000    0.000    0.000    0.000 
#    0.000    0.000    0.000    0.000    0.000    0.000 
#
# Total GULP energy -198345.561394 kJ/mol
# GULP energy per Si atom -12396.597587 kJ/mol
# Density = 2.608512 g / cm^3
# Si number density = 26.144624 Si / 1000 Ang^3
#
#
#
# Elastic Constant Matrix: (Units=GPa)
#
#
# Indices 1 2 3 4 5 6 
#
# 1 148.5585 29.2607 40.2831 0.0000 -19.6250 0.0000
# 2 29.2607 98.1143 19.4293 0.0000 4.8926 0.0000
# 3 40.2831 19.4293 108.7129 0.0000 15.9416 0.0000
# 4 0.0000 0.0000 0.0000 37.7006 0.0000 0.6234
# 5 -19.6250 4.8926 15.9416 0.0000 64.6727 0.0000
# 6 0.0000 0.0000 0.0000 0.6234 0.0000 40.3125
#
#
#
# Elastic Compliance Matrix: (Units=1/GPa)
#
#
# Indices 1 2 3 4 5 6 
#
# 1 0.008501 -0.002058 -0.003303 0.000000 0.003550 0.000000
# 2 -0.002058 0.011072 -0.001039 0.000000 -0.001206 0.000000
# 3 -0.003303 -0.001039 0.011146 0.000000 -0.003671 0.000000
# 4 0.000000 0.000000 0.000000 0.026532 0.000000 -0.000410
# 5 0.003550 -0.001206 -0.003671 0.000000 0.017536 0.000000
# 6 0.000000 0.000000 0.000000 -0.000410 0.000000 0.024813
#
#
# Mechanical properties :
#
#
# Convention : Reuss Voigt Hill
#
# Bulk Modulus (GPa) = 55.80645 59.25908 57.53277
# Shear Modulus (GPa) = 42.23932 46.29799 44.26865
#
# Velocity S-wave (km/s) = 4.02382 4.21270 4.11934
# Velocity P-wave (km/s) = 6.55589 6.81011 6.68421
#
# Compressibility (1/GPa) = 0.01791908
#
# Stress axis : x y z
#
# Youngs Moduli (GPa) = 117.62996 90.31808 89.71486
#
# Poissons Ratio (x) = 0.18590 0.29630
# Poissons Ratio (y) = 0.24212 0.09324
# Poissons Ratio (z) = 0.38850 0.09386
#
# Static dielectric constant tensor:
#      x y z
#    x 5.121010 0.000000 -0.078710 
#    y 0.000000 4.449860 0.000000 
#    z -0.078710 0.000000 5.217990 
# 
# 
# High freq. dielectric constant tensor:
#      x y z
#    x 2.071270 0.000000 0.007380 
#    y 0.000000 2.023580 0.000000 
#    z 0.007380 0.000000 2.064110 
# 
# From -- ./inp_files/24756.got.cif
#   From: 2010.06.25/outbox.cif.g09.slc.cpg/sg15_13_cif.got.tgz:24756.got - 2010.06.28 07:06:18.
