data_PCOD8154918
_publ_section_title
;
Structure prediction by ZEFSAII (Michael W. Deem and Ramdas Pophale) SiO2 
 PCOD8154918
Probable space group: C 2/C
;
_chemical_formula_sum "Si O2"
_cell_formula_units_Z 40
_cell_length_a 8.643773
_cell_length_b 16.824663
_cell_length_c 13.917108
_cell_angle_alpha 90.000000
_cell_angle_beta 121.626905
_cell_angle_gamma 90.000000
_cell_volume 1723.350352
_symmetry_space_group_name_H-M "C 2/C"
_symmetry_group_IT_number 15
_symmetry_cell_setting 'monoclinic'
loop_
_space_group_symop_operation_xyz
x,y,z
-x,y,1/2-z
-x,-y,-z
x,-y,1/2+z
1/2+x,1/2+y,z
1/2-x,1/2+y,1/2-z
1/2-x,1/2-y,-z
1/2+x,1/2-y,1/2+z
loop_
_atom_site_type_symbol
_atom_site_label
_atom_site_fract_x
_atom_site_fract_y
_atom_site_fract_z
Si Si1 0.000000 0.562991 0.250000
Si Si2 0.932328 0.586228 0.017951
Si Si3 0.473200 0.350218 0.138548
Si Si4 0.391677 0.492478 0.866784
Si Si5 0.162978 0.277113 0.568611
Si Si6 0.000000 0.864176 0.750000
O O1 0.009414 0.608108 0.150754
O O2 0.819503 0.512053 0.177742
O O3 0.034251 0.652021 0.988860
O O4 0.719829 0.606873 0.945756
O O5 0.000000 0.500000 0.000000
O O6 0.500000 0.305740 0.250000
O O7 0.605824 0.425547 0.190973
O O8 0.534900 0.290245 0.075275
O O9 0.477445 0.419053 0.836597
O O10 0.500000 0.500000 0.000000
O O11 0.250000 0.250000 0.500000
O O12 0.323808 0.308005 0.689599
#
# Coordination Sequence:
#
# PCOD8154918 Si02
#       6
#     4   8   8   8   8   4
#     4  12  26  43  85 106 150 194 264 322 388 453
#     4  12  27  52  79 113 151 205 268 317 390 481
#     4  12  27  48  78 112 159 201 256 324 400 470
#     4  12  24  47  78 110 146 203 263 321 388 471
#     4  12  30  47  76 114 160 201 258 326 400 468
#     4  12  26  51  71 110 156 200 258 324 386 479
#
# _framework density 23.210602000000002
#
# number of rings (size 3 to 8) (size 9 to 14) (size 15 to 20)
#    0.000    0.000    5.000    4.200    7.000    0.800 
#    0.000    0.000    0.000    0.000    0.000    0.000 
#    0.000    0.000    0.000    0.000    0.000    0.000 
#
# Total GULP energy -247784.203608 kJ/mol
# GULP energy per Si atom -12389.210180 kJ/mol
# Density = 2.315777 g / cm^3
# Si number density = 23.210602 Si / 1000 Ang^3
#
#
#
# Elastic Constant Matrix: (Units=GPa)
#
#
# Indices 1 2 3 4 5 6 
#
# 1 163.7116 79.2776 56.4344 0.0000 11.7724 0.0000
# 2 79.2776 143.7686 35.1397 0.0000 1.2934 0.0000
# 3 56.4344 35.1397 138.0742 0.0000 -7.4893 0.0000
# 4 0.0000 0.0000 0.0000 35.3521 0.0000 -2.8029
# 5 11.7724 1.2934 -7.4893 0.0000 56.4217 0.0000
# 6 0.0000 0.0000 0.0000 -2.8029 0.0000 43.9609
#
#
#
# Elastic Compliance Matrix: (Units=1/GPa)
#
#
# Indices 1 2 3 4 5 6 
#
# 1 0.009413 -0.004479 -0.002829 0.000000 -0.002237 0.000000
# 2 -0.004479 0.009558 -0.000567 0.000000 0.000640 0.000000
# 3 -0.002829 -0.000567 0.008638 0.000000 0.001750 0.000000
# 4 0.000000 0.000000 0.000000 0.028431 0.000000 0.001813
# 5 -0.002237 0.000640 0.001750 0.000000 0.018408 0.000000
# 6 0.000000 0.000000 0.000000 0.001813 0.000000 0.022863
#
#
# Mechanical properties :
#
#
# Convention : Reuss Voigt Hill
#
# Bulk Modulus (GPa) = 84.32152 87.47309 85.89730
# Shear Modulus (GPa) = 42.72958 45.46045 44.09502
#
# Velocity S-wave (km/s) = 4.29529 4.43042 4.36337
# Velocity P-wave (km/s) = 7.81070 7.99625 7.90402
#
# Compressibility (1/GPa) = 0.01185937
#
# Stress axis : x y z
#
# Youngs Moduli (GPa) = 106.23161 104.61964 115.76816
#
# Poissons Ratio (x) = 0.46862 0.32749
# Poissons Ratio (y) = 0.47584 0.06565
# Poissons Ratio (z) = 0.30052 0.05933
#
# Static dielectric constant tensor:
#      x y z
#    x 4.746980 0.000000 -0.161330 
#    y 0.000000 4.499240 0.000000 
#    z -0.161330 0.000000 4.507070 
# 
# 
# High freq. dielectric constant tensor:
#      x y z
#    x 1.948840 0.000000 0.000700 
#    y 0.000000 1.914590 0.000000 
#    z 0.000700 0.000000 1.924160 
# 
# From -- ./inp_files/134639.got.cif
#   From: 2010.06.25/outbox.cif.g09.slc.cpg/sg15_68_cif.got.tgz:134639.got - 2010.06.28 07:06:18.
