data_PCOD8154042
_publ_section_title
;
Structure prediction by ZEFSAII (Michael W. Deem and Ramdas Pophale) SiO2 
 PCOD8154042
Probable space group: C 2/C
;
_chemical_formula_sum "Si O2"
_cell_formula_units_Z 16
_cell_length_a 27.096213
_cell_length_b 5.520438
_cell_length_c 9.723104
_cell_angle_alpha 90.000000
_cell_angle_beta 23.107362
_cell_angle_gamma 90.000000
_cell_volume 570.791197
_symmetry_space_group_name_H-M "C 2/C"
_symmetry_group_IT_number 15
_symmetry_cell_setting 'monoclinic'
loop_
_space_group_symop_operation_xyz
x,y,z
-x,y,1/2-z
-x,-y,-z
x,-y,1/2+z
1/2+x,1/2+y,z
1/2-x,1/2+y,1/2-z
1/2-x,1/2-y,-z
1/2+x,1/2-y,1/2+z
loop_
_atom_site_type_symbol
_atom_site_label
_atom_site_fract_x
_atom_site_fract_y
_atom_site_fract_z
Si Si1 0.164874 0.054223 0.292942
Si Si2 0.402004 0.782962 0.767227
O O1 0.077077 0.175886 0.634063
O O2 0.076030 0.918033 0.408499
O O3 0.250000 0.250000 0.000000
O O4 0.256621 0.863298 0.132234
O O5 0.500000 0.000000 0.500000
#
# Coordination Sequence:
#
# PCOD8154042 Si02
#       2
#     8   8
#     4  11  24  52  80 118 166 211 284 338 402 509
#     4  11  26  51  84 119 163 219 273 346 419 485
#
# _framework density 28.031267
#
# number of rings (size 3 to 8) (size 9 to 14) (size 15 to 20)
#    0.000    1.000    5.000    0.000    0.000    4.000 
#    9.000    2.500    0.000    0.000    0.000    0.000 
#    0.000    0.000    0.000    0.000    0.000    0.000 
#
# Total GULP energy -99260.322099 kJ/mol
# GULP energy per Si atom -12407.540262 kJ/mol
# Density = 2.796747 g / cm^3
# Si number density = 28.031267 Si / 1000 Ang^3
#
#
#
# Elastic Constant Matrix: (Units=GPa)
#
#
# Indices 1 2 3 4 5 6 
#
# 1 250.1175 98.9723 87.8131 0.0000 37.4495 0.0000
# 2 98.9723 185.2429 104.1153 0.0000 44.5513 0.0000
# 3 87.8131 104.1153 165.1652 0.0000 37.3712 0.0000
# 4 0.0000 0.0000 0.0000 83.5897 0.0000 -6.2778
# 5 37.4495 44.5513 37.3712 0.0000 54.4949 0.0000
# 6 0.0000 0.0000 0.0000 -6.2778 0.0000 75.2629
#
#
#
# Elastic Compliance Matrix: (Units=1/GPa)
#
#
# Indices 1 2 3 4 5 6 
#
# 1 0.005400 -0.001747 -0.001483 0.000000 -0.001265 0.000000
# 2 -0.001747 0.009653 -0.004311 0.000000 -0.003735 0.000000
# 3 -0.001483 -0.004311 0.010100 0.000000 -0.002382 0.000000
# 4 0.000000 0.000000 0.000000 0.012039 0.000000 0.001004
# 5 -0.001265 -0.003735 -0.002382 0.000000 0.023907 0.000000
# 6 0.000000 0.000000 0.000000 0.001004 0.000000 0.013371
#
#
# Mechanical properties :
#
#
# Convention : Reuss Voigt Hill
#
# Bulk Modulus (GPa) = 99.30831 131.36966 115.33898
# Shear Modulus (GPa) = 53.81699 63.31115 58.56407
#
# Velocity S-wave (km/s) = 4.38641 4.75762 4.57578
# Velocity P-wave (km/s) = 7.82040 8.78334 8.31582
#
# Compressibility (1/GPa) = 0.01006965
#
# Stress axis : x y z
#
# Youngs Moduli (GPa) = 185.19882 103.59576 99.01174
#
# Poissons Ratio (x) = 0.18098 0.14686
# Poissons Ratio (y) = 0.32353 0.42685
# Poissons Ratio (z) = 0.27470 0.44661
#
# Static dielectric constant tensor:
#      x y z
#    x 6.022740 0.000000 -0.176920 
#    y 0.000000 5.476600 0.000000 
#    z -0.176920 0.000000 5.110170 
# 
# 
# High freq. dielectric constant tensor:
#      x y z
#    x 2.174340 0.000000 -0.014100 
#    y 0.000000 2.145760 0.000000 
#    z -0.014100 0.000000 2.149340 
# 
# From -- ./inp_files/26337.got.cif
#   From: 2010.06.25/outbox.cif.g09.slc.cpg/sg15_14_cif.got.tgz:26337.got - 2010.06.28 07:06:18.
