data_PCOD8154121
_publ_section_title
;
Structure prediction by ZEFSAII (Michael W. Deem and Ramdas Pophale) SiO2 
 PCOD8154121
Probable space group: C 2/C
;
_chemical_formula_sum "Si O2"
_cell_formula_units_Z 48
_cell_length_a 11.763901
_cell_length_b 16.017318
_cell_length_c 14.548565
_cell_angle_alpha 90.000000
_cell_angle_beta 53.337569
_cell_angle_gamma 90.000000
_cell_volume 2199.005378
_symmetry_space_group_name_H-M "C 2/C"
_symmetry_group_IT_number 15
_symmetry_cell_setting 'monoclinic'
loop_
_space_group_symop_operation_xyz
x,y,z
-x,y,1/2-z
-x,-y,-z
x,-y,1/2+z
1/2+x,1/2+y,z
1/2-x,1/2+y,1/2-z
1/2-x,1/2-y,-z
1/2+x,1/2-y,1/2+z
loop_
_atom_site_type_symbol
_atom_site_label
_atom_site_fract_x
_atom_site_fract_y
_atom_site_fract_z
Si Si1 0.231712 0.611639 0.004663
Si Si2 0.137767 0.840009 0.627800
Si Si3 0.800889 0.816040 0.101979
Si Si4 0.336540 0.018838 0.098927
Si Si5 0.662794 0.989071 0.196132
Si Si6 0.529361 0.256671 0.128746
O O1 0.238856 0.545301 0.083587
O O2 0.085453 0.663886 0.078941
O O3 0.245513 0.562411 0.901554
O O4 0.361132 0.673425 0.956214
O O5 0.105876 0.836785 0.533961
O O6 0.172356 0.746118 0.641425
O O7 0.274322 0.899619 0.578049
O O8 0.000000 0.872830 0.750000
O O9 0.888713 0.770904 0.139050
O O10 0.735891 0.900261 0.172065
O O11 0.314977 0.033479 0.216951
O O12 0.500000 0.000000 0.000000
O O13 0.500000 0.976097 0.250000
O O14 0.500000 0.264029 0.250000
#
# Coordination Sequence:
#
# PCOD8154121 Si02
#       6
#     8   8   8   8   8   8
#     4  11  25  45  68 105 134 182 236 284 354 421
#     4  11  26  44  70 101 139 186 237 291 356 414
#     4  11  25  46  68 100 140 184 233 289 351 429
#     4  12  24  44  70 101 138 182 236 290 350 428
#     4  12  24  43  71  99 139 184 234 290 349 419
#     4  11  26  44  71 101 139 181 230 291 357 421
#
# _framework density 21.828050000000001
#
# number of rings (size 3 to 8) (size 9 to 14) (size 15 to 20)
#    0.000    0.667    3.333    3.000    4.667    8.000 
#    0.000    0.000    0.000    0.000    0.000    0.000 
#    0.000    0.000    0.000    0.000    0.000    0.000 
#
# Total GULP energy -297693.668823 kJ/mol
# GULP energy per Si atom -12403.902868 kJ/mol
# Density = 2.177837 g / cm^3
# Si number density = 21.828050 Si / 1000 Ang^3
#
#
#
# Elastic Constant Matrix: (Units=GPa)
#
#
# Indices 1 2 3 4 5 6 
#
# 1 75.3329 14.4755 33.8671 -0.0001 25.2540 0.0001
# 2 14.4755 104.0270 13.1077 0.0000 3.2038 0.0001
# 3 33.8671 13.1077 97.1881 -0.0001 17.2955 0.0001
# 4 -0.0001 0.0000 -0.0001 25.9280 0.0000 9.4065
# 5 25.2540 3.2038 17.2955 0.0000 42.6703 -0.0001
# 6 0.0001 0.0001 0.0001 9.4065 -0.0001 17.3531
#
#
#
# Elastic Compliance Matrix: (Units=1/GPa)
#
#
# Indices 1 2 3 4 5 6 
#
# 1 0.018757 -0.001740 -0.004687 0.000000 -0.009070 0.000000
# 2 -0.001740 0.009942 -0.000846 0.000000 0.000626 0.000000
# 3 -0.004687 -0.000846 0.012428 0.000000 -0.002200 0.000000
# 4 0.000000 0.000000 0.000000 0.048010 0.000000 -0.026024
# 5 -0.009070 0.000626 -0.002200 0.000000 0.029648 0.000000
# 6 0.000000 0.000000 0.000000 -0.026024 0.000000 0.071734
#
#
# Mechanical properties :
#
#
# Convention : Reuss Voigt Hill
#
# Bulk Modulus (GPa) = 37.62141 44.38318 41.00229
# Shear Modulus (GPa) = 23.37254 31.53013 27.45134
#
# Velocity S-wave (km/s) = 3.27579 3.80475 3.55014
# Velocity P-wave (km/s) = 5.61966 6.29911 5.96906
#
# Compressibility (1/GPa) = 0.02658061
#
# Stress axis : x y z
#
# Youngs Moduli (GPa) = 53.31420 100.57998 80.46151
#
# Poissons Ratio (x) = 0.17502 0.37715
# Poissons Ratio (y) = 0.09277 0.06807
# Poissons Ratio (z) = 0.24990 0.08509
#
# Static dielectric constant tensor:
#      x y z
#    x 3.941910 0.000000 0.241110 
#    y 0.000000 4.092700 0.000000 
#    z 0.241110 0.000000 4.055220 
# 
# 
# High freq. dielectric constant tensor:
#      x y z
#    x 1.856300 0.000000 0.015710 
#    y 0.000000 1.876930 0.000000 
#    z 0.015710 0.000000 1.859070 
# 
# From -- ./inp_files/144050.got.cif
#   From: 2010.06.25/outbox.cif.g09.slc.cpg/sg15_73_cif.got.tgz:144050.got - 2010.06.28 07:06:18.
