data_PCOD8154010
_publ_section_title
;
Structure prediction by ZEFSAII (Michael W. Deem and Ramdas Pophale) SiO2 
 PCOD8154010
Probable space group: C 2/C
;
_chemical_formula_sum "Si O2"
_cell_formula_units_Z 52
_cell_length_a 27.168511
_cell_length_b 6.672872
_cell_length_c 14.100931
_cell_angle_alpha 90.000000
_cell_angle_beta 66.355860
_cell_angle_gamma 90.000000
_cell_volume 2341.787643
_symmetry_space_group_name_H-M "C 2/C"
_symmetry_group_IT_number 15
_symmetry_cell_setting 'monoclinic'
loop_
_space_group_symop_operation_xyz
x,y,z
-x,y,1/2-z
-x,-y,-z
x,-y,1/2+z
1/2+x,1/2+y,z
1/2-x,1/2+y,1/2-z
1/2-x,1/2-y,-z
1/2+x,1/2-y,1/2+z
loop_
_atom_site_type_symbol
_atom_site_label
_atom_site_fract_x
_atom_site_fract_y
_atom_site_fract_z
Si Si1 0.665462 0.499793 0.345386
Si Si2 0.000000 0.758219 0.750000
Si Si3 0.738024 0.760408 0.165504
Si Si4 0.426331 0.401113 0.224583
Si Si5 0.878838 0.230278 0.951879
Si Si6 0.487148 0.076401 0.406174
Si Si7 0.280732 0.955900 0.983119
O O1 0.691512 0.692021 0.273246
O O2 0.708552 0.319118 0.316513
O O3 0.610534 0.431759 0.338383
O O4 0.650236 0.559363 0.464136
O O5 0.042509 0.895573 0.772731
O O6 0.026071 0.613542 0.650550
O O7 0.748856 0.585721 0.083201
O O8 0.716713 0.950902 0.123852
O O9 0.386792 0.355116 0.341125
O O10 0.466096 0.214520 0.174983
O O11 0.934669 0.287568 0.957365
O O12 0.841291 0.425565 0.973130
O O13 0.500000 0.000000 0.500000
O O14 0.250000 0.750000 0.000000
#
# Coordination Sequence:
#
# PCOD8154010 Si02
#       7
#     8   4   8   8   8   8   8
#     4  12  28  45  78 107 149 195 244 305 368 440
#     4  12  24  52  74 102 154 190 234 310 364 430
#     4  11  27  48  70 110 147 195 246 310 362 440
#     4  12  28  50  72 112 149 188 247 308 366 437
#     4  12  25  47  75 109 144 194 244 304 368 437
#     4  12  28  49  77 108 146 193 249 301 366 441
#     4  11  24  48  74 100 147 194 247 304 367 430
#
# _framework density 22.205259000000002
#
# number of rings (size 3 to 8) (size 9 to 14) (size 15 to 20)
#    0.000    0.308    4.615    2.769   10.769    2.462 
#    0.000    0.000    0.000    0.000    0.000    0.000 
#    0.000    0.000    0.000    0.000    0.000    0.000 
#
# Total GULP energy -322530.247782 kJ/mol
# GULP energy per Si atom -12405.009530 kJ/mol
# Density = 2.215472 g / cm^3
# Si number density = 22.205259 Si / 1000 Ang^3
#
#
#
# Elastic Constant Matrix: (Units=GPa)
#
#
# Indices 1 2 3 4 5 6 
#
# 1 122.9245 32.2511 18.2526 0.0000 7.0567 0.0000
# 2 32.2511 109.6592 38.9743 0.0000 3.0563 0.0000
# 3 18.2526 38.9743 118.1135 0.0000 -3.1228 0.0000
# 4 0.0000 0.0000 0.0000 27.8176 0.0000 12.5634
# 5 7.0567 3.0563 -3.1228 0.0000 37.6595 0.0000
# 6 0.0000 0.0000 0.0000 12.5634 0.0000 43.8239
#
#
#
# Elastic Compliance Matrix: (Units=1/GPa)
#
#
# Indices 1 2 3 4 5 6 
#
# 1 0.008937 -0.002357 -0.000644 0.000000 -0.001537 0.000000
# 2 -0.002357 0.011000 -0.003285 0.000000 -0.000723 0.000000
# 3 -0.000644 -0.003285 0.009681 0.000000 0.001190 0.000000
# 4 0.000000 0.000000 0.000000 0.041295 0.000000 -0.011838
# 5 -0.001537 -0.000723 0.001190 0.000000 0.026999 0.000000
# 6 0.000000 0.000000 0.000000 -0.011838 0.000000 0.026212
#
#
# Mechanical properties :
#
#
# Convention : Reuss Voigt Hill
#
# Bulk Modulus (GPa) = 58.65944 58.85034 58.75489
# Shear Modulus (GPa) = 35.11774 39.27484 37.19629
#
# Velocity S-wave (km/s) = 3.98113 4.21018 4.09725
# Velocity P-wave (km/s) = 6.89977 7.08481 6.99290
#
# Compressibility (1/GPa) = 0.01704755
#
# Stress axis : x y z
#
# Youngs Moduli (GPa) = 111.89111 90.91057 103.29238
#
# Poissons Ratio (x) = 0.21425 0.06653
# Poissons Ratio (y) = 0.26370 0.33927
# Poissons Ratio (z) = 0.07207 0.29860
#
# Static dielectric constant tensor:
#      x y z
#    x 4.259160 0.000000 0.015520 
#    y 0.000000 4.188780 0.000000 
#    z 0.015520 0.000000 4.205080 
# 
# 
# High freq. dielectric constant tensor:
#      x y z
#    x 1.885540 0.000000 0.006870 
#    y 0.000000 1.879030 0.000000 
#    z 0.006870 0.000000 1.887410 
# 
# From -- ./inp_files/180077.got.cif
#   From: 2010.06.25/outbox.cif.g09.slc.cpg/sg15_91_cif.got.tgz:180077.got - 2010.06.28 07:06:18.
