data_PCOD8154898
_publ_section_title
;
Structure prediction by ZEFSAII (Michael W. Deem and Ramdas Pophale) SiO2 
 PCOD8154898
Probable space group: C 2/C
;
_chemical_formula_sum "Si O2"
_cell_formula_units_Z 36
_cell_length_a 17.078927
_cell_length_b 5.255235
_cell_length_c 18.456379
_cell_angle_alpha 90.000000
_cell_angle_beta 61.000064
_cell_angle_gamma 90.000000
_cell_volume 1448.834407
_symmetry_space_group_name_H-M "C 2/C"
_symmetry_group_IT_number 15
_symmetry_cell_setting 'monoclinic'
loop_
_space_group_symop_operation_xyz
x,y,z
-x,y,1/2-z
-x,-y,-z
x,-y,1/2+z
1/2+x,1/2+y,z
1/2-x,1/2+y,1/2-z
1/2-x,1/2-y,-z
1/2+x,1/2-y,1/2+z
loop_
_atom_site_type_symbol
_atom_site_label
_atom_site_fract_x
_atom_site_fract_y
_atom_site_fract_z
Si Si1 0.000000 0.676056 0.250000
Si Si2 0.581812 0.566503 0.376530
Si Si3 0.923828 0.313066 0.389416
Si Si4 0.865168 0.545647 0.068995
Si Si5 0.165289 0.957860 0.694176
O O1 0.002972 0.509551 0.175089
O O2 0.092951 0.823718 0.213904
O O3 0.481987 0.559219 0.384905
O O4 0.604483 0.307820 0.407401
O O5 0.656205 0.629388 0.281852
O O6 0.572854 0.808015 0.435272
O O7 0.868572 0.425542 0.481093
O O8 0.854243 0.263049 0.355517
O O9 0.766205 0.455037 0.135637
#
# Coordination Sequence:
#
# PCOD8154898 Si02
#       5
#     4   8   8   8   8
#     4  12  24  46  82  98 154 194 262 294 376 436
#     4  12  25  50  72 112 150 197 237 309 381 441
#     4  12  26  48  76 109 146 202 248 305 370 452
#     4  12  30  45  77 112 152 187 252 315 369 435
#     4  12  26  48  75 107 146 202 250 303 369 451
#
# _framework density 24.847559
#
# number of rings (size 3 to 8) (size 9 to 14) (size 15 to 20)
#    0.000    0.000    4.444    4.667    6.222    0.889 
#    0.000    0.000    0.000    0.000    0.000    0.000 
#    0.000    0.000    0.000    0.000    0.000    0.000 
#
# Total GULP energy -223203.279596 kJ/mol
# GULP energy per Si atom -12400.182200 kJ/mol
# Density = 2.479101 g / cm^3
# Si number density = 24.847559 Si / 1000 Ang^3
#
#
#
# Elastic Constant Matrix: (Units=GPa)
#
#
# Indices 1 2 3 4 5 6 
#
# 1 47.4856 36.6852 17.4245 0.0031 1.5089 -0.0069
# 2 36.6852 126.4603 27.7488 -0.0583 18.9936 -0.0601
# 3 17.4245 27.7488 171.7053 -0.0196 16.3673 -0.0231
# 4 0.0031 -0.0583 -0.0196 18.3252 -0.0145 -5.7769
# 5 1.5089 18.9936 16.3673 -0.0145 40.8398 -0.0169
# 6 -0.0069 -0.0601 -0.0231 -5.7769 -0.0169 19.0648
#
#
#
# Elastic Compliance Matrix: (Units=1/GPa)
#
#
# Indices 1 2 3 4 5 6 
#
# 1 0.027996 -0.008248 -0.001846 -0.000039 0.003541 -0.000027
# 2 -0.008248 0.011113 -0.000515 0.000045 -0.004657 0.000041
# 3 -0.001846 -0.000515 0.006306 0.000005 -0.002220 0.000005
# 4 -0.000039 0.000045 0.000005 0.060333 0.000007 0.018282
# 5 0.003541 -0.004657 -0.002220 0.000007 0.027411 0.000010
# 6 -0.000027 0.000041 0.000005 0.018282 0.000010 0.057993
#
#
# Mechanical properties :
#
#
# Convention : Reuss Voigt Hill
#
# Bulk Modulus (GPa) = 41.32724 56.59647 48.96186
# Shear Modulus (GPa) = 22.68245 33.23214 27.95729
#
# Velocity S-wave (km/s) = 3.02464 3.66107 3.35797
# Velocity P-wave (km/s) = 5.37274 6.37951 5.89765
#
# Compressibility (1/GPa) = 0.02419711
#
# Stress axis : x y z
#
# Youngs Moduli (GPa) = 35.71940 89.98532 158.57878
#
# Poissons Ratio (x) = 0.74223 0.29267
# Poissons Ratio (y) = 0.29463 0.08166
# Poissons Ratio (z) = 0.06592 0.04634
#
# Static dielectric constant tensor:
#      x y z
#    x 4.357240 -0.000030 0.201220 
#    y -0.000030 4.299200 -0.000050 
#    z 0.201220 -0.000050 4.938900 
# 
# 
# High freq. dielectric constant tensor:
#      x y z
#    x 1.985420 0.000000 0.008140 
#    y 0.000000 1.980310 0.000000 
#    z 0.008140 0.000000 2.017340 
# 
# From -- ./inp_files/207941.got.cif
#   From: 2010.06.25/outbox.cif.g09.slc.cpg/sg15_104_cif.got.tgz:207941.got - 2010.06.28 07:06:18.
