data_PCOD8154910
_publ_section_title
;
Structure prediction by ZEFSAII (Michael W. Deem and Ramdas Pophale) SiO2 
 PCOD8154910
Probable space group: C 2/C
;
_chemical_formula_sum "Si O2"
_cell_formula_units_Z 48
_cell_length_a 24.708671
_cell_length_b 12.620508
_cell_length_c 13.126937
_cell_angle_alpha 90.000000
_cell_angle_beta 147.752083
_cell_angle_gamma 90.000000
_cell_volume 2184.199154
_symmetry_space_group_name_H-M "C 2/C"
_symmetry_group_IT_number 15
_symmetry_cell_setting 'monoclinic'
loop_
_space_group_symop_operation_xyz
x,y,z
-x,y,1/2-z
-x,-y,-z
x,-y,1/2+z
1/2+x,1/2+y,z
1/2-x,1/2+y,1/2-z
1/2-x,1/2-y,-z
1/2+x,1/2-y,1/2+z
loop_
_atom_site_type_symbol
_atom_site_label
_atom_site_fract_x
_atom_site_fract_y
_atom_site_fract_z
Si Si1 0.685971 0.489824 0.034307
Si Si2 0.516465 0.226497 0.465648
Si Si3 0.500000 0.368069 0.250000
Si Si4 0.500000 0.886923 0.250000
Si Si5 0.859016 0.560418 0.952610
Si Si6 0.185599 0.356733 0.894664
Si Si7 0.364924 0.722574 0.154941
O O1 0.748813 0.471909 0.237360
O O2 0.753200 0.544827 0.054089
O O3 0.597328 0.563945 0.931974
O O4 0.634758 0.383359 0.910583
O O5 0.475821 0.300265 0.310781
O O6 0.603658 0.148287 0.566994
O O7 0.414281 0.162800 0.334821
O O8 0.564518 0.294989 0.633471
O O9 0.416375 0.818194 0.175459
O O10 0.563534 0.961826 0.427346
O O11 0.851151 0.610338 0.051720
O O12 0.250000 0.250000 0.000000
O O13 0.250000 0.750000 0.000000
#
# Coordination Sequence:
#
# PCOD8154910 Si02
#       7
#     8   8   4   4   8   8   8
#     4  12  28  45  72 107 144 187 238 294 369 430
#     4  12  24  49  73 102 145 184 240 299 350 436
#     4  12  26  48  68 106 142 186 232 292 362 430
#     4  12  26  48  72 108 148 196 244 300 362 436
#     4  12  25  45  78 105 141 191 247 295 355 433
#     4  12  24  47  75 111 137 192 244 299 360 433
#     4  12  28  46  71 108 148 187 239 304 368 426
#
# _framework density 21.976016999999999
#
# number of rings (size 3 to 8) (size 9 to 14) (size 15 to 20)
#    0.000    0.000    6.667    2.500    4.667    6.000 
#    0.000    0.000    0.000    0.000    0.000    0.000 
#    0.000    0.000    0.000    0.000    0.000    0.000 
#
# Total GULP energy -297701.375368 kJ/mol
# GULP energy per Si atom -12404.223974 kJ/mol
# Density = 2.192600 g / cm^3
# Si number density = 21.976017 Si / 1000 Ang^3
#
#
#
# Elastic Constant Matrix: (Units=GPa)
#
#
# Indices 1 2 3 4 5 6 
#
# 1 62.3941 24.5705 28.5063 0.0000 10.3731 0.0000
# 2 24.5705 116.3089 49.6439 0.0000 -0.3562 0.0000
# 3 28.5063 49.6439 170.7422 0.0000 -4.2795 0.0000
# 4 0.0000 0.0000 0.0000 47.0583 0.0000 16.5660
# 5 10.3731 -0.3562 -4.2795 0.0000 42.2856 0.0000
# 6 0.0000 0.0000 0.0000 16.5660 0.0000 18.8144
#
#
#
# Elastic Compliance Matrix: (Units=1/GPa)
#
#
# Indices 1 2 3 4 5 6 
#
# 1 0.019160 -0.003019 -0.002446 0.000000 -0.004973 0.000000
# 2 -0.003019 0.010293 -0.002474 0.000000 0.000577 0.000000
# 3 -0.002446 -0.002474 0.007017 0.000000 0.001289 0.000000
# 4 0.000000 0.000000 0.000000 0.030796 0.000000 -0.027116
# 5 -0.004973 0.000577 0.001289 0.000000 0.025004 0.000000
# 6 0.000000 0.000000 0.000000 -0.027116 0.000000 0.077026
#
#
# Mechanical properties :
#
#
# Convention : Reuss Voigt Hill
#
# Bulk Modulus (GPa) = 48.56175 61.65407 55.10791
# Shear Modulus (GPa) = 26.03645 38.07996 32.05821
#
# Velocity S-wave (km/s) = 3.44578 4.16720 3.82354
# Velocity P-wave (km/s) = 6.16253 7.16032 6.68008
#
# Compressibility (1/GPa) = 0.02059234
#
# Stress axis : x y z
#
# Youngs Moduli (GPa) = 52.19156 97.14914 142.51382
#
# Poissons Ratio (x) = 0.29329 0.34856
# Poissons Ratio (y) = 0.15756 0.35263
# Poissons Ratio (z) = 0.12765 0.24038
#
# Static dielectric constant tensor:
#      x y z
#    x 3.829240 0.000000 0.122520 
#    y 0.000000 4.203240 0.000000 
#    z 0.122520 0.000000 4.132800 
# 
# 
# High freq. dielectric constant tensor:
#      x y z
#    x 1.859440 0.000000 0.010470 
#    y 0.000000 1.875590 0.000000 
#    z 0.010470 0.000000 1.886970 
# 
# From -- ./inp_files/151880.got.cif
#   From: 2010.06.25/outbox.cif.g09.slc.cpg/sg15_76_cif.got.tgz:151880.got - 2010.06.28 07:06:18.
