data_PCOD8154099
_publ_section_title
;
Structure prediction by ZEFSAII (Michael W. Deem and Ramdas Pophale) SiO2 
 PCOD8154099
Probable space group: C 2/C
;
_chemical_formula_sum "Si O2"
_cell_formula_units_Z 40
_cell_length_a 8.686797
_cell_length_b 21.479342
_cell_length_c 18.847125
_cell_angle_alpha 90.000000
_cell_angle_beta 150.062469
_cell_angle_gamma 90.000000
_cell_volume 1754.989770
_symmetry_space_group_name_H-M "C 2/C"
_symmetry_group_IT_number 15
_symmetry_cell_setting 'monoclinic'
loop_
_space_group_symop_operation_xyz
x,y,z
-x,y,1/2-z
-x,-y,-z
x,-y,1/2+z
1/2+x,1/2+y,z
1/2-x,1/2+y,1/2-z
1/2-x,1/2-y,-z
1/2+x,1/2-y,1/2+z
loop_
_atom_site_type_symbol
_atom_site_label
_atom_site_fract_x
_atom_site_fract_y
_atom_site_fract_z
Si Si1 0.340439 0.673892 0.362044
Si Si2 0.813586 0.382351 0.842467
Si Si3 0.635331 0.811338 0.098147
Si Si4 0.391817 0.887706 0.131720
Si Si5 0.845281 0.476353 0.619361
O O1 0.339337 0.663370 0.277027
O O2 0.481969 0.740466 0.441308
O O3 0.517698 0.619106 0.476991
O O4 0.000000 0.669955 0.250000
O O5 0.500000 0.414354 0.750000
O O6 0.064004 0.432179 0.910995
O O7 0.010217 0.341180 0.975687
O O8 0.501598 0.846819 0.111102
O O9 0.000000 0.815863 0.250000
O O10 0.500000 0.859910 0.250000
O O11 0.516347 0.957794 0.171751
O O12 0.500000 0.500000 0.500000
O O13 0.000000 0.444632 0.750000
#
# Coordination Sequence:
#
# PCOD8154099 Si02
#       5
#     8   8   8   8   8
#     4  11  25  46  71 102 143 192 239 287 373 433
#     4  12  26  46  75 107 145 188 245 304 358 429
#     4  11  28  43  69 109 142 187 238 306 359 418
#     4  11  25  44  71 100 142 187 237 299 357 431
#     4  11  26  47  73 101 142 198 238 291 365 439
#
# _framework density 22.792154
#
# number of rings (size 3 to 8) (size 9 to 14) (size 15 to 20)
#    0.000    0.800    2.000    3.600   11.200    3.200 
#    0.000    0.000    0.000    0.000    0.000    0.000 
#    0.000    0.000    0.000    0.000    0.000    0.000 
#
# Total GULP energy -247804.538973 kJ/mol
# GULP energy per Si atom -12390.226949 kJ/mol
# Density = 2.274028 g / cm^3
# Si number density = 22.792154 Si / 1000 Ang^3
#
#
#
# Elastic Constant Matrix: (Units=GPa)
#
#
# Indices 1 2 3 4 5 6 
#
# 1 124.7748 50.5817 54.8422 0.0007 -10.7406 0.0163
# 2 50.5817 125.1181 36.6575 0.0003 -27.4292 0.0031
# 3 54.8422 36.6575 141.4318 -0.0692 -31.7628 0.0261
# 4 0.0007 0.0003 -0.0692 42.8615 0.0185 2.2596
# 5 -10.7406 -27.4292 -31.7628 0.0185 54.1173 0.0163
# 6 0.0163 0.0031 0.0261 2.2596 0.0163 52.2459
#
#
#
# Elastic Compliance Matrix: (Units=1/GPa)
#
#
# Indices 1 2 3 4 5 6 
#
# 1 0.011020 -0.003784 -0.003722 -0.000005 -0.001916 -0.000001
# 2 -0.003784 0.010578 -0.000275 -0.000002 0.004449 -0.000001
# 3 -0.003722 -0.000275 0.009662 0.000014 0.004792 -0.000006
# 4 -0.000005 -0.000002 0.000014 0.023384 -0.000002 -0.001011
# 5 -0.001916 0.004449 0.004792 -0.000002 0.023166 -0.000009
# 6 -0.000001 -0.000001 -0.000006 -0.001011 -0.000009 0.019184
#
#
# Mechanical properties :
#
#
# Convention : Reuss Voigt Hill
#
# Bulk Modulus (GPa) = 63.71185 75.05416 69.38301
# Shear Modulus (GPa) = 42.44848 46.46115 44.45482
#
# Velocity S-wave (km/s) = 4.32025 4.51984 4.42117
# Velocity P-wave (km/s) = 7.27325 7.76144 7.52131
#
# Compressibility (1/GPa) = 0.01569567
#
# Stress axis : x y z
#
# Youngs Moduli (GPa) = 90.74589 94.53289 103.50260
#
# Poissons Ratio (x) = 0.35775 0.38529
# Poissons Ratio (y) = 0.34342 0.02848
# Poissons Ratio (z) = 0.33780 0.02601
#
# Static dielectric constant tensor:
#      x y z
#    x 5.732210 0.002170 1.667820 
#    y 0.002170 12.666760 0.001560 
#    z 1.667820 0.001560 5.740920 
# 
# 
# High freq. dielectric constant tensor:
#      x y z
#    x 1.909210 0.000000 0.010750 
#    y 0.000000 1.914770 0.000000 
#    z 0.010750 0.000000 1.914740 
# 
# From -- ./inp_files/23472.got.cif
#   From: 2010.06.25/outbox.cif.g09.slc.cpg/sg15_12_cif.got.tgz:23472.got - 2010.06.28 07:06:18.
