data_PCOD8154314
_publ_section_title
;
Structure prediction by ZEFSAII (Michael W. Deem and Ramdas Pophale) SiO2 
 PCOD8154314
Probable space group: C 2/C
;
_chemical_formula_sum "Si O2"
_cell_formula_units_Z 32
_cell_length_a 5.486528
_cell_length_b 13.294002
_cell_length_c 17.575695
_cell_angle_alpha 90.000000
_cell_angle_beta 81.315027
_cell_angle_gamma 90.000000
_cell_volume 1267.235263
_symmetry_space_group_name_H-M "C 2/C"
_symmetry_group_IT_number 15
_symmetry_cell_setting 'monoclinic'
loop_
_space_group_symop_operation_xyz
x,y,z
-x,y,1/2-z
-x,-y,-z
x,-y,1/2+z
1/2+x,1/2+y,z
1/2-x,1/2+y,1/2-z
1/2-x,1/2-y,-z
1/2+x,1/2-y,1/2+z
loop_
_atom_site_type_symbol
_atom_site_label
_atom_site_fract_x
_atom_site_fract_y
_atom_site_fract_z
Si Si1 0.423062 0.747550 0.898719
Si Si2 0.981966 0.614876 0.524326
Si Si3 0.778759 0.110472 0.205328
Si Si4 0.708635 0.887651 0.177707
O O1 0.215079 0.817565 0.868591
O O2 0.588864 0.700421 0.822783
O O3 0.298403 0.654374 0.949923
O O4 0.584206 0.816378 0.949722
O O5 0.123613 0.628784 0.595689
O O6 0.000000 0.500000 0.500000
O O7 0.500000 0.112119 0.250000
O O8 0.000000 0.146831 0.250000
O O9 0.838206 0.995656 0.179717
O O10 0.500000 0.869750 0.250000
#
# Coordination Sequence:
#
# PCOD8154314 Si02
#       4
#     8   8   8   8
#     4  11  27  48  78 111 155 213 260 323 399 475
#     4  11  25  51  75 114 158 205 262 326 393 475
#     4  11  28  49  77 118 160 203 264 331 394 467
#     4  11  27  49  80 115 160 206 266 329 397 467
#
# _framework density 25.251821
#
# number of rings (size 3 to 8) (size 9 to 14) (size 15 to 20)
#    0.000    1.000    2.500    0.750   14.000    1.000 
#    0.000    0.000    0.000    0.000    0.000    0.000 
#    0.000    0.000    0.000    0.000    0.000    0.000 
#
# Total GULP energy -198331.976745 kJ/mol
# GULP energy per Si atom -12395.748547 kJ/mol
# Density = 2.519435 g / cm^3
# Si number density = 25.251821 Si / 1000 Ang^3
#
#
#
# Elastic Constant Matrix: (Units=GPa)
#
#
# Indices 1 2 3 4 5 6 
#
# 1 90.0354 53.9350 44.8495 0.0000 8.8964 0.0000
# 2 53.9350 188.3293 75.0877 0.0000 -12.1228 0.0000
# 3 44.8495 75.0877 146.6346 0.0000 19.1105 0.0000
# 4 0.0000 0.0000 0.0000 38.0790 0.0000 -12.7348
# 5 8.8964 -12.1228 19.1105 0.0000 48.9908 0.0000
# 6 0.0000 0.0000 0.0000 -12.7348 0.0000 26.9734
#
#
#
# Elastic Compliance Matrix: (Units=1/GPa)
#
#
# Indices 1 2 3 4 5 6 
#
# 1 0.014579 -0.003385 -0.002393 0.000000 -0.002552 0.000000
# 2 -0.003385 0.007952 -0.003554 0.000000 0.003969 0.000000
# 3 -0.002393 -0.003554 0.009934 0.000000 -0.004320 0.000000
# 4 0.000000 0.000000 0.000000 0.031185 0.000000 0.014723
# 5 -0.002552 0.003969 -0.004320 0.000000 0.023543 0.000000
# 6 0.000000 0.000000 0.000000 0.014723 0.000000 0.044025
#
#
# Mechanical properties :
#
#
# Convention : Reuss Voigt Hill
#
# Bulk Modulus (GPa) = 72.45874 85.86039 79.15956
# Shear Modulus (GPa) = 32.36634 39.55046 35.95840
#
# Velocity S-wave (km/s) = 3.58403 3.96187 3.77768
# Velocity P-wave (km/s) = 6.77375 7.41647 7.10239
#
# Compressibility (1/GPa) = 0.01380096
#
# Stress axis : x y z
#
# Youngs Moduli (GPa) = 68.59252 125.75977 100.66121
#
# Poissons Ratio (x) = 0.42574 0.24088
# Poissons Ratio (y) = 0.23221 0.35771
# Poissons Ratio (z) = 0.16414 0.44690
#
# Static dielectric constant tensor:
#      x y z
#    x 4.420740 0.000000 0.104980 
#    y 0.000000 5.059080 0.000000 
#    z 0.104980 0.000000 4.758450 
# 
# 
# High freq. dielectric constant tensor:
#      x y z
#    x 1.982330 0.000000 0.010050 
#    y 0.000000 2.036610 0.000000 
#    z 0.010050 0.000000 2.020510 
# 
# From -- ./inp_files/226235.got.cif
#   From: 2010.06.25/outbox.cif.g09.slc.cpg/sg15_114_cif.got.tgz:226235.got - 2010.06.28 07:06:18.
