data_PCOD8154679
_publ_section_title
;
Structure prediction by ZEFSAII (Michael W. Deem and Ramdas Pophale) SiO2 
 PCOD8154679
Probable space group: C 2/C
;
_chemical_formula_sum "Si O2"
_cell_formula_units_Z 40
_cell_length_a 5.055448
_cell_length_b 23.164877
_cell_length_c 16.578660
_cell_angle_alpha 90.000000
_cell_angle_beta 70.902915
_cell_angle_gamma 90.000000
_cell_volume 1834.657713
_symmetry_space_group_name_H-M "C 2/C"
_symmetry_group_IT_number 15
_symmetry_cell_setting 'monoclinic'
loop_
_space_group_symop_operation_xyz
x,y,z
-x,y,1/2-z
-x,-y,-z
x,-y,1/2+z
1/2+x,1/2+y,z
1/2-x,1/2+y,1/2-z
1/2-x,1/2-y,-z
1/2+x,1/2-y,1/2+z
loop_
_atom_site_type_symbol
_atom_site_label
_atom_site_fract_x
_atom_site_fract_y
_atom_site_fract_z
Si Si1 0.701206 0.710418 0.082376
Si Si2 0.642280 0.174675 0.656138
Si Si3 0.000000 0.554713 0.250000
Si Si4 0.805763 0.632545 0.413915
Si Si5 0.709009 0.386785 0.097739
Si Si6 0.500000 0.524375 0.750000
O O1 0.593100 0.756369 0.159596
O O2 0.480649 0.659078 0.092266
O O3 0.993823 0.685123 0.082905
O O4 0.750000 0.750000 0.000000
O O5 0.500000 0.148511 0.750000
O O6 0.502900 0.141988 0.594213
O O7 0.971478 0.162187 0.625905
O O8 0.043620 0.593412 0.166956
O O9 0.267599 0.515064 0.233397
O O10 0.742685 0.594175 0.500697
O O11 0.631409 0.439432 0.163511
#
# Coordination Sequence:
#
# PCOD8154679 Si02
#       6
#     8   8   4   8   8   4
#     4  12  23  41  67 101 142 177 213 253 329 406
#     4  12  23  38  65 107 135 174 211 268 326 396
#     4  12  30  48  67  94 137 174 228 278 334 386
#     4  12  26  45  65 101 137 179 215 268 326 403
#     4  12  23  43  72  97 132 167 227 278 329 380
#     4  12  26  48  71  94 121 176 230 296 328 376
#
# _framework density 21.802430000000001
#
# number of rings (size 3 to 8) (size 9 to 14) (size 15 to 20)
#    0.000    0.000    6.000    4.200    2.800    1.600 
#    0.000    0.000    0.000    0.000    0.000    0.000 
#    0.000    0.000    0.000    0.000    0.000    0.000 
#
# Total GULP energy -248065.656232 kJ/mol
# GULP energy per Si atom -12403.282812 kJ/mol
# Density = 2.175281 g / cm^3
# Si number density = 21.802430 Si / 1000 Ang^3
#
#
#
# Elastic Constant Matrix: (Units=GPa)
#
#
# Indices 1 2 3 4 5 6 
#
# 1 99.7640 18.8240 -1.1495 0.0000 -1.7768 0.0000
# 2 18.8240 88.3303 35.6180 0.0000 5.3843 0.0000
# 3 -1.1495 35.6180 134.7368 0.0000 13.3754 0.0000
# 4 0.0000 0.0000 0.0000 42.8825 0.0000 -3.2772
# 5 -1.7768 5.3843 13.3754 0.0000 28.6960 0.0000
# 6 0.0000 0.0000 0.0000 -3.2772 0.0000 38.4222
#
#
#
# Elastic Compliance Matrix: (Units=1/GPa)
#
#
# Indices 1 2 3 4 5 6 
#
# 1 0.010531 -0.002572 0.000689 0.000000 0.000813 0.000000
# 2 -0.002572 0.013320 -0.003438 0.000000 -0.001056 0.000000
# 3 0.000689 -0.003438 0.008670 0.000000 -0.003353 0.000000
# 4 0.000000 0.000000 0.000000 0.023473 0.000000 0.002002
# 5 0.000813 -0.001056 -0.003353 0.000000 0.036659 0.000000
# 6 0.000000 0.000000 0.000000 0.002002 0.000000 0.026197
#
#
# Mechanical properties :
#
#
# Convention : Reuss Voigt Hill
#
# Bulk Modulus (GPa) = 45.70652 47.71290 46.70971
# Shear Modulus (GPa) = 36.55364 39.96940 38.26152
#
# Velocity S-wave (km/s) = 4.09906 4.28630 4.19372
# Velocity P-wave (km/s) = 6.58881 6.81382 6.70226
#
# Compressibility (1/GPa) = 0.02187872
#
# Stress axis : x y z
#
# Youngs Moduli (GPa) = 94.95480 75.07503 115.34631
#
# Poissons Ratio (x) = 0.19307 -0.07947
# Poissons Ratio (y) = 0.24420 0.39659
# Poissons Ratio (z) = -0.06542 0.25813
#
# Static dielectric constant tensor:
#      x y z
#    x 4.099960 0.000000 0.192000 
#    y 0.000000 4.031350 0.000000 
#    z 0.192000 0.000000 4.285700 
# 
# 
# High freq. dielectric constant tensor:
#      x y z
#    x 1.876800 0.000000 0.003280 
#    y 0.000000 1.842240 0.000000 
#    z 0.003280 0.000000 1.871580 
# 
# From -- ./inp_files/185163.got.cif
#   From: 2010.06.25/outbox.cif.g09.slc.cpg/sg15_93_cif.got.tgz:185163.got - 2010.06.28 07:06:18.
