data_PCOD8154505
_publ_section_title
;
Structure prediction by ZEFSAII (Michael W. Deem and Ramdas Pophale) SiO2 
 PCOD8154505
Probable space group: C 2/C
;
_chemical_formula_sum "Si O2"
_cell_formula_units_Z 36
_cell_length_a 13.765733
_cell_length_b 5.716457
_cell_length_c 30.537309
_cell_angle_alpha 90.000000
_cell_angle_beta 142.182311
_cell_angle_gamma 90.000000
_cell_volume 1473.412894
_symmetry_space_group_name_H-M "C 2/C"
_symmetry_group_IT_number 15
_symmetry_cell_setting 'monoclinic'
loop_
_space_group_symop_operation_xyz
x,y,z
-x,y,1/2-z
-x,-y,-z
x,-y,1/2+z
1/2+x,1/2+y,z
1/2-x,1/2+y,1/2-z
1/2-x,1/2-y,-z
1/2+x,1/2-y,1/2+z
loop_
_atom_site_type_symbol
_atom_site_label
_atom_site_fract_x
_atom_site_fract_y
_atom_site_fract_z
Si Si1 0.000000 0.810193 0.250000
Si Si2 0.115709 0.785924 0.147304
Si Si3 0.063518 0.547006 0.699235
Si Si4 0.774811 0.133404 0.122630
Si Si5 0.704348 0.498575 0.961965
O O1 0.939426 0.672397 0.269908
O O2 0.846687 0.958758 0.183438
O O3 0.048905 0.542447 0.143809
O O4 0.140766 0.767383 0.103425
O O5 0.275250 0.819567 0.232206
O O6 0.988509 0.994407 0.110226
O O7 0.908110 0.693389 0.652916
O O8 0.712299 0.002640 0.056636
O O9 0.750000 0.250000 0.000000
O O10 0.750000 0.750000 0.000000
#
# Coordination Sequence:
#
# PCOD8154505 Si02
#       5
#     4   8   8   8   8
#     4  12  20  42  76 110 154 176 228 328 386 442
#     4  12  24  45  79 104 150 203 238 312 396 436
#     4  12  23  44  73 120 150 178 242 317 395 458
#     4  12  25  48  74 111 150 187 248 318 383 455
#     4  12  30  52  72 106 154 208 265 303 348 456
#
# _framework density 24.433071000000002
#
# number of rings (size 3 to 8) (size 9 to 14) (size 15 to 20)
#    0.000    0.000    6.667    4.000    0.000    3.556 
#    0.000    0.000    0.000    0.000    0.000    0.000 
#    0.000    0.000    0.000    0.000    0.000    0.000 
#
# Total GULP energy -223066.340908 kJ/mol
# GULP energy per Si atom -12392.574495 kJ/mol
# Density = 2.437746 g / cm^3
# Si number density = 24.433071 Si / 1000 Ang^3
#
#
#
# Elastic Constant Matrix: (Units=GPa)
#
#
# Indices 1 2 3 4 5 6 
#
# 1 163.1200 45.1904 33.2790 0.0025 -19.1422 -0.0016
# 2 45.1904 127.2928 33.5516 0.0036 -10.2590 -0.0030
# 3 33.2790 33.5516 62.7502 0.0004 -24.8303 -0.0007
# 4 0.0025 0.0036 0.0004 51.0468 -0.0014 3.1166
# 5 -19.1422 -10.2590 -24.8303 -0.0014 26.0349 0.0015
# 6 -0.0016 -0.0030 -0.0007 3.1166 0.0015 63.5660
#
#
#
# Elastic Compliance Matrix: (Units=1/GPa)
#
#
# Indices 1 2 3 4 5 6 
#
# 1 0.007364 -0.001930 -0.001658 0.000000 0.003073 0.000000
# 2 -0.001930 0.009698 -0.005157 -0.000001 -0.002516 0.000000
# 3 -0.001658 -0.005157 0.029371 0.000001 0.024761 -0.000001
# 4 0.000000 -0.000001 0.000001 0.019649 0.000002 -0.000963
# 5 0.003073 -0.002516 0.024761 0.000002 0.063293 -0.000001
# 6 0.000000 0.000000 -0.000001 -0.000963 -0.000001 0.015779
#
#
# Mechanical properties :
#
#
# Convention : Reuss Voigt Hill
#
# Bulk Modulus (GPa) = 34.55100 64.13389 49.34245
# Shear Modulus (GPa) = 29.02086 44.20568 36.61327
#
# Velocity S-wave (km/s) = 3.45014 4.25815 3.87526
# Velocity P-wave (km/s) = 5.48116 7.10504 6.34526
#
# Compressibility (1/GPa) = 0.02894272
#
# Stress axis : x y z
#
# Youngs Moduli (GPa) = 135.79872 103.11873 34.04740
#
# Poissons Ratio (x) = 0.19899 0.05644
# Poissons Ratio (y) = 0.26205 0.17560
# Poissons Ratio (z) = 0.22510 0.53183
#
# Static dielectric constant tensor:
#      x y z
#    x 4.588170 0.000000 -0.339720 
#    y 0.000000 4.757650 0.000010 
#    z -0.339720 0.000010 4.390270 
# 
# 
# High freq. dielectric constant tensor:
#      x y z
#    x 1.988640 0.000000 -0.011970 
#    y 0.000000 1.979720 0.000000 
#    z -0.011970 0.000000 1.958950 
# 
# From -- ./inp_files/271498.got.cif
#   From: 2010.06.25/outbox.cif.g09.slc.cpg/sg15_136_cif.got.tgz:271498.got - 2010.06.28 07:06:18.
