data_PCOD8154357
_publ_section_title
;
Structure prediction by ZEFSAII (Michael W. Deem and Ramdas Pophale) SiO2 
 PCOD8154357
Probable space group: C 2/C
;
_chemical_formula_sum "Si O2"
_cell_formula_units_Z 48
_cell_length_a 18.474769
_cell_length_b 6.760027
_cell_length_c 20.930977
_cell_angle_alpha 90.000000
_cell_angle_beta 128.589316
_cell_angle_gamma 90.000000
_cell_volume 2043.252048
_symmetry_space_group_name_H-M "C 2/C"
_symmetry_group_IT_number 15
_symmetry_cell_setting 'monoclinic'
loop_
_space_group_symop_operation_xyz
x,y,z
-x,y,1/2-z
-x,-y,-z
x,-y,1/2+z
1/2+x,1/2+y,z
1/2-x,1/2+y,1/2-z
1/2-x,1/2-y,-z
1/2+x,1/2-y,1/2+z
loop_
_atom_site_type_symbol
_atom_site_label
_atom_site_fract_x
_atom_site_fract_y
_atom_site_fract_z
Si Si1 0.396275 0.555433 0.460660
Si Si2 0.354197 0.828802 0.325929
Si Si3 0.972412 0.703189 0.661659
Si Si4 0.131351 0.656411 0.435301
Si Si5 0.692204 0.514051 0.408941
Si Si6 0.290369 0.204358 0.351579
O O1 0.500000 0.500000 0.500000
O O2 0.343350 0.684859 0.379384
O O3 0.391896 0.681686 0.523057
O O4 0.341458 0.346560 0.430769
O O5 0.441794 0.741835 0.335798
O O6 0.262130 0.826838 0.232046
O O7 0.363378 0.052692 0.358757
O O8 0.954559 0.476594 0.631864
O O9 0.884467 0.844472 0.599739
O O10 0.000000 0.721014 0.750000
O O11 0.214340 0.502993 0.497027
O O12 0.155053 0.787650 0.385780
O O13 0.713671 0.582515 0.349170
#
# Coordination Sequence:
#
# PCOD8154357 Si02
#       6
#     8   8   8   8   8   8
#     4  12  27  46  73 112 146 191 244 306 359 438
#     4  12  26  47  74 108 145 193 241 299 368 441
#     4  12  27  46  72 106 148 190 242 303 361 432
#     4  11  27  45  74 104 146 190 243 296 367 430
#     4  11  26  46  72 105 141 188 240 300 356 438
#     4  12  26  46  77 103 147 189 245 294 374 435
#
# _framework density 23.491962000000001
#
# number of rings (size 3 to 8) (size 9 to 14) (size 15 to 20)
#    0.000    0.333    5.000    2.500    9.333    3.333 
#    3.000    0.000    0.000    0.000    0.000    0.000 
#    0.000    0.000    0.000    0.000    0.000    0.000 
#
# Total GULP energy -297491.675226 kJ/mol
# GULP energy per Si atom -12395.486468 kJ/mol
# Density = 2.343849 g / cm^3
# Si number density = 23.491962 Si / 1000 Ang^3
#
#
#
# Elastic Constant Matrix: (Units=GPa)
#
#
# Indices 1 2 3 4 5 6 
#
# 1 97.9456 34.1434 12.5728 0.0000 4.8791 0.0000
# 2 34.1434 117.2364 50.8345 0.0002 -2.6667 -0.0001
# 3 12.5728 50.8345 59.0072 0.0000 0.5532 0.0000
# 4 0.0000 0.0002 0.0000 41.4958 0.0000 1.1452
# 5 4.8791 -2.6667 0.5532 0.0000 31.6445 0.0000
# 6 0.0000 -0.0001 0.0000 1.1452 0.0000 43.4395
#
#
#
# Elastic Compliance Matrix: (Units=1/GPa)
#
#
# Indices 1 2 3 4 5 6 
#
# 1 0.011519 -0.003746 0.000793 0.000000 -0.002106 0.000000
# 2 -0.003746 0.014893 -0.012051 0.000000 0.002043 0.000000
# 3 0.000793 -0.012051 0.027175 0.000000 -0.001613 0.000000
# 4 0.000000 0.000000 0.000000 0.024116 0.000000 -0.000636
# 5 -0.002106 0.002043 -0.001613 0.000000 0.032126 0.000000
# 6 0.000000 0.000000 0.000000 -0.000636 0.000000 0.023037
#
#
# Mechanical properties :
#
#
# Convention : Reuss Voigt Hill
#
# Bulk Modulus (GPa) = 42.41278 52.14338 47.27808
# Shear Modulus (GPa) = 29.28528 35.09189 32.18858
#
# Velocity S-wave (km/s) = 3.53456 3.86914 3.70563
# Velocity P-wave (km/s) = 5.89499 6.49652 6.20305
#
# Compressibility (1/GPa) = 0.02357780
#
# Stress axis : x y z
#
# Youngs Moduli (GPa) = 86.81440 67.14717 36.79848
#
# Poissons Ratio (x) = 0.25156 -0.02918
# Poissons Ratio (y) = 0.32524 0.44345
# Poissons Ratio (z) = -0.06883 0.80918
#
# Static dielectric constant tensor:
#      x y z
#    x 4.259980 0.000000 -0.057110 
#    y 0.000000 4.416440 0.000000 
#    z -0.057110 0.000000 4.020000 
# 
# 
# High freq. dielectric constant tensor:
#      x y z
#    x 1.934200 0.000000 -0.003670 
#    y 0.000000 1.945000 0.000000 
#    z -0.003670 0.000000 1.921800 
# 
# From -- ./inp_files/279057.got.cif
#   From: 2010.06.25/outbox.cif.g09.slc.cpg/sg15_140_cif.got.tgz:279057.got - 2010.06.28 07:06:18.
