data_PCOD8154398
_publ_section_title
;
Structure prediction by ZEFSAII (Michael W. Deem and Ramdas Pophale) SiO2 
 PCOD8154398
Probable space group: C 2/C
;
_chemical_formula_sum "Si O2"
_cell_formula_units_Z 48
_cell_length_a 27.271658
_cell_length_b 6.421113
_cell_length_c 13.926734
_cell_angle_alpha 90.000000
_cell_angle_beta 122.067890
_cell_angle_gamma 90.000000
_cell_volume 2066.662879
_symmetry_space_group_name_H-M "C 2/C"
_symmetry_group_IT_number 15
_symmetry_cell_setting 'monoclinic'
loop_
_space_group_symop_operation_xyz
x,y,z
-x,y,1/2-z
-x,-y,-z
x,-y,1/2+z
1/2+x,1/2+y,z
1/2-x,1/2+y,1/2-z
1/2-x,1/2-y,-z
1/2+x,1/2-y,1/2+z
loop_
_atom_site_type_symbol
_atom_site_label
_atom_site_fract_x
_atom_site_fract_y
_atom_site_fract_z
Si Si1 0.568000 0.205347 0.570988
Si Si2 0.188434 0.326542 0.402795
Si Si3 0.821426 0.433329 0.423642
Si Si4 0.781034 0.660532 0.213269
Si Si5 0.471445 0.130278 0.321980
Si Si6 0.878324 0.962159 0.252454
O O1 0.618335 0.085738 0.567859
O O2 0.515464 0.235647 0.442840
O O3 0.587884 0.434168 0.623417
O O4 0.552660 0.077098 0.651895
O O5 0.250000 0.250000 0.500000
O O6 0.163713 0.490639 0.454253
O O7 0.195575 0.449577 0.310932
O O8 0.142832 0.138100 0.344855
O O9 0.782583 0.608498 0.328362
O O10 0.784167 0.218564 0.388197
O O11 0.821177 0.856211 0.233813
O O12 0.500000 0.069071 0.250000
O O13 0.420424 0.295253 0.245775
#
# Coordination Sequence:
#
# PCOD8154398 Si02
#       6
#     8   8   8   8   8   8
#     4  11  26  48  73 106 143 188 250 302 360 432
#     4  12  26  44  69 112 146 193 239 289 359 446
#     4  12  24  43  76 101 150 193 234 301 367 428
#     4  12  25  47  68 110 147 191 240 295 364 443
#     4  11  27  49  76 103 141 194 248 308 358 426
#     4  12  24  48  70 103 153 182 247 296 366 437
#
# _framework density 23.225850000000001
#
# number of rings (size 3 to 8) (size 9 to 14) (size 15 to 20)
#    0.000    0.333    5.000    3.000    4.667    2.000 
#    3.000    0.000    0.000    0.000    0.000    0.000 
#    0.000    0.000    0.000    0.000    0.000    0.000 
#
# Total GULP energy -297699.327946 kJ/mol
# GULP energy per Si atom -12404.138664 kJ/mol
# Density = 2.317299 g / cm^3
# Si number density = 23.225850 Si / 1000 Ang^3
#
#
#
# Elastic Constant Matrix: (Units=GPa)
#
#
# Indices 1 2 3 4 5 6 
#
# 1 111.1775 27.8542 27.5728 0.0000 -0.2995 0.0000
# 2 27.8542 74.3065 30.2283 -0.0001 2.3763 0.0000
# 3 27.5728 30.2283 80.6662 0.0000 3.8723 0.0000
# 4 0.0000 -0.0001 0.0000 47.9966 0.0000 7.3268
# 5 -0.2995 2.3763 3.8723 0.0000 36.4185 0.0000
# 6 0.0000 0.0000 0.0000 7.3268 0.0000 31.8394
#
#
#
# Elastic Compliance Matrix: (Units=1/GPa)
#
#
# Indices 1 2 3 4 5 6 
#
# 1 0.010333 -0.002883 -0.002477 0.000000 0.000536 0.000000
# 2 -0.002883 0.016688 -0.005242 0.000000 -0.000555 0.000000
# 3 -0.002477 -0.005242 0.015270 0.000000 -0.001302 0.000000
# 4 0.000000 0.000000 0.000000 0.021593 0.000000 -0.004969
# 5 0.000536 -0.000555 -0.001302 0.000000 0.027638 0.000000
# 6 0.000000 0.000000 0.000000 -0.004969 0.000000 0.032551
#
#
# Mechanical properties :
#
#
# Convention : Reuss Voigt Hill
#
# Bulk Modulus (GPa) = 47.42040 48.60677 48.01358
# Shear Modulus (GPa) = 32.82855 35.28389 34.05622
#
# Velocity S-wave (km/s) = 3.76367 3.90187 3.83339
# Velocity P-wave (km/s) = 6.27282 6.42439 6.34906
#
# Compressibility (1/GPa) = 0.02108797
#
# Stress axis : x y z
#
# Youngs Moduli (GPa) = 96.78027 59.92167 65.48643
#
# Poissons Ratio (x) = 0.17273 0.16224
# Poissons Ratio (y) = 0.27898 0.34326
# Poissons Ratio (z) = 0.23976 0.31409
#
# Static dielectric constant tensor:
#      x y z
#    x 4.216650 0.000000 0.073790 
#    y 0.000000 4.119730 0.000000 
#    z 0.073790 0.000000 4.564000 
# 
# 
# High freq. dielectric constant tensor:
#      x y z
#    x 1.922500 0.000000 0.009630 
#    y 0.000000 1.916770 0.000000 
#    z 0.009630 0.000000 1.929280 
# 
# From -- ./inp_files/180196.got.cif
#   From: 2010.06.25/outbox.cif.g09.slc.cpg/sg15_91_cif.got.tgz:180196.got - 2010.06.28 07:06:18.
