data_PCOD8154792
_publ_section_title
;
Structure prediction by ZEFSAII (Michael W. Deem and Ramdas Pophale) SiO2 
 PCOD8154792
Probable space group: C 2/C
;
_chemical_formula_sum "Si O2"
_cell_formula_units_Z 44
_cell_length_a 17.247037
_cell_length_b 8.695052
_cell_length_c 14.877772
_cell_angle_alpha 90.000000
_cell_angle_beta 64.547596
_cell_angle_gamma 90.000000
_cell_volume 2014.580943
_symmetry_space_group_name_H-M "C 2/C"
_symmetry_group_IT_number 15
_symmetry_cell_setting 'monoclinic'
loop_
_space_group_symop_operation_xyz
x,y,z
-x,y,1/2-z
-x,-y,-z
x,-y,1/2+z
1/2+x,1/2+y,z
1/2-x,1/2+y,1/2-z
1/2-x,1/2-y,-z
1/2+x,1/2-y,1/2+z
loop_
_atom_site_type_symbol
_atom_site_label
_atom_site_fract_x
_atom_site_fract_y
_atom_site_fract_z
Si Si1 0.138627 0.066153 0.203402
Si Si2 0.802526 0.310221 0.558142
Si Si3 0.500000 0.820297 0.250000
Si Si4 0.097273 0.024449 0.921971
Si Si5 0.845260 0.816148 0.459371
Si Si6 0.447366 0.021156 0.435934
O O1 0.235812 0.128496 0.166597
O O2 0.104359 0.995179 0.312225
O O3 0.083193 0.213293 0.201736
O O4 0.133273 0.936995 0.129554
O O5 0.750000 0.250000 0.500000
O O6 0.853064 0.454461 0.495387
O O7 0.869575 0.193192 0.568857
O O8 0.503197 0.931914 0.334055
O O9 0.155321 0.899808 0.943804
O O10 0.000000 0.000000 0.000000
O O11 0.750000 0.750000 0.500000
O O12 0.925105 0.695713 0.418013
O O13 0.500000 0.000000 0.500000
#
# Coordination Sequence:
#
# PCOD8154792 Si02
#       6
#     8   8   4   8   8   8
#     4  12  26  45  78 104 148 196 245 296 377 432
#     4  12  23  49  72  99 146 194 239 296 362 436
#     4  12  26  46  72 106 146 198 236 300 376 430
#     4  12  27  47  74 105 144 196 245 296 368 440
#     4  12  25  47  72 108 143 184 245 306 358 428
#     4  12  26  45  72 107 144 184 243 304 361 429
#
# _framework density 21.840769999999999
#
# number of rings (size 3 to 8) (size 9 to 14) (size 15 to 20)
#    0.000    0.000    5.455    4.364    2.545    5.091 
#    0.000    0.000    0.000    0.000    0.000    0.000 
#    0.000    0.000    0.000    0.000    0.000    0.000 
#
# Total GULP energy -272841.427457 kJ/mol
# GULP energy per Si atom -12401.883066 kJ/mol
# Density = 2.179106 g / cm^3
# Si number density = 21.840770 Si / 1000 Ang^3
#
#
#
# Elastic Constant Matrix: (Units=GPa)
#
#
# Indices 1 2 3 4 5 6 
#
# 1 108.0004 41.2682 49.0711 0.0000 0.0952 0.0000
# 2 41.2682 132.5603 54.9311 0.0000 3.1125 0.0000
# 3 49.0711 54.9311 149.3681 0.0000 5.9622 0.0000
# 4 0.0000 0.0000 0.0000 47.7259 0.0000 -6.1215
# 5 0.0952 3.1125 5.9622 0.0000 43.9652 0.0000
# 6 0.0000 0.0000 0.0000 -6.1215 0.0000 40.7852
#
#
#
# Elastic Compliance Matrix: (Units=1/GPa)
#
#
# Indices 1 2 3 4 5 6 
#
# 1 0.011496 -0.002380 -0.002923 0.000000 0.000540 0.000000
# 2 -0.002380 0.009394 -0.002661 0.000000 -0.000299 0.000000
# 3 -0.002923 -0.002661 0.008673 0.000000 -0.000981 0.000000
# 4 0.000000 0.000000 0.000000 0.021364 0.000000 0.003207
# 5 0.000540 -0.000299 -0.000981 0.000000 0.022898 0.000000
# 6 0.000000 0.000000 0.000000 0.003207 0.000000 0.025000
#
#
# Mechanical properties :
#
#
# Convention : Reuss Voigt Hill
#
# Bulk Modulus (GPa) = 73.34018 75.60773 74.47395
# Shear Modulus (GPa) = 41.91109 42.80582 42.35845
#
# Velocity S-wave (km/s) = 4.38532 4.43188 4.40866
# Velocity P-wave (km/s) = 7.70024 7.80267 7.75163
#
# Compressibility (1/GPa) = 0.01363509
#
# Stress axis : x y z
#
# Youngs Moduli (GPa) = 86.98345 106.44551 115.30189
#
# Poissons Ratio (x) = 0.25339 0.33703
# Poissons Ratio (y) = 0.20706 0.30681
# Poissons Ratio (z) = 0.25425 0.28324
#
# Static dielectric constant tensor:
#      x y z
#    x 4.123900 0.000000 -0.089670 
#    y 0.000000 4.359290 0.000000 
#    z -0.089670 0.000000 4.106710 
# 
# 
# High freq. dielectric constant tensor:
#      x y z
#    x 1.871960 0.000000 -0.005750 
#    y 0.000000 1.877880 0.000000 
#    z -0.005750 0.000000 1.862410 
# 
# From -- ./inp_files/159222.got.cif
#   From: 2010.06.25/outbox.cif.g09.slc.cpg/sg15_80_cif.got.tgz:159222.got - 2010.06.28 07:06:18.
