data_PCOD8154113
_publ_section_title
;
Structure prediction by ZEFSAII (Michael W. Deem and Ramdas Pophale) SiO2 
 PCOD8154113
Probable space group: C 2/C
;
_chemical_formula_sum "Si O2"
_cell_formula_units_Z 48
_cell_length_a 23.641766
_cell_length_b 9.199386
_cell_length_c 13.143042
_cell_angle_alpha 90.000000
_cell_angle_beta 130.655910
_cell_angle_gamma 90.000000
_cell_volume 2168.543055
_symmetry_space_group_name_H-M "C 2/C"
_symmetry_group_IT_number 15
_symmetry_cell_setting 'monoclinic'
loop_
_space_group_symop_operation_xyz
x,y,z
-x,y,1/2-z
-x,-y,-z
x,-y,1/2+z
1/2+x,1/2+y,z
1/2-x,1/2+y,1/2-z
1/2-x,1/2-y,-z
1/2+x,1/2-y,1/2+z
loop_
_atom_site_type_symbol
_atom_site_label
_atom_site_fract_x
_atom_site_fract_y
_atom_site_fract_z
Si Si1 0.047522 0.266675 0.551760
Si Si2 0.640988 0.662958 0.841047
Si Si3 0.890303 0.585933 0.865997
Si Si4 0.577119 0.408668 0.886001
Si Si5 0.204126 0.604690 0.559497
Si Si6 0.172810 0.668110 0.914410
O O1 0.068479 0.197236 0.686318
O O2 0.087458 0.421217 0.578982
O O3 0.070796 0.142869 0.496143
O O4 0.959370 0.300930 0.446553
O O5 0.630315 0.545664 0.920425
O O6 0.706252 0.614616 0.839273
O O7 0.666391 0.809228 0.923717
O O8 0.829559 0.652837 0.872384
O O9 0.846384 0.579399 0.709228
O O10 0.500000 0.460421 0.750000
O O11 0.603855 0.273209 0.851585
O O12 0.179094 0.439143 0.516370
O O13 0.250000 0.750000 0.000000
#
# Coordination Sequence:
#
# PCOD8154113 Si02
#       6
#     8   8   8   8   8   8
#     4  11  25  46  72 105 141 188 242 289 361 432
#     4  11  27  46  68 106 148 184 238 297 364 430
#     4  11  25  44  75 105 139 192 240 289 356 432
#     4  12  26  45  70 106 146 185 236 303 358 429
#     4  11  25  45  71 104 142 193 237 290 360 427
#     4  12  24  47  71 105 142 188 241 291 355 427
#
# _framework density 22.134677
#
# number of rings (size 3 to 8) (size 9 to 14) (size 15 to 20)
#    0.000    0.667    6.667    0.000    4.667    2.000 
#    0.000    0.000    0.000    0.000    0.000    0.000 
#    0.000    0.000    0.000    0.000    0.000    0.000 
#
# Total GULP energy -297485.258940 kJ/mol
# GULP energy per Si atom -12395.219122 kJ/mol
# Density = 2.208430 g / cm^3
# Si number density = 22.134677 Si / 1000 Ang^3
#
#
#
# Elastic Constant Matrix: (Units=GPa)
#
#
# Indices 1 2 3 4 5 6 
#
# 1 113.4075 30.7008 10.1926 0.0000 2.9318 0.0000
# 2 30.7008 86.7787 15.5100 0.0000 2.9159 0.0000
# 3 10.1926 15.5100 78.1408 0.0000 -2.4885 0.0000
# 4 0.0000 0.0000 0.0000 30.3893 0.0000 -5.7029
# 5 2.9318 2.9159 -2.4885 0.0000 27.5720 0.0000
# 6 0.0000 0.0000 0.0000 -5.7029 0.0000 28.0948
#
#
#
# Elastic Compliance Matrix: (Units=1/GPa)
#
#
# Indices 1 2 3 4 5 6 
#
# 1 0.009795 -0.003326 -0.000641 0.000000 -0.000748 0.000000
# 2 -0.003326 0.013137 -0.002213 0.000000 -0.001235 0.000000
# 3 -0.000641 -0.002213 0.013368 0.000000 0.001509 0.000000
# 4 0.000000 0.000000 0.000000 0.034209 0.000000 0.006944
# 5 -0.000748 -0.001235 0.001509 0.000000 0.036615 0.000000
# 6 0.000000 0.000000 0.000000 0.006944 0.000000 0.037003
#
#
# Mechanical properties :
#
#
# Convention : Reuss Voigt Hill
#
# Bulk Modulus (GPa) = 41.77030 43.45931 42.61481
# Shear Modulus (GPa) = 30.40093 32.00612 31.20353
#
# Velocity S-wave (km/s) = 3.71003 3.80672 3.75869
# Velocity P-wave (km/s) = 6.10446 6.24485 6.17505
#
# Compressibility (1/GPa) = 0.02394045
#
# Stress axis : x y z
#
# Youngs Moduli (GPa) = 102.09292 76.12004 74.80323
#
# Poissons Ratio (x) = 0.25314 0.04798
# Poissons Ratio (y) = 0.33951 0.16555
# Poissons Ratio (z) = 0.06548 0.16846
#
# Static dielectric constant tensor:
#      x y z
#    x 1.136810 0.000000 2.023800 
#    y 0.000000 4.200030 0.000000 
#    z 2.023800 0.000000 2.518940 
# 
# 
# High freq. dielectric constant tensor:
#      x y z
#    x 1.878240 0.000000 0.004700 
#    y 0.000000 1.877470 0.000000 
#    z 0.004700 0.000000 1.864690 
# 
# From -- ./inp_files/177008.got.cif
#   From: 2010.06.25/outbox.cif.g09.slc.cpg/sg15_89_cif.got.tgz:177008.got - 2010.06.28 07:06:18.
