data_PCOD8154678
_publ_section_title
;
Structure prediction by ZEFSAII (Michael W. Deem and Ramdas Pophale) SiO2 
 PCOD8154678
Probable space group: C 2/C
;
_chemical_formula_sum "Si O2"
_cell_formula_units_Z 60
_cell_length_a 15.984148
_cell_length_b 18.799336
_cell_length_c 17.331276
_cell_angle_alpha 90.000000
_cell_angle_beta 146.553909
_cell_angle_gamma 90.000000
_cell_volume 2870.344631
_symmetry_space_group_name_H-M "C 2/C"
_symmetry_group_IT_number 15
_symmetry_cell_setting 'monoclinic'
loop_
_space_group_symop_operation_xyz
x,y,z
-x,y,1/2-z
-x,-y,-z
x,-y,1/2+z
1/2+x,1/2+y,z
1/2-x,1/2+y,1/2-z
1/2-x,1/2-y,-z
1/2+x,1/2-y,1/2+z
loop_
_atom_site_type_symbol
_atom_site_label
_atom_site_fract_x
_atom_site_fract_y
_atom_site_fract_z
Si Si1 0.893333 0.785991 0.369639
Si Si2 0.592879 0.213279 0.394635
Si Si3 0.588241 0.415417 0.707416
Si Si4 0.059634 0.072723 0.673239
Si Si5 0.743012 0.573737 0.970827
Si Si6 0.000000 0.687362 0.750000
Si Si7 0.922860 0.766101 0.848361
Si Si8 0.746943 0.584050 0.483967
O O1 0.908898 0.871095 0.370317
O O2 0.716601 0.772977 0.217820
O O3 0.004486 0.741849 0.400479
O O4 0.928510 0.758588 0.483609
O O5 0.500000 0.236560 0.250000
O O6 0.750000 0.250000 0.500000
O O7 0.617593 0.128450 0.417288
O O8 0.590131 0.492125 0.665940
O O9 0.619879 0.349475 0.676456
O O10 0.419124 0.405680 0.609402
O O11 0.722282 0.406685 0.873647
O O12 0.171688 0.081685 0.831427
O O13 0.887776 0.087928 0.567085
O O14 0.810694 0.495952 0.042398
O O15 0.049957 0.738125 0.717786
O O16 0.862146 0.639125 0.612657
#
# Coordination Sequence:
#
# PCOD8154678 Si02
#       8
#     8   8   8   8   8   4   8   8
#     4  12  25  40  60  96 128 161 206 260 302 377
#     4  12  23  38  64  92 128 167 200 242 307 376
#     4   9  19  39  62  88 116 166 206 260 306 369
#     4   9  18  37  64  87 127 160 206 249 306 371
#     4   9  18  35  62  95 122 163 202 248 299 380
#     4  12  24  42  64  88 124 168 206 274 324 362
#     4  12  26  41  63  90 125 160 219 265 315 359
#     4   9  19  36  64  92 118 154 218 255 304 373
#
# _framework density 20.903414000000001
#
# number of rings (size 3 to 8) (size 9 to 14) (size 15 to 20)
#    0.000    1.600    1.333    6.400    0.933    2.133 
#    0.000    1.333    0.000    4.800    0.000    0.000 
#    0.000    0.000    0.000    0.000    0.000    0.000 
#
# Total GULP energy -371725.569696 kJ/mol
# GULP energy per Si atom -12390.852323 kJ/mol
# Density = 2.085584 g / cm^3
# Si number density = 20.903414 Si / 1000 Ang^3
#
#
#
# Elastic Constant Matrix: (Units=GPa)
#
#
# Indices 1 2 3 4 5 6 
#
# 1 65.0128 41.8875 18.6449 0.0022 -4.9817 -0.0024
# 2 41.8875 153.2303 44.0208 -0.0888 0.3837 0.0909
# 3 18.6449 44.0208 98.7928 -0.0526 -4.9878 0.0432
# 4 0.0022 -0.0888 -0.0526 58.7386 -0.0051 -26.3744
# 5 -4.9817 0.3837 -4.9878 -0.0051 22.2608 0.0025
# 6 -0.0024 0.0909 0.0432 -26.3744 0.0025 60.4048
#
#
#
# Elastic Compliance Matrix: (Units=1/GPa)
#
#
# Indices 1 2 3 4 5 6 
#
# 1 0.019212 -0.004908 -0.001231 -0.000006 0.004108 0.000006
# 2 -0.004908 0.008756 -0.003073 0.000007 -0.001938 -0.000008
# 3 -0.001231 -0.003073 0.011847 0.000006 0.002432 -0.000002
# 4 -0.000006 0.000007 0.000006 0.021176 0.000004 0.009246
# 5 0.004108 -0.001938 0.002432 0.000004 0.046420 0.000001
# 6 0.000006 -0.000008 -0.000002 0.009246 0.000001 0.020592
#
#
# Mechanical properties :
#
#
# Convention : Reuss Voigt Hill
#
# Bulk Modulus (GPa) = 46.75298 58.46025 52.60662
# Shear Modulus (GPa) = 32.56124 42.44635 37.50380
#
# Velocity S-wave (km/s) = 3.95105 4.51110 4.24033
# Velocity P-wave (km/s) = 6.57489 7.42704 7.01392
#
# Compressibility (1/GPa) = 0.02138901
#
# Stress axis : x y z
#
# Youngs Moduli (GPa) = 52.05091 114.21334 84.41261
#
# Poissons Ratio (x) = 0.56061 0.10394
# Poissons Ratio (y) = 0.25549 0.25939
# Poissons Ratio (z) = 0.06409 0.35096
#
# Static dielectric constant tensor:
#      x y z
#    x 3.438800 0.000020 -0.037330 
#    y 0.000020 4.269400 -0.000080 
#    z -0.037330 -0.000080 3.946870 
# 
# 
# High freq. dielectric constant tensor:
#      x y z
#    x 1.787320 0.000000 -0.004020 
#    y 0.000000 1.839570 0.000000 
#    z -0.004020 0.000000 1.820350 
# 
# From -- ./inp_files/211767.got.cif
#   From: 2010.06.25/outbox.cif.g09.slc.cpg/sg15_106_cif.got.tgz:211767.got - 2010.06.28 07:06:18.
