data_PCOD8154139
_publ_section_title
;
Structure prediction by ZEFSAII (Michael W. Deem and Ramdas Pophale) SiO2 
 PCOD8154139
Probable space group: C 2/C
;
_chemical_formula_sum "Si O2"
_cell_formula_units_Z 44
_cell_length_a 10.963166
_cell_length_b 15.629617
_cell_length_c 11.805715
_cell_angle_alpha 90.000000
_cell_angle_beta 91.076699
_cell_angle_gamma 90.000000
_cell_volume 2022.553105
_symmetry_space_group_name_H-M "C 2/C"
_symmetry_group_IT_number 15
_symmetry_cell_setting 'monoclinic'
loop_
_space_group_symop_operation_xyz
x,y,z
-x,y,1/2-z
-x,-y,-z
x,-y,1/2+z
1/2+x,1/2+y,z
1/2-x,1/2+y,1/2-z
1/2-x,1/2-y,-z
1/2+x,1/2-y,1/2+z
loop_
_atom_site_type_symbol
_atom_site_label
_atom_site_fract_x
_atom_site_fract_y
_atom_site_fract_z
Si Si1 0.922820 0.114065 0.003800
Si Si2 0.572212 0.220206 0.859513
Si Si3 0.500000 0.187250 0.250000
Si Si4 0.552453 0.092644 0.476445
Si Si5 0.823570 0.837659 0.272248
Si Si6 0.819876 0.938384 0.041820
O O1 0.884286 0.202199 0.061014
O O2 0.834861 0.040933 0.052710
O O3 0.911068 0.119995 0.867615
O O4 0.065802 0.096175 0.029628
O O5 0.500000 0.256536 0.750000
O O6 0.690887 0.169103 0.824213
O O7 0.482759 0.156575 0.923762
O O8 0.495742 0.126644 0.358934
O O9 0.378597 0.245543 0.238811
O O10 0.698899 0.087002 0.471010
O O11 0.500000 0.000000 0.500000
O O12 0.814710 0.900257 0.166589
#
# Coordination Sequence:
#
# PCOD8154139 Si02
#       6
#     8   8   4   8   8   8
#     4  11  25  45  71 107 138 191 236 298 356 427
#     4  12  26  44  72 105 146 183 240 298 361 426
#     4  12  28  46  78  98 142 192 236 294 364 420
#     4  12  28  48  69 107 141 190 240 296 360 427
#     4  12  23  47  71 103 143 185 236 296 356 436
#     4  11  25  45  73 101 145 182 243 293 359 426
#
# _framework density 21.754683
#
# number of rings (size 3 to 8) (size 9 to 14) (size 15 to 20)
#    0.000    0.364    5.455    1.636    6.364    5.818 
#    0.000    0.000    0.000    0.000    0.000    0.000 
#    0.000    0.000    0.000    0.000    0.000    0.000 
#
# Total GULP energy -272959.509517 kJ/mol
# GULP energy per Si atom -12407.250433 kJ/mol
# Density = 2.170517 g / cm^3
# Si number density = 21.754683 Si / 1000 Ang^3
#
#
#
# Elastic Constant Matrix: (Units=GPa)
#
#
# Indices 1 2 3 4 5 6 
#
# 1 99.4331 18.1768 1.3202 0.0000 -5.2666 0.0000
# 2 18.1768 143.2042 51.9409 0.0000 -8.4253 0.0000
# 3 1.3202 51.9409 106.2391 0.0000 1.1673 0.0000
# 4 0.0000 0.0000 0.0000 43.7428 0.0000 -9.0351
# 5 -5.2666 -8.4253 1.1673 0.0000 31.4639 0.0000
# 6 0.0000 0.0000 0.0000 -9.0351 0.0000 30.9432
#
#
#
# Elastic Compliance Matrix: (Units=1/GPa)
#
#
# Indices 1 2 3 4 5 6 
#
# 1 0.010384 -0.001444 0.000562 0.000000 0.001331 0.000000
# 2 -0.001444 0.008878 -0.004348 0.000000 0.002297 0.000000
# 3 0.000562 -0.004348 0.011548 0.000000 -0.001499 0.000000
# 4 0.000000 0.000000 0.000000 0.024328 0.000000 0.007104
# 5 0.001331 0.002297 -0.001499 0.000000 0.032676 0.000000
# 6 0.000000 0.000000 0.000000 0.007104 0.000000 0.034391
#
#
# Mechanical properties :
#
#
# Convention : Reuss Voigt Hill
#
# Bulk Modulus (GPa) = 49.13678 54.63913 51.88796
# Shear Modulus (GPa) = 35.85548 39.72588 37.79068
#
# Velocity S-wave (km/s) = 4.06417 4.27791 4.17241
# Velocity P-wave (km/s) = 6.68275 7.04068 6.86405
#
# Compressibility (1/GPa) = 0.02035135
#
# Stress axis : x y z
#
# Youngs Moduli (GPa) = 96.30264 112.63194 86.59517
#
# Poissons Ratio (x) = 0.16260 -0.04868
# Poissons Ratio (y) = 0.13903 0.37652
# Poissons Ratio (z) = -0.05414 0.48973
#
# Static dielectric constant tensor:
#      x y z
#    x 4.118170 0.000000 0.048700 
#    y 0.000000 3.967730 0.000000 
#    z 0.048700 0.000000 3.918870 
# 
# 
# High freq. dielectric constant tensor:
#      x y z
#    x 1.870630 0.000000 0.000200 
#    y 0.000000 1.859880 0.000000 
#    z 0.000200 0.000000 1.855820 
# 
# From -- ./inp_files/86045.got.cif
#   From: 2010.06.25/outbox.cif.g09.slc.cpg/sg15_44_cif.got.tgz:86045.got - 2010.06.28 07:06:18.
