data_PCOD8154805
_publ_section_title
;
Structure prediction by ZEFSAII (Michael W. Deem and Ramdas Pophale) SiO2 
 PCOD8154805
Probable space group: C 2/C
;
_chemical_formula_sum "Si O2"
_cell_formula_units_Z 52
_cell_length_a 16.182778
_cell_length_b 8.792142
_cell_length_c 25.366605
_cell_angle_alpha 90.000000
_cell_angle_beta 136.634574
_cell_angle_gamma 90.000000
_cell_volume 2478.248636
_symmetry_space_group_name_H-M "C 2/C"
_symmetry_group_IT_number 15
_symmetry_cell_setting 'monoclinic'
loop_
_space_group_symop_operation_xyz
x,y,z
-x,y,1/2-z
-x,-y,-z
x,-y,1/2+z
1/2+x,1/2+y,z
1/2-x,1/2+y,1/2-z
1/2-x,1/2-y,-z
1/2+x,1/2-y,1/2+z
loop_
_atom_site_type_symbol
_atom_site_label
_atom_site_fract_x
_atom_site_fract_y
_atom_site_fract_z
Si Si1 0.467706 0.333943 0.070849
Si Si2 0.392847 0.003940 0.062964
Si Si3 0.739773 0.126391 0.400147
Si Si4 0.500000 0.669233 0.250000
Si Si5 0.596896 0.797118 0.189907
Si Si6 0.201873 0.004405 0.181983
Si Si7 0.164498 0.044576 0.891829
O O1 0.466360 0.155129 0.082316
O O2 0.601741 0.382459 0.117617
O O3 0.427638 0.429796 0.103222
O O4 0.379390 0.370730 0.981573
O O5 0.335861 0.023908 0.094478
O O6 0.482519 0.860707 0.104252
O O7 0.288353 0.973099 0.971801
O O8 0.726325 0.059784 0.335910
O O9 0.689351 0.296660 0.374813
O O10 0.559599 0.773284 0.233117
O O11 0.392646 0.567882 0.176754
O O12 0.640064 0.642383 0.183682
O O13 0.702883 0.921608 0.235920
#
# Coordination Sequence:
#
# PCOD8154805 Si02
#       7
#     8   8   8   4   8   8   8
#     4   9  18  42  66  93 121 161 201 255 304 370
#     4   9  20  44  66  91 117 162 212 252 298 362
#     4   9  20  38  70  91 121 159 208 247 315 356
#     4  12  24  42  60  92 122 164 212 244 308 362
#     4  12  27  40  61  89 127 167 206 254 306 363
#     4  12  24  41  58  93 130 162 200 257 312 362
#     4   9  20  40  69  93 119 160 208 255 298 368
#
# _framework density 20.982558999999998
#
# number of rings (size 3 to 8) (size 9 to 14) (size 15 to 20)
#    0.000    1.846    1.538    4.154    2.154    3.077 
#    5.538    1.538    0.000    0.000    0.000    0.000 
#    0.000    0.000    0.000    0.000    0.000    0.000 
#
# Total GULP energy -322489.769187 kJ/mol
# GULP energy per Si atom -12403.452661 kJ/mol
# Density = 2.093480 g / cm^3
# Si number density = 20.982559 Si / 1000 Ang^3
#
#
#
# Elastic Constant Matrix: (Units=GPa)
#
#
# Indices 1 2 3 4 5 6 
#
# 1 65.0740 35.1907 19.8362 0.0000 4.9166 0.0000
# 2 35.1907 89.8266 60.9951 0.0000 10.1079 0.0000
# 3 19.8362 60.9951 106.3665 0.0000 14.6595 0.0000
# 4 0.0000 0.0000 0.0000 45.4021 0.0000 8.5163
# 5 4.9166 10.1079 14.6595 0.0000 28.9528 0.0000
# 6 0.0000 0.0000 0.0000 8.5163 0.0000 34.4978
#
#
#
# Elastic Compliance Matrix: (Units=1/GPa)
#
#
# Indices 1 2 3 4 5 6 
#
# 1 0.019625 -0.008488 0.001353 0.000000 -0.001054 0.000000
# 2 -0.008488 0.021939 -0.010902 0.000000 -0.000698 0.000000
# 3 0.001353 -0.010902 0.016026 0.000000 -0.004538 0.000000
# 4 0.000000 0.000000 0.000000 0.023095 0.000000 -0.005701
# 5 -0.001054 -0.000698 -0.004538 0.000000 0.037259 0.000000
# 6 0.000000 0.000000 0.000000 -0.005701 0.000000 0.030395
#
#
# Mechanical properties :
#
#
# Convention : Reuss Voigt Hill
#
# Bulk Modulus (GPa) = 46.47701 54.81234 50.64467
# Shear Modulus (GPa) = 26.09813 31.45355 28.77584
#
# Velocity S-wave (km/s) = 3.53058 3.87594 3.70728
# Velocity P-wave (km/s) = 6.23044 6.79780 6.52029
#
# Compressibility (1/GPa) = 0.02151602
#
# Stress axis : x y z
#
# Youngs Moduli (GPa) = 50.95630 45.58075 62.39849
#
# Poissons Ratio (x) = 0.38691 -0.08443
# Poissons Ratio (y) = 0.43254 0.68024
# Poissons Ratio (z) = -0.06895 0.49690
#
# Static dielectric constant tensor:
#      x y z
#    x 3.631810 0.000000 0.096240 
#    y 0.000000 3.692120 0.000000 
#    z 0.096240 0.000000 3.779340 
# 
# 
# High freq. dielectric constant tensor:
#      x y z
#    x 1.811240 0.000000 0.007240 
#    y 0.000000 1.823250 0.000000 
#    z 0.007240 0.000000 1.828330 
# 
# From -- ./inp_files/209143.got.cif
#   From: 2010.06.25/outbox.cif.g09.slc.cpg/sg15_105_cif.got.tgz:209143.got - 2010.06.28 07:06:18.
