data_PCOD8154477
_publ_section_title
;
Structure prediction by ZEFSAII (Michael W. Deem and Ramdas Pophale) SiO2 
 PCOD8154477
Probable space group: C 2/C
;
_chemical_formula_sum "Si O2"
_cell_formula_units_Z 44
_cell_length_a 24.960980
_cell_length_b 11.746815
_cell_length_c 14.517276
_cell_angle_alpha 90.000000
_cell_angle_beta 150.450899
_cell_angle_gamma 90.000000
_cell_volume 2099.243833
_symmetry_space_group_name_H-M "C 2/C"
_symmetry_group_IT_number 15
_symmetry_cell_setting 'monoclinic'
loop_
_space_group_symop_operation_xyz
x,y,z
-x,y,1/2-z
-x,-y,-z
x,-y,1/2+z
1/2+x,1/2+y,z
1/2-x,1/2+y,1/2-z
1/2-x,1/2-y,-z
1/2+x,1/2-y,1/2+z
loop_
_atom_site_type_symbol
_atom_site_label
_atom_site_fract_x
_atom_site_fract_y
_atom_site_fract_z
Si Si1 0.436035 0.717354 0.994080
Si Si2 0.182601 0.803262 0.814084
Si Si3 0.224214 0.613466 0.723947
Si Si4 0.323319 0.014419 0.029672
Si Si5 0.616114 0.936084 0.684544
Si Si6 0.500000 0.855896 0.250000
O O1 0.558107 0.677696 0.158135
O O2 0.422915 0.780496 0.071880
O O3 0.350062 0.615212 0.877963
O O4 0.397140 0.803954 0.857867
O O5 0.188969 0.723412 0.732115
O O6 0.222312 0.931553 0.854369
O O7 0.250000 0.750000 0.000000
O O8 0.157782 0.602010 0.527376
O O9 0.202509 0.498763 0.748084
O O10 0.321199 0.075782 0.124367
O O11 0.426347 0.933729 0.204016
O O12 0.500000 0.000000 0.500000
#
# Coordination Sequence:
#
# PCOD8154477 Si02
#       6
#     8   8   8   8   8   4
#     4  12  24  38  67  96 127 169 219 270 327 384
#     4  12  21  42  66  96 125 172 224 267 317 395
#     4  12  23  40  64  99 133 166 210 279 324 382
#     4  12  24  38  67  96 127 169 219 270 327 384
#     4  12  21  42  66  96 125 172 224 267 317 395
#     4  12  18  36  64  96 110 162 228 254 308 388
#
# _framework density 20.959928999999999
#
# number of rings (size 3 to 8) (size 9 to 14) (size 15 to 20)
#    0.000    0.000   10.909    0.000    0.000    1.455 
#    0.000    0.000    0.000    0.000    0.000    0.000 
#    0.000    0.000    0.000    0.000    0.000    0.000 
#
# Total GULP energy -272561.945835 kJ/mol
# GULP energy per Si atom -12389.179356 kJ/mol
# Density = 2.091222 g / cm^3
# Si number density = 20.959929 Si / 1000 Ang^3
#
#
#
# Elastic Constant Matrix: (Units=GPa)
#
#
# Indices 1 2 3 4 5 6 
#
# 1 115.7941 34.8127 60.2053 0.0000 -11.1764 0.0000
# 2 34.8127 56.5682 41.5138 0.0000 -1.0829 0.0000
# 3 60.2053 41.5138 91.1407 0.0000 -16.7045 0.0000
# 4 0.0000 0.0000 0.0000 22.8664 0.0000 0.9492
# 5 -11.1764 -1.0829 -16.7045 0.0000 64.4144 0.0000
# 6 0.0000 0.0000 0.0000 0.9492 0.0000 30.9020
#
#
#
# Elastic Compliance Matrix: (Units=1/GPa)
#
#
# Indices 1 2 3 4 5 6 
#
# 1 0.013416 -0.002687 -0.007580 0.000000 0.000317 0.000000
# 2 -0.002687 0.027591 -0.011331 0.000000 -0.002941 0.000000
# 3 -0.007580 -0.011331 0.021906 0.000000 0.004175 0.000000
# 4 0.000000 0.000000 0.000000 0.043788 0.000000 -0.001345
# 5 0.000317 -0.002941 0.004175 0.000000 0.016613 0.000000
# 6 0.000000 0.000000 0.000000 -0.001345 0.000000 0.032402
#
#
# Mechanical properties :
#
#
# Convention : Reuss Voigt Hill
#
# Bulk Modulus (GPa) = 50.72229 59.61852 55.17041
# Shear Modulus (GPa) = 24.33286 32.10130 28.21708
#
# Velocity S-wave (km/s) = 3.41093 3.91776 3.67309
# Velocity P-wave (km/s) = 6.30593 6.99792 6.66092
#
# Compressibility (1/GPa) = 0.01971520
#
# Stress axis : x y z
#
# Youngs Moduli (GPa) = 74.54033 36.24368 45.65042
#
# Poissons Ratio (x) = 0.09740 0.34602
# Poissons Ratio (y) = 0.20032 0.51728
# Poissons Ratio (z) = 0.56500 0.41069
#
# Static dielectric constant tensor:
#      x y z
#    x 4.061250 0.000000 0.049900 
#    y 0.000000 3.670160 0.000000 
#    z 0.049900 0.000000 3.917160 
# 
# 
# High freq. dielectric constant tensor:
#      x y z
#    x 1.840540 0.000000 -0.005200 
#    y 0.000000 1.791570 0.000000 
#    z -0.005200 0.000000 1.818380 
# 
# From -- ./inp_files/143897.got.cif
#   From: 2010.06.25/outbox.cif.g09.slc.cpg/sg15_72_cif.got.tgz:143897.got - 2010.06.28 07:06:18.
