data_PCOD8154747
_publ_section_title
;
Structure prediction by ZEFSAII (Michael W. Deem and Ramdas Pophale) SiO2 
 PCOD8154747
Probable space group: C 2/C
;
_chemical_formula_sum "Si O2"
_cell_formula_units_Z 40
_cell_length_a 27.406666
_cell_length_b 8.554079
_cell_length_c 8.405374
_cell_angle_alpha 90.000000
_cell_angle_beta 59.370755
_cell_angle_gamma 90.000000
_cell_volume 1695.619261
_symmetry_space_group_name_H-M "C 2/C"
_symmetry_group_IT_number 15
_symmetry_cell_setting 'monoclinic'
loop_
_space_group_symop_operation_xyz
x,y,z
-x,y,1/2-z
-x,-y,-z
x,-y,1/2+z
1/2+x,1/2+y,z
1/2-x,1/2+y,1/2-z
1/2-x,1/2-y,-z
1/2+x,1/2-y,1/2+z
loop_
_atom_site_type_symbol
_atom_site_label
_atom_site_fract_x
_atom_site_fract_y
_atom_site_fract_z
Si Si1 0.623259 0.316135 0.848094
Si Si2 0.712366 0.169995 0.237816
Si Si3 0.462708 0.885760 0.168253
Si Si4 0.850459 0.556249 0.456842
Si Si5 0.182513 0.033353 0.956110
O O1 0.560856 0.266783 0.888980
O O2 0.624884 0.458022 0.973961
O O3 0.665363 0.369190 0.638312
O O4 0.649532 0.162171 0.884973
O O5 0.667836 0.149238 0.169275
O O6 0.714449 0.353471 0.277266
O O7 0.691968 0.084726 0.432686
O O8 0.774378 0.110468 0.079564
O O9 0.500000 0.817036 0.250000
O O10 0.412509 0.987615 0.325348
O O11 0.500000 0.000000 0.000000
#
# Coordination Sequence:
#
# PCOD8154747 Si02
#       5
#     8   8   8   8   8
#     4  12  26  48  73 110 151 193 249 313 367 443
#     4  12  24  43  72 109 155 203 239 294 372 453
#     4  12  24  47  81 109 136 192 261 316 371 432
#     4  12  23  44  76 108 148 194 253 305 365 447
#     4  12  27  46  72 112 161 199 243 298 373 456
#
# _framework density 23.590202000000001
#
# number of rings (size 3 to 8) (size 9 to 14) (size 15 to 20)
#    0.000    0.000    6.000    3.600    0.000    4.800 
#    0.000    3.000    0.000    0.000    0.000    0.000 
#    0.000    0.000    0.000    0.000    0.000    0.000 
#
# Total GULP energy -247980.377778 kJ/mol
# GULP energy per Si atom -12399.018889 kJ/mol
# Density = 2.353651 g / cm^3
# Si number density = 23.590202 Si / 1000 Ang^3
#
#
#
# Elastic Constant Matrix: (Units=GPa)
#
#
# Indices 1 2 3 4 5 6 
#
# 1 126.6640 37.2773 14.1215 0.0000 8.8054 0.0000
# 2 37.2773 97.3771 20.6823 0.0000 -2.6366 0.0000
# 3 14.1215 20.6823 85.7608 0.0000 -12.5791 0.0000
# 4 0.0000 0.0000 0.0000 37.7933 0.0000 -1.9857
# 5 8.8054 -2.6366 -12.5791 0.0000 39.2819 0.0000
# 6 0.0000 0.0000 0.0000 -1.9857 0.0000 57.9688
#
#
#
# Elastic Compliance Matrix: (Units=1/GPa)
#
#
# Indices 1 2 3 4 5 6 
#
# 1 0.009187 -0.003357 -0.001090 0.000000 -0.002634 0.000000
# 2 -0.003357 0.012051 -0.002229 0.000000 0.000848 0.000000
# 3 -0.001090 -0.002229 0.013002 0.000000 0.004258 0.000000
# 4 0.000000 0.000000 0.000000 0.026507 0.000000 0.000908
# 5 -0.002634 0.000848 0.004258 0.000000 0.027468 0.000000
# 6 0.000000 0.000000 0.000000 0.000908 0.000000 0.017282
#
#
# Mechanical properties :
#
#
# Convention : Reuss Voigt Hill
#
# Bulk Modulus (GPa) = 47.87233 50.44044 49.15638
# Shear Modulus (GPa) = 39.74201 42.85685 41.29943
#
# Velocity S-wave (km/s) = 4.10894 4.26693 4.18868
# Velocity P-wave (km/s) = 6.54588 6.76047 6.65404
#
# Compressibility (1/GPa) = 0.02088889
#
# Stress axis : x y z
#
# Youngs Moduli (GPa) = 108.84449 82.98163 76.91182
#
# Poissons Ratio (x) = 0.27857 0.08380
# Poissons Ratio (y) = 0.36539 0.17145
# Poissons Ratio (z) = 0.11859 0.18498
#
# Static dielectric constant tensor:
#      x y z
#    x 4.497210 0.000000 0.297780 
#    y 0.000000 4.475140 0.000000 
#    z 0.297780 0.000000 4.209610 
# 
# 
# High freq. dielectric constant tensor:
#      x y z
#    x 1.932180 0.000000 0.028480 
#    y 0.000000 1.940060 0.000000 
#    z 0.028480 0.000000 1.938310 
# 
# From -- ./inp_files/60063.got.cif
#   From: 2010.06.25/outbox.cif.g09.slc.cpg/sg15_31_cif.got.tgz:60063.got - 2010.06.28 07:06:18.
