data_PCOD8154250
_publ_section_title
;
Structure prediction by ZEFSAII (Michael W. Deem and Ramdas Pophale) SiO2 
 PCOD8154250
Probable space group: C 2/C
;
_chemical_formula_sum "Si O2"
_cell_formula_units_Z 32
_cell_length_a 17.849663
_cell_length_b 6.913764
_cell_length_c 14.143847
_cell_angle_alpha 90.000000
_cell_angle_beta 43.537120
_cell_angle_gamma 90.000000
_cell_volume 1202.321545
_symmetry_space_group_name_H-M "C 2/C"
_symmetry_group_IT_number 15
_symmetry_cell_setting 'monoclinic'
loop_
_space_group_symop_operation_xyz
x,y,z
-x,y,1/2-z
-x,-y,-z
x,-y,1/2+z
1/2+x,1/2+y,z
1/2-x,1/2+y,1/2-z
1/2-x,1/2-y,-z
1/2+x,1/2-y,1/2+z
loop_
_atom_site_type_symbol
_atom_site_label
_atom_site_fract_x
_atom_site_fract_y
_atom_site_fract_z
Si Si1 0.413992 0.622721 0.637291
Si Si2 0.182671 0.515529 0.826711
Si Si3 0.599254 0.238223 0.071502
Si Si4 0.279843 0.947238 0.422636
O O1 0.500000 0.500000 0.500000
O O2 0.305024 0.501224 0.759832
O O3 0.374657 0.807596 0.611640
O O4 0.471529 0.691279 0.684656
O O5 0.324251 0.415364 0.472400
O O6 0.186280 0.586909 0.715779
O O7 0.618439 0.049826 0.118113
O O8 0.618418 0.177268 0.944124
O O9 0.250000 0.750000 0.500000
#
# Coordination Sequence:
#
# PCOD8154250 Si02
#       4
#     8   8   8   8
#     4  12  24  46  79 115 152 218 266 328 407 481
#     4  12  24  49  78 112 162 210 266 328 406 476
#     4  11  26  47  78 113 162 204 269 334 392 484
#     4  11  25  47  77 117 161 204 272 333 386 490
#
# _framework density 26.615176999999999
#
# number of rings (size 3 to 8) (size 9 to 14) (size 15 to 20)
#    0.000    0.500    5.000    2.250    0.000    1.000 
#    0.000    0.000    5.500    0.000    0.000    0.000 
#    0.000    0.000    0.000    0.000    0.000    0.000 
#
# Total GULP energy -198412.883056 kJ/mol
# GULP energy per Si atom -12400.805191 kJ/mol
# Density = 2.655460 g / cm^3
# Si number density = 26.615177 Si / 1000 Ang^3
#
#
#
# Elastic Constant Matrix: (Units=GPa)
#
#
# Indices 1 2 3 4 5 6 
#
# 1 215.4820 67.9791 34.4798 0.0045 -15.3860 -0.0027
# 2 67.9791 188.6272 45.4886 0.0119 -4.8035 -0.0106
# 3 34.4798 45.4886 88.1039 0.0034 0.4720 -0.0039
# 4 0.0045 0.0119 0.0034 48.8171 -0.0012 -10.9285
# 5 -15.3860 -4.8035 0.4720 -0.0012 46.9418 0.0006
# 6 -0.0027 -0.0106 -0.0039 -10.9285 0.0006 53.1414
#
#
#
# Elastic Compliance Matrix: (Units=1/GPa)
#
#
# Indices 1 2 3 4 5 6 
#
# 1 0.005479 -0.001614 -0.001319 0.000000 0.001644 0.000000
# 2 -0.001614 0.006551 -0.002751 -0.000001 0.000169 0.000001
# 3 -0.001319 -0.002751 0.013292 0.000000 -0.000848 0.000000
# 4 0.000000 -0.000001 0.000000 0.021473 0.000000 0.004416
# 5 0.001644 0.000169 -0.000848 0.000000 0.021868 0.000000
# 6 0.000000 0.000001 0.000000 0.004416 0.000000 0.019726
#
#
# Mechanical properties :
#
#
# Convention : Reuss Voigt Hill
#
# Bulk Modulus (GPa) = 71.67973 87.56757 79.62365
# Shear Modulus (GPa) = 47.88874 52.73110 50.30992
#
# Velocity S-wave (km/s) = 4.24642 4.45594 4.35244
# Velocity P-wave (km/s) = 7.14375 7.71017 7.43236
#
# Compressibility (1/GPa) = 0.01395094
#
# Stress axis : x y z
#
# Youngs Moduli (GPa) = 182.53067 152.64601 75.23486
#
# Poissons Ratio (x) = 0.24643 0.09926
# Poissons Ratio (y) = 0.29467 0.20701
# Poissons Ratio (z) = 0.24082 0.42000
#
# Static dielectric constant tensor:
#      x y z
#    x 5.690670 0.000000 0.019770 
#    y 0.000000 4.993350 0.000000 
#    z 0.019770 0.000000 5.051300 
# 
# 
# High freq. dielectric constant tensor:
#      x y z
#    x 2.091060 0.000000 0.000110 
#    y 0.000000 2.080430 0.000000 
#    z 0.000110 0.000000 2.064190 
# 
# From -- ./inp_files/212554.got.cif
#   From: 2010.06.25/outbox.cif.g09.slc.cpg/sg15_107_cif.got.tgz:212554.got - 2010.06.28 07:06:18.
