data_PCOD8154480
_publ_section_title
;
Structure prediction by ZEFSAII (Michael W. Deem and Ramdas Pophale) SiO2 
 PCOD8154480
Probable space group: C 2/C
;
_chemical_formula_sum "Si O2"
_cell_formula_units_Z 52
_cell_length_a 19.029008
_cell_length_b 14.333357
_cell_length_c 14.429422
_cell_angle_alpha 90.000000
_cell_angle_beta 42.518400
_cell_angle_gamma 90.000000
_cell_volume 2659.797067
_symmetry_space_group_name_H-M "C 2/C"
_symmetry_group_IT_number 15
_symmetry_cell_setting 'monoclinic'
loop_
_space_group_symop_operation_xyz
x,y,z
-x,y,1/2-z
-x,-y,-z
x,-y,1/2+z
1/2+x,1/2+y,z
1/2-x,1/2+y,1/2-z
1/2-x,1/2-y,-z
1/2+x,1/2-y,1/2+z
loop_
_atom_site_type_symbol
_atom_site_label
_atom_site_fract_x
_atom_site_fract_y
_atom_site_fract_z
Si Si1 0.500000 0.993348 0.750000
Si Si2 0.552497 0.719199 0.107236
Si Si3 0.189382 0.610870 0.512042
Si Si4 0.964671 0.587857 0.096483
Si Si5 0.238410 0.900288 0.755244
Si Si6 0.210837 0.090048 0.887356
Si Si7 0.383474 0.217807 0.633910
O O1 0.556349 0.934630 0.775412
O O2 0.582977 0.053489 0.613051
O O3 0.500000 0.676747 0.250000
O O4 0.653601 0.781298 0.037348
O O5 0.463003 0.777019 0.142619
O O6 0.595828 0.635938 0.000146
O O7 0.264002 0.582707 0.353440
O O8 0.252218 0.585592 0.542645
O O9 0.856511 0.629014 0.163771
O O10 0.000000 0.500000 0.000000
O O11 0.052701 0.667959 0.010215
O O12 0.159137 0.817374 0.858407
O O13 0.201946 0.989475 0.848809
O O14 0.288650 0.151758 0.752171
#
# Coordination Sequence:
#
# PCOD8154480 Si02
#       7
#     4   8   8   8   8   8   8
#     4  12  20  34  66  92 116 156 216 264 308 368
#     4  12  22  36  64  97 126 160 207 274 334 368
#     4  12  19  36  65  99 121 156 212 273 317 363
#     4  12  21  40  64  93 124 167 214 261 310 373
#     4  12  25  39  65  96 128 168 210 262 324 384
#     4  12  23  40  63  94 134 166 210 269 319 384
#     4  12  22  40  63  93 133 165 212 262 321 380
#
# _framework density 19.550364999999999
#
# number of rings (size 3 to 8) (size 9 to 14) (size 15 to 20)
#    0.000    0.000   10.000    1.385    0.000    0.615 
#    0.000    0.769    5.077    0.000    0.000    0.000 
#    0.000    0.000    0.000    0.000    0.000    0.000 
#
# Total GULP energy -322426.947782 kJ/mol
# GULP energy per Si atom -12401.036453 kJ/mol
# Density = 1.950587 g / cm^3
# Si number density = 19.550365 Si / 1000 Ang^3
#
#
#
# Elastic Constant Matrix: (Units=GPa)
#
#
# Indices 1 2 3 4 5 6 
#
# 1 55.1334 32.3977 12.6937 0.0000 10.1092 0.0000
# 2 32.3977 129.2476 61.3188 0.0000 6.1905 0.0000
# 3 12.6937 61.3188 94.2992 0.0000 7.9579 0.0000
# 4 0.0000 0.0000 0.0000 43.0507 0.0000 -4.7338
# 5 10.1092 6.1905 7.9579 0.0000 28.9711 0.0000
# 6 0.0000 0.0000 0.0000 -4.7338 0.0000 28.1784
#
#
#
# Elastic Compliance Matrix: (Units=1/GPa)
#
#
# Indices 1 2 3 4 5 6 
#
# 1 0.022631 -0.006034 0.001469 0.000000 -0.007011 0.000000
# 2 -0.006034 0.012802 -0.007636 0.000000 0.001467 0.000000
# 3 0.001469 -0.007636 0.015641 0.000000 -0.003177 0.000000
# 4 0.000000 0.000000 0.000000 0.023666 0.000000 0.003976
# 5 -0.007011 0.001467 -0.003177 0.000000 0.037523 0.000000
# 6 0.000000 0.000000 0.000000 0.003976 0.000000 0.036156
#
#
# Mechanical properties :
#
#
# Convention : Reuss Voigt Hill
#
# Bulk Modulus (GPa) = 37.49408 54.61119 46.05264
# Shear Modulus (GPa) = 27.51628 31.52470 29.52049
#
# Velocity S-wave (km/s) = 3.75568 4.01993 3.89005
# Velocity P-wave (km/s) = 6.16658 7.03852 6.61692
#
# Compressibility (1/GPa) = 0.02667087
#
# Stress axis : x y z
#
# Youngs Moduli (GPa) = 44.18762 78.11192 63.93654
#
# Poissons Ratio (x) = 0.47131 -0.09391
# Poissons Ratio (y) = 0.26662 0.48824
# Poissons Ratio (z) = -0.06490 0.59649
#
# Static dielectric constant tensor:
#      x y z
#    x 3.481190 0.000000 -0.047440 
#    y 0.000000 3.575670 0.000000 
#    z -0.047440 0.000000 3.777130 
# 
# 
# High freq. dielectric constant tensor:
#      x y z
#    x 1.752720 0.000000 -0.004370 
#    y 0.000000 1.743480 0.000000 
#    z -0.004370 0.000000 1.767070 
# 
# From -- ./inp_files/105220.got.cif
#   From: 2010.06.25/outbox.cif.g09.slc.cpg/sg15_53_cif.got.tgz:105220.got - 2010.06.28 07:06:18.
