data_PCOD8154921
_publ_section_title
;
Structure prediction by ZEFSAII (Michael W. Deem and Ramdas Pophale) SiO2 
 PCOD8154921
Probable space group: C 2/C
;
_chemical_formula_sum "Si O2"
_cell_formula_units_Z 44
_cell_length_a 7.989626
_cell_length_b 16.614533
_cell_length_c 15.257158
_cell_angle_alpha 90.000000
_cell_angle_beta 66.748845
_cell_angle_gamma 90.000000
_cell_volume 1860.806879
_symmetry_space_group_name_H-M "C 2/C"
_symmetry_group_IT_number 15
_symmetry_cell_setting 'monoclinic'
loop_
_space_group_symop_operation_xyz
x,y,z
-x,y,1/2-z
-x,-y,-z
x,-y,1/2+z
1/2+x,1/2+y,z
1/2-x,1/2+y,1/2-z
1/2-x,1/2-y,-z
1/2+x,1/2-y,1/2+z
loop_
_atom_site_type_symbol
_atom_site_label
_atom_site_fract_x
_atom_site_fract_y
_atom_site_fract_z
Si Si1 0.349189 0.172120 0.513423
Si Si2 0.311967 0.027774 0.758116
Si Si3 0.794586 0.807766 0.272214
Si Si4 0.500000 0.693203 0.250000
Si Si5 0.294267 0.517110 0.036701
Si Si6 0.714260 0.905759 0.899151
O O1 0.250000 0.250000 0.500000
O O2 0.340415 0.175468 0.619413
O O3 0.554751 0.161780 0.433971
O O4 0.225740 0.099850 0.508177
O O5 0.500000 0.068484 0.750000
O O6 0.176317 0.104405 0.778654
O O7 0.268062 0.972129 0.850366
O O8 0.322770 0.972143 0.669220
O O9 0.678615 0.743058 0.241336
O O10 0.000000 0.774429 0.250000
O O11 0.586958 0.635138 0.156727
O O12 0.500000 0.500000 0.000000
O O13 0.199325 0.447566 0.997533
#
# Coordination Sequence:
#
# PCOD8154921 Si02
#       6
#     8   8   8   4   8   8
#     4  12  27  48  74 109 153 195 251 315 382 452
#     4  12  24  47  80 106 146 196 256 312 378 447
#     4  12  27  50  75 112 155 201 253 320 381 452
#     4  12  30  48  76 110 154 208 250 314 390 448
#     4  12  26  46  76 109 145 197 253 309 376 451
#     4  12  27  50  74 113 150 197 261 313 372 469
#
# _framework density 23.645657
#
# number of rings (size 3 to 8) (size 9 to 14) (size 15 to 20)
#    0.000    0.000    4.545    4.909    6.364    1.455 
#    0.000    0.000    0.000    0.000    0.000    0.000 
#    0.000    0.000    0.000    0.000    0.000    0.000 
#
# Total GULP energy -272607.004856 kJ/mol
# GULP energy per Si atom -12391.227493 kJ/mol
# Density = 2.359184 g / cm^3
# Si number density = 23.645657 Si / 1000 Ang^3
#
#
#
# Elastic Constant Matrix: (Units=GPa)
#
#
# Indices 1 2 3 4 5 6 
#
# 1 139.5989 37.2610 24.3641 0.0000 -16.6233 0.0000
# 2 37.2610 109.8191 20.0541 0.0000 -3.4208 0.0000
# 3 24.3641 20.0541 118.0383 0.0000 6.7693 0.0000
# 4 0.0000 0.0000 0.0000 28.5530 0.0000 -10.0941
# 5 -16.6233 -3.4208 6.7693 0.0000 44.0914 0.0000
# 6 0.0000 0.0000 0.0000 -10.0941 0.0000 15.9293
#
#
#
# Elastic Compliance Matrix: (Units=1/GPa)
#
#
# Indices 1 2 3 4 5 6 
#
# 1 0.008480 -0.002500 -0.001511 0.000000 0.003235 0.000000
# 2 -0.002500 0.010177 -0.001215 0.000000 0.000033 0.000000
# 3 -0.001511 -0.001215 0.009108 0.000000 -0.002062 0.000000
# 4 0.000000 0.000000 0.000000 0.045133 0.000000 0.028600
# 5 0.003235 0.000033 -0.002062 0.000000 0.024219 0.000000
# 6 0.000000 0.000000 0.000000 0.028600 0.000000 0.080901
#
#
# Mechanical properties :
#
#
# Convention : Reuss Voigt Hill
#
# Bulk Modulus (GPa) = 57.76109 58.97940 58.37025
# Shear Modulus (GPa) = 25.74112 36.76655 31.25383
#
# Velocity S-wave (km/s) = 3.30300 3.94750 3.63954
# Velocity P-wave (km/s) = 6.24718 6.76566 6.51158
#
# Compressibility (1/GPa) = 0.01731269
#
# Stress axis : x y z
#
# Youngs Moduli (GPa) = 117.92853 98.25933 109.78909
#
# Poissons Ratio (x) = 0.24569 0.16589
# Poissons Ratio (y) = 0.29487 0.13338
# Poissons Ratio (z) = 0.17819 0.11937
#
# Static dielectric constant tensor:
#      x y z
#    x 4.328490 0.000000 0.151800 
#    y 0.000000 4.118090 0.000000 
#    z 0.151800 0.000000 4.446720 
# 
# 
# High freq. dielectric constant tensor:
#      x y z
#    x 1.949740 0.000000 -0.001550 
#    y 0.000000 1.938130 0.000000 
#    z -0.001550 0.000000 1.946770 
# 
# From -- ./inp_files/134717.got.cif
#   From: 2010.06.25/outbox.cif.g09.slc.cpg/sg15_68_cif.got.tgz:134717.got - 2010.06.28 07:06:18.
