data_PCOD8154137
_publ_section_title
;
Structure prediction by ZEFSAII (Michael W. Deem and Ramdas Pophale) SiO2 
 PCOD8154137
Probable space group: C 2/C
;
_chemical_formula_sum "Si O2"
_cell_formula_units_Z 40
_cell_length_a 8.453229
_cell_length_b 8.541232
_cell_length_c 24.425398
_cell_angle_alpha 90.000000
_cell_angle_beta 73.603330
_cell_angle_gamma 90.000000
_cell_volume 1691.815505
_symmetry_space_group_name_H-M "C 2/C"
_symmetry_group_IT_number 15
_symmetry_cell_setting 'monoclinic'
loop_
_space_group_symop_operation_xyz
x,y,z
-x,y,1/2-z
-x,-y,-z
x,-y,1/2+z
1/2+x,1/2+y,z
1/2-x,1/2+y,1/2-z
1/2-x,1/2-y,-z
1/2+x,1/2-y,1/2+z
loop_
_atom_site_type_symbol
_atom_site_label
_atom_site_fract_x
_atom_site_fract_y
_atom_site_fract_z
Si Si1 0.887303 0.169966 0.174625
Si Si2 0.343230 0.665259 0.726101
Si Si3 0.694063 0.835510 0.422388
Si Si4 0.277798 0.168288 0.126204
Si Si5 0.004548 0.164728 0.529837
O O1 0.821176 0.301981 0.222663
O O2 0.813734 0.196741 0.121330
O O3 0.083438 0.174922 0.153344
O O4 0.821651 0.004822 0.202231
O O5 0.500000 0.676159 0.750000
O O6 0.364466 0.789081 0.674947
O O7 0.875723 0.845472 0.429731
O O8 0.561989 0.800615 0.482849
O O9 0.653120 0.998175 0.396628
O O10 0.327166 0.287780 0.072132
O O11 0.000000 0.000000 0.500000
#
# Coordination Sequence:
#
# PCOD8154137 Si02
#       5
#     8   8   8   8   8
#     4  12  26  46  71 101 137 178 229 284 339 405
#     4  12  26  47  70  99 139 181 228 283 343 407
#     4  11  25  45  71 103 138 181 227 279 340 405
#     4  12  25  45  71 102 138 178 228 282 339 403
#     4  11  25  47  72 101 141 182 226 280 340 407
#
# _framework density 23.643241
#
# number of rings (size 3 to 8) (size 9 to 14) (size 15 to 20)
#    0.000    0.400    0.000    9.600    0.000   11.200 
#    0.000    5.000    0.000    0.000    0.000    0.000 
#    0.000    0.000    0.000    0.000    0.000    0.000 
#
# Total GULP energy -248102.626987 kJ/mol
# GULP energy per Si atom -12405.131349 kJ/mol
# Density = 2.358943 g / cm^3
# Si number density = 23.643241 Si / 1000 Ang^3
#
#
#
# Elastic Constant Matrix: (Units=GPa)
#
#
# Indices 1 2 3 4 5 6 
#
# 1 71.7116 45.8285 47.6119 0.0000 7.0601 0.0000
# 2 45.8285 115.1991 58.2693 0.0000 16.5561 0.0000
# 3 47.6119 58.2693 144.7679 0.0000 12.5756 0.0000
# 4 0.0000 0.0000 0.0000 69.2753 0.0000 1.6409
# 5 7.0601 16.5561 12.5756 0.0000 58.7537 0.0000
# 6 0.0000 0.0000 0.0000 1.6409 0.0000 23.8168
#
#
#
# Elastic Compliance Matrix: (Units=1/GPa)
#
#
# Indices 1 2 3 4 5 6 
#
# 1 0.020704 -0.006037 -0.004393 0.000000 0.000153 0.000000
# 2 -0.006037 0.012939 -0.003025 0.000000 -0.002273 0.000000
# 3 -0.004393 -0.003025 0.009629 0.000000 -0.000681 0.000000
# 4 0.000000 0.000000 0.000000 0.014459 0.000000 -0.000996
# 5 0.000153 -0.002273 -0.000681 0.000000 0.017788 0.000000
# 6 0.000000 0.000000 0.000000 -0.000996 0.000000 0.042056
#
#
# Mechanical properties :
#
#
# Convention : Reuss Voigt Hill
#
# Bulk Modulus (GPa) = 61.11367 70.56647 65.84007
# Shear Modulus (GPa) = 33.34714 42.36708 37.85711
#
# Velocity S-wave (km/s) = 3.75964 4.23771 4.00582
# Velocity P-wave (km/s) = 6.68961 7.33863 7.02162
#
# Compressibility (1/GPa) = 0.01636295
#
# Stress axis : x y z
#
# Youngs Moduli (GPa) = 48.29996 77.28611 103.85196
#
# Poissons Ratio (x) = 0.46654 0.45620
# Poissons Ratio (y) = 0.29157 0.31417
# Poissons Ratio (z) = 0.21217 0.23380
#
# Static dielectric constant tensor:
#      x y z
#    x 4.064760 0.000000 -0.044040 
#    y 0.000000 4.358480 0.000000 
#    z -0.044040 0.000000 4.863820 
# 
# 
# High freq. dielectric constant tensor:
#      x y z
#    x 1.923610 0.000000 -0.004500 
#    y 0.000000 1.940630 0.000000 
#    z -0.004500 0.000000 1.974250 
# 
# From -- ./inp_files/262442.got.cif
#   From: 2010.06.25/outbox.cif.g09.slc.cpg/sg15_132_cif.got.tgz:262442.got - 2010.06.28 07:06:18.
