data_PCOD8154446
_publ_section_title
;
Structure prediction by ZEFSAII (Michael W. Deem and Ramdas Pophale) SiO2 
 PCOD8154446
Probable space group: C 2/C
;
_chemical_formula_sum "Si O2"
_cell_formula_units_Z 32
_cell_length_a 8.295820
_cell_length_b 18.793189
_cell_length_c 8.791453
_cell_angle_alpha 90.000000
_cell_angle_beta 87.877535
_cell_angle_gamma 90.000000
_cell_volume 1369.690395
_symmetry_space_group_name_H-M "C 2/C"
_symmetry_group_IT_number 15
_symmetry_cell_setting 'monoclinic'
loop_
_space_group_symop_operation_xyz
x,y,z
-x,y,1/2-z
-x,-y,-z
x,-y,1/2+z
1/2+x,1/2+y,z
1/2-x,1/2+y,1/2-z
1/2-x,1/2-y,-z
1/2+x,1/2-y,1/2+z
loop_
_atom_site_type_symbol
_atom_site_label
_atom_site_fract_x
_atom_site_fract_y
_atom_site_fract_z
Si Si1 0.327900 0.678802 0.564627
Si Si2 0.203226 0.178584 0.581500
Si Si3 0.895504 0.451004 0.111578
Si Si4 0.110003 0.046005 0.109786
O O1 0.250000 0.750000 0.500000
O O2 0.519354 0.668925 0.542191
O O3 0.271209 0.679023 0.738981
O O4 0.278882 0.607803 0.473804
O O5 0.250000 0.250000 0.500000
O O6 0.323363 0.116364 0.518907
O O7 0.740800 0.493636 0.181282
O O8 0.000000 0.423804 0.250000
O O9 0.000000 0.500000 0.000000
O O10 0.000000 0.077454 0.250000
O O11 0.000000 0.000000 0.000000
#
# Coordination Sequence:
#
# PCOD8154446 Si02
#       4
#     8   8   8   8
#     4  11  27  47  74 105 143 196 250 308 379 449
#     4  11  27  48  71 104 150 192 247 311 375 450
#     4  12  27  46  74 111 148 193 251 311 374 452
#     4  12  25  48  77 106 150 201 251 313 384 450
#
# _framework density 23.362945
#
# number of rings (size 3 to 8) (size 9 to 14) (size 15 to 20)
#    0.000    0.500    2.500    4.500   10.500    0.000 
#    0.000    0.000    0.000    0.000    0.000    0.000 
#    0.000    0.000    0.000    0.000    0.000    0.000 
#
# Total GULP energy -198323.822857 kJ/mol
# GULP energy per Si atom -12395.238929 kJ/mol
# Density = 2.330977 g / cm^3
# Si number density = 23.362945 Si / 1000 Ang^3
#
#
#
# Elastic Constant Matrix: (Units=GPa)
#
#
# Indices 1 2 3 4 5 6 
#
# 1 126.3326 64.6681 28.5791 0.0000 9.6322 0.0000
# 2 64.6681 194.8000 51.4248 0.0000 -1.1045 0.0000
# 3 28.5791 51.4248 97.1571 0.0000 -8.2980 0.0000
# 4 0.0000 0.0000 0.0000 43.3392 0.0000 -2.9507
# 5 9.6322 -1.1045 -8.2980 0.0000 37.6509 0.0000
# 6 0.0000 0.0000 0.0000 -2.9507 0.0000 61.8773
#
#
#
# Elastic Compliance Matrix: (Units=1/GPa)
#
#
# Indices 1 2 3 4 5 6 
#
# 1 0.010006 -0.002899 -0.001666 0.000000 -0.003012 0.000000
# 2 -0.002899 0.006818 -0.002727 0.000000 0.000341 0.000000
# 3 -0.001666 -0.002727 0.012491 0.000000 0.003099 0.000000
# 4 0.000000 0.000000 0.000000 0.023149 0.000000 0.001104
# 5 -0.003012 0.000341 0.003099 0.000000 0.028023 0.000000
# 6 0.000000 0.000000 0.000000 0.001104 0.000000 0.016214
#
#
# Mechanical properties :
#
#
# Convention : Reuss Voigt Hill
#
# Bulk Modulus (GPa) = 67.88552 78.62598 73.25575
# Shear Modulus (GPa) = 43.03136 46.81465 44.92301
#
# Velocity S-wave (km/s) = 4.29635 4.48124 4.38977
# Velocity P-wave (km/s) = 7.33018 7.77834 7.55758
#
# Compressibility (1/GPa) = 0.01473068
#
# Stress axis : x y z
#
# Youngs Moduli (GPa) = 99.93853 146.67939 80.05998
#
# Poissons Ratio (x) = 0.42522 0.13340
# Poissons Ratio (y) = 0.28972 0.21830
# Poissons Ratio (z) = 0.16652 0.39995
#
# Static dielectric constant tensor:
#      x y z
#    x 4.305710 0.000000 -0.111710 
#    y 0.000000 4.582280 0.000000 
#    z -0.111710 0.000000 4.098920 
# 
# 
# High freq. dielectric constant tensor:
#      x y z
#    x 1.943480 0.000000 0.000280 
#    y 0.000000 1.937320 0.000000 
#    z 0.000280 0.000000 1.915050 
# 
# From -- ./inp_files/22129.got.cif
#   From: 2010.06.25/outbox.cif.g09.slc.cpg/sg15_12_cif.got.tgz:22129.got - 2010.06.28 07:06:18.
