data_PCOD8154688
_publ_section_title
;
Structure prediction by ZEFSAII (Michael W. Deem and Ramdas Pophale) SiO2 
 PCOD8154688
Probable space group: C 2/C
;
_chemical_formula_sum "Si O2"
_cell_formula_units_Z 56
_cell_length_a 9.159964
_cell_length_b 19.557340
_cell_length_c 16.506692
_cell_angle_alpha 90.000000
_cell_angle_beta 61.738242
_cell_angle_gamma 90.000000
_cell_volume 2604.580258
_symmetry_space_group_name_H-M "C 2/C"
_symmetry_group_IT_number 15
_symmetry_cell_setting 'monoclinic'
loop_
_space_group_symop_operation_xyz
x,y,z
-x,y,1/2-z
-x,-y,-z
x,-y,1/2+z
1/2+x,1/2+y,z
1/2-x,1/2+y,1/2-z
1/2-x,1/2-y,-z
1/2+x,1/2-y,1/2+z
loop_
_atom_site_type_symbol
_atom_site_label
_atom_site_fract_x
_atom_site_fract_y
_atom_site_fract_z
Si Si1 0.500000 0.211634 0.750000
Si Si2 0.116555 0.906867 0.094943
Si Si3 0.718936 0.696680 0.438500
Si Si4 0.745651 0.953634 0.758872
Si Si5 0.409464 0.558786 0.388309
Si Si6 0.755188 0.106714 0.762146
Si Si7 0.000000 0.353475 0.750000
Si Si8 0.104568 0.207569 0.073861
O O1 0.631101 0.164363 0.762960
O O2 0.407706 0.265068 0.831880
O O3 0.219929 0.884062 0.147473
O O4 0.926051 0.889630 0.166610
O O5 0.145221 0.985999 0.061213
O O6 0.177551 0.872845 0.996379
O O7 0.750000 0.750000 0.500000
O O8 0.565864 0.723044 0.426521
O O9 0.877313 0.692260 0.336735
O O10 0.837859 0.941367 0.817838
O O11 0.596426 0.901326 0.787758
O O12 0.890313 0.936624 0.656415
O O13 0.678855 0.031140 0.767953
O O14 0.343036 0.627460 0.448569
O O15 0.250000 0.250000 0.000000
#
# Coordination Sequence:
#
# PCOD8154688 Si02
#       8
#     4   8   8   8   8   8   4   8
#     4  12  23  40  64  93 134 166 216 274 342 383
#     4   9  20  44  70  94 131 175 225 271 330 405
#     4  12  28  45  64 101 136 177 231 271 346 405
#     4   9  18  39  66  96 127 164 221 265 335 396
#     4   9  19  42  69  91 126 174 223 269 326 396
#     4   9  19  39  70  99 129 172 211 280 331 398
#     4  12  25  42  66  95 136 178 210 288 334 401
#     4  12  27  43  65  94 130 174 226 278 328 399
#
# _framework density 21.500585000000001
#
# number of rings (size 3 to 8) (size 9 to 14) (size 15 to 20)
#    0.000    1.714    1.429    4.714    2.000    2.857 
#    5.143    1.429    0.000    0.000    0.000    0.000 
#    0.000    0.000    0.000    0.000    0.000    0.000 
#
# Total GULP energy -346995.560163 kJ/mol
# GULP energy per Si atom -12392.698577 kJ/mol
# Density = 2.145165 g / cm^3
# Si number density = 21.500585 Si / 1000 Ang^3
#
#
#
# Elastic Constant Matrix: (Units=GPa)
#
#
# Indices 1 2 3 4 5 6 
#
# 1 98.5213 46.7963 32.3612 0.0000 -9.0170 0.0000
# 2 46.7963 120.5200 45.3731 0.0000 -5.9868 0.0000
# 3 32.3612 45.3731 125.9628 0.0000 -10.1845 0.0000
# 4 0.0000 0.0000 0.0000 6.0404 0.0000 3.3765
# 5 -9.0170 -5.9868 -10.1845 0.0000 20.9777 0.0000
# 6 0.0000 0.0000 0.0000 3.3765 0.0000 38.5426
#
#
#
# Elastic Compliance Matrix: (Units=1/GPa)
#
#
# Indices 1 2 3 4 5 6 
#
# 1 0.013024 -0.004312 -0.001498 0.000000 0.003640 0.000000
# 2 -0.004312 0.011051 -0.002881 0.000000 -0.000098 0.000000
# 3 -0.001498 -0.002881 0.009621 0.000000 0.003204 0.000000
# 4 0.000000 0.000000 0.000000 0.174077 0.000000 -0.015250
# 5 0.003640 -0.000098 0.003204 0.000000 0.050762 0.000000
# 6 0.000000 0.000000 0.000000 -0.015250 0.000000 0.027281
#
#
# Mechanical properties :
#
#
# Convention : Reuss Voigt Hill
#
# Bulk Modulus (GPa) = 61.30093 66.00728 63.65410
# Shear Modulus (GPa) = 16.20031 27.81036 22.00534
#
# Velocity S-wave (km/s) = 2.74794 3.60039 3.20265
# Velocity P-wave (km/s) = 6.21622 6.93185 6.58377
#
# Compressibility (1/GPa) = 0.01631297
#
# Stress axis : x y z
#
# Youngs Moduli (GPa) = 76.78421 90.48626 103.94305
#
# Poissons Ratio (x) = 0.39017 0.15575
# Poissons Ratio (y) = 0.33109 0.29946
# Poissons Ratio (z) = 0.11505 0.26069
#
# Static dielectric constant tensor:
#      x y z
#    x 3.855290 0.000000 0.051540 
#    y 0.000000 4.228780 0.000000 
#    z 0.051540 0.000000 3.706490 
# 
# 
# High freq. dielectric constant tensor:
#      x y z
#    x 1.847640 0.000000 0.011840 
#    y 0.000000 1.862170 0.000000 
#    z 0.011840 0.000000 1.825800 
# 
# From -- ./inp_files/192060.got.cif
#   From: 2010.06.25/outbox.cif.g09.slc.cpg/sg15_97_cif.got.tgz:192060.got - 2010.06.28 07:06:18.
