data_PCOD8154920
_publ_section_title
;
Structure prediction by ZEFSAII (Michael W. Deem and Ramdas Pophale) SiO2 
 PCOD8154920
Probable space group: C 2/C
;
_chemical_formula_sum "Si O2"
_cell_formula_units_Z 36
_cell_length_a 7.869627
_cell_length_b 17.134715
_cell_length_c 12.612974
_cell_angle_alpha 90.000000
_cell_angle_beta 95.391323
_cell_angle_gamma 90.000000
_cell_volume 1693.257634
_symmetry_space_group_name_H-M "C 2/C"
_symmetry_group_IT_number 15
_symmetry_cell_setting 'monoclinic'
loop_
_space_group_symop_operation_xyz
x,y,z
-x,y,1/2-z
-x,-y,-z
x,-y,1/2+z
1/2+x,1/2+y,z
1/2-x,1/2+y,1/2-z
1/2-x,1/2-y,-z
1/2+x,1/2-y,1/2+z
loop_
_atom_site_type_symbol
_atom_site_label
_atom_site_fract_x
_atom_site_fract_y
_atom_site_fract_z
Si Si1 0.500000 0.332527 0.250000
Si Si2 0.361350 0.211083 0.095429
Si Si3 0.699972 0.594589 0.246585
Si Si4 0.095963 0.580847 0.026843
Si Si5 0.690169 0.069820 0.807379
O O1 0.487027 0.277837 0.146188
O O2 0.670397 0.385092 0.254831
O O3 0.261834 0.173080 0.190569
O O4 0.457734 0.146017 0.036696
O O5 0.250000 0.250000 0.000000
O O6 0.500000 0.599805 0.250000
O O7 0.778505 0.579891 0.366588
O O8 0.760019 0.521144 0.180789
O O9 0.200799 0.602870 0.927301
O O10 0.000000 0.500000 0.000000
O O11 0.500000 0.081310 0.750000
#
# Coordination Sequence:
#
# PCOD8154920 Si02
#       5
#     4   8   8   8   8
#     4  12  28  48  72 114 154 184 250 318 376 444
#     4  12  27  49  72 108 154 193 244 316 377 437
#     4  12  26  47  75 114 150 197 255 306 373 457
#     4  12  24  47  79 103 147 201 249 308 374 445
#     4  12  25  46  78 110 145 197 258 302 371 455
#
# _framework density 21.260795000000002
#
# number of rings (size 3 to 8) (size 9 to 14) (size 15 to 20)
#    0.000    0.000    7.778    1.333    3.111    4.444 
#    0.000    0.000    0.000    0.000    0.000    0.000 
#    0.000    0.000    0.000    0.000    0.000    0.000 
#
# Total GULP energy -223203.609715 kJ/mol
# GULP energy per Si atom -12400.200540 kJ/mol
# Density = 2.121240 g / cm^3
# Si number density = 21.260795 Si / 1000 Ang^3
#
#
#
# Elastic Constant Matrix: (Units=GPa)
#
#
# Indices 1 2 3 4 5 6 
#
# 1 135.8974 52.0016 29.2083 0.0000 -3.6764 0.0000
# 2 52.0016 106.8554 30.1879 0.0000 6.8811 0.0000
# 3 29.2083 30.1879 115.4142 0.0000 -4.6336 0.0000
# 4 0.0000 0.0000 0.0000 45.6993 0.0000 0.7705
# 5 -3.6764 6.8811 -4.6336 0.0000 35.0606 0.0000
# 6 0.0000 0.0000 0.0000 0.7705 0.0000 32.8651
#
#
#
# Elastic Compliance Matrix: (Units=1/GPa)
#
#
# Indices 1 2 3 4 5 6 
#
# 1 0.009301 -0.004306 -0.001161 0.000000 0.001667 0.000000
# 2 -0.004306 0.012294 -0.002253 0.000000 -0.003162 0.000000
# 3 -0.001161 -0.002253 0.009611 0.000000 0.001591 0.000000
# 4 0.000000 0.000000 0.000000 0.021891 0.000000 -0.000513
# 5 0.001667 -0.003162 0.001591 0.000000 0.029528 0.000000
# 6 0.000000 0.000000 0.000000 -0.000513 0.000000 0.030439
#
#
# Mechanical properties :
#
#
# Convention : Reuss Voigt Hill
#
# Bulk Modulus (GPa) = 63.42177 64.55141 63.98659
# Shear Modulus (GPa) = 37.38095 39.17626 38.27861
#
# Velocity S-wave (km/s) = 4.19765 4.29727 4.24775
# Velocity P-wave (km/s) = 7.30677 7.41955 7.36337
#
# Compressibility (1/GPa) = 0.01576746
#
# Stress axis : x y z
#
# Youngs Moduli (GPa) = 107.51991 81.34122 104.04412
#
# Poissons Ratio (x) = 0.35023 0.12076
# Poissons Ratio (y) = 0.46294 0.23440
# Poissons Ratio (z) = 0.12479 0.18326
#
# Static dielectric constant tensor:
#      x y z
#    x 3.768930 0.000000 -0.110230 
#    y 0.000000 4.145670 0.000000 
#    z -0.110230 0.000000 6.751220 
# 
# 
# High freq. dielectric constant tensor:
#      x y z
#    x 1.835840 0.000000 0.000820 
#    y 0.000000 1.846540 0.000000 
#    z 0.000820 0.000000 1.850520 
# 
# From -- ./inp_files/76459.got.cif
#   From: 2010.06.25/outbox.cif.g09.slc.cpg/sg15_39_cif.got.tgz:76459.got - 2010.06.28 07:06:18.
