data_PCOD8154959
_publ_section_title
;
Structure prediction by ZEFSAII (Michael W. Deem and Ramdas Pophale) SiO2 
 PCOD8154959
Probable space group: C 2/C
;
_chemical_formula_sum "Si O2"
_cell_formula_units_Z 36
_cell_length_a 5.165386
_cell_length_b 28.197754
_cell_length_c 11.083931
_cell_angle_alpha 90.000000
_cell_angle_beta 117.600555
_cell_angle_gamma 90.000000
_cell_volume 1430.679692
_symmetry_space_group_name_H-M "C 2/C"
_symmetry_group_IT_number 15
_symmetry_cell_setting 'monoclinic'
loop_
_space_group_symop_operation_xyz
x,y,z
-x,y,1/2-z
-x,-y,-z
x,-y,1/2+z
1/2+x,1/2+y,z
1/2-x,1/2+y,1/2-z
1/2-x,1/2-y,-z
1/2+x,1/2-y,1/2+z
loop_
_atom_site_type_symbol
_atom_site_label
_atom_site_fract_x
_atom_site_fract_y
_atom_site_fract_z
Si Si1 0.500000 0.680820 0.750000
Si Si2 0.000000 0.549661 0.750000
Si Si3 0.864775 0.909487 0.539287
Si Si4 0.000000 0.011174 0.250000
Si Si5 0.363792 0.147410 0.032048
Si Si6 0.209753 0.262252 0.629819
O O1 0.266141 0.647736 0.631930
O O2 0.650822 0.712593 0.681141
O O3 0.789567 0.581689 0.622100
O O4 0.793217 0.519406 0.794718
O O5 0.655405 0.883799 0.589868
O O6 0.964666 0.958551 0.620331
O O7 0.142547 0.875393 0.579437
O O8 0.441858 0.201042 0.090869
O O9 0.500000 0.285152 0.750000
O O10 0.250000 0.250000 0.500000
#
# Coordination Sequence:
#
# PCOD8154959 Si02
#       6
#     4   4   8   4   8   8
#     4  12  26  47  73 102 150 204 262 296 369 445
#     4  12  24  50  79 102 145 196 235 290 369 478
#     4  12  27  47  73 112 145 188 242 302 381 432
#     4  12  26  47  76 112 145 184 241 300 372 457
#     4  12  27  46  73 107 151 192 246 314 364 432
#     4  12  27  48  73 106 146 204 261 308 370 437
#
# _framework density 25.162868
#
# number of rings (size 3 to 8) (size 9 to 14) (size 15 to 20)
#    0.000    0.000    2.222    7.333    4.667    0.000 
#    0.000    0.000    0.000    0.000    0.000    0.000 
#    0.000    0.000    0.000    0.000    0.000    0.000 
#
# Total GULP energy -223363.654939 kJ/mol
# GULP energy per Si atom -12409.091941 kJ/mol
# Density = 2.510560 g / cm^3
# Si number density = 25.162868 Si / 1000 Ang^3
#
#
#
# Elastic Constant Matrix: (Units=GPa)
#
#
# Indices 1 2 3 4 5 6 
#
# 1 172.6691 50.8509 29.9883 0.0000 5.6662 0.0000
# 2 50.8509 76.8689 -3.5897 0.0000 -1.2443 0.0000
# 3 29.9883 -3.5897 93.3355 0.0000 -7.6518 0.0000
# 4 0.0000 0.0000 0.0000 43.0547 0.0000 0.4476
# 5 5.6662 -1.2443 -7.6518 0.0000 35.3329 0.0000
# 6 0.0000 0.0000 0.0000 0.4476 0.0000 50.7934
#
#
#
# Elastic Compliance Matrix: (Units=1/GPa)
#
#
# Indices 1 2 3 4 5 6 
#
# 1 0.007977 -0.005449 -0.002945 0.000000 -0.002109 0.000000
# 2 -0.005449 0.016766 0.002561 0.000000 0.002019 0.000000
# 3 -0.002945 0.002561 0.012018 0.000000 0.003165 0.000000
# 4 0.000000 0.000000 0.000000 0.023228 0.000000 -0.000205
# 5 -0.002109 0.002019 0.003165 0.000000 0.029397 0.000000
# 6 0.000000 0.000000 0.000000 -0.000205 0.000000 0.019689
#
#
# Mechanical properties :
#
#
# Convention : Reuss Voigt Hill
#
# Bulk Modulus (GPa) = 39.84862 55.26359 47.55611
# Shear Modulus (GPa) = 38.72769 43.54446 41.13608
#
# Velocity S-wave (km/s) = 3.92737 4.16445 4.04764
# Velocity P-wave (km/s) = 6.03625 6.71815 6.38631
#
# Compressibility (1/GPa) = 0.02509497
#
# Stress axis : x y z
#
# Youngs Moduli (GPa) = 125.36444 59.64533 83.20607
#
# Poissons Ratio (x) = 0.32498 0.24507
# Poissons Ratio (y) = 0.68305 -0.21308
# Poissons Ratio (z) = 0.36924 -0.15275
#
# Static dielectric constant tensor:
#      x y z
#    x 4.560270 0.000000 0.338290 
#    y 0.000000 4.494760 0.000000 
#    z 0.338290 0.000000 4.715720 
# 
# 
# High freq. dielectric constant tensor:
#      x y z
#    x 2.014380 0.000000 0.007090 
#    y 0.000000 2.003230 0.000000 
#    z 0.007090 0.000000 2.018280 
# 
# From -- ./inp_files/73739.got.cif
#   From: 2010.06.25/outbox.cif.g09.slc.cpg/sg15_37_cif.got.tgz:73739.got - 2010.06.28 07:06:18.
