data_PCOD8154323
_publ_section_title
;
Structure prediction by ZEFSAII (Michael W. Deem and Ramdas Pophale) SiO2 
 PCOD8154323
Probable space group: C 2/C
;
_chemical_formula_sum "Si O2"
_cell_formula_units_Z 48
_cell_length_a 18.243083
_cell_length_b 5.227523
_cell_length_c 22.370434
_cell_angle_alpha 90.000000
_cell_angle_beta 76.102799
_cell_angle_gamma 90.000000
_cell_volume 2070.933958
_symmetry_space_group_name_H-M "C 2/C"
_symmetry_group_IT_number 15
_symmetry_cell_setting 'monoclinic'
loop_
_space_group_symop_operation_xyz
x,y,z
-x,y,1/2-z
-x,-y,-z
x,-y,1/2+z
1/2+x,1/2+y,z
1/2-x,1/2+y,1/2-z
1/2-x,1/2-y,-z
1/2+x,1/2-y,1/2+z
loop_
_atom_site_type_symbol
_atom_site_label
_atom_site_fract_x
_atom_site_fract_y
_atom_site_fract_z
Si Si1 0.793141 0.137744 0.581752
Si Si2 0.343282 0.974401 0.464045
Si Si3 0.287487 0.704417 0.717115
Si Si4 0.489980 0.842358 0.383130
Si Si5 0.036548 0.162621 0.806040
Si Si6 0.930011 0.179237 0.027426
O O1 0.724627 0.963746 0.568421
O O2 0.809299 0.362727 0.531712
O O3 0.772625 0.256913 0.649779
O O4 0.866678 0.968340 0.577471
O O5 0.402458 0.789745 0.418282
O O6 0.392379 0.222901 0.473122
O O7 0.255345 0.425577 0.738875
O O8 0.374935 0.716068 0.717727
O O9 0.521973 0.581659 0.349977
O O10 0.538705 0.901857 0.434317
O O11 0.496359 0.082956 0.338522
O O12 0.000000 0.098098 0.750000
O O13 0.000000 0.000000 0.000000
#
# Coordination Sequence:
#
# PCOD8154323 Si02
#       6
#     8   8   8   8   8   8
#     4  11  26  47  71 108 151 190 246 300 377 442
#     4  11  26  43  75 111 151 188 236 311 380 445
#     4  12  29  51  74 105 146 201 249 302 363 434
#     4  12  25  46  77 109 146 188 246 307 370 442
#     4  12  28  49  76 105 145 196 254 306 358 434
#     4  12  23  45  72 109 145 193 238 298 381 450
#
# _framework density 23.177948000000001
#
# number of rings (size 3 to 8) (size 9 to 14) (size 15 to 20)
#    0.000    0.333    3.333    4.500    7.000    0.000 
#    0.000    0.000    0.000    0.000    0.000    0.000 
#    0.000    0.000    0.000    0.000    0.000    0.000 
#
# Total GULP energy -297642.232641 kJ/mol
# GULP energy per Si atom -12401.759693 kJ/mol
# Density = 2.312519 g / cm^3
# Si number density = 23.177948 Si / 1000 Ang^3
#
#
#
# Elastic Constant Matrix: (Units=GPa)
#
#
# Indices 1 2 3 4 5 6 
#
# 1 163.1443 32.2235 69.5654 0.0003 10.5459 0.0003
# 2 32.2235 85.1054 18.6289 -0.0008 -4.2554 -0.0008
# 3 69.5654 18.6289 110.2611 -0.0005 0.3154 -0.0005
# 4 0.0003 -0.0008 -0.0005 26.8740 -0.0002 2.3299
# 5 10.5459 -4.2554 0.3154 -0.0002 31.1367 -0.0002
# 6 0.0003 -0.0008 -0.0005 2.3299 -0.0002 31.9922
#
#
#
# Elastic Compliance Matrix: (Units=1/GPa)
#
#
# Indices 1 2 3 4 5 6 
#
# 1 0.009098 -0.002449 -0.005316 0.000000 -0.003362 0.000000
# 2 -0.002449 0.012950 -0.000650 0.000000 0.002606 0.000000
# 3 -0.005316 -0.000650 0.012529 0.000000 0.001585 0.000000
# 4 0.000000 0.000000 0.000000 0.037447 0.000000 -0.002727
# 5 -0.003362 0.002606 0.001585 0.000000 0.033595 0.000000
# 6 0.000000 0.000000 0.000000 -0.002727 0.000000 0.031456
#
#
# Mechanical properties :
#
#
# Convention : Reuss Voigt Hill
#
# Bulk Modulus (GPa) = 56.35346 66.59404 61.47375
# Shear Modulus (GPa) = 31.28489 33.87344 32.57917
#
# Velocity S-wave (km/s) = 3.67791 3.82704 3.75321
# Velocity P-wave (km/s) = 6.51170 6.95143 6.73515
#
# Compressibility (1/GPa) = 0.01774514
#
# Stress axis : x y z
#
# Youngs Moduli (GPa) = 109.92011 77.21976 79.81550
#
# Poissons Ratio (x) = 0.18911 0.42433
# Poissons Ratio (y) = 0.26919 0.05190
# Poissons Ratio (z) = 0.58438 0.05021
#
# Static dielectric constant tensor:
#      x y z
#    x 4.608850 0.000000 0.022100 
#    y 0.000000 3.917560 0.000000 
#    z 0.022100 0.000000 4.452940 
# 
# 
# High freq. dielectric constant tensor:
#      x y z
#    x 1.939830 0.000000 -0.004040 
#    y 0.000000 1.905250 0.000000 
#    z -0.004040 0.000000 1.924520 
# 
# From -- ./inp_files/275830.got.cif
#   From: 2010.06.25/outbox.cif.g09.slc.cpg/sg15_138_cif.got.tgz:275830.got - 2010.06.28 07:06:18.
