data_PCOD8154737
_publ_section_title
;
Structure prediction by ZEFSAII (Michael W. Deem and Ramdas Pophale) SiO2 
 PCOD8154737
Probable space group: C 2/C
;
_chemical_formula_sum "Si O2"
_cell_formula_units_Z 40
_cell_length_a 10.340743
_cell_length_b 20.972855
_cell_length_c 16.195524
_cell_angle_alpha 90.000000
_cell_angle_beta 147.604591
_cell_angle_gamma 90.000000
_cell_volume 1881.801849
_symmetry_space_group_name_H-M "C 2/C"
_symmetry_group_IT_number 15
_symmetry_cell_setting 'monoclinic'
loop_
_space_group_symop_operation_xyz
x,y,z
-x,y,1/2-z
-x,-y,-z
x,-y,1/2+z
1/2+x,1/2+y,z
1/2-x,1/2+y,1/2-z
1/2-x,1/2-y,-z
1/2+x,1/2-y,1/2+z
loop_
_atom_site_type_symbol
_atom_site_label
_atom_site_fract_x
_atom_site_fract_y
_atom_site_fract_z
Si Si1 0.021606 0.257625 0.666260
Si Si2 0.500000 0.058419 0.750000
Si Si3 0.748007 0.121944 0.734293
Si Si4 0.572935 0.117316 0.101555
Si Si5 0.000000 0.947535 0.750000
Si Si6 0.283888 0.533697 0.504781
O O1 0.750000 0.250000 0.500000
O O2 0.000000 0.275464 0.750000
O O3 0.173368 0.195248 0.724211
O O4 0.127362 0.312671 0.665464
O O5 0.566073 0.105418 0.710220
O O6 0.271974 0.012825 0.603050
O O7 0.613762 0.111732 0.575203
O O8 0.978241 0.076769 0.873594
O O9 0.841627 0.094365 0.226670
O O10 0.455767 0.076230 0.112003
O O11 0.191715 0.989623 0.902160
#
# Coordination Sequence:
#
# PCOD8154737 Si02
#       6
#     8   4   8   8   4   8
#     4  12  25  46  75 102 129 181 238 282 335 408
#     4  12  28  41  68 113 142 174 228 286 352 408
#     4  12  24  48  70 100 144 181 225 292 340 402
#     4  12  25  46  72 101 141 183 227 286 344 405
#     4  12  24  43  72 101 138 184 224 268 362 414
#     4  12  23  44  73 100 139 185 228 277 341 417
#
# _framework density 21.256224
#
# number of rings (size 3 to 8) (size 9 to 14) (size 15 to 20)
#    0.000    0.000    8.000    2.400    1.400    2.400 
#    0.000    2.000    0.000    0.000    0.000    0.000 
#    0.000    0.000    0.000    0.000    0.000    0.000 
#
# Total GULP energy -247909.642895 kJ/mol
# GULP energy per Si atom -12395.482145 kJ/mol
# Density = 2.120784 g / cm^3
# Si number density = 21.256224 Si / 1000 Ang^3
#
#
#
# Elastic Constant Matrix: (Units=GPa)
#
#
# Indices 1 2 3 4 5 6 
#
# 1 99.2632 49.3310 17.4091 -0.0030 3.8406 0.0022
# 2 49.3310 121.5279 24.0968 -0.0067 3.2922 -0.0030
# 3 17.4091 24.0968 74.8982 -0.0452 -6.9791 -0.0164
# 4 -0.0030 -0.0067 -0.0452 23.0545 -0.0156 -18.8249
# 5 3.8406 3.2922 -6.9791 -0.0156 41.4597 -0.0012
# 6 0.0022 -0.0030 -0.0164 -18.8249 -0.0012 24.7124
#
#
#
# Elastic Compliance Matrix: (Units=1/GPa)
#
#
# Indices 1 2 3 4 5 6 
#
# 1 0.012798 -0.004868 -0.001507 -0.000015 -0.001053 -0.000014
# 2 -0.004868 0.010699 -0.002385 -0.000007 -0.000800 -0.000005
# 3 -0.001507 -0.002385 0.014731 0.000100 0.002809 0.000086
# 4 -0.000015 -0.000007 0.000100 0.114753 0.000065 0.087415
# 5 -0.001053 -0.000800 0.002809 0.000065 0.024754 0.000052
# 6 -0.000014 -0.000005 0.000086 0.087415 0.000052 0.107054
#
#
# Mechanical properties :
#
#
# Convention : Reuss Voigt Hill
#
# Bulk Modulus (GPa) = 48.28927 53.04036 50.66481
# Shear Modulus (GPa) = 16.17009 31.50215 23.83612
#
# Velocity S-wave (km/s) = 2.76111 3.85388 3.35232
# Velocity P-wave (km/s) = 5.73864 6.69404 6.23467
#
# Compressibility (1/GPa) = 0.02070853
#
# Stress axis : x y z
#
# Youngs Moduli (GPa) = 78.13459 93.46492 67.88444
#
# Poissons Ratio (x) = 0.45498 0.10229
# Poissons Ratio (y) = 0.38035 0.16193
# Poissons Ratio (z) = 0.11773 0.22294
#
# Static dielectric constant tensor:
#      x y z
#    x 3.740960 -0.000130 -0.056560 
#    y -0.000130 3.817700 0.000090 
#    z -0.056560 0.000090 3.936740 
# 
# 
# High freq. dielectric constant tensor:
#      x y z
#    x 1.830830 0.000000 -0.006210 
#    y 0.000000 1.842640 0.000000 
#    z -0.006210 0.000000 1.844910 
# 
# From -- ./inp_files/30534.got.cif
#   From: 2010.06.25/outbox.cif.g09.slc.cpg/sg15_16_cif.got.tgz:30534.got - 2010.06.28 07:06:18.
