data_PCOD8154550
_publ_section_title
;
Structure prediction by ZEFSAII (Michael W. Deem and Ramdas Pophale) SiO2 
 PCOD8154550
Probable space group: C 2/C
;
_chemical_formula_sum "Si O2"
_cell_formula_units_Z 60
_cell_length_a 16.885372
_cell_length_b 8.652190
_cell_length_c 19.096804
_cell_angle_alpha 90.000000
_cell_angle_beta 108.302016
_cell_angle_gamma 90.000000
_cell_volume 2648.824589
_symmetry_space_group_name_H-M "C 2/C"
_symmetry_group_IT_number 15
_symmetry_cell_setting 'monoclinic'
loop_
_space_group_symop_operation_xyz
x,y,z
-x,y,1/2-z
-x,-y,-z
x,-y,1/2+z
1/2+x,1/2+y,z
1/2-x,1/2+y,1/2-z
1/2-x,1/2-y,-z
1/2+x,1/2-y,1/2+z
loop_
_atom_site_type_symbol
_atom_site_label
_atom_site_fract_x
_atom_site_fract_y
_atom_site_fract_z
Si Si1 0.914755 0.674762 0.249226
Si Si2 0.664737 0.912957 0.635587
Si Si3 0.000000 0.161516 0.250000
Si Si4 0.276203 0.339437 0.438182
Si Si5 0.915107 0.568093 0.005062
Si Si6 0.600499 0.897245 0.358269
Si Si7 0.159548 0.967761 0.313125
Si Si8 0.169583 0.140144 0.974010
O O1 0.905956 0.597657 0.323634
O O2 0.917434 0.542534 0.193430
O O3 0.839538 0.795976 0.219996
O O4 0.000000 0.764694 0.250000
O O5 0.656899 0.754429 0.589192
O O6 0.648434 0.054479 0.577738
O O7 0.757333 0.946181 0.690441
O O8 0.971773 0.269369 0.175944
O O9 0.918432 0.059180 0.243010
O O10 0.250000 0.250000 0.500000
O O11 0.193434 0.338764 0.365889
O O12 0.316636 0.506528 0.464647
O O13 0.891534 0.449788 0.059567
O O14 0.909966 0.748129 0.029337
O O15 0.000000 0.500000 0.000000
O O16 0.154431 0.947093 0.396043
O O17 0.250000 0.250000 0.000000
#
# Coordination Sequence:
#
# PCOD8154550 Si02
#       8
#     8   8   4   8   8   8   8   8
#     4  12  27  48  71 101 150 197 245 304 375 444
#     4  12  27  45  72 111 145 192 252 315 371 459
#     4  12  26  40  72 106 148 194 234 300 380 450
#     4  12  21  44  73 107 143 181 248 313 374 442
#     4  12  26  46  72 106 143 187 257 314 375 447
#     4  12  23  45  70  98 142 194 233 296 380 438
#     4  12  24  46  72 107 150 196 250 301 382 462
#     4  12  21  45  79 106 138 198 250 314 380 450
#
# _framework density 22.651555999999999
#
# number of rings (size 3 to 8) (size 9 to 14) (size 15 to 20)
#    0.000    0.000    9.333    0.800    1.867    0.000 
#    2.400    0.667    0.000    0.000    0.000    0.000 
#    0.000    0.000    0.000    0.000    0.000    0.000 
#
# Total GULP energy -371722.088959 kJ/mol
# GULP energy per Si atom -12390.736299 kJ/mol
# Density = 2.260000 g / cm^3
# Si number density = 22.651556 Si / 1000 Ang^3
#
#
#
# Elastic Constant Matrix: (Units=GPa)
#
#
# Indices 1 2 3 4 5 6 
#
# 1 106.2361 41.4386 35.5764 0.0000 -10.0184 0.0000
# 2 41.4386 105.9212 21.4521 0.0000 -0.4396 0.0000
# 3 35.5764 21.4521 91.8914 0.0000 -1.5685 0.0000
# 4 0.0000 0.0000 0.0000 33.1137 0.0000 9.7449
# 5 -10.0184 -0.4396 -1.5685 0.0000 40.0368 0.0000
# 6 0.0000 0.0000 0.0000 9.7449 0.0000 21.0331
#
#
#
# Elastic Compliance Matrix: (Units=1/GPa)
#
#
# Indices 1 2 3 4 5 6 
#
# 1 0.012597 -0.004134 -0.003862 0.000000 0.002956 0.000000
# 2 -0.004134 0.011266 -0.001046 0.000000 -0.000952 0.000000
# 3 -0.003862 -0.001046 0.012613 0.000000 -0.000484 0.000000
# 4 0.000000 0.000000 0.000000 0.034967 0.000000 -0.016200
# 5 0.002956 -0.000952 -0.000484 0.000000 0.025687 0.000000
# 6 0.000000 0.000000 0.000000 -0.016200 0.000000 0.055050
#
#
# Mechanical properties :
#
#
# Convention : Reuss Voigt Hill
#
# Bulk Modulus (GPa) = 54.36560 55.66476 55.01518
# Shear Modulus (GPa) = 28.34549 32.54217 30.44383
#
# Velocity S-wave (km/s) = 3.54131 3.79442 3.67005
# Velocity P-wave (km/s) = 6.38546 6.62001 6.50379
#
# Compressibility (1/GPa) = 0.01839398
#
# Stress axis : x y z
#
# Youngs Moduli (GPa) = 79.38128 88.76139 79.28101
#
# Poissons Ratio (x) = 0.36694 0.30616
# Poissons Ratio (y) = 0.32816 0.08291
# Poissons Ratio (z) = 0.30654 0.09283
#
# Static dielectric constant tensor:
#      x y z
#    x 5.426280 0.000000 -1.597040 
#    y 0.000000 4.170010 0.000000 
#    z -1.597040 0.000000 5.081800 
# 
# 
# High freq. dielectric constant tensor:
#      x y z
#    x 1.876140 0.000000 0.021000 
#    y 0.000000 1.908280 0.000000 
#    z 0.021000 0.000000 1.893280 
# 
# From -- ./inp_files/247527.got.cif
#   From: 2010.06.25/outbox.cif.g09.slc.cpg/sg15_124_cif.got.tgz:247527.got - 2010.06.28 07:06:18.
