data_PCOD8154794
_publ_section_title
;
Structure prediction by ZEFSAII (Michael W. Deem and Ramdas Pophale) SiO2 
 PCOD8154794
Probable space group: C 2/C
;
_chemical_formula_sum "Si O2"
_cell_formula_units_Z 40
_cell_length_a 9.255709
_cell_length_b 10.273763
_cell_length_c 29.760111
_cell_angle_alpha 90.000000
_cell_angle_beta 142.524061
_cell_angle_gamma 90.000000
_cell_volume 1721.801671
_symmetry_space_group_name_H-M "C 2/C"
_symmetry_group_IT_number 15
_symmetry_cell_setting 'monoclinic'
loop_
_space_group_symop_operation_xyz
x,y,z
-x,y,1/2-z
-x,-y,-z
x,-y,1/2+z
1/2+x,1/2+y,z
1/2-x,1/2+y,1/2-z
1/2-x,1/2-y,-z
1/2+x,1/2-y,1/2+z
loop_
_atom_site_type_symbol
_atom_site_label
_atom_site_fract_x
_atom_site_fract_y
_atom_site_fract_z
Si Si1 0.386389 0.506791 0.422584
Si Si2 0.264332 0.307792 0.719405
Si Si3 0.834773 0.177326 0.564513
Si Si4 0.610560 0.905894 0.182336
Si Si5 0.026762 0.287479 0.067980
O O1 0.500000 0.500000 0.500000
O O2 0.562418 0.459883 0.426746
O O3 0.322480 0.653818 0.393341
O O4 0.153788 0.418170 0.363412
O O5 0.500000 0.275896 0.750000
O O6 0.264755 0.218474 0.764229
O O7 0.256997 0.462123 0.729015
O O8 0.031327 0.271254 0.634355
O O9 0.750000 0.250000 0.500000
O O10 0.614343 0.144931 0.543327
O O11 0.598395 0.882474 0.125917
O O12 0.750000 0.250000 0.000000
#
# Coordination Sequence:
#
# PCOD8154794 Si02
#       5
#     8   8   8   8   8
#     4  12  23  49  75 110 156 196 252 315 384 456
#     4  12  29  48  77 111 154 201 253 316 385 461
#     4  12  25  49  78 106 150 202 252 316 382 450
#     4  12  28  50  74 112 156 199 257 313 387 462
#     4  12  27  46  79 114 150 199 261 321 378 461
#
# _framework density 23.231479
#
# number of rings (size 3 to 8) (size 9 to 14) (size 15 to 20)
#    0.000    0.000    8.000    0.000    5.600    0.800 
#    0.000    0.000    0.000    0.000    0.000    0.000 
#    0.000    0.000    0.000    0.000    0.000    0.000 
#
# Total GULP energy -248031.247901 kJ/mol
# GULP energy per Si atom -12401.562395 kJ/mol
# Density = 2.317860 g / cm^3
# Si number density = 23.231479 Si / 1000 Ang^3
#
#
#
# Elastic Constant Matrix: (Units=GPa)
#
#
# Indices 1 2 3 4 5 6 
#
# 1 186.8426 42.6190 49.7446 0.0000 -2.9935 0.0000
# 2 42.6190 134.8943 35.6936 0.0000 -18.0798 0.0000
# 3 49.7446 35.6936 116.3063 0.0000 -3.8740 0.0000
# 4 0.0000 0.0000 0.0000 40.5681 0.0000 -5.3453
# 5 -2.9935 -18.0798 -3.8740 0.0000 32.8161 0.0000
# 6 0.0000 0.0000 0.0000 -5.3453 0.0000 47.2651
#
#
#
# Elastic Compliance Matrix: (Units=1/GPa)
#
#
# Indices 1 2 3 4 5 6 
#
# 1 0.006276 -0.001452 -0.002255 0.000000 -0.000494 0.000000
# 2 -0.001452 0.009016 -0.001993 0.000000 0.004599 0.000000
# 3 -0.002255 -0.001993 0.010170 0.000000 -0.000103 0.000000
# 4 0.000000 0.000000 0.000000 0.025023 0.000000 0.002830
# 5 -0.000494 0.004599 -0.000103 0.000000 0.032950 0.000000
# 6 0.000000 0.000000 0.000000 0.002830 0.000000 0.021477
#
#
# Mechanical properties :
#
#
# Convention : Reuss Voigt Hill
#
# Bulk Modulus (GPa) = 71.11096 77.12865 74.11981
# Shear Modulus (GPa) = 41.32270 44.79559 43.05915
#
# Velocity S-wave (km/s) = 4.22208 4.39592 4.30988
# Velocity P-wave (km/s) = 7.37863 7.68360 7.53266
#
# Compressibility (1/GPa) = 0.01406253
#
# Stress axis : x y z
#
# Youngs Moduli (GPa) = 159.34194 110.91696 98.32371
#
# Poissons Ratio (x) = 0.16109 0.22171
# Poissons Ratio (y) = 0.23142 0.19591
# Poissons Ratio (z) = 0.35930 0.22100
#
# Static dielectric constant tensor:
#      x y z
#    x 4.840570 0.000000 0.202390 
#    y 0.000000 4.281630 0.000000 
#    z 0.202390 0.000000 4.110610 
# 
# 
# High freq. dielectric constant tensor:
#      x y z
#    x 1.936890 0.000000 0.008710 
#    y 0.000000 1.925120 0.000000 
#    z 0.008710 0.000000 1.910790 
# 
# From -- ./inp_files/307336.got.cif
#   From: 2010.06.25/outbox.cif.g09.slc.cpg/sg15_154_cif.got.tgz:307336.got - 2010.06.28 07:06:18.
