data_PCOD8154616
_publ_section_title
;
Structure prediction by ZEFSAII (Michael W. Deem and Ramdas Pophale) SiO2 
 PCOD8154616
Probable space group: C 2/C
;
_chemical_formula_sum "Si O2"
_cell_formula_units_Z 40
_cell_length_a 16.470154
_cell_length_b 16.491322
_cell_length_c 7.261389
_cell_angle_alpha 90.000000
_cell_angle_beta 123.823034
_cell_angle_gamma 90.000000
_cell_volume 1638.508919
_symmetry_space_group_name_H-M "C 2/C"
_symmetry_group_IT_number 15
_symmetry_cell_setting 'monoclinic'
loop_
_space_group_symop_operation_xyz
x,y,z
-x,y,1/2-z
-x,-y,-z
x,-y,1/2+z
1/2+x,1/2+y,z
1/2-x,1/2+y,1/2-z
1/2-x,1/2-y,-z
1/2+x,1/2-y,1/2+z
loop_
_atom_site_type_symbol
_atom_site_label
_atom_site_fract_x
_atom_site_fract_y
_atom_site_fract_z
Si Si1 0.263934 0.557390 0.795813
Si Si2 0.043241 0.585380 0.495052
Si Si3 0.895794 0.854065 0.177488
Si Si4 0.236886 0.877458 0.810859
Si Si5 0.568898 0.777834 0.480208
O O1 0.158658 0.593307 0.620991
O O2 0.339752 0.579974 0.731236
O O3 0.245004 0.460675 0.781287
O O4 0.302921 0.596219 0.037498
O O5 0.000000 0.613254 0.250000
O O6 0.000000 0.500000 0.500000
O O7 0.007995 0.649899 0.595731
O O8 0.908872 0.771640 0.307601
O O9 0.000000 0.891861 0.250000
O O10 0.840997 0.830738 0.916599
O O11 0.329202 0.818279 0.957815
O O12 0.500000 0.725113 0.250000
#
# Coordination Sequence:
#
# PCOD8154616 Si02
#       5
#     8   8   8   8   8
#     4  12  25  48  81 116 148 202 263 319 390 459
#     4  12  22  41  78 115 154 190 246 323 399 465
#     4  12  31  51  72 109 159 214 264 312 380 458
#     4  12  25  50  80 113 151 196 260 326 385 459
#     4  12  26  47  77 117 157 198 246 320 406 465
#
# _framework density 24.41244
#
# number of rings (size 3 to 8) (size 9 to 14) (size 15 to 20)
#    0.000    0.000    6.000    4.200    2.800    3.200 
#    0.000    0.000    0.000    0.000    0.000    0.000 
#    0.000    0.000    0.000    0.000    0.000    0.000 
#
# Total GULP energy -247827.229307 kJ/mol
# GULP energy per Si atom -12391.361465 kJ/mol
# Density = 2.435688 g / cm^3
# Si number density = 24.412440 Si / 1000 Ang^3
#
#
#
# Elastic Constant Matrix: (Units=GPa)
#
#
# Indices 1 2 3 4 5 6 
#
# 1 142.2130 11.1740 55.5271 0.0000 10.4379 0.0000
# 2 11.1740 56.5028 24.3181 0.0000 4.5881 0.0000
# 3 55.5271 24.3181 207.2785 0.0000 -4.0877 0.0000
# 4 0.0000 0.0000 0.0000 38.8120 0.0000 -0.7459
# 5 10.4379 4.5881 -4.0877 0.0000 44.9348 0.0000
# 6 0.0000 0.0000 0.0000 -0.7459 0.0000 18.1006
#
#
#
# Elastic Compliance Matrix: (Units=1/GPa)
#
#
# Indices 1 2 3 4 5 6 
#
# 1 0.008054 -0.000509 -0.002138 0.000000 -0.002013 0.000000
# 2 -0.000509 0.018873 -0.002117 0.000000 -0.002001 0.000000
# 3 -0.002138 -0.002117 0.005670 0.000000 0.001228 0.000000
# 4 0.000000 0.000000 0.000000 0.025786 0.000000 0.001063
# 5 -0.002013 -0.002001 0.001228 0.000000 0.023038 0.000000
# 6 0.000000 0.000000 0.000000 0.001063 0.000000 0.055291
#
#
# Mechanical properties :
#
#
# Convention : Reuss Voigt Hill
#
# Bulk Modulus (GPa) = 43.34947 65.33697 54.34322
# Shear Modulus (GPa) = 32.48260 41.36782 36.92521
#
# Velocity S-wave (km/s) = 3.65166 4.12094 3.89338
# Velocity P-wave (km/s) = 5.96449 7.03312 6.52074
#
# Compressibility (1/GPa) = 0.02306833
#
# Stress axis : x y z
#
# Youngs Moduli (GPa) = 124.16042 52.98667 176.37750
#
# Poissons Ratio (x) = 0.02699 0.37701
# Poissons Ratio (y) = 0.06324 0.37342
# Poissons Ratio (z) = 0.26540 0.11218
#
# Static dielectric constant tensor:
#      x y z
#    x 4.554910 0.000000 -0.040490 
#    y 0.000000 4.208330 0.000000 
#    z -0.040490 0.000000 4.624120 
# 
# 
# High freq. dielectric constant tensor:
#      x y z
#    x 1.968860 0.000000 -0.009890 
#    y 0.000000 1.956450 0.000000 
#    z -0.009890 0.000000 2.002830 
# 
# From -- ./inp_files/48789.got.cif
#   From: 2010.06.25/outbox.cif.g09.slc.cpg/sg15_25_cif.got.tgz:48789.got - 2010.06.28 07:06:18.
