data_PCOD8154326
_publ_section_title
;
Structure prediction by ZEFSAII (Michael W. Deem and Ramdas Pophale) SiO2 
 PCOD8154326
Probable space group: C 2/C
;
_chemical_formula_sum "Si O2"
_cell_formula_units_Z 48
_cell_length_a 16.993984
_cell_length_b 15.097548
_cell_length_c 8.835973
_cell_angle_alpha 90.000000
_cell_angle_beta 103.354494
_cell_angle_gamma 90.000000
_cell_volume 2205.722261
_symmetry_space_group_name_H-M "C 2/C"
_symmetry_group_IT_number 15
_symmetry_cell_setting 'monoclinic'
loop_
_space_group_symop_operation_xyz
x,y,z
-x,y,1/2-z
-x,-y,-z
x,-y,1/2+z
1/2+x,1/2+y,z
1/2-x,1/2+y,1/2-z
1/2-x,1/2-y,-z
1/2+x,1/2-y,1/2+z
loop_
_atom_site_type_symbol
_atom_site_label
_atom_site_fract_x
_atom_site_fract_y
_atom_site_fract_z
Si Si1 0.914920 0.830076 0.624622
Si Si2 0.339567 0.204879 0.045105
Si Si3 0.192926 0.016501 0.299918
Si Si4 0.195150 0.510581 0.401984
Si Si5 0.593614 0.845941 0.252415
Si Si6 0.414867 0.354587 0.268731
O O1 0.859382 0.898683 0.687144
O O2 0.876108 0.731832 0.621516
O O3 0.920197 0.851918 0.451580
O O4 0.000000 0.830382 0.750000
O O5 0.342054 0.108044 0.121212
O O6 0.395249 0.261212 0.182713
O O7 0.250000 0.250000 0.000000
O O8 0.385038 0.193613 0.904270
O O9 0.215532 0.015095 0.133708
O O10 0.281607 0.019421 0.418480
O O11 0.149745 0.924740 0.320068
O O12 0.138023 0.438314 0.299185
O O13 0.500000 0.864391 0.250000
O O14 0.500000 0.390721 0.250000
#
# Coordination Sequence:
#
# PCOD8154326 Si02
#       6
#     8   8   8   8   8   8
#     4  11  26  44  70 100 142 181 229 296 351 420
#     4  12  25  48  73 102 147 183 235 293 346 420
#     4  12  25  44  69 104 139 180 237 288 353 422
#     4  12  25  45  71 101 138 185 234 290 347 417
#     4  11  26  47  69 101 142 186 236 292 353 415
#     4  12  26  43  71 104 137 187 233 286 363 419
#
# _framework density 21.761579000000001
#
# number of rings (size 3 to 8) (size 9 to 14) (size 15 to 20)
#    0.000    0.333    5.000    3.500    4.667    3.333 
#    0.000    0.000    0.000    0.000    0.000    0.000 
#    0.000    0.000    0.000    0.000    0.000    0.000 
#
# Total GULP energy -297472.788266 kJ/mol
# GULP energy per Si atom -12394.699511 kJ/mol
# Density = 2.171205 g / cm^3
# Si number density = 21.761579 Si / 1000 Ang^3
#
#
#
# Elastic Constant Matrix: (Units=GPa)
#
#
# Indices 1 2 3 4 5 6 
#
# 1 104.0964 45.2284 56.8481 0.0000 -24.6639 0.0000
# 2 45.2284 152.3922 40.5658 0.0000 -8.5989 0.0000
# 3 56.8481 40.5658 81.3236 0.0000 -0.5393 0.0000
# 4 0.0000 0.0000 0.0000 35.7813 0.0000 -7.1626
# 5 -24.6639 -8.5989 -0.5393 0.0000 38.0448 0.0000
# 6 0.0000 0.0000 0.0000 -7.1626 0.0000 26.9553
#
#
#
# Elastic Compliance Matrix: (Units=1/GPa)
#
#
# Indices 1 2 3 4 5 6 
#
# 1 0.020908 -0.001853 -0.013605 0.000000 0.012943 0.000000
# 2 -0.001853 0.007837 -0.002610 0.000000 0.000533 0.000000
# 3 -0.013605 -0.002610 0.023049 0.000000 -0.009083 0.000000
# 4 0.000000 0.000000 0.000000 0.029518 0.000000 0.007844
# 5 0.012943 0.000533 -0.009083 0.000000 0.034667 0.000000
# 6 0.000000 0.000000 0.000000 0.007844 0.000000 0.039183
#
#
# Mechanical properties :
#
#
# Convention : Reuss Voigt Hill
#
# Bulk Modulus (GPa) = 63.87115 69.23298 66.55207
# Shear Modulus (GPa) = 25.44297 33.16760 29.30528
#
# Velocity S-wave (km/s) = 3.42302 3.90825 3.67366
# Velocity P-wave (km/s) = 6.71095 7.22837 6.97446
#
# Compressibility (1/GPa) = 0.01565652
#
# Stress axis : x y z
#
# Youngs Moduli (GPa) = 47.82788 127.60082 43.38613
#
# Poissons Ratio (x) = 0.23650 0.59028
# Poissons Ratio (y) = 0.08864 0.11324
# Poissons Ratio (z) = 0.65071 0.33305
#
# Static dielectric constant tensor:
#      x y z
#    x 3.918230 0.000000 -0.277320 
#    y 0.000000 4.173570 0.000000 
#    z -0.277320 0.000000 3.946580 
# 
# 
# High freq. dielectric constant tensor:
#      x y z
#    x 1.854420 0.000000 -0.016270 
#    y 0.000000 1.875210 0.000000 
#    z -0.016270 0.000000 1.869250 
# 
# From -- ./inp_files/47447.got.cif
#   From: 2010.06.25/outbox.cif.g09.slc.cpg/sg15_24_cif.got.tgz:47447.got - 2010.06.28 07:06:18.
