data_PCOD8154843
_publ_section_title
;
Structure prediction by ZEFSAII (Michael W. Deem and Ramdas Pophale) SiO2 
 PCOD8154843
Probable space group: C 2/C
;
_chemical_formula_sum "Si O2"
_cell_formula_units_Z 44
_cell_length_a 4.977600
_cell_length_b 30.223246
_cell_length_c 12.590850
_cell_angle_alpha 90.000000
_cell_angle_beta 95.621117
_cell_angle_gamma 90.000000
_cell_volume 1885.049461
_symmetry_space_group_name_H-M "C 2/C"
_symmetry_group_IT_number 15
_symmetry_cell_setting 'monoclinic'
loop_
_space_group_symop_operation_xyz
x,y,z
-x,y,1/2-z
-x,-y,-z
x,-y,1/2+z
1/2+x,1/2+y,z
1/2-x,1/2+y,1/2-z
1/2-x,1/2-y,-z
1/2+x,1/2-y,1/2+z
loop_
_atom_site_type_symbol
_atom_site_label
_atom_site_fract_x
_atom_site_fract_y
_atom_site_fract_z
Si Si1 0.737223 0.892608 0.680950
Si Si2 0.590818 0.950397 0.484229
Si Si3 0.936186 0.911430 0.124283
Si Si4 0.294986 0.802726 0.919957
Si Si5 0.500000 0.257241 0.250000
Si Si6 0.355877 0.687071 0.558209
O O1 0.500000 0.877644 0.750000
O O2 0.616986 0.930377 0.601934
O O3 0.832488 0.849574 0.619992
O O4 0.000000 0.912188 0.750000
O O5 0.372296 0.924836 0.405129
O O6 0.873321 0.945374 0.432841
O O7 0.500000 0.000000 0.500000
O O8 0.974457 0.861640 0.083419
O O9 0.000000 0.914384 0.250000
O O10 0.306122 0.771991 0.816728
O O11 0.584507 0.812737 0.981327
O O12 0.081699 0.784688 0.999967
O O13 0.688786 0.287964 0.331755
#
# Coordination Sequence:
#
# PCOD8154843 Si02
#       6
#     8   8   8   8   4   8
#     4  12  24  44  74 100 140 190 230 286 358 417
#     4  12  27  47  73 108 143 181 239 293 350 425
#     4  12  24  47  76 103 142 192 229 289 358 422
#     4  12  26  45  71 101 144 184 238 291 349 410
#     4  12  28  44  72 108 138 186 242 288 344 416
#     4  12  25  47  69 105 140 189 234 285 354 419
#
# _framework density 23.341564000000002
#
# number of rings (size 3 to 8) (size 9 to 14) (size 15 to 20)
#    0.000    0.000    5.455    4.364    0.000    4.364 
#    0.000    0.000    0.000    0.000    0.000    0.000 
#    0.000    0.000    0.000    0.000    0.000    0.000 
#
# Total GULP energy -272970.989453 kJ/mol
# GULP energy per Si atom -12407.772248 kJ/mol
# Density = 2.328844 g / cm^3
# Si number density = 23.341564 Si / 1000 Ang^3
#
#
#
# Elastic Constant Matrix: (Units=GPa)
#
#
# Indices 1 2 3 4 5 6 
#
# 1 109.5365 14.7602 51.5092 0.0000 11.3172 0.0000
# 2 14.7602 113.0116 51.4739 0.0000 0.7805 0.0000
# 3 51.5092 51.4739 160.2557 0.0000 7.2066 0.0000
# 4 0.0000 0.0000 0.0000 19.6922 0.0000 -1.0750
# 5 11.3172 0.7805 7.2066 0.0000 46.0026 0.0000
# 6 0.0000 0.0000 0.0000 -1.0750 0.0000 28.3694
#
#
#
# Elastic Compliance Matrix: (Units=1/GPa)
#
#
# Indices 1 2 3 4 5 6 
#
# 1 0.010967 0.000169 -0.003482 0.000000 -0.002155 0.000000
# 2 0.000169 0.010373 -0.003400 0.000000 0.000315 0.000000
# 3 -0.003482 -0.003400 0.008470 0.000000 -0.000413 0.000000
# 4 0.000000 0.000000 0.000000 0.050887 0.000000 0.001928
# 5 -0.002155 0.000315 -0.000413 0.000000 0.022327 0.000000
# 6 0.000000 0.000000 0.000000 0.001928 0.000000 0.035322
#
#
# Mechanical properties :
#
#
# Convention : Reuss Voigt Hill
#
# Bulk Modulus (GPa) = 61.04131 68.69893 64.87012
# Shear Modulus (GPa) = 31.79956 36.48352 34.14154
#
# Velocity S-wave (km/s) = 3.69502 3.95780 3.82867
# Velocity P-wave (km/s) = 6.66426 7.09799 6.88454
#
# Compressibility (1/GPa) = 0.01638235
#
# Stress axis : x y z
#
# Youngs Moduli (GPa) = 91.18406 96.40258 118.06437
#
# Poissons Ratio (x) = -0.01625 0.41112
# Poissons Ratio (y) = -0.01537 0.40144
# Poissons Ratio (z) = 0.31752 0.32779
#
# Static dielectric constant tensor:
#      x y z
#    x 4.070090 0.000000 -0.026980 
#    y 0.000000 4.218670 0.000000 
#    z -0.026980 0.000000 4.503740 
# 
# 
# High freq. dielectric constant tensor:
#      x y z
#    x 1.925100 0.000000 0.003330 
#    y 0.000000 1.925400 0.000000 
#    z 0.003330 0.000000 1.946160 
# 
# From -- ./inp_files/74015.got.cif
#   From: 2010.06.25/outbox.cif.g09.slc.cpg/sg15_38_cif.got.tgz:74015.got - 2010.06.28 07:06:18.
