data_PCOD8154876
_publ_section_title
;
Structure prediction by ZEFSAII (Michael W. Deem and Ramdas Pophale) SiO2 
 PCOD8154876
Probable space group: C 2/C
;
_chemical_formula_sum "Si O2"
_cell_formula_units_Z 48
_cell_length_a 29.742451
_cell_length_b 14.871335
_cell_length_c 14.681930
_cell_angle_alpha 90.000000
_cell_angle_beta 19.062614
_cell_angle_gamma 90.000000
_cell_volume 2120.936629
_symmetry_space_group_name_H-M "C 2/C"
_symmetry_group_IT_number 15
_symmetry_cell_setting 'monoclinic'
loop_
_space_group_symop_operation_xyz
x,y,z
-x,y,1/2-z
-x,-y,-z
x,-y,1/2+z
1/2+x,1/2+y,z
1/2-x,1/2+y,1/2-z
1/2-x,1/2-y,-z
1/2+x,1/2-y,1/2+z
loop_
_atom_site_type_symbol
_atom_site_label
_atom_site_fract_x
_atom_site_fract_y
_atom_site_fract_z
Si Si1 0.250624 0.240017 0.891827
Si Si2 0.538704 0.750113 0.772641
Si Si3 0.660546 0.089247 0.451456
Si Si4 0.266757 0.089423 0.578921
Si Si5 0.697998 0.582811 0.515321
Si Si6 0.034031 0.913947 0.784942
O O1 0.404332 0.205467 0.575705
O O2 0.229652 0.333313 0.879124
O O3 0.250000 0.250000 0.000000
O O4 0.134992 0.170656 0.081328
O O5 0.500000 0.706271 0.750000
O O6 0.649049 0.827660 0.542216
O O7 0.601990 0.670447 0.711994
O O8 0.691339 0.996775 0.443368
O O9 0.500000 0.107443 0.750000
O O10 0.718584 0.086899 0.238091
O O11 0.300336 0.079066 0.406660
O O12 0.105199 0.112827 0.896788
O O13 0.605999 0.494115 0.701137
O O14 0.000000 0.950525 0.750000
#
# Coordination Sequence:
#
# PCOD8154876 Si02
#       6
#     8   8   8   8   8   8
#     4  12  27  46  72 104 141 183 234 290 350 416
#     4  12  25  47  73 102 143 182 232 289 350 416
#     4  12  28  47  72 104 144 185 234 291 350 413
#     4  12  27  46  74 106 139 186 237 287 350 415
#     4  12  26  47  73 101 143 188 234 286 350 419
#     4  12  24  46  73 101 141 185 233 287 347 418
#
# _framework density 22.631511
#
# number of rings (size 3 to 8) (size 9 to 14) (size 15 to 20)
#    0.000    0.000    3.333    6.500    7.000    0.667 
#    0.000    0.000    0.000    0.000    0.000    0.000 
#    0.000    0.000    0.000    0.000    0.000    0.000 
#
# Total GULP energy -297740.762019 kJ/mol
# GULP energy per Si atom -12405.865084 kJ/mol
# Density = 2.258000 g / cm^3
# Si number density = 22.631511 Si / 1000 Ang^3
#
#
#
# Elastic Constant Matrix: (Units=GPa)
#
#
# Indices 1 2 3 4 5 6 
#
# 1 122.1460 1.5748 18.1528 0.0000 19.1517 0.0000
# 2 1.5748 101.4155 21.1661 0.0000 -1.1279 0.0003
# 3 18.1528 21.1661 138.9983 0.0001 5.2156 0.0000
# 4 0.0000 0.0000 0.0001 23.3936 0.0000 -6.0677
# 5 19.1517 -1.1279 5.2156 0.0000 34.4586 0.0000
# 6 0.0000 0.0003 0.0000 -6.0677 0.0000 21.7717
#
#
#
# Elastic Compliance Matrix: (Units=1/GPa)
#
#
# Indices 1 2 3 4 5 6 
#
# 1 0.009106 0.000014 -0.001007 0.000000 -0.004908 0.000000
# 2 0.000014 0.010195 -0.001576 0.000000 0.000564 0.000000
# 3 -0.001007 -0.001576 0.007590 0.000000 -0.000641 0.000000
# 4 0.000000 0.000000 0.000000 0.046078 0.000000 0.012842
# 5 -0.004908 0.000564 -0.000641 0.000000 0.031864 0.000000
# 6 0.000000 0.000000 0.000000 0.012842 0.000000 0.049510
#
#
# Mechanical properties :
#
#
# Convention : Reuss Voigt Hill
#
# Bulk Modulus (GPa) = 45.96842 49.37190 47.67016
# Shear Modulus (GPa) = 29.98848 37.36919 33.67884
#
# Velocity S-wave (km/s) = 3.64411 4.06791 3.86183
# Velocity P-wave (km/s) = 6.16943 6.62772 6.40268
#
# Compressibility (1/GPa) = 0.02175407
#
# Stress axis : x y z
#
# Youngs Moduli (GPa) = 109.81786 98.08442 131.75537
#
# Poissons Ratio (x) = -0.00140 0.13271
# Poissons Ratio (y) = -0.00156 0.20758
# Poissons Ratio (z) = 0.11061 0.15453
#
# Static dielectric constant tensor:
#      x y z
#    x 4.446650 0.000000 -0.453760 
#    y 0.000000 4.128850 0.000000 
#    z -0.453760 0.000000 5.246920 
# 
# 
# High freq. dielectric constant tensor:
#      x y z
#    x 1.913680 0.000000 0.001390 
#    y 0.000000 1.896100 0.000000 
#    z 0.001390 0.000000 1.902700 
# 
# From -- ./inp_files/182438.got.cif
#   From: 2010.06.25/outbox.cif.g09.slc.cpg/sg15_92_cif.got.tgz:182438.got - 2010.06.28 07:06:18.
