data_PCOD8154529
_publ_section_title
;
Structure prediction by ZEFSAII (Michael W. Deem and Ramdas Pophale) SiO2 
 PCOD8154529
Probable space group: C 2/C
;
_chemical_formula_sum "Si O2"
_cell_formula_units_Z 44
_cell_length_a 17.723641
_cell_length_b 17.921019
_cell_length_c 14.954046
_cell_angle_alpha 90.000000
_cell_angle_beta 152.941402
_cell_angle_gamma 90.000000
_cell_volume 2160.686431
_symmetry_space_group_name_H-M "C 2/C"
_symmetry_group_IT_number 15
_symmetry_cell_setting 'monoclinic'
loop_
_space_group_symop_operation_xyz
x,y,z
-x,y,1/2-z
-x,-y,-z
x,-y,1/2+z
1/2+x,1/2+y,z
1/2-x,1/2+y,1/2-z
1/2-x,1/2-y,-z
1/2+x,1/2-y,1/2+z
loop_
_atom_site_type_symbol
_atom_site_label
_atom_site_fract_x
_atom_site_fract_y
_atom_site_fract_z
Si Si1 0.756833 0.332706 0.878568
Si Si2 0.500000 0.483394 0.250000
Si Si3 0.112372 0.176633 0.537551
Si Si4 0.596544 0.976582 0.515367
Si Si5 0.693716 0.913644 0.397599
Si Si6 0.415334 0.561836 0.846709
O O1 0.824146 0.260875 0.897455
O O2 0.563402 0.325574 0.697599
O O3 0.797005 0.401137 0.853926
O O4 0.842767 0.349747 0.065757
O O5 0.664630 0.533194 0.412916
O O6 0.488255 0.434250 0.146829
O O7 0.245939 0.124353 0.630003
O O8 0.084485 0.144042 0.608094
O O9 0.471724 0.960872 0.300741
O O10 0.500000 0.000000 0.500000
O O11 0.723820 0.041814 0.624536
O O12 0.500000 0.500000 0.000000
#
# Coordination Sequence:
#
# PCOD8154529 Si02
#       6
#     8   4   8   8   8   8
#     4  12  25  40  61  98 133 179 220 273 340 401
#     4  12  22  40  68  96 130 170 230 272 328 400
#     4  12  24  42  63  93 140 182 214 272 345 402
#     4  12  23  38  64  96 132 175 222 272 331 408
#     4  12  21  39  62  97 136 167 216 273 334 401
#     4  12  22  44  66  94 133 180 225 277 336 394
#
# _framework density 20.363899
#
# number of rings (size 3 to 8) (size 9 to 14) (size 15 to 20)
#    0.000    0.000    9.091    2.182    0.000    1.455 
#    0.000    0.000    0.000    1.091    4.727    0.000 
#    0.000    0.000    0.000    0.000    0.000    0.000 
#
# Total GULP energy -272727.957578 kJ/mol
# GULP energy per Si atom -12396.725344 kJ/mol
# Density = 2.031755 g / cm^3
# Si number density = 20.363899 Si / 1000 Ang^3
#
#
#
# Elastic Constant Matrix: (Units=GPa)
#
#
# Indices 1 2 3 4 5 6 
#
# 1 124.1196 40.1598 11.4409 0.0000 -23.2566 0.0000
# 2 40.1598 78.3263 29.0488 0.0000 -10.2230 0.0000
# 3 11.4409 29.0488 106.5106 0.0000 7.3618 0.0000
# 4 0.0000 0.0000 0.0000 26.4381 0.0000 -0.7222
# 5 -23.2566 -10.2230 7.3618 0.0000 35.8749 0.0000
# 6 0.0000 0.0000 0.0000 -0.7222 0.0000 37.9797
#
#
#
# Elastic Compliance Matrix: (Units=1/GPa)
#
#
# Indices 1 2 3 4 5 6 
#
# 1 0.010630 -0.004614 -0.000273 0.000000 0.005632 0.000000
# 2 -0.004614 0.017114 -0.004364 0.000000 0.002781 0.000000
# 3 -0.000273 -0.004364 0.010861 0.000000 -0.003649 0.000000
# 4 0.000000 0.000000 0.000000 0.037844 0.000000 0.000720
# 5 0.005632 0.002781 -0.003649 0.000000 0.033067 0.000000
# 6 0.000000 0.000000 0.000000 0.000720 0.000000 0.026344
#
#
# Mechanical properties :
#
#
# Convention : Reuss Voigt Hill
#
# Bulk Modulus (GPa) = 49.74391 52.25063 50.99727
# Shear Modulus (GPa) = 31.04377 35.27902 33.16139
#
# Velocity S-wave (km/s) = 3.90866 4.16676 4.03977
# Velocity P-wave (km/s) = 6.69706 6.99023 6.84522
#
# Compressibility (1/GPa) = 0.02010296
#
# Stress axis : x y z
#
# Youngs Moduli (GPa) = 94.07207 58.43015 92.07660
#
# Poissons Ratio (x) = 0.26960 0.02511
# Poissons Ratio (y) = 0.43406 0.40185
# Poissons Ratio (z) = 0.02566 0.25500
#
# Static dielectric constant tensor:
#      x y z
#    x 3.909230 0.000000 0.206310 
#    y 0.000000 3.573610 0.000000 
#    z 0.206310 0.000000 3.983980 
# 
# 
# High freq. dielectric constant tensor:
#      x y z
#    x 1.806340 0.000000 0.023410 
#    y 0.000000 1.759960 0.000000 
#    z 0.023410 0.000000 1.806290 
# 
# From -- ./inp_files/39293.got.cif
#   From: 2010.06.25/outbox.cif.g09.slc.cpg/sg15_20_cif.got.tgz:39293.got - 2010.06.28 07:06:18.
