data_PCOD8154965
_publ_section_title
;
Structure prediction by ZEFSAII (Michael W. Deem and Ramdas Pophale) SiO2 
 PCOD8154965
Probable space group: C 2/C
;
_chemical_formula_sum "Si O2"
_cell_formula_units_Z 32
_cell_length_a 21.031504
_cell_length_b 14.259805
_cell_length_c 8.871046
_cell_angle_alpha 90.000000
_cell_angle_beta 150.424529
_cell_angle_gamma 90.000000
_cell_volume 1313.128219
_symmetry_space_group_name_H-M "C 2/C"
_symmetry_group_IT_number 15
_symmetry_cell_setting 'monoclinic'
loop_
_space_group_symop_operation_xyz
x,y,z
-x,y,1/2-z
-x,-y,-z
x,-y,1/2+z
1/2+x,1/2+y,z
1/2-x,1/2+y,1/2-z
1/2-x,1/2-y,-z
1/2+x,1/2-y,1/2+z
loop_
_atom_site_type_symbol
_atom_site_label
_atom_site_fract_x
_atom_site_fract_y
_atom_site_fract_z
Si Si1 0.718274 0.846055 0.623165
Si Si2 0.187431 0.828861 0.234746
Si Si3 0.091764 0.464191 0.816871
Si Si4 0.416539 0.682969 0.291611
O O1 0.731082 0.781291 0.801752
O O2 0.617955 0.793849 0.300862
O O3 0.855749 0.856290 0.820792
O O4 0.663654 0.948290 0.547155
O O5 0.305368 0.890992 0.537026
O O6 0.143417 0.869014 0.979805
O O7 0.070075 0.833231 0.112056
O O8 0.000000 0.413589 0.750000
O O9 0.000000 0.500000 0.500000
#
# Coordination Sequence:
#
# PCOD8154965 Si02
#       4
#     8   8   8   8
#     4   9  18  38  64  89 126 167 208 270 325 384
#     4   9  18  37  64  91 127 167 213 269 324 388
#     4  12  25  40  65  96 132 172 219 270 328 391
#     4   8  16  35  69  86 124 166 211 268 329 375
#
# _framework density 24.369287
#
# number of rings (size 3 to 8) (size 9 to 14) (size 15 to 20)
#    1.500    1.000    0.000    3.000    0.000    1.000 
#    0.000    5.000    5.500    0.000    0.000    0.000 
#    0.000    0.000    0.000    0.000    0.000    0.000 
#
# Total GULP energy -198260.109254 kJ/mol
# GULP energy per Si atom -12391.256828 kJ/mol
# Density = 2.431382 g / cm^3
# Si number density = 24.369287 Si / 1000 Ang^3
#
#
#
# Elastic Constant Matrix: (Units=GPa)
#
#
# Indices 1 2 3 4 5 6 
#
# 1 122.6003 20.1272 51.6609 0.0000 66.6918 0.0000
# 2 20.1272 101.8380 52.9746 0.0000 21.5119 0.0000
# 3 51.6609 52.9746 114.4781 0.0000 43.3451 0.0000
# 4 0.0000 0.0000 0.0000 38.1825 0.0000 6.7518
# 5 66.6918 21.5119 43.3451 0.0000 43.9438 0.0000
# 6 0.0000 0.0000 0.0000 6.7518 0.0000 31.2272
#
#
#
# Elastic Compliance Matrix: (Units=1/GPa)
#
#
# Indices 1 2 3 4 5 6 
#
# 1 0.055263 0.004484 0.008896 0.000000 -0.094840 0.000000
# 2 0.004484 0.013309 -0.005010 0.000000 -0.008379 0.000000
# 3 0.008896 -0.005010 0.017912 0.000000 -0.028716 0.000000
# 4 0.000000 0.000000 0.000000 0.027231 0.000000 -0.005888
# 5 -0.094840 -0.008379 -0.028716 0.000000 0.199119 0.000000
# 6 0.000000 0.000000 0.000000 -0.005888 0.000000 0.033296
#
#
# Mechanical properties :
#
#
# Convention : Reuss Voigt Hill
#
# Bulk Modulus (GPa) = 9.68762 65.38241 37.53501
# Shear Modulus (GPa) = 13.74389 36.94761 25.34575
#
# Velocity S-wave (km/s) = 2.37741 3.89801 3.22851
# Velocity P-wave (km/s) = 3.39412 6.86639 5.41606
#
# Compressibility (1/GPa) = 0.10322455
#
# Stress axis : x y z
#
# Youngs Moduli (GPa) = 18.09536 75.13548 55.82816
#
# Poissons Ratio (x) = -0.33692 -0.49664
# Poissons Ratio (y) = -0.08114 0.27969
# Poissons Ratio (z) = -0.16097 0.37641
#
# Static dielectric constant tensor:
#      x y z
#    x 2.912770 0.000000 0.250050 
#    y 0.000000 4.067190 0.000000 
#    z 0.250050 0.000000 3.947510 
# 
# 
# High freq. dielectric constant tensor:
#      x y z
#    x 1.978190 0.000000 0.017060 
#    y 0.000000 1.930680 0.000000 
#    z 0.017060 0.000000 1.949360 
# 
# From -- ./inp_files/56886.got.cif
#   From: 2010.06.25/outbox.cif.g09.slc.cpg/sg15_29_cif.got.tgz:56886.got - 2010.06.28 07:06:18.
