data_PCOD8154182
_publ_section_title
;
Structure prediction by ZEFSAII (Michael W. Deem and Ramdas Pophale) SiO2 
 PCOD8154182
Probable space group: C 2/C
;
_chemical_formula_sum "Si O2"
_cell_formula_units_Z 56
_cell_length_a 29.323497
_cell_length_b 10.736948
_cell_length_c 8.875642
_cell_angle_alpha 90.000000
_cell_angle_beta 61.403974
_cell_angle_gamma 90.000000
_cell_volume 2453.572551
_symmetry_space_group_name_H-M "C 2/C"
_symmetry_group_IT_number 15
_symmetry_cell_setting 'monoclinic'
loop_
_space_group_symop_operation_xyz
x,y,z
-x,y,1/2-z
-x,-y,-z
x,-y,1/2+z
1/2+x,1/2+y,z
1/2-x,1/2+y,1/2-z
1/2-x,1/2-y,-z
1/2+x,1/2-y,1/2+z
loop_
_atom_site_type_symbol
_atom_site_label
_atom_site_fract_x
_atom_site_fract_y
_atom_site_fract_z
Si Si1 0.357254 0.068765 0.723443
Si Si2 0.428834 0.763147 0.273632
Si Si3 0.536877 0.007897 0.581442
Si Si4 0.198379 0.617902 0.980408
Si Si5 0.471793 0.389979 0.453640
Si Si6 0.811409 0.104806 0.897562
Si Si7 0.877527 0.957064 0.017888
O O1 0.372844 0.183496 0.806225
O O2 0.310487 0.097314 0.683662
O O3 0.407140 0.044913 0.540534
O O4 0.343608 0.951303 0.848829
O O5 0.455842 0.857917 0.346477
O O6 0.417819 0.634191 0.373717
O O7 0.467332 0.732109 0.069859
O O8 0.500000 0.925408 0.750000
O O9 0.500000 0.000000 0.500000
O O10 0.255053 0.562806 0.927085
O O11 0.193621 0.763513 0.014191
O O12 0.500000 0.359149 0.250000
O O13 0.500000 0.500000 0.500000
O O14 0.411783 0.426169 0.517309
O O15 0.851947 0.115596 0.697298
O O16 0.831204 0.002515 0.983790
#
# Coordination Sequence:
#
# PCOD8154182 Si02
#       7
#     8   8   8   8   8   8   8
#     4  12  24  47  71 104 140 184 239 298 355 425
#     4  12  26  44  75 104 148 185 241 294 364 427
#     4  12  25  45  70 103 141 188 232 290 353 427
#     4  11  25  46  71 104 137 190 238 298 358 427
#     4  12  25  44  71 107 147 193 238 293 357 429
#     4  11  25  46  72 101 143 184 241 295 362 426
#     4  12  24  47  70 106 142 187 234 302 357 427
#
# _framework density 22.82386
#
# number of rings (size 3 to 8) (size 9 to 14) (size 15 to 20)
#    0.000    0.286    5.714    2.571    2.000    0.571 
#    5.143    1.429    0.000    0.000    0.000    0.000 
#    0.000    0.000    0.000    0.000    0.000    0.000 
#
# Total GULP energy -347050.699424 kJ/mol
# GULP energy per Si atom -12394.667837 kJ/mol
# Density = 2.277191 g / cm^3
# Si number density = 22.823860 Si / 1000 Ang^3
#
#
#
# Elastic Constant Matrix: (Units=GPa)
#
#
# Indices 1 2 3 4 5 6 
#
# 1 150.1237 28.6894 19.0282 0.0000 25.5570 0.0000
# 2 28.6894 66.1148 15.1133 0.0000 14.0903 0.0000
# 3 19.0282 15.1133 103.5621 0.0000 9.9562 0.0000
# 4 0.0000 0.0000 0.0000 36.0166 0.0000 3.5207
# 5 25.5570 14.0903 9.9562 0.0000 48.7279 0.0000
# 6 0.0000 0.0000 0.0000 3.5207 0.0000 37.9691
#
#
#
# Elastic Compliance Matrix: (Units=1/GPa)
#
#
# Indices 1 2 3 4 5 6 
#
# 1 0.007784 -0.002523 -0.000754 0.000000 -0.003199 0.000000
# 2 -0.002523 0.017329 -0.001745 0.000000 -0.003331 0.000000
# 3 -0.000754 -0.001745 0.010162 0.000000 -0.001176 0.000000
# 4 0.000000 0.000000 0.000000 0.028019 0.000000 -0.002598
# 5 -0.003199 -0.003331 -0.001176 0.000000 0.023403 0.000000
# 6 0.000000 0.000000 0.000000 -0.002598 0.000000 0.026578
#
#
# Mechanical properties :
#
#
# Convention : Reuss Voigt Hill
#
# Bulk Modulus (GPa) = 39.63657 49.49584 44.56621
# Shear Modulus (GPa) = 37.95628 41.67404 39.81516
#
# Velocity S-wave (km/s) = 4.08242 4.27769 4.18120
# Velocity P-wave (km/s) = 6.29488 6.79200 6.54816
#
# Compressibility (1/GPa) = 0.02522922
#
# Stress axis : x y z
#
# Youngs Moduli (GPa) = 128.47614 57.70679 98.40212
#
# Poissons Ratio (x) = 0.14562 0.07423
# Poissons Ratio (y) = 0.32420 0.17172
# Poissons Ratio (z) = 0.09692 0.10070
#
# Static dielectric constant tensor:
#      x y z
#    x -1.569320 0.000000 -0.887410 
#    y 0.000000 3.968980 0.000000 
#    z -0.887410 0.000000 4.184260 
# 
# 
# High freq. dielectric constant tensor:
#      x y z
#    x 1.922060 0.000000 0.011310 
#    y 0.000000 1.889380 0.000000 
#    z 0.011310 0.000000 1.913790 
# 
# From -- ./inp_files/69313.got.cif
#   From: 2010.06.25/outbox.cif.g09.slc.cpg/sg15_35_cif.got.tgz:69313.got - 2010.06.28 07:06:18.
