data_PCOD8154419
_publ_section_title
;
Structure prediction by ZEFSAII (Michael W. Deem and Ramdas Pophale) SiO2 
 PCOD8154419
Probable space group: C 2/C
;
_chemical_formula_sum "Si O2"
_cell_formula_units_Z 32
_cell_length_a 17.313511
_cell_length_b 5.907287
_cell_length_c 21.037779
_cell_angle_alpha 90.000000
_cell_angle_beta 37.240269
_cell_angle_gamma 90.000000
_cell_volume 1302.094341
_symmetry_space_group_name_H-M "C 2/C"
_symmetry_group_IT_number 15
_symmetry_cell_setting 'monoclinic'
loop_
_space_group_symop_operation_xyz
x,y,z
-x,y,1/2-z
-x,-y,-z
x,-y,1/2+z
1/2+x,1/2+y,z
1/2-x,1/2+y,1/2-z
1/2-x,1/2-y,-z
1/2+x,1/2-y,1/2+z
loop_
_atom_site_type_symbol
_atom_site_label
_atom_site_fract_x
_atom_site_fract_y
_atom_site_fract_z
Si Si1 0.364481 0.324129 0.753097
Si Si2 0.398334 0.982777 0.621087
Si Si3 0.206577 0.555346 0.576723
Si Si4 0.047385 0.806664 0.112372
O O1 0.405223 0.200032 0.661846
O O2 0.237902 0.466787 0.822832
O O3 0.338116 0.150008 0.826821
O O4 0.481589 0.491030 0.696364
O O5 0.500000 0.000000 0.500000
O O6 0.436147 0.759926 0.636046
O O7 0.250000 0.750000 0.500000
O O8 0.087139 0.410058 0.628592
O O9 0.327289 0.390428 0.507671
#
# Coordination Sequence:
#
# PCOD8154419 Si02
#       4
#     8   8   8   8
#     4  12  26  47  77 113 154 207 261 326 401 469
#     4  12  27  46  74 112 154 204 261 320 393 482
#     4  11  27  49  76 113 154 207 266 328 391 479
#     4  11  26  49  77 107 158 204 263 327 392 464
#
# _framework density 24.575793999999998
#
# number of rings (size 3 to 8) (size 9 to 14) (size 15 to 20)
#    0.000    0.500    2.500    4.500    3.500   12.000 
#    0.000    0.000    0.000    0.000    0.000    0.000 
#    0.000    0.000    0.000    0.000    0.000    0.000 
#
# Total GULP energy -198453.060386 kJ/mol
# GULP energy per Si atom -12403.316274 kJ/mol
# Density = 2.451986 g / cm^3
# Si number density = 24.575794 Si / 1000 Ang^3
#
#
#
# Elastic Constant Matrix: (Units=GPa)
#
#
# Indices 1 2 3 4 5 6 
#
# 1 105.0087 55.8652 69.8571 0.0080 -6.1675 0.0226
# 2 55.8652 134.4268 68.4673 0.0344 10.0430 0.1133
# 3 69.8571 68.4673 163.2804 0.0141 8.2417 -0.0042
# 4 0.0080 0.0344 0.0141 56.3563 0.0077 -11.6914
# 5 -6.1675 10.0430 8.2417 0.0077 46.9791 -0.0058
# 6 0.0226 0.1133 -0.0042 -11.6914 -0.0058 49.0636
#
#
#
# Elastic Compliance Matrix: (Units=1/GPa)
#
#
# Indices 1 2 3 4 5 6 
#
# 1 0.015232 -0.004062 -0.005003 0.000002 0.003746 0.000003
# 2 -0.004062 0.010627 -0.002600 -0.000010 -0.002349 -0.000026
# 3 -0.005003 -0.002600 0.009443 0.000002 -0.001758 0.000009
# 4 0.000002 -0.000010 0.000002 0.018667 0.000000 0.004448
# 5 0.003746 -0.002349 -0.001758 0.000000 0.022588 0.000006
# 6 0.000003 -0.000026 0.000009 0.004448 0.000006 0.021442
#
#
# Mechanical properties :
#
#
# Convention : Reuss Voigt Hill
#
# Bulk Modulus (GPa) = 83.51537 87.89947 85.70742
# Shear Modulus (GPa) = 39.89827 44.38156 42.13992
#
# Velocity S-wave (km/s) = 4.03361 4.25420 4.14538
# Velocity P-wave (km/s) = 7.46659 7.74437 7.60675
#
# Compressibility (1/GPa) = 0.01197384
#
# Stress axis : x y z
#
# Youngs Moduli (GPa) = 65.65132 94.10318 105.89334
#
# Poissons Ratio (x) = 0.38225 0.52973
# Poissons Ratio (y) = 0.26668 0.27528
# Poissons Ratio (z) = 0.32842 0.24463
#
# Static dielectric constant tensor:
#      x y z
#    x 4.813790 -0.000970 -0.338860 
#    y -0.000970 4.720910 0.000230 
#    z -0.338860 0.000230 4.596250 
# 
# 
# High freq. dielectric constant tensor:
#      x y z
#    x 1.979020 -0.000010 -0.016580 
#    y -0.000010 1.989530 0.000010 
#    z -0.016580 0.000010 1.996620 
# 
# From -- ./inp_files/278762.got.cif
#   From: 2010.06.25/outbox.cif.g09.slc.cpg/sg15_140_cif.got.tgz:278762.got - 2010.06.28 07:06:18.
