data_PCOD8154297
_publ_section_title
;
Structure prediction by ZEFSAII (Michael W. Deem and Ramdas Pophale) SiO2 
 PCOD8154297
Probable space group: C 2/C
;
_chemical_formula_sum "Si O2"
_cell_formula_units_Z 32
_cell_length_a 18.900136
_cell_length_b 8.411099
_cell_length_c 10.395805
_cell_angle_alpha 90.000000
_cell_angle_beta 54.534970
_cell_angle_gamma 90.000000
_cell_volume 1346.017731
_symmetry_space_group_name_H-M "C 2/C"
_symmetry_group_IT_number 15
_symmetry_cell_setting 'monoclinic'
loop_
_space_group_symop_operation_xyz
x,y,z
-x,y,1/2-z
-x,-y,-z
x,-y,1/2+z
1/2+x,1/2+y,z
1/2-x,1/2+y,1/2-z
1/2-x,1/2-y,-z
1/2+x,1/2-y,1/2+z
loop_
_atom_site_type_symbol
_atom_site_label
_atom_site_fract_x
_atom_site_fract_y
_atom_site_fract_z
Si Si1 0.801310 0.314846 0.823054
Si Si2 0.007923 0.374469 0.878357
Si Si3 0.052872 0.954528 0.068817
Si Si4 0.266906 0.357452 0.105959
O O1 0.903005 0.269643 0.711612
O O2 0.805929 0.506448 0.817100
O O3 0.755190 0.250867 0.743471
O O4 0.750000 0.250000 0.000000
O O5 0.000000 0.467728 0.750000
O O6 0.932907 0.238030 0.957544
O O7 0.000000 0.500000 0.000000
O O8 0.000000 0.004645 0.250000
O O9 0.143028 0.046706 0.986841
O O10 0.000000 0.000000 0.000000
O O11 0.250000 0.250000 0.000000
#
# Coordination Sequence:
#
# PCOD8154297 Si02
#       4
#     8   8   8   8
#     4  12  27  49  74 110 155 200 259 318 395 472
#     4  11  27  47  75 110 151 197 255 324 383 469
#     4  11  25  49  76 108 151 202 255 314 391 465
#     4  12  29  48  79 112 152 205 258 324 394 473
#
# _framework density 23.773831000000001
#
# number of rings (size 3 to 8) (size 9 to 14) (size 15 to 20)
#    0.000    0.500    2.500    4.500   14.000    1.000 
#    0.000    0.000    0.000    0.000    0.000    0.000 
#    0.000    0.000    0.000    0.000    0.000    0.000 
#
# Total GULP energy -198339.984746 kJ/mol
# GULP energy per Si atom -12396.249047 kJ/mol
# Density = 2.371972 g / cm^3
# Si number density = 23.773831 Si / 1000 Ang^3
#
#
#
# Elastic Constant Matrix: (Units=GPa)
#
#
# Indices 1 2 3 4 5 6 
#
# 1 126.3312 50.9949 65.8150 0.0000 29.7523 0.0000
# 2 50.9949 160.2803 71.3542 0.0000 26.7144 0.0000
# 3 65.8150 71.3542 162.1395 0.0000 45.4875 0.0000
# 4 0.0000 0.0000 0.0000 44.6335 0.0000 12.8236
# 5 29.7523 26.7144 45.4875 0.0000 62.8978 0.0000
# 6 0.0000 0.0000 0.0000 12.8236 0.0000 54.1012
#
#
#
# Elastic Compliance Matrix: (Units=1/GPa)
#
#
# Indices 1 2 3 4 5 6 
#
# 1 0.010663 -0.001710 -0.002966 0.000000 -0.002172 0.000000
# 2 -0.001710 0.008088 -0.002670 0.000000 -0.000695 0.000000
# 3 -0.002966 -0.002670 0.009829 0.000000 -0.004571 0.000000
# 4 0.000000 0.000000 0.000000 0.024042 0.000000 -0.005699
# 5 -0.002172 -0.000695 -0.004571 0.000000 0.020527 0.000000
# 6 0.000000 0.000000 0.000000 -0.005699 0.000000 0.019835
#
#
# Mechanical properties :
#
#
# Convention : Reuss Voigt Hill
#
# Bulk Modulus (GPa) = 72.00964 91.67547 81.84255
# Shear Modulus (GPa) = 44.52150 49.69896 47.11023
#
# Velocity S-wave (km/s) = 4.33218 4.57715 4.45635
# Velocity P-wave (km/s) = 7.44170 8.15959 7.80890
#
# Compressibility (1/GPa) = 0.01388703
#
# Stress axis : x y z
#
# Youngs Moduli (GPa) = 93.78323 123.64536 101.73912
#
# Poissons Ratio (x) = 0.21142 0.30179
# Poissons Ratio (y) = 0.16036 0.27165
# Poissons Ratio (z) = 0.27819 0.33014
#
# Static dielectric constant tensor:
#      x y z
#    x 4.690240 0.000000 0.025060 
#    y 0.000000 4.248680 0.000000 
#    z 0.025060 0.000000 4.555840 
# 
# 
# High freq. dielectric constant tensor:
#      x y z
#    x 1.965810 0.000000 0.011950 
#    y 0.000000 1.943900 0.000000 
#    z 0.011950 0.000000 1.951510 
# 
# From -- ./inp_files/109285.got.cif
#   From: 2010.06.25/outbox.cif.g09.slc.cpg/sg15_55_cif.got.tgz:109285.got - 2010.06.28 07:06:18.
