data_PCOD8154394
_publ_section_title
;
Structure prediction by ZEFSAII (Michael W. Deem and Ramdas Pophale) SiO2 
 PCOD8154394
Probable space group: C 2/C
;
_chemical_formula_sum "Si O2"
_cell_formula_units_Z 52
_cell_length_a 8.203437
_cell_length_b 20.264965
_cell_length_c 14.337828
_cell_angle_alpha 90.000000
_cell_angle_beta 93.985778
_cell_angle_gamma 90.000000
_cell_volume 2377.789396
_symmetry_space_group_name_H-M "C 2/C"
_symmetry_group_IT_number 15
_symmetry_cell_setting 'monoclinic'
loop_
_space_group_symop_operation_xyz
x,y,z
-x,y,1/2-z
-x,-y,-z
x,-y,1/2+z
1/2+x,1/2+y,z
1/2-x,1/2+y,1/2-z
1/2-x,1/2-y,-z
1/2+x,1/2-y,1/2+z
loop_
_atom_site_type_symbol
_atom_site_label
_atom_site_fract_x
_atom_site_fract_y
_atom_site_fract_z
Si Si1 0.000000 0.382795 0.250000
Si Si2 0.323247 0.377744 0.778934
Si Si3 0.183101 0.505660 0.829707
Si Si4 0.600015 0.906981 0.617378
Si Si5 0.064258 0.677173 0.552676
Si Si6 0.895300 0.824402 0.974650
Si Si7 0.369577 0.556580 0.003902
O O1 0.848639 0.434642 0.243813
O O2 0.987542 0.339051 0.343035
O O3 0.500000 0.355570 0.750000
O O4 0.323647 0.456963 0.798221
O O5 0.170728 0.359855 0.704048
O O6 0.295415 0.340545 0.875549
O O7 0.023425 0.460621 0.846200
O O8 0.231723 0.545687 0.922426
O O9 0.530252 0.867356 0.526668
O O10 0.768333 0.945009 0.596060
O O11 0.020817 0.752938 0.529022
O O12 0.260382 0.669574 0.550936
O O13 0.042388 0.873327 0.003209
O O14 0.500000 0.500000 0.000000
#
# Coordination Sequence:
#
# PCOD8154394 Si02
#       7
#     4   8   8   8   8   8   8
#     4  12  26  42  72 102 132 180 228 292 338 416
#     4  12  23  42  70 106 135 178 233 295 346 413
#     4  12  24  40  69 108 136 179 231 292 356 409
#     4  12  23  42  73  99 141 185 234 283 353 426
#     4  11  27  48  70  98 142 190 237 280 347 427
#     4  11  26  48  69 100 143 188 228 292 349 408
#     4  12  23  40  69 102 138 178 226 295 348 405
#
# _framework density 21.869052
#
# number of rings (size 3 to 8) (size 9 to 14) (size 15 to 20)
#    0.000    0.308    7.692    0.462    3.231    1.846 
#    2.769    0.000    0.000    0.000    0.000    0.000 
#    0.000    0.000    0.000    0.000    0.000    0.000 
#
# Total GULP energy -322163.172013 kJ/mol
# GULP energy per Si atom -12390.891231 kJ/mol
# Density = 2.181928 g / cm^3
# Si number density = 21.869052 Si / 1000 Ang^3
#
#
#
# Elastic Constant Matrix: (Units=GPa)
#
#
# Indices 1 2 3 4 5 6 
#
# 1 91.8101 41.4107 29.3095 0.0000 -2.1977 0.0000
# 2 41.4107 112.8683 36.6059 0.0000 -6.6623 0.0000
# 3 29.3095 36.6059 97.9497 0.0000 0.5409 0.0000
# 4 0.0000 0.0000 0.0000 27.6511 0.0000 3.9325
# 5 -2.1977 -6.6623 0.5409 0.0000 34.1896 0.0000
# 6 0.0000 0.0000 0.0000 3.9325 0.0000 31.2017
#
#
#
# Elastic Compliance Matrix: (Units=1/GPa)
#
#
# Indices 1 2 3 4 5 6 
#
# 1 0.013571 -0.004160 -0.002507 0.000000 0.000101 0.000000
# 2 -0.004160 0.011499 -0.003064 0.000000 0.002022 0.000000
# 3 -0.002507 -0.003064 0.012110 0.000000 -0.000950 0.000000
# 4 0.000000 0.000000 0.000000 0.036825 0.000000 -0.004641
# 5 0.000101 0.002022 -0.000950 0.000000 0.029664 0.000000
# 6 0.000000 0.000000 0.000000 -0.004641 0.000000 0.032635
#
#
# Mechanical properties :
#
#
# Convention : Reuss Voigt Hill
#
# Bulk Modulus (GPa) = 56.43785 57.47560 56.95672
# Shear Modulus (GPa) = 30.92691 31.62860 31.27776
#
# Velocity S-wave (km/s) = 3.76465 3.80711 3.78594
# Velocity P-wave (km/s) = 6.69029 6.75753 6.72399
#
# Compressibility (1/GPa) = 0.01771861
#
# Stress axis : x y z
#
# Youngs Moduli (GPa) = 73.68563 86.96212 82.57873
#
# Poissons Ratio (x) = 0.36178 0.20700
# Poissons Ratio (y) = 0.30655 0.25301
# Poissons Ratio (z) = 0.18471 0.26644
#
# Static dielectric constant tensor:
#      x y z
#    x 4.438520 0.000000 0.516350 
#    y 0.000000 3.953390 0.000000 
#    z 0.516350 0.000000 4.794620 
# 
# 
# High freq. dielectric constant tensor:
#      x y z
#    x 1.863890 0.000000 0.000870 
#    y 0.000000 1.845460 0.000000 
#    z 0.000870 0.000000 1.874840 
# 
# From -- ./inp_files/136147.got.cif
#   From: 2010.06.25/outbox.cif.g09.slc.cpg/sg15_69_cif.got.tgz:136147.got - 2010.06.28 07:06:18.
