data_PCOD8154556
_publ_section_title
;
Structure prediction by ZEFSAII (Michael W. Deem and Ramdas Pophale) SiO2 
 PCOD8154556
Probable space group: C 2/C
;
_chemical_formula_sum "Si O2"
_cell_formula_units_Z 44
_cell_length_a 12.128331
_cell_length_b 15.193267
_cell_length_c 11.627972
_cell_angle_alpha 90.000000
_cell_angle_beta 94.493582
_cell_angle_gamma 90.000000
_cell_volume 2136.088104
_symmetry_space_group_name_H-M "C 2/C"
_symmetry_group_IT_number 15
_symmetry_cell_setting 'monoclinic'
loop_
_space_group_symop_operation_xyz
x,y,z
-x,y,1/2-z
-x,-y,-z
x,-y,1/2+z
1/2+x,1/2+y,z
1/2-x,1/2+y,1/2-z
1/2-x,1/2-y,-z
1/2+x,1/2-y,1/2+z
loop_
_atom_site_type_symbol
_atom_site_label
_atom_site_fract_x
_atom_site_fract_y
_atom_site_fract_z
Si Si1 0.822265 0.337246 0.022934
Si Si2 0.436193 0.203491 0.946323
Si Si3 0.777281 0.611609 0.770210
Si Si4 0.622567 0.234045 0.308310
Si Si5 0.500000 0.665819 0.250000
Si Si6 0.269499 0.586505 0.196393
O O1 0.834053 0.362390 0.155859
O O2 0.947810 0.327410 0.991140
O O3 0.750000 0.250000 0.000000
O O4 0.769854 0.412849 0.939527
O O5 0.365821 0.126518 0.879220
O O6 0.457140 0.279334 0.855263
O O7 0.369076 0.235041 0.052695
O O8 0.667788 0.670732 0.774370
O O9 0.746132 0.510291 0.755914
O O10 0.500000 0.221166 0.250000
O O11 0.701926 0.157466 0.265994
O O12 0.399286 0.605296 0.203512
#
# Coordination Sequence:
#
# PCOD8154556 Si02
#       6
#     8   8   8   8   4   8
#     4  12  21  47  72  98 140 188 228 278 344 414
#     4  12  22  44  74  95 139 186 228 281 343 407
#     4  12  27  43  70 105 137 181 234 279 345 412
#     4  12  25  45  68 102 140 176 227 292 340 399
#     4  12  24  48  72  96 136 190 228 278 344 414
#     4  12  28  45  69 105 138 179 230 285 347 407
#
# _framework density 20.598402
#
# number of rings (size 3 to 8) (size 9 to 14) (size 15 to 20)
#    0.000    0.000    9.091    0.545    3.818    2.182 
#    0.000    1.818    0.000    0.000    0.000    0.000 
#    0.000    0.000    0.000    0.000    0.000    0.000 
#
# Total GULP energy -272807.548721 kJ/mol
# GULP energy per Si atom -12400.343124 kJ/mol
# Density = 2.055152 g / cm^3
# Si number density = 20.598402 Si / 1000 Ang^3
#
#
#
# Elastic Constant Matrix: (Units=GPa)
#
#
# Indices 1 2 3 4 5 6 
#
# 1 113.0666 33.7165 22.3325 0.0000 15.6563 0.0000
# 2 33.7165 117.2973 19.5537 0.0000 0.0879 0.0000
# 3 22.3325 19.5537 115.4895 0.0000 -8.2338 0.0000
# 4 0.0000 0.0000 0.0000 24.5941 0.0000 -0.1562
# 5 15.6563 0.0879 -8.2338 0.0000 39.9372 0.0000
# 6 0.0000 0.0000 0.0000 -0.1562 0.0000 11.9438
#
#
#
# Elastic Compliance Matrix: (Units=1/GPa)
#
#
# Indices 1 2 3 4 5 6 
#
# 1 0.010677 -0.002745 -0.001926 0.000000 -0.004577 0.000000
# 2 -0.002745 0.009483 -0.001015 0.000000 0.000846 0.000000
# 3 -0.001926 -0.001015 0.009395 0.000000 0.002694 0.000000
# 4 0.000000 0.000000 0.000000 0.040663 0.000000 0.000532
# 5 -0.004577 0.000846 0.002694 0.000000 0.027387 0.000000
# 6 0.000000 0.000000 0.000000 0.000532 0.000000 0.083732
#
#
# Mechanical properties :
#
#
# Convention : Reuss Voigt Hill
#
# Bulk Modulus (GPa) = 54.99253 55.22877 55.11065
# Shear Modulus (GPa) = 25.15475 33.31174 29.23324
#
# Velocity S-wave (km/s) = 3.49836 4.02581 3.77131
# Velocity P-wave (km/s) = 6.56304 6.96275 6.76584
#
# Compressibility (1/GPa) = 0.01818429
#
# Stress axis : x y z
#
# Youngs Moduli (GPa) = 93.65964 105.45487 106.43796
#
# Poissons Ratio (x) = 0.28942 0.20503
# Poissons Ratio (y) = 0.25705 0.10798
# Poissons Ratio (z) = 0.18041 0.10699
#
# Static dielectric constant tensor:
#      x y z
#    x 4.306760 0.000000 0.017180 
#    y 0.000000 3.550970 0.000000 
#    z 0.017180 0.000000 4.117000 
# 
# 
# High freq. dielectric constant tensor:
#      x y z
#    x 1.826380 0.000000 0.003690 
#    y 0.000000 1.781550 0.000000 
#    z 0.003690 0.000000 1.829390 
# 
# From -- ./inp_files/86052.got.cif
#   From: 2010.06.25/outbox.cif.g09.slc.cpg/sg15_44_cif.got.tgz:86052.got - 2010.06.28 07:06:18.
