data_PCOD8154714
_publ_section_title
;
Structure prediction by ZEFSAII (Michael W. Deem and Ramdas Pophale) SiO2 
 PCOD8154714
Probable space group: C 2/C
;
_chemical_formula_sum "Si O2"
_cell_formula_units_Z 40
_cell_length_a 11.560830
_cell_length_b 29.628715
_cell_length_c 8.751854
_cell_angle_alpha 90.000000
_cell_angle_beta 143.334964
_cell_angle_gamma 90.000000
_cell_volume 1790.090458
_symmetry_space_group_name_H-M "C 2/C"
_symmetry_group_IT_number 15
_symmetry_cell_setting 'monoclinic'
loop_
_space_group_symop_operation_xyz
x,y,z
-x,y,1/2-z
-x,-y,-z
x,-y,1/2+z
1/2+x,1/2+y,z
1/2-x,1/2+y,1/2-z
1/2-x,1/2-y,-z
1/2+x,1/2-y,1/2+z
loop_
_atom_site_type_symbol
_atom_site_label
_atom_site_fract_x
_atom_site_fract_y
_atom_site_fract_z
Si Si1 0.000000 0.914169 0.750000
Si Si2 0.323082 0.955972 0.278994
Si Si3 0.500000 0.276664 0.250000
Si Si4 0.880704 0.689948 0.258803
Si Si5 0.667684 0.108479 0.113865
Si Si6 0.222558 0.044734 0.015834
O O1 0.169724 0.886362 0.845098
O O2 0.892514 0.943703 0.508082
O O3 0.487930 0.923940 0.377118
O O4 0.332169 0.950348 0.471055
O O5 0.343802 0.008122 0.247399
O O6 0.658115 0.311247 0.474998
O O7 0.439998 0.243406 0.329604
O O8 0.910254 0.659832 0.441839
O O9 0.000000 0.665594 0.250000
O O10 0.766592 0.090853 0.375880
O O11 0.000000 0.030436 0.750000
#
# Coordination Sequence:
#
# PCOD8154714 Si02
#       6
#     4   8   4   8   8   8
#     4  12  26  46  59  90 130 178 220 271 318 372
#     4  12  25  45  64  90 130 174 225 271 324 374
#     4   8  18  36  67 100 134 160 190 271 324 386
#     4   9  18  37  62 101 129 158 203 256 325 384
#     4  12  26  40  67  95 130 170 220 269 318 389
#     4  12  23  43  66  93 127 176 219 272 326 379
#
# _framework density 22.345238999999999
#
# number of rings (size 3 to 8) (size 9 to 14) (size 15 to 20)
#    0.600    0.400    3.000    4.800    1.400    3.200 
#    0.000    0.000    0.000    1.200    0.000    0.000 
#    0.000    0.000    0.000    0.000    0.000    0.000 
#
# Total GULP energy -247801.797733 kJ/mol
# GULP energy per Si atom -12390.089887 kJ/mol
# Density = 2.229438 g / cm^3
# Si number density = 22.345239 Si / 1000 Ang^3
#
#
#
# Elastic Constant Matrix: (Units=GPa)
#
#
# Indices 1 2 3 4 5 6 
#
# 1 127.6358 18.2371 28.5522 0.0000 4.2282 0.0000
# 2 18.2371 75.6321 18.4891 0.0000 0.2763 0.0000
# 3 28.5522 18.4891 87.8952 0.0000 4.0114 0.0000
# 4 0.0000 0.0000 0.0000 -275.7991 0.0000 -464.7680
# 5 4.2282 0.2763 4.0114 0.0000 45.9330 0.0000
# 6 0.0000 0.0000 0.0000 -464.7680 0.0000 -705.3307
#
#
#
# Elastic Compliance Matrix: (Units=1/GPa)
#
#
# Indices 1 2 3 4 5 6 
#
# 1 0.008615 -0.001473 -0.002463 0.000000 -0.000569 0.000000
# 2 -0.001473 0.014192 -0.002519 0.000000 0.000270 0.000000
# 3 -0.002463 -0.002519 0.012747 0.000000 -0.000871 0.000000
# 4 0.000000 0.000000 0.000000 0.032837 0.000000 -0.021638
# 5 -0.000569 0.000270 -0.000871 0.000000 0.021898 0.000000
# 6 0.000000 0.000000 0.000000 -0.021638 0.000000 0.012840
#
#
# Mechanical properties :
#
#
# Convention : Reuss Voigt Hill
#
# Bulk Modulus (GPa) = 44.16209 46.85776 45.50993
# Shear Modulus (GPa) = 40.45745 -171.98039 -65.76147
#
# Velocity S-wave (km/s) = 4.25969 -8.78249 -5.43080
# Velocity P-wave (km/s) = 6.63323 9.04586 4.34901
#
# Compressibility (1/GPa) = 0.02264385
#
# Stress axis : x y z
#
# Youngs Moduli (GPa) = 116.07604 70.46241 78.45088
#
# Poissons Ratio (x) = 0.10381 0.19320
# Poissons Ratio (y) = 0.17101 0.19762
# Poissons Ratio (z) = 0.28586 0.17750
#
# Static dielectric constant tensor:
#      x y z
#    x 3.978740 0.000000 0.211130 
#    y 0.000000 3.565910 0.000000 
#    z 0.211130 0.000000 4.064290 
# 
# 
# High freq. dielectric constant tensor:
#      x y z
#    x 1.882990 0.000000 0.028180 
#    y 0.000000 1.848560 0.000000 
#    z 0.028180 0.000000 1.887040 
# 
# From -- ./inp_files/35476.got.cif
#   From: 2010.06.25/outbox.cif.g09.slc.cpg/sg15_18_cif.got.tgz:35476.got - 2010.06.28 07:06:18.
