data_PCOD8154591
_publ_section_title
;
Structure prediction by ZEFSAII (Michael W. Deem and Ramdas Pophale) SiO2 
 PCOD8154591
Probable space group: C 2/C
;
_chemical_formula_sum "Si O2"
_cell_formula_units_Z 48
_cell_length_a 20.164071
_cell_length_b 17.606517
_cell_length_c 17.433396
_cell_angle_alpha 90.000000
_cell_angle_beta 20.789805
_cell_angle_gamma 90.000000
_cell_volume 2196.794153
_symmetry_space_group_name_H-M "C 2/C"
_symmetry_group_IT_number 15
_symmetry_cell_setting 'monoclinic'
loop_
_space_group_symop_operation_xyz
x,y,z
-x,y,1/2-z
-x,-y,-z
x,-y,1/2+z
1/2+x,1/2+y,z
1/2-x,1/2+y,1/2-z
1/2-x,1/2-y,-z
1/2+x,1/2-y,1/2+z
loop_
_atom_site_type_symbol
_atom_site_label
_atom_site_fract_x
_atom_site_fract_y
_atom_site_fract_z
Si Si1 0.210088 0.838678 0.391854
Si Si2 0.276546 0.850596 0.783732
Si Si3 0.430384 0.915836 0.459842
Si Si4 0.859138 0.823323 0.204530
Si Si5 0.039305 0.416620 0.618414
Si Si6 0.689846 0.301370 0.636521
O O1 0.173065 0.860125 0.344184
O O2 0.310823 0.755637 0.288908
O O3 0.016899 0.836562 0.649028
O O4 0.345849 0.901471 0.282691
O O5 0.346097 0.892104 0.632237
O O6 0.363428 0.766982 0.693529
O O7 0.349962 0.895831 0.778317
O O8 0.053827 0.851645 0.028527
O O9 0.338334 0.867856 0.490129
O O10 0.384858 0.003196 0.494385
O O11 0.696065 0.852485 0.436208
O O12 0.000000 0.422070 0.750000
O O13 0.750000 0.250000 0.500000
#
# Coordination Sequence:
#
# PCOD8154591 Si02
#       6
#     8   8   8   8   8   8
#     4  12  22  40  70 105 144 194 246 296 349 440
#     4  12  23  48  80 107 135 193 251 311 361 446
#     4  12  26  46  73 109 153 192 245 300 375 450
#     4  12  23  47  81 107 137 188 264 303 360 443
#     4  12  31  49  69 110 154 192 240 317 383 430
#     4  12  25  40  68 113 151 197 241 294 364 435
#
# _framework density 21.850021999999999
#
# number of rings (size 3 to 8) (size 9 to 14) (size 15 to 20)
#    0.000    0.000    8.333    1.000    2.333    3.333 
#    0.000    0.000    0.000    0.000    0.000    0.000 
#    0.000    0.000    0.000    0.000    0.000    0.000 
#
# Total GULP energy -297734.498142 kJ/mol
# GULP energy per Si atom -12405.604089 kJ/mol
# Density = 2.180029 g / cm^3
# Si number density = 21.850022 Si / 1000 Ang^3
#
#
#
# Elastic Constant Matrix: (Units=GPa)
#
#
# Indices 1 2 3 4 5 6 
#
# 1 105.6155 54.4146 47.7169 -0.0651 -6.5326 0.0105
# 2 54.4146 89.7522 23.8827 -0.0545 20.1132 0.0122
# 3 47.7169 23.8827 116.7944 -0.1033 -12.5411 0.0367
# 4 -0.0651 -0.0545 -0.1033 26.8181 0.0286 0.5663
# 5 -6.5326 20.1132 -12.5411 0.0286 33.7491 -0.0062
# 6 0.0105 0.0122 0.0367 0.5663 -0.0062 33.7873
#
#
#
# Elastic Compliance Matrix: (Units=1/GPa)
#
#
# Indices 1 2 3 4 5 6 
#
# 1 0.017900 -0.011841 -0.003918 -0.000005 0.009066 0.000005
# 2 -0.011841 0.022327 -0.001461 0.000028 -0.016141 -0.000006
# 3 -0.003918 -0.001461 0.010909 0.000025 0.004166 -0.000010
# 4 -0.000005 0.000028 0.000025 0.037302 -0.000040 -0.000625
# 5 0.009066 -0.016141 0.004166 -0.000040 0.042553 0.000007
# 6 0.000005 -0.000006 -0.000010 -0.000625 0.000007 0.029607
#
#
# Mechanical properties :
#
#
# Convention : Reuss Voigt Hill
#
# Bulk Modulus (GPa) = 59.89864 62.68784 61.29324
# Shear Modulus (GPa) = 24.92472 31.28074 28.10273
#
# Velocity S-wave (km/s) = 3.38112 3.78777 3.59020
# Velocity P-wave (km/s) = 6.53572 6.91968 6.73044
#
# Compressibility (1/GPa) = 0.01669487
#
# Stress axis : x y z
#
# Youngs Moduli (GPa) = 55.86518 44.78916 91.66776
#
# Poissons Ratio (x) = 0.53037 0.35919
# Poissons Ratio (y) = 0.66153 0.13390
# Poissons Ratio (z) = 0.21890 0.06543
#
# Static dielectric constant tensor:
#      x y z
#    x 4.191090 -0.000050 -0.313150 
#    y -0.000050 3.874860 0.000130 
#    z -0.313150 0.000130 3.978880 
# 
# 
# High freq. dielectric constant tensor:
#      x y z
#    x 1.868980 0.000000 -0.017940 
#    y 0.000000 1.843490 0.000010 
#    z -0.017940 0.000010 1.861660 
# 
# From -- ./inp_files/216259.got.cif
#   From: 2010.06.25/outbox.cif.g09.slc.cpg/sg15_109_cif.got.tgz:216259.got - 2010.06.28 07:06:18.
