data_PCOD8154639
_publ_section_title
;
Structure prediction by ZEFSAII (Michael W. Deem and Ramdas Pophale) SiO2 
 PCOD8154639
Probable space group: C 2/C
;
_chemical_formula_sum "Si O2"
_cell_formula_units_Z 48
_cell_length_a 9.580635
_cell_length_b 24.226712
_cell_length_c 16.610023
_cell_angle_alpha 90.000000
_cell_angle_beta 33.589147
_cell_angle_gamma 90.000000
_cell_volume 2132.886203
_symmetry_space_group_name_H-M "C 2/C"
_symmetry_group_IT_number 15
_symmetry_cell_setting 'monoclinic'
loop_
_space_group_symop_operation_xyz
x,y,z
-x,y,1/2-z
-x,-y,-z
x,-y,1/2+z
1/2+x,1/2+y,z
1/2-x,1/2+y,1/2-z
1/2-x,1/2-y,-z
1/2+x,1/2-y,1/2+z
loop_
_atom_site_type_symbol
_atom_site_label
_atom_site_fract_x
_atom_site_fract_y
_atom_site_fract_z
Si Si1 0.243668 0.724191 0.837388
Si Si2 0.446672 0.892994 0.044818
Si Si3 0.768835 0.785213 0.137923
Si Si4 0.000000 0.504186 0.750000
Si Si5 0.267966 0.602091 0.550991
Si Si6 0.000000 0.022911 0.750000
Si Si7 0.723735 0.562315 0.251999
O O1 0.500000 0.750508 0.750000
O O2 0.196260 0.664483 0.900063
O O3 0.312886 0.719833 0.710870
O O4 0.996003 0.760135 0.975817
O O5 0.565860 0.892809 0.076134
O O6 0.252870 0.942175 0.122548
O O7 0.661131 0.901758 0.875410
O O8 0.500000 0.754740 0.250000
O O9 0.735448 0.848912 0.129830
O O10 0.231875 0.544256 0.615219
O O11 0.063872 0.465283 0.794730
O O12 0.555761 0.605167 0.382996
O O13 0.028296 0.984166 0.814375
#
# Coordination Sequence:
#
# PCOD8154639 Si02
#       7
#     8   8   8   4   8   4   8
#     4  12  28  51  76 108 147 189 243 310 374 435
#     4  12  24  44  74 103 141 192 241 295 360 428
#     4  12  27  49  79 107 140 193 244 306 369 436
#     4  12  24  44  66 106 150 192 234 298 358 420
#     4  12  24  46  70 104 146 183 245 296 359 426
#     4  12  22  44  70 100 144 192 240 282 358 422
#     4  12  26  41  72 108 144 193 241 291 352 437
#
# _framework density 22.504715999999998
#
# number of rings (size 3 to 8) (size 9 to 14) (size 15 to 20)
#    0.000    0.000    6.667    3.000    2.333    1.333 
#    1.500    0.000    0.000    0.000    0.000    0.000 
#    0.000    0.000    0.000    0.000    0.000    0.000 
#
# Total GULP energy -297630.920248 kJ/mol
# GULP energy per Si atom -12401.288344 kJ/mol
# Density = 2.245349 g / cm^3
# Si number density = 22.504716 Si / 1000 Ang^3
#
#
#
# Elastic Constant Matrix: (Units=GPa)
#
#
# Indices 1 2 3 4 5 6 
#
# 1 127.7243 27.4294 35.6088 -0.0018 9.0148 -0.0025
# 2 27.4294 61.3094 25.8110 -0.0029 2.7648 -0.0012
# 3 35.6088 25.8110 145.2003 0.0090 3.2158 0.0353
# 4 -0.0018 -0.0029 0.0090 23.2965 -0.0054 -1.1684
# 5 9.0148 2.7648 3.2158 -0.0054 42.4668 -0.0063
# 6 -0.0025 -0.0012 0.0353 -1.1684 -0.0063 27.3262
#
#
#
# Elastic Compliance Matrix: (Units=1/GPa)
#
#
# Indices 1 2 3 4 5 6 
#
# 1 0.009104 -0.003325 -0.001606 0.000001 -0.001594 0.000002
# 2 -0.003325 0.018880 -0.002533 0.000003 -0.000332 0.000004
# 3 -0.001606 -0.002533 0.007733 -0.000004 -0.000080 -0.000010
# 4 0.000001 0.000003 -0.000004 0.043017 0.000006 0.001839
# 5 -0.001594 -0.000332 -0.000080 0.000006 0.023914 0.000006
# 6 0.000002 0.000004 -0.000010 0.001839 0.000006 0.036674
#
#
# Mechanical properties :
#
#
# Convention : Reuss Voigt Hill
#
# Bulk Modulus (GPa) = 48.10556 56.88137 52.49347
# Shear Modulus (GPa) = 31.02137 34.97689 32.99913
#
# Velocity S-wave (km/s) = 3.71676 3.94661 3.83341
# Velocity P-wave (km/s) = 6.31199 6.78954 6.55512
#
# Compressibility (1/GPa) = 0.02078762
#
# Stress axis : x y z
#
# Youngs Moduli (GPa) = 109.84499 52.96697 129.31504
#
# Poissons Ratio (x) = 0.17611 0.20771
# Poissons Ratio (y) = 0.36521 0.32760
# Poissons Ratio (z) = 0.17644 0.13418
#
# Static dielectric constant tensor:
#      x y z
#    x 4.080190 -0.000020 -0.056560 
#    y -0.000020 4.008640 0.000020 
#    z -0.056560 0.000020 4.238170 
# 
# 
# High freq. dielectric constant tensor:
#      x y z
#    x 1.891120 0.000000 0.000310 
#    y 0.000000 1.876690 0.000000 
#    z 0.000310 0.000000 1.908590 
# 
# From -- ./inp_files/138959.got.cif
#   From: 2010.06.25/outbox.cif.g09.slc.cpg/sg15_70_cif.got.tgz:138959.got - 2010.06.28 07:06:18.
