data_PCOD8154294
_publ_section_title
;
Structure prediction by ZEFSAII (Michael W. Deem and Ramdas Pophale) SiO2 
 PCOD8154294
Probable space group: C 2/C
;
_chemical_formula_sum "Si O2"
_cell_formula_units_Z 24
_cell_length_a 7.119365
_cell_length_b 13.366341
_cell_length_c 13.278984
_cell_angle_alpha 90.000000
_cell_angle_beta 133.094641
_cell_angle_gamma 90.000000
_cell_volume 922.732980
_symmetry_space_group_name_H-M "C 2/C"
_symmetry_group_IT_number 15
_symmetry_cell_setting 'monoclinic'
loop_
_space_group_symop_operation_xyz
x,y,z
-x,y,1/2-z
-x,-y,-z
x,-y,1/2+z
1/2+x,1/2+y,z
1/2-x,1/2+y,1/2-z
1/2-x,1/2-y,-z
1/2+x,1/2-y,1/2+z
loop_
_atom_site_type_symbol
_atom_site_label
_atom_site_fract_x
_atom_site_fract_y
_atom_site_fract_z
Si Si1 0.297602 0.672389 0.256647
Si Si2 0.912704 0.144070 0.940120
Si Si3 0.115294 0.481617 0.933486
O O1 0.500000 0.629702 0.250000
O O2 0.168706 0.773162 0.169388
O O3 0.441736 0.697393 0.413386
O O4 0.085157 0.587725 0.200703
O O5 0.104739 0.069467 0.952321
O O6 0.660995 0.085152 0.889530
O O7 0.000000 0.500000 0.000000
#
# Coordination Sequence:
#
# PCOD8154294 Si02
#       3
#     8   8   8
#     4  12  25  50  77 112 154 203 258 315 392 459
#     4  11  27  51  78 112 156 201 259 321 385 461
#     4  11  25  49  75 111 155 205 255 313 384 465
#
# _framework density 26.009689000000002
#
# number of rings (size 3 to 8) (size 9 to 14) (size 15 to 20)
#    0.000    0.667    3.333    3.000    0.000    5.333 
#    6.000    0.000    0.000    0.000    0.000    0.000 
#    0.000    0.000    0.000    0.000    0.000    0.000 
#
# Total GULP energy -148865.324780 kJ/mol
# GULP energy per Si atom -12405.443732 kJ/mol
# Density = 2.595049 g / cm^3
# Si number density = 26.009689 Si / 1000 Ang^3
#
#
#
# Elastic Constant Matrix: (Units=GPa)
#
#
# Indices 1 2 3 4 5 6 
#
# 1 165.8653 32.6271 36.1356 0.0000 -1.7580 0.0000
# 2 32.6271 121.0071 91.5008 0.0000 -1.3891 0.0000
# 3 36.1356 91.5008 118.0097 -0.0002 -9.5448 -0.0002
# 4 0.0000 0.0000 -0.0002 22.9973 -0.0001 17.0363
# 5 -1.7580 -1.3891 -9.5448 -0.0001 40.4051 -0.0001
# 6 0.0000 0.0000 -0.0002 17.0363 -0.0001 23.6763
#
#
#
# Elastic Compliance Matrix: (Units=1/GPa)
#
#
# Indices 1 2 3 4 5 6 
#
# 1 0.006478 -0.000584 -0.001539 0.000000 -0.000102 0.000000
# 2 -0.000584 0.020399 -0.015887 0.000000 -0.003077 0.000000
# 3 -0.001539 -0.015887 0.021627 0.000000 0.004496 0.000000
# 4 0.000000 0.000000 0.000000 0.093121 0.000000 -0.067005
# 5 -0.000102 -0.003077 0.004496 0.000000 0.025701 0.000000
# 6 0.000000 0.000000 0.000000 -0.067005 0.000000 0.090450
#
#
# Mechanical properties :
#
#
# Convention : Reuss Voigt Hill
#
# Bulk Modulus (GPa) = 80.10097 80.60102 80.35100
# Shear Modulus (GPa) = 16.78090 33.72364 25.25227
#
# Velocity S-wave (km/s) = 2.54279 3.60471 3.11927
# Velocity P-wave (km/s) = 6.28367 6.95567 6.62819
#
# Compressibility (1/GPa) = 0.01248424
#
# Stress axis : x y z
#
# Youngs Moduli (GPa) = 154.36636 49.02157 46.23879
#
# Poissons Ratio (x) = 0.02864 0.07116
# Poissons Ratio (y) = 0.09018 0.73459
# Poissons Ratio (z) = 0.23756 0.77880
#
# Static dielectric constant tensor:
#      x y z
#    x 5.087930 0.000000 0.376370 
#    y 0.000000 4.725580 0.000000 
#    z 0.376370 0.000000 4.785320 
# 
# 
# High freq. dielectric constant tensor:
#      x y z
#    x 2.069090 0.000000 0.004990 
#    y 0.000000 2.037020 0.000000 
#    z 0.004990 0.000000 2.046040 
# 
# From -- ./inp_files/21365.got.cif
#   From: 2010.06.25/outbox.cif.g09.slc.cpg/sg15_11_cif.got.tgz:21365.got - 2010.06.28 07:06:18.
