data_PCOD8154517
_publ_section_title
;
Structure prediction by ZEFSAII (Michael W. Deem and Ramdas Pophale) SiO2 
 PCOD8154517
Probable space group: C 2/C
;
_chemical_formula_sum "Si O2"
_cell_formula_units_Z 48
_cell_length_a 11.218356
_cell_length_b 21.362340
_cell_length_c 12.572769
_cell_angle_alpha 90.000000
_cell_angle_beta 133.614003
_cell_angle_gamma 90.000000
_cell_volume 2181.471389
_symmetry_space_group_name_H-M "C 2/C"
_symmetry_group_IT_number 15
_symmetry_cell_setting 'monoclinic'
loop_
_space_group_symop_operation_xyz
x,y,z
-x,y,1/2-z
-x,-y,-z
x,-y,1/2+z
1/2+x,1/2+y,z
1/2-x,1/2+y,1/2-z
1/2-x,1/2-y,-z
1/2+x,1/2-y,1/2+z
loop_
_atom_site_type_symbol
_atom_site_label
_atom_site_fract_x
_atom_site_fract_y
_atom_site_fract_z
Si Si1 0.000000 0.491654 0.250000
Si Si2 0.756769 0.406225 0.205150
Si Si3 0.190997 0.319337 0.748425
Si Si4 0.400223 0.910030 0.519888
Si Si5 0.000000 0.773566 0.250000
Si Si6 0.088837 0.878916 0.458169
Si Si7 0.812717 0.272166 0.150605
O O1 0.834745 0.449563 0.160865
O O2 0.984821 0.531872 0.132317
O O3 0.881026 0.415486 0.381216
O O4 0.568338 0.425004 0.119974
O O5 0.733243 0.335292 0.148395
O O6 0.158615 0.269370 0.822509
O O7 0.280728 0.286923 0.705955
O O8 0.015020 0.349556 0.609496
O O9 0.316962 0.370812 0.871767
O O10 0.215275 0.905923 0.450178
O O11 0.973285 0.813201 0.127057
O O12 0.000000 0.288727 0.250000
O O13 0.750000 0.250000 0.000000
#
# Coordination Sequence:
#
# PCOD8154517 Si02
#       7
#     4   8   8   8   4   8   8
#     4  12  27  50  72  96 142 197 244 288 344 414
#     4  12  26  44  74 100 137 186 240 284 352 421
#     4  12  24  40  71 103 146 176 229 292 364 421
#     4  12  24  48  69 103 138 182 241 299 351 405
#     4  12  21  34  70 104 144 177 222 290 362 420
#     4  12  22  41  68 108 134 177 233 293 351 417
#     4  12  25  44  67 103 145 187 224 281 361 440
#
# _framework density 22.003496999999999
#
# number of rings (size 3 to 8) (size 9 to 14) (size 15 to 20)
#    0.000    0.000    7.500    3.000    2.333    0.667 
#    0.000    0.000    0.000    0.000    0.000    0.000 
#    0.000    0.000    0.000    0.000    0.000    0.000 
#
# Total GULP energy -297526.458805 kJ/mol
# GULP energy per Si atom -12396.935784 kJ/mol
# Density = 2.195342 g / cm^3
# Si number density = 22.003497 Si / 1000 Ang^3
#
#
#
# Elastic Constant Matrix: (Units=GPa)
#
#
# Indices 1 2 3 4 5 6 
#
# 1 95.3918 24.5641 12.7653 0.0000 7.2971 0.0000
# 2 24.5641 66.5039 11.1779 0.0000 0.0607 0.0000
# 3 12.7653 11.1779 81.2445 0.0000 -5.6322 0.0000
# 4 0.0000 0.0000 0.0000 15.7091 0.0000 -4.3905
# 5 7.2971 0.0607 -5.6322 0.0000 53.1529 0.0000
# 6 0.0000 0.0000 0.0000 -4.3905 0.0000 31.7358
#
#
#
# Elastic Compliance Matrix: (Units=1/GPa)
#
#
# Indices 1 2 3 4 5 6 
#
# 1 0.011877 -0.004147 -0.001419 0.000000 -0.001776 0.000000
# 2 -0.004147 0.016844 -0.001640 0.000000 0.000376 0.000000
# 3 -0.001419 -0.001640 0.012865 0.000000 0.001560 0.000000
# 4 0.000000 0.000000 0.000000 0.066218 0.000000 0.009161
# 5 -0.001776 0.000376 0.001560 0.000000 0.019222 0.000000
# 6 0.000000 0.000000 0.000000 0.009161 0.000000 0.032777
#
#
# Mechanical properties :
#
#
# Convention : Reuss Voigt Hill
#
# Bulk Modulus (GPa) = 36.79844 37.79496 37.29670
# Shear Modulus (GPa) = 27.28194 33.09509 30.18852
#
# Velocity S-wave (km/s) = 3.52503 3.88246 3.70805
# Velocity P-wave (km/s) = 5.77304 6.10836 5.94307
#
# Compressibility (1/GPa) = 0.02717507
#
# Stress axis : x y z
#
# Youngs Moduli (GPa) = 84.19919 59.36965 77.72918
#
# Poissons Ratio (x) = 0.24619 0.11027
# Poissons Ratio (y) = 0.34915 0.12746
# Poissons Ratio (z) = 0.11945 0.09735
#
# Static dielectric constant tensor:
#      x y z
#    x 4.110650 0.000000 0.018560 
#    y 0.000000 3.818980 0.000000 
#    z 0.018560 0.000000 4.131030 
# 
# 
# High freq. dielectric constant tensor:
#      x y z
#    x 1.882350 0.000000 0.006130 
#    y 0.000000 1.843780 0.000000 
#    z 0.006130 0.000000 1.866060 
# 
# From -- ./inp_files/31945.got.cif
#   From: 2010.06.25/outbox.cif.g09.slc.cpg/sg15_16_cif.got.tgz:31945.got - 2010.06.28 07:06:18.
