data_PCOD8154761
_publ_section_title
;
Structure prediction by ZEFSAII (Michael W. Deem and Ramdas Pophale) SiO2 
 PCOD8154761
Probable space group: C 2/C
;
_chemical_formula_sum "Si O2"
_cell_formula_units_Z 40
_cell_length_a 12.183854
_cell_length_b 8.149231
_cell_length_c 18.248482
_cell_angle_alpha 90.000000
_cell_angle_beta 102.784432
_cell_angle_gamma 90.000000
_cell_volume 1766.957032
_symmetry_space_group_name_H-M "C 2/C"
_symmetry_group_IT_number 15
_symmetry_cell_setting 'monoclinic'
loop_
_space_group_symop_operation_xyz
x,y,z
-x,y,1/2-z
-x,-y,-z
x,-y,1/2+z
1/2+x,1/2+y,z
1/2-x,1/2+y,1/2-z
1/2-x,1/2-y,-z
1/2+x,1/2-y,1/2+z
loop_
_atom_site_type_symbol
_atom_site_label
_atom_site_fract_x
_atom_site_fract_y
_atom_site_fract_z
Si Si1 0.319574 0.378830 0.820505
Si Si2 0.931719 0.144701 0.085873
Si Si3 0.747520 0.244953 0.843255
Si Si4 0.324452 0.292562 0.080813
Si Si5 0.036461 0.340915 0.549656
O O1 0.450156 0.355573 0.856080
O O2 0.300525 0.339982 0.733337
O O3 0.292635 0.566841 0.831289
O O4 0.243014 0.255425 0.856418
O O5 0.852610 0.281573 0.112470
O O6 0.857893 0.982068 0.085522
O O7 0.951163 0.185294 0.003371
O O8 0.846447 0.361181 0.890540
O O9 0.440617 0.191972 0.095356
O O10 0.250000 0.250000 0.000000
O O11 0.000000 0.500000 0.500000
#
# Coordination Sequence:
#
# PCOD8154761 Si02
#       5
#     8   8   8   8   8
#     4  12  27  48  72 105 148 190 240 300 363 433
#     4  12  25  49  73 102 146 189 238 299 364 427
#     4  12  27  47  72 106 145 190 240 297 364 428
#     4  12  23  45  77 103 142 187 237 297 360 428
#     4  12  25  45  75 107 143 187 245 298 358 434
#
# _framework density 22.637789000000001
#
# number of rings (size 3 to 8) (size 9 to 14) (size 15 to 20)
#    0.000    0.000    4.000    6.600    2.800    0.800 
#    3.600    0.000    0.000    0.000    0.000    0.000 
#    0.000    0.000    0.000    0.000    0.000    0.000 
#
# Total GULP energy -248101.224311 kJ/mol
# GULP energy per Si atom -12405.061216 kJ/mol
# Density = 2.258626 g / cm^3
# Si number density = 22.637789 Si / 1000 Ang^3
#
#
#
# Elastic Constant Matrix: (Units=GPa)
#
#
# Indices 1 2 3 4 5 6 
#
# 1 176.7760 32.7491 48.0123 0.0000 17.4937 0.0000
# 2 32.7491 76.5074 10.5583 0.0000 4.5935 0.0000
# 3 48.0123 10.5583 111.6422 0.0000 27.5948 0.0000
# 4 0.0000 0.0000 0.0000 26.5151 0.0000 -5.6522
# 5 17.4937 4.5935 27.5948 0.0000 41.4256 0.0000
# 6 0.0000 0.0000 0.0000 -5.6522 0.0000 45.5444
#
#
#
# Elastic Compliance Matrix: (Units=1/GPa)
#
#
# Indices 1 2 3 4 5 6 
#
# 1 0.006901 -0.002553 -0.002485 0.000000 -0.000976 0.000000
# 2 -0.002553 0.014208 -0.000147 0.000000 -0.000399 0.000000
# 3 -0.002485 -0.000147 0.011703 0.000000 -0.006730 0.000000
# 4 0.000000 0.000000 0.000000 0.038739 0.000000 0.004808
# 5 -0.000976 -0.000399 -0.006730 0.000000 0.029079 0.000000
# 6 0.000000 0.000000 0.000000 0.004808 0.000000 0.022553
#
#
# Mechanical properties :
#
#
# Convention : Reuss Voigt Hill
#
# Bulk Modulus (GPa) = 44.55903 60.84054 52.69979
# Shear Modulus (GPa) = 35.45224 40.93742 38.19483
#
# Velocity S-wave (km/s) = 3.96165 4.25710 4.11203
# Velocity P-wave (km/s) = 6.37592 7.14828 6.77312
#
# Compressibility (1/GPa) = 0.02244214
#
# Stress axis : x y z
#
# Youngs Moduli (GPa) = 144.89932 70.38513 85.44496
#
# Poissons Ratio (x) = 0.17966 0.21236
# Poissons Ratio (y) = 0.36986 0.01257
# Poissons Ratio (z) = 0.36013 0.01036
#
# Static dielectric constant tensor:
#      x y z
#    x 4.511690 0.000000 -0.138610 
#    y 0.000000 4.219150 0.000000 
#    z -0.138610 0.000000 4.190520 
# 
# 
# High freq. dielectric constant tensor:
#      x y z
#    x 1.923750 0.000000 -0.000290 
#    y 0.000000 1.900400 0.000000 
#    z -0.000290 0.000000 1.891920 
# 
# From -- ./inp_files/195157.got.cif
#   From: 2010.06.25/outbox.cif.g09.slc.cpg/sg15_98_cif.got.tgz:195157.got - 2010.06.28 07:06:18.
