data_PCOD8154815
_publ_section_title
;
Structure prediction by ZEFSAII (Michael W. Deem and Ramdas Pophale) SiO2 
 PCOD8154815
Probable space group: C 2/C
;
_chemical_formula_sum "Si O2"
_cell_formula_units_Z 32
_cell_length_a 4.910154
_cell_length_b 23.578551
_cell_length_c 12.181108
_cell_angle_alpha 90.000000
_cell_angle_beta 108.062766
_cell_angle_gamma 90.000000
_cell_volume 1340.758237
_symmetry_space_group_name_H-M "C 2/C"
_symmetry_group_IT_number 15
_symmetry_cell_setting 'monoclinic'
loop_
_space_group_symop_operation_xyz
x,y,z
-x,y,1/2-z
-x,-y,-z
x,-y,1/2+z
1/2+x,1/2+y,z
1/2-x,1/2+y,1/2-z
1/2-x,1/2-y,-z
1/2+x,1/2-y,1/2+z
loop_
_atom_site_type_symbol
_atom_site_label
_atom_site_fract_x
_atom_site_fract_y
_atom_site_fract_z
Si Si1 0.032085 0.891298 0.380424
Si Si2 0.627506 0.062124 0.008590
Si Si3 0.942298 0.236099 0.923463
Si Si4 0.500000 0.392686 0.750000
Si Si5 0.500000 0.822315 0.750000
O O1 0.364447 0.893764 0.459900
O O2 0.000000 0.911121 0.250000
O O3 0.841643 0.933028 0.431933
O O4 0.909009 0.827748 0.375764
O O5 0.792494 0.072320 0.143676
O O6 0.500000 0.000000 0.000000
O O7 0.864217 0.282075 0.823969
O O8 0.750000 0.250000 0.000000
O O9 0.250000 0.250000 0.000000
O O10 0.713640 0.359567 0.691692
#
# Coordination Sequence:
#
# PCOD8154815 Si02
#       5
#     8   8   8   4   4
#     4  12  26  50  76 114 154 195 252 309 378 454
#     4  12  28  50  80 108 147 203 254 322 376 434
#     4  12  24  42  73 107 151 194 239 294 364 445
#     4  12  26  48  77 110 153 192 258 306 372 456
#     4  12  24  44  71 112 147 196 236 296 372 442
#
# _framework density 23.867094000000002
#
# number of rings (size 3 to 8) (size 9 to 14) (size 15 to 20)
#    0.000    0.000    1.250   10.500    1.750    0.000 
#    4.500    0.000    0.000    0.000    0.000    0.000 
#    0.000    0.000    0.000    0.000    0.000    0.000 
#
# Total GULP energy -198345.144444 kJ/mol
# GULP energy per Si atom -12396.571528 kJ/mol
# Density = 2.381277 g / cm^3
# Si number density = 23.867094 Si / 1000 Ang^3
#
#
#
# Elastic Constant Matrix: (Units=GPa)
#
#
# Indices 1 2 3 4 5 6 
#
# 1 180.4671 48.5608 82.3018 0.0000 -12.0298 0.0000
# 2 48.5608 122.9784 63.8470 0.0000 -0.7310 0.0000
# 3 82.3018 63.8470 179.3448 0.0000 -10.6729 0.0000
# 4 0.0000 0.0000 0.0000 27.1410 0.0000 -3.2676
# 5 -12.0298 -0.7310 -10.6729 0.0000 58.7040 0.0000
# 6 0.0000 0.0000 0.0000 -3.2676 0.0000 44.3132
#
#
#
# Elastic Compliance Matrix: (Units=1/GPa)
#
#
# Indices 1 2 3 4 5 6 
#
# 1 0.007248 -0.001422 -0.002762 0.000000 0.000965 0.000000
# 2 -0.001422 0.010270 -0.003046 0.000000 -0.000717 0.000000
# 3 -0.002762 -0.003046 0.007978 0.000000 0.000847 0.000000
# 4 0.000000 0.000000 0.000000 0.037175 0.000000 0.002741
# 5 0.000965 -0.000717 0.000847 0.000000 0.017377 0.000000
# 6 0.000000 0.000000 0.000000 0.002741 0.000000 0.022769
#
#
# Mechanical properties :
#
#
# Convention : Reuss Voigt Hill
#
# Bulk Modulus (GPa) = 90.62044 96.91214 93.76629
# Shear Modulus (GPa) = 41.33679 45.23703 43.28691
#
# Velocity S-wave (km/s) = 4.16619 4.35831 4.26333
# Velocity P-wave (km/s) = 7.82267 8.12524 7.97539
#
# Compressibility (1/GPa) = 0.01103504
#
# Stress axis : x y z
#
# Youngs Moduli (GPa) = 137.96943 97.36730 125.33843
#
# Poissons Ratio (x) = 0.13847 0.34623
# Poissons Ratio (y) = 0.19621 0.38182
# Poissons Ratio (z) = 0.38112 0.29661
#
# Static dielectric constant tensor:
#      x y z
#    x 4.602800 0.000000 -0.053060 
#    y 0.000000 4.342200 0.000000 
#    z -0.053060 0.000000 4.200060 
# 
# 
# High freq. dielectric constant tensor:
#      x y z
#    x 1.976610 0.000000 -0.007200 
#    y 0.000000 1.946890 0.000000 
#    z -0.007200 0.000000 1.952930 
# 
# From -- ./inp_files/72293.got.cif
#   From: 2010.06.25/outbox.cif.g09.slc.cpg/sg15_37_cif.got.tgz:72293.got - 2010.06.28 07:06:18.
