data_PCOD8154037
_publ_section_title
;
Structure prediction by ZEFSAII (Michael W. Deem and Ramdas Pophale) SiO2 
 PCOD8154037
Probable space group: C 2/C
;
_chemical_formula_sum "Si O2"
_cell_formula_units_Z 40
_cell_length_a 17.465103
_cell_length_b 13.606747
_cell_length_c 12.675543
_cell_angle_alpha 90.000000
_cell_angle_beta 144.912969
_cell_angle_gamma 90.000000
_cell_volume 1731.505758
_symmetry_space_group_name_H-M "C 2/C"
_symmetry_group_IT_number 15
_symmetry_cell_setting 'monoclinic'
loop_
_space_group_symop_operation_xyz
x,y,z
-x,y,1/2-z
-x,-y,-z
x,-y,1/2+z
1/2+x,1/2+y,z
1/2-x,1/2+y,1/2-z
1/2-x,1/2-y,-z
1/2+x,1/2-y,1/2+z
loop_
_atom_site_type_symbol
_atom_site_label
_atom_site_fract_x
_atom_site_fract_y
_atom_site_fract_z
Si Si1 0.910803 0.499236 0.245950
Si Si2 0.131436 0.031461 0.335437
Si Si3 0.361207 0.323610 0.088668
Si Si4 0.341217 0.330441 0.831192
Si Si5 0.445307 0.840186 0.954725
O O1 0.897141 0.599677 0.297152
O O2 0.000000 0.533737 0.250000
O O3 0.991439 0.415531 0.394231
O O4 0.769145 0.450188 0.054100
O O5 0.129501 0.083652 0.219415
O O6 0.000000 0.068937 0.250000
O O7 0.128053 0.913297 0.315136
O O8 0.500000 0.264028 0.250000
O O9 0.250000 0.250000 0.000000
O O10 0.345021 0.372060 0.954644
O O11 0.188055 0.292551 0.643156
O O12 0.446046 0.242655 0.943951
#
# Coordination Sequence:
#
# PCOD8154037 Si02
#       5
#     8   8   8   8   8
#     4  11  24  50  73 105 151 202 250 309 378 455
#     4  11  27  47  74 110 153 194 252 319 382 443
#     4  11  26  47  75 107 147 198 251 310 377 450
#     4  12  26  48  73 114 147 199 255 312 381 455
#     4  11  27  44  76 108 147 201 251 308 381 456
#
# _framework density 23.101281
#
# number of rings (size 3 to 8) (size 9 to 14) (size 15 to 20)
#    0.000    0.800    4.000    1.200    5.600    4.800 
#    0.000    0.000    0.000    0.000    0.000    0.000 
#    0.000    0.000    0.000    0.000    0.000    0.000 
#
# Total GULP energy -247782.709640 kJ/mol
# GULP energy per Si atom -12389.135482 kJ/mol
# Density = 2.304870 g / cm^3
# Si number density = 23.101281 Si / 1000 Ang^3
#
#
#
# Elastic Constant Matrix: (Units=GPa)
#
#
# Indices 1 2 3 4 5 6 
#
# 1 170.8706 69.7115 118.1360 0.0000 27.9652 0.0000
# 2 69.7115 113.0659 74.0515 0.0000 3.3835 0.0000
# 3 118.1360 74.0515 125.3470 0.0000 10.7924 0.0000
# 4 0.0000 0.0000 0.0000 -333.6649 0.0000 -64.5749
# 5 27.9652 3.3835 10.7924 0.0000 53.0137 0.0000
# 6 0.0000 0.0000 0.0000 -64.5749 0.0000 18.3154
#
#
#
# Elastic Compliance Matrix: (Units=1/GPa)
#
#
# Indices 1 2 3 4 5 6 
#
# 1 0.018713 -0.000255 -0.016934 0.000000 -0.006408 0.000000
# 2 -0.000255 0.014466 -0.008385 0.000000 0.000918 0.000000
# 3 -0.016934 -0.008385 0.028577 0.000000 0.003650 0.000000
# 4 0.000000 0.000000 0.000000 -0.001781 0.000000 -0.006281
# 5 -0.006408 0.000918 0.003650 0.000000 0.021441 0.000000
# 6 0.000000 0.000000 0.000000 -0.006281 0.000000 0.032454
#
#
# Mechanical properties :
#
#
# Convention : Reuss Voigt Hill
#
# Bulk Modulus (GPa) = 94.26841 103.67571 98.97206
# Shear Modulus (GPa) = 29.66437 -42.64153 -6.48858
#
# Velocity S-wave (km/s) = 3.58732 -4.30100 -1.67775
# Velocity P-wave (km/s) = 7.61930 4.50682 6.25960
#
# Compressibility (1/GPa) = 0.01060801
#
# Stress axis : x y z
#
# Youngs Moduli (GPa) = 53.43908 69.12975 34.99351
#
# Poissons Ratio (x) = 0.01763 0.59258
# Poissons Ratio (y) = 0.01363 0.29340
# Poissons Ratio (z) = 0.90494 0.57962
#
# Static dielectric constant tensor:
#      x y z
#    x 4.652470 0.000000 0.243430 
#    y 0.000000 3.912890 0.000000 
#    z 0.243430 0.000000 4.754110 
# 
# 
# High freq. dielectric constant tensor:
#      x y z
#    x 1.929200 0.000000 0.025320 
#    y 0.000000 1.892100 0.000000 
#    z 0.025320 0.000000 1.942160 
# 
# From -- ./inp_files/105542.got.cif
#   From: 2010.06.25/outbox.cif.g09.slc.cpg/sg15_53_cif.got.tgz:105542.got - 2010.06.28 07:06:18.
