data_PCOD8154136
_publ_section_title
;
Structure prediction by ZEFSAII (Michael W. Deem and Ramdas Pophale) SiO2 
 PCOD8154136
Probable space group: C 2/C
;
_chemical_formula_sum "Si O2"
_cell_formula_units_Z 44
_cell_length_a 12.377600
_cell_length_b 20.968262
_cell_length_c 8.359981
_cell_angle_alpha 90.000000
_cell_angle_beta 69.335885
_cell_angle_gamma 90.000000
_cell_volume 2030.133796
_symmetry_space_group_name_H-M "C 2/C"
_symmetry_group_IT_number 15
_symmetry_cell_setting 'monoclinic'
loop_
_space_group_symop_operation_xyz
x,y,z
-x,y,1/2-z
-x,-y,-z
x,-y,1/2+z
1/2+x,1/2+y,z
1/2-x,1/2+y,1/2-z
1/2-x,1/2-y,-z
1/2+x,1/2-y,1/2+z
loop_
_atom_site_type_symbol
_atom_site_label
_atom_site_fract_x
_atom_site_fract_y
_atom_site_fract_z
Si Si1 0.307089 0.540843 0.157512
Si Si2 0.054568 0.563405 0.394153
Si Si3 0.870423 0.078068 0.784738
Si Si4 0.840720 0.815107 0.077965
Si Si5 0.000000 0.886697 0.750000
Si Si6 0.907716 0.685327 0.926664
O O1 0.192056 0.558937 0.311214
O O2 0.322495 0.464173 0.161181
O O3 0.418989 0.570987 0.180491
O O4 0.294420 0.563637 0.981476
O O5 0.033357 0.624638 0.517694
O O6 0.000000 0.575436 0.250000
O O7 0.000000 0.500000 0.500000
O O8 0.863764 0.152151 0.738130
O O9 0.000000 0.056942 0.750000
O O10 0.708790 0.830829 0.106707
O O11 0.872773 0.740201 0.073852
O O12 0.922389 0.842825 0.900128
O O13 0.000000 0.711105 0.750000
#
# Coordination Sequence:
#
# PCOD8154136 Si02
#       6
#     8   8   8   8   4   8
#     4  12  25  42  69 106 143 182 232 295 354 419
#     4  12  28  47  70 103 144 188 237 288 352 430
#     4  12  24  40  67 103 140 178 225 292 355 413
#     4  11  25  45  71 102 139 185 239 292 357 429
#     4  12  20  46  72 102 146 180 236 296 360 410
#     4  11  26  47  72 101 139 190 236 291 354 429
#
# _framework density 21.673446999999999
#
# number of rings (size 3 to 8) (size 9 to 14) (size 15 to 20)
#    0.000    0.364    5.455    3.273    7.636    0.727 
#    0.000    0.909    0.000    0.000    0.000    0.000 
#    0.000    0.000    0.000    0.000    0.000    0.000 
#
# Total GULP energy -272829.912656 kJ/mol
# GULP energy per Si atom -12401.359666 kJ/mol
# Density = 2.162412 g / cm^3
# Si number density = 21.673447 Si / 1000 Ang^3
#
#
#
# Elastic Constant Matrix: (Units=GPa)
#
#
# Indices 1 2 3 4 5 6 
#
# 1 93.3395 31.2404 40.1246 0.0000 -11.3250 0.0000
# 2 31.2404 127.6346 50.7445 0.0000 15.7153 0.0000
# 3 40.1246 50.7445 119.0958 0.0000 0.0429 0.0000
# 4 0.0000 0.0000 0.0000 -46.5268 0.0000 -38.1633
# 5 -11.3250 15.7153 0.0429 0.0000 39.8526 0.0000
# 6 0.0000 0.0000 0.0000 -38.1633 0.0000 12.7643
#
#
#
# Elastic Compliance Matrix: (Units=1/GPa)
#
#
# Indices 1 2 3 4 5 6 
#
# 1 0.013675 -0.002549 -0.003523 0.000000 0.004895 0.000000
# 2 -0.002549 0.010492 -0.003610 0.000000 -0.004858 0.000000
# 3 -0.003523 -0.003610 0.011121 0.000000 0.000410 0.000000
# 4 0.000000 0.000000 0.000000 -0.006226 0.000000 -0.018613
# 5 0.004895 -0.004858 0.000410 0.000000 0.028399 0.000000
# 6 0.000000 0.000000 0.000000 -0.018613 0.000000 0.022692
#
#
# Mechanical properties :
#
#
# Convention : Reuss Voigt Hill
#
# Bulk Modulus (GPa) = 62.79556 64.92098 63.85827
# Shear Modulus (GPa) = 47.69769 15.74874 31.72321
#
# Velocity S-wave (km/s) = 4.69630 2.69855 3.82997
# Velocity P-wave (km/s) = 7.64482 6.30307 7.00614
#
# Compressibility (1/GPa) = 0.01592469
#
# Stress axis : x y z
#
# Youngs Moduli (GPa) = 73.12528 95.30879 89.91643
#
# Poissons Ratio (x) = 0.24297 0.31676
# Poissons Ratio (y) = 0.18642 0.32459
# Poissons Ratio (z) = 0.25761 0.34405
#
# Static dielectric constant tensor:
#      x y z
#    x 3.965780 0.000000 -0.153650 
#    y 0.000000 4.024280 0.000000 
#    z -0.153650 0.000000 3.961530 
# 
# 
# High freq. dielectric constant tensor:
#      x y z
#    x 1.860450 0.000000 -0.014110 
#    y 0.000000 1.855810 0.000000 
#    z -0.014110 0.000000 1.851440 
# 
# From -- ./inp_files/30751.got.cif
#   From: 2010.06.25/outbox.cif.g09.slc.cpg/sg15_16_cif.got.tgz:30751.got - 2010.06.28 07:06:18.
