data_PCOD8154179
_publ_section_title
;
Structure prediction by ZEFSAII (Michael W. Deem and Ramdas Pophale) SiO2 
 PCOD8154179
Probable space group: C 2/C
;
_chemical_formula_sum "Si O2"
_cell_formula_units_Z 40
_cell_length_a 17.446922
_cell_length_b 20.615721
_cell_length_c 9.422816
_cell_angle_alpha 90.000000
_cell_angle_beta 150.784628
_cell_angle_gamma 90.000000
_cell_volume 1654.250919
_symmetry_space_group_name_H-M "C 2/C"
_symmetry_group_IT_number 15
_symmetry_cell_setting 'monoclinic'
loop_
_space_group_symop_operation_xyz
x,y,z
-x,y,1/2-z
-x,-y,-z
x,-y,1/2+z
1/2+x,1/2+y,z
1/2-x,1/2+y,1/2-z
1/2-x,1/2-y,-z
1/2+x,1/2-y,1/2+z
loop_
_atom_site_type_symbol
_atom_site_label
_atom_site_fract_x
_atom_site_fract_y
_atom_site_fract_z
Si Si1 0.074005 0.779675 0.713377
Si Si2 0.108457 0.993288 0.805713
Si Si3 0.440808 0.059377 0.814319
Si Si4 0.431374 0.825235 0.793823
Si Si5 0.585041 0.359691 0.249742
O O1 0.000000 0.773103 0.750000
O O2 0.979461 0.742974 0.437191
O O3 0.037243 0.852049 0.585544
O O4 0.250000 0.750000 0.000000
O O5 0.150060 0.068732 0.900964
O O6 0.000000 0.961209 0.750000
O O7 0.000000 0.000000 0.500000
O O8 0.253012 0.945480 0.011918
O O9 0.500000 0.055008 0.750000
O O10 0.497356 0.124868 0.976968
O O11 0.500000 0.000000 0.000000
O O12 0.500000 0.839900 0.750000
O O13 0.245584 0.822656 0.476780
O O14 0.500000 0.329648 0.250000
#
# Coordination Sequence:
#
# PCOD8154179 Si02
#       5
#     8   8   8   8   8
#     4  12  26  46  73 106 137 178 236 292 349 413
#     4  11  26  42  69 100 141 183 226 284 340 409
#     4  12  25  45  70 103 140 184 236 281 344 414
#     4  12  26  46  73 102 141 186 230 286 349 415
#     4  11  25  46  70  99 140 185 228 281 352 409
#
# _framework density 24.180128
#
# number of rings (size 3 to 8) (size 9 to 14) (size 15 to 20)
#    0.000    0.400    2.000    6.000    8.400    0.800 
#    0.000    0.000    0.000    0.000    0.000    0.000 
#    0.000    0.000    0.000    0.000    0.000    0.000 
#
# Total GULP energy -247780.515185 kJ/mol
# GULP energy per Si atom -12389.025759 kJ/mol
# Density = 2.412509 g / cm^3
# Si number density = 24.180128 Si / 1000 Ang^3
#
#
#
# Elastic Constant Matrix: (Units=GPa)
#
#
# Indices 1 2 3 4 5 6 
#
# 1 246.7180 16.7941 82.7086 0.0000 -1.7268 0.0000
# 2 16.7941 29.2440 6.7181 0.0000 -0.7758 0.0000
# 3 82.7086 6.7181 149.8206 0.0000 13.7383 0.0000
# 4 0.0000 0.0000 0.0000 58.0333 0.0000 -17.0117
# 5 -1.7268 -0.7758 13.7383 0.0000 58.8682 0.0000
# 6 0.0000 0.0000 0.0000 -17.0117 0.0000 23.1544
#
#
#
# Elastic Compliance Matrix: (Units=1/GPa)
#
#
# Indices 1 2 3 4 5 6 
#
# 1 0.005159 -0.002295 -0.002817 0.000000 0.000778 0.000000
# 2 -0.002295 0.035612 -0.000375 0.000000 0.000489 0.000000
# 3 -0.002817 -0.000375 0.008435 0.000000 -0.002056 0.000000
# 4 0.000000 0.000000 0.000000 0.021961 0.000000 0.016135
# 5 0.000778 0.000489 -0.002056 0.000000 0.017496 0.000000
# 6 0.000000 0.000000 0.000000 0.016135 0.000000 0.055043
#
#
# Mechanical properties :
#
#
# Convention : Reuss Voigt Hill
#
# Bulk Modulus (GPa) = 26.15523 70.91381 48.53452
# Shear Modulus (GPa) = 29.86433 49.31530 39.58982
#
# Velocity S-wave (km/s) = 3.51818 4.52098 4.05073
# Velocity P-wave (km/s) = 5.22913 7.52617 6.48024
#
# Compressibility (1/GPa) = 0.03823327
#
# Stress axis : x y z
#
# Youngs Moduli (GPa) = 193.83269 28.08037 118.55550
#
# Poissons Ratio (x) = 0.06445 0.33392
# Poissons Ratio (y) = 0.44485 0.04443
# Poissons Ratio (z) = 0.54594 0.01052
#
# Static dielectric constant tensor:
#      x y z
#    x 4.422100 0.000000 0.167810 
#    y 0.000000 4.543070 0.000000 
#    z 0.167810 0.000000 4.954630 
# 
# 
# High freq. dielectric constant tensor:
#      x y z
#    x 1.971880 0.000000 -0.002140 
#    y 0.000000 1.977560 0.000000 
#    z -0.002140 0.000000 1.980050 
# 
# From -- ./inp_files/51702.got.cif
#   From: 2010.06.25/outbox.cif.g09.slc.cpg/sg15_26_cif.got.tgz:51702.got - 2010.06.28 07:06:18.
