data_PCOD8154590
_publ_section_title
;
Structure prediction by ZEFSAII (Michael W. Deem and Ramdas Pophale) SiO2 
 PCOD8154590
Probable space group: C 2/C
;
_chemical_formula_sum "Si O2"
_cell_formula_units_Z 36
_cell_length_a 23.853375
_cell_length_b 6.719928
_cell_length_c 10.077599
_cell_angle_alpha 90.000000
_cell_angle_beta 82.174031
_cell_angle_gamma 90.000000
_cell_volume 1600.323025
_symmetry_space_group_name_H-M "C 2/C"
_symmetry_group_IT_number 15
_symmetry_cell_setting 'monoclinic'
loop_
_space_group_symop_operation_xyz
x,y,z
-x,y,1/2-z
-x,-y,-z
x,-y,1/2+z
1/2+x,1/2+y,z
1/2-x,1/2+y,1/2-z
1/2-x,1/2-y,-z
1/2+x,1/2-y,1/2+z
loop_
_atom_site_type_symbol
_atom_site_label
_atom_site_fract_x
_atom_site_fract_y
_atom_site_fract_z
Si Si1 0.645302 0.055302 0.275596
Si Si2 0.545995 0.140684 0.922206
Si Si3 0.184207 0.718876 0.536750
Si Si4 0.112636 0.114444 0.608699
Si Si5 0.000000 0.053466 0.250000
O O1 0.666192 0.078156 0.420181
O O2 0.652532 0.265457 0.197852
O O3 0.579506 0.984954 0.299621
O O4 0.678000 0.887128 0.181420
O O5 0.508357 0.316662 0.877662
O O6 0.595101 0.235810 0.997367
O O7 0.500000 0.000000 0.000000
O O8 0.250000 0.750000 0.500000
O O9 0.146850 0.921702 0.546278
O O10 0.055826 0.072533 0.708643
#
# Coordination Sequence:
#
# PCOD8154590 Si02
#       5
#     8   8   8   8   4
#     4  12  26  51  72 110 152 188 253 311 370 450
#     4  12  23  43  72 109 149 197 240 305 372 448
#     4  12  30  49  79 107 146 203 252 316 377 443
#     4  12  25  46  72 109 150 192 252 300 386 446
#     4  12  22  40  70 102 146 192 236 296 372 448
#
# _framework density 22.495460000000001
#
# number of rings (size 3 to 8) (size 9 to 14) (size 15 to 20)
#    0.000    0.000    4.444    6.000    3.111    0.889 
#    0.000    0.000    0.000    0.000    0.000    0.000 
#    0.000    0.000    0.000    0.000    0.000    0.000 
#
# Total GULP energy -223162.264200 kJ/mol
# GULP energy per Si atom -12397.903567 kJ/mol
# Density = 2.244426 g / cm^3
# Si number density = 22.495460 Si / 1000 Ang^3
#
#
#
# Elastic Constant Matrix: (Units=GPa)
#
#
# Indices 1 2 3 4 5 6 
#
# 1 115.5792 50.4656 35.3904 0.0000 -31.1508 0.0000
# 2 50.4656 123.1340 53.9186 0.0000 -12.5190 0.0000
# 3 35.3904 53.9186 106.6351 0.0000 -15.0347 0.0000
# 4 0.0000 0.0000 0.0000 38.6150 0.0000 -2.0598
# 5 -31.1508 -12.5190 -15.0347 0.0000 44.2385 0.0000
# 6 0.0000 0.0000 0.0000 -2.0598 0.0000 23.5573
#
#
#
# Elastic Compliance Matrix: (Units=1/GPa)
#
#
# Indices 1 2 3 4 5 6 
#
# 1 0.012748 -0.003949 -0.001183 0.000000 0.007457 0.000000
# 2 -0.003949 0.011717 -0.004767 0.000000 -0.001085 0.000000
# 3 -0.001183 -0.004767 0.012471 0.000000 0.002056 0.000000
# 4 0.000000 0.000000 0.000000 0.026018 0.000000 0.002275
# 5 0.007457 -0.001085 0.002056 0.000000 0.028248 0.000000
# 6 0.000000 0.000000 0.000000 0.002275 0.000000 0.042649
#
#
# Mechanical properties :
#
#
# Convention : Reuss Voigt Hill
#
# Bulk Modulus (GPa) = 58.34751 69.43306 63.89028
# Shear Modulus (GPa) = 31.37560 34.98706 33.18133
#
# Velocity S-wave (km/s) = 3.73869 3.94800 3.84477
# Velocity P-wave (km/s) = 6.68063 7.19129 6.94066
#
# Compressibility (1/GPa) = 0.01713869
#
# Stress axis : x y z
#
# Youngs Moduli (GPa) = 78.44193 85.34922 80.18880
#
# Poissons Ratio (x) = 0.33701 0.09486
# Poissons Ratio (y) = 0.30974 0.38224
# Poissons Ratio (z) = 0.09279 0.40684
#
# Static dielectric constant tensor:
#      x y z
#    x 3.960220 0.000000 0.007210 
#    y 0.000000 5.339880 0.000000 
#    z 0.007210 0.000000 4.437430 
# 
# 
# High freq. dielectric constant tensor:
#      x y z
#    x 1.878770 0.000000 -0.005620 
#    y 0.000000 1.904330 0.000000 
#    z -0.005620 0.000000 1.900660 
# 
# From -- ./inp_files/59779.got.cif
#   From: 2010.06.25/outbox.cif.g09.slc.cpg/sg15_30_cif.got.tgz:59779.got - 2010.06.28 07:06:18.
