data_PCOD8154291
_publ_section_title
;
Structure prediction by ZEFSAII (Michael W. Deem and Ramdas Pophale) SiO2 
 PCOD8154291
Probable space group: C 2/C
;
_chemical_formula_sum "Si O2"
_cell_formula_units_Z 56
_cell_length_a 8.358780
_cell_length_b 11.163045
_cell_length_c 28.601963
_cell_angle_alpha 90.000000
_cell_angle_beta 68.430834
_cell_angle_gamma 90.000000
_cell_volume 2481.946594
_symmetry_space_group_name_H-M "C 2/C"
_symmetry_group_IT_number 15
_symmetry_cell_setting 'monoclinic'
loop_
_space_group_symop_operation_xyz
x,y,z
-x,y,1/2-z
-x,-y,-z
x,-y,1/2+z
1/2+x,1/2+y,z
1/2-x,1/2+y,1/2-z
1/2-x,1/2-y,-z
1/2+x,1/2-y,1/2+z
loop_
_atom_site_type_symbol
_atom_site_label
_atom_site_fract_x
_atom_site_fract_y
_atom_site_fract_z
Si Si1 0.774965 0.206353 0.445313
Si Si2 0.636326 0.026034 0.775925
Si Si3 0.893473 0.035008 0.964673
Si Si4 0.642556 0.241339 0.272979
Si Si5 0.068268 0.393054 0.552329
Si Si6 0.094422 0.206015 0.617519
Si Si7 0.951556 0.386828 0.116228
O O1 0.750000 0.250000 0.500000
O O2 0.583617 0.197206 0.445726
O O3 0.898116 0.287896 0.400038
O O4 0.867874 0.080107 0.435832
O O5 0.500000 0.021808 0.750000
O O6 0.746003 0.146115 0.755814
O O7 0.541701 0.043629 0.835556
O O8 0.732451 0.893368 0.767242
O O9 0.976825 0.124789 0.918108
O O10 0.712769 0.096954 0.997336
O O11 0.000000 0.000000 0.000000
O O12 0.500000 0.221398 0.250000
O O13 0.565646 0.278653 0.330941
O O14 0.149640 0.335136 0.590419
O O15 0.995938 0.524806 0.569017
O O16 0.259619 0.160244 0.628000
#
# Coordination Sequence:
#
# PCOD8154291 Si02
#       7
#     8   8   8   8   8   8   8
#     4  12  24  42  69  99 143 190 233 290 350 423
#     4  11  27  47  75 107 141 187 240 304 371 434
#     4  12  25  44  70 108 146 197 242 297 357 436
#     4  11  25  49  74 105 144 185 241 309 366 440
#     4  12  25  46  69 101 148 182 245 293 352 427
#     4  12  25  45  74 102 141 191 239 297 367 429
#     4  12  25  46  72 102 140 188 234 294 363 431
#
# _framework density 22.562936000000001
#
# number of rings (size 3 to 8) (size 9 to 14) (size 15 to 20)
#    0.000    0.286    5.714    3.429    2.000    1.714 
#    0.000    0.000    0.000    0.000    0.000    0.000 
#    0.000    0.000    0.000    0.000    0.000    0.000 
#
# Total GULP energy -346942.637142 kJ/mol
# GULP energy per Si atom -12390.808469 kJ/mol
# Density = 2.251158 g / cm^3
# Si number density = 22.562936 Si / 1000 Ang^3
#
#
#
# Elastic Constant Matrix: (Units=GPa)
#
#
# Indices 1 2 3 4 5 6 
#
# 1 86.2876 39.5763 17.1042 0.0000 11.4983 0.0000
# 2 39.5763 158.6379 54.7447 0.0000 -7.7313 0.0000
# 3 17.1042 54.7447 108.6418 0.0000 5.6540 0.0000
# 4 0.0000 0.0000 0.0000 42.9809 0.0000 -5.0026
# 5 11.4983 -7.7313 5.6540 0.0000 27.4924 0.0000
# 6 0.0000 0.0000 0.0000 -5.0026 0.0000 41.2811
#
#
#
# Elastic Compliance Matrix: (Units=1/GPa)
#
#
# Indices 1 2 3 4 5 6 
#
# 1 0.014335 -0.003962 0.000111 0.000000 -0.007132 0.000000
# 2 -0.003962 0.008973 -0.004160 0.000000 0.005036 0.000000
# 3 0.000111 -0.004160 0.011469 0.000000 -0.003575 0.000000
# 4 0.000000 0.000000 0.000000 0.023599 0.000000 0.002860
# 5 -0.007132 0.005036 -0.003575 0.000000 0.041508 0.000000
# 6 0.000000 0.000000 0.000000 0.002860 0.000000 0.024571
#
#
# Mechanical properties :
#
#
# Convention : Reuss Voigt Hill
#
# Bulk Modulus (GPa) = 53.31888 64.04641 58.68265
# Shear Modulus (GPa) = 34.07648 38.49368 36.28508
#
# Velocity S-wave (km/s) = 3.89046 4.13493 4.01455
# Velocity P-wave (km/s) = 6.62294 7.15850 6.89592
#
# Compressibility (1/GPa) = 0.01875508
#
# Stress axis : x y z
#
# Youngs Moduli (GPa) = 69.76032 111.44482 87.18920
#
# Poissons Ratio (x) = 0.44155 -0.00966
# Poissons Ratio (y) = 0.27639 0.36269
# Poissons Ratio (z) = -0.00773 0.46359
#
# Static dielectric constant tensor:
#      x y z
#    x 3.947610 0.000000 0.126120 
#    y 0.000000 4.796660 0.000000 
#    z 0.126120 0.000000 4.137900 
# 
# 
# High freq. dielectric constant tensor:
#      x y z
#    x 1.874870 0.000000 0.016560 
#    y 0.000000 1.921530 0.000000 
#    z 0.016560 0.000000 1.892250 
# 
# From -- ./inp_files/307423.got.cif
#   From: 2010.06.25/outbox.cif.g09.slc.cpg/sg15_154_cif.got.tgz:307423.got - 2010.06.28 07:06:18.
