data_PCOD8154961
_publ_section_title
;
Structure prediction by ZEFSAII (Michael W. Deem and Ramdas Pophale) SiO2 
 PCOD8154961
Probable space group: C 2/C
;
_chemical_formula_sum "Si O2"
_cell_formula_units_Z 32
_cell_length_a 7.249574
_cell_length_b 22.687621
_cell_length_c 8.130080
_cell_angle_alpha 90.000000
_cell_angle_beta 99.311743
_cell_angle_gamma 90.000000
_cell_volume 1319.578834
_symmetry_space_group_name_H-M "C 2/C"
_symmetry_group_IT_number 15
_symmetry_cell_setting 'monoclinic'
loop_
_space_group_symop_operation_xyz
x,y,z
-x,y,1/2-z
-x,-y,-z
x,-y,1/2+z
1/2+x,1/2+y,z
1/2-x,1/2+y,1/2-z
1/2-x,1/2-y,-z
1/2+x,1/2-y,1/2+z
loop_
_atom_site_type_symbol
_atom_site_label
_atom_site_fract_x
_atom_site_fract_y
_atom_site_fract_z
Si Si1 0.500000 0.526204 0.250000
Si Si2 0.168351 0.875795 0.579811
Si Si3 0.966089 0.244255 0.054455
Si Si4 0.000000 0.679244 0.250000
Si Si5 0.128040 0.544120 0.621729
O O1 0.684150 0.487936 0.294348
O O2 0.534970 0.568734 0.099086
O O3 0.310221 0.859003 0.752125
O O4 0.310586 0.895418 0.457037
O O5 0.034569 0.821424 0.520815
O O6 0.000000 0.262445 0.250000
O O7 0.750000 0.250000 0.000000
O O8 0.057707 0.284506 0.923757
O O9 0.000000 0.566723 0.750000
O O10 0.000000 0.500000 0.500000
#
# Coordination Sequence:
#
# PCOD8154961 Si02
#       5
#     4   8   8   4   8
#     4  12  24  51  76 112 160 197 260 338 390 484
#     4  12  25  47  80 113 157 210 259 332 406 467
#     4  12  26  50  79 113 158 208 266 332 396 475
#     4  12  26  51  74 114 164 199 272 328 390 486
#     4  12  27  49  78 114 159 204 263 327 403 485
#
# _framework density 24.250160999999999
#
# number of rings (size 3 to 8) (size 9 to 14) (size 15 to 20)
#    0.000    0.000    6.250    3.000    0.000    2.000 
#    0.000    0.000    0.000    0.000    0.000    0.000 
#    0.000    0.000    0.000    0.000    0.000    0.000 
#
# Total GULP energy -198278.094100 kJ/mol
# GULP energy per Si atom -12392.380881 kJ/mol
# Density = 2.419497 g / cm^3
# Si number density = 24.250161 Si / 1000 Ang^3
#
#
#
# Elastic Constant Matrix: (Units=GPa)
#
#
# Indices 1 2 3 4 5 6 
#
# 1 177.5810 68.1335 59.9711 0.0000 6.8972 0.0000
# 2 68.1335 119.0969 50.8304 0.0000 2.6121 0.0000
# 3 59.9711 50.8304 141.4069 0.0000 -18.5582 0.0000
# 4 0.0000 0.0000 0.0000 31.3946 0.0000 -8.3189
# 5 6.8972 2.6121 -18.5582 0.0000 59.6286 0.0000
# 6 0.0000 0.0000 0.0000 -8.3189 0.0000 52.6432
#
#
#
# Elastic Compliance Matrix: (Units=1/GPa)
#
#
# Indices 1 2 3 4 5 6 
#
# 1 0.007771 -0.003457 -0.002243 0.000000 -0.001445 0.000000
# 2 -0.003457 0.011606 -0.002836 0.000000 -0.000991 0.000000
# 3 -0.002243 -0.002836 0.009480 0.000000 0.003334 0.000000
# 4 0.000000 0.000000 0.000000 0.033245 0.000000 0.005253
# 5 -0.001445 -0.000991 0.003334 0.000000 0.018019 0.000000
# 6 0.000000 0.000000 0.000000 0.005253 0.000000 0.019826
#
#
# Mechanical properties :
#
#
# Convention : Reuss Voigt Hill
#
# Bulk Modulus (GPa) = 84.84675 88.43943 86.64309
# Shear Modulus (GPa) = 41.34047 46.00995 43.67521
#
# Velocity S-wave (km/s) = 4.13334 4.36053 4.24846
# Velocity P-wave (km/s) = 7.60549 7.86773 7.73772
#
# Compressibility (1/GPa) = 0.01178596
#
# Stress axis : x y z
#
# Youngs Moduli (GPa) = 128.68195 86.16042 105.48493
#
# Poissons Ratio (x) = 0.29784 0.23659
# Poissons Ratio (y) = 0.44482 0.29916
# Poissons Ratio (z) = 0.28862 0.24436
#
# Static dielectric constant tensor:
#      x y z
#    x 4.739620 0.000000 -0.231830 
#    y 0.000000 4.860840 0.000000 
#    z -0.231830 0.000000 4.183570 
# 
# 
# High freq. dielectric constant tensor:
#      x y z
#    x 2.002230 0.000000 -0.002000 
#    y 0.000000 1.967940 0.000000 
#    z -0.002000 0.000000 1.948230 
# 
# From -- ./inp_files/22948.got.cif
#   From: 2010.06.25/outbox.cif.g09.slc.cpg/sg15_12_cif.got.tgz:22948.got - 2010.06.28 07:06:18.
