data_PCOD8154986
_publ_section_title
;
Structure prediction by ZEFSAII (Michael W. Deem and Ramdas Pophale) SiO2 
 PCOD8154986
Probable space group: C 2/C
;
_chemical_formula_sum "Si O2"
_cell_formula_units_Z 32
_cell_length_a 12.955901
_cell_length_b 12.902635
_cell_length_c 7.774183
_cell_angle_alpha 90.000000
_cell_angle_beta 95.024576
_cell_angle_gamma 90.000000
_cell_volume 1294.579365
_symmetry_space_group_name_H-M "C 2/C"
_symmetry_group_IT_number 15
_symmetry_cell_setting 'monoclinic'
loop_
_space_group_symop_operation_xyz
x,y,z
-x,y,1/2-z
-x,-y,-z
x,-y,1/2+z
1/2+x,1/2+y,z
1/2-x,1/2+y,1/2-z
1/2-x,1/2-y,-z
1/2+x,1/2-y,1/2+z
loop_
_atom_site_type_symbol
_atom_site_label
_atom_site_fract_x
_atom_site_fract_y
_atom_site_fract_z
Si Si1 0.947216 0.602664 0.064356
Si Si2 0.802991 0.146295 0.936295
Si Si3 0.775698 0.069781 0.560017
Si Si4 0.975770 0.818708 0.937895
O O1 0.000000 0.634547 0.250000
O O2 0.824253 0.590403 0.074063
O O3 0.960583 0.695345 0.931046
O O4 0.000000 0.500000 0.000000
O O5 0.754170 0.115165 0.746232
O O6 0.750000 0.250000 0.000000
O O7 0.925896 0.158935 0.925674
O O8 0.787446 0.054468 0.072637
O O9 0.875495 0.121856 0.490234
O O10 0.000000 0.858100 0.750000
#
# Coordination Sequence:
#
# PCOD8154986 Si02
#       4
#     8   8   8   8
#     4  12  25  45  71 105 144 192 250 314 376 447
#     4  12  26  48  76 110 148 195 246 308 379 454
#     4  12  26  47  74 107 147 194 248 312 376 450
#     4  12  26  46  72 106 147 197 249 306 375 451
#
# _framework density 24.718454000000001
#
# number of rings (size 3 to 8) (size 9 to 14) (size 15 to 20)
#    0.000    0.000    0.000   10.500    0.000    4.000 
#    0.000    0.000    0.000    0.000    0.000    0.000 
#    0.000    0.000    0.000    0.000    0.000    0.000 
#
# Total GULP energy -198462.244040 kJ/mol
# GULP energy per Si atom -12403.890252 kJ/mol
# Density = 2.466219 g / cm^3
# Si number density = 24.718454 Si / 1000 Ang^3
#
#
#
# Elastic Constant Matrix: (Units=GPa)
#
#
# Indices 1 2 3 4 5 6 
#
# 1 214.5285 63.8384 60.7368 0.0000 24.1202 0.0000
# 2 63.8384 193.0797 70.0916 0.0000 -2.4412 0.0000
# 3 60.7368 70.0916 118.0567 0.0000 -12.7761 0.0000
# 4 0.0000 0.0000 0.0000 35.4638 0.0000 2.4535
# 5 24.1202 -2.4412 -12.7761 0.0000 35.2622 0.0000
# 6 0.0000 0.0000 0.0000 2.4535 0.0000 37.2326
#
#
#
# Elastic Compliance Matrix: (Units=1/GPa)
#
#
# Indices 1 2 3 4 5 6 
#
# 1 0.006582 -0.001010 -0.003415 0.000000 -0.005810 0.000000
# 2 -0.001010 0.006791 -0.003525 0.000000 -0.000116 0.000000
# 3 -0.003415 -0.003525 0.013059 0.000000 0.006824 0.000000
# 4 0.000000 0.000000 0.000000 0.028327 0.000000 -0.001867
# 5 -0.005810 -0.000116 0.006824 0.000000 0.034797 0.000000
# 6 0.000000 0.000000 0.000000 -0.001867 0.000000 0.026981
#
#
# Mechanical properties :
#
#
# Convention : Reuss Voigt Hill
#
# Bulk Modulus (GPa) = 94.95262 101.66648 98.30955
# Shear Modulus (GPa) = 36.77846 43.65827 40.21837
#
# Velocity S-wave (km/s) = 3.86151 4.20720 4.03806
# Velocity P-wave (km/s) = 7.64060 8.05108 7.84852
#
# Compressibility (1/GPa) = 0.01053157
#
# Stress axis : x y z
#
# Youngs Moduli (GPa) = 151.92796 147.24696 76.57524
#
# Poissons Ratio (x) = 0.14869 0.26154
# Poissons Ratio (y) = 0.15342 0.26994
# Poissons Ratio (z) = 0.51891 0.51907
#
# Static dielectric constant tensor:
#      x y z
#    x 4.773490 0.000000 0.317460 
#    y 0.000000 4.710110 0.000000 
#    z 0.317460 0.000000 4.735250 
# 
# 
# High freq. dielectric constant tensor:
#      x y z
#    x 2.005740 0.000000 0.010290 
#    y 0.000000 2.002680 0.000000 
#    z 0.010290 0.000000 1.980480 
# 
# From -- ./inp_files/27975.got.cif
#   From: 2010.06.25/outbox.cif.g09.slc.cpg/sg15_14_cif.got.tgz:27975.got - 2010.06.28 07:06:18.
