data_PCOD8154785
_publ_section_title
;
Structure prediction by ZEFSAII (Michael W. Deem and Ramdas Pophale) SiO2 
 PCOD8154785
Probable space group: C 2/C
;
_chemical_formula_sum "Si O2"
_cell_formula_units_Z 44
_cell_length_a 5.227913
_cell_length_b 22.229314
_cell_length_c 17.140805
_cell_angle_alpha 90.000000
_cell_angle_beta 81.341415
_cell_angle_gamma 90.000000
_cell_volume 1969.280292
_symmetry_space_group_name_H-M "C 2/C"
_symmetry_group_IT_number 15
_symmetry_cell_setting 'monoclinic'
loop_
_space_group_symop_operation_xyz
x,y,z
-x,y,1/2-z
-x,-y,-z
x,-y,1/2+z
1/2+x,1/2+y,z
1/2-x,1/2+y,1/2-z
1/2-x,1/2-y,-z
1/2+x,1/2-y,1/2+z
loop_
_atom_site_type_symbol
_atom_site_label
_atom_site_fract_x
_atom_site_fract_y
_atom_site_fract_z
Si Si1 0.649611 0.325632 0.552215
Si Si2 0.097436 0.256726 0.325191
Si Si3 0.215458 0.660512 0.953951
Si Si4 0.270571 0.520333 0.953450
Si Si5 0.823523 0.923311 0.833246
Si Si6 0.500000 0.158958 0.250000
O O1 0.645207 0.270884 0.614968
O O2 0.429501 0.309189 0.499371
O O3 0.560737 0.387605 0.597725
O O4 0.929654 0.330637 0.501211
O O5 0.242928 0.307203 0.368740
O O6 0.271008 0.199783 0.293107
O O7 0.000000 0.288052 0.250000
O O8 0.282806 0.591073 0.938814
O O9 0.280849 0.490571 0.866562
O O10 0.500000 0.500000 0.000000
O O11 0.000000 0.500000 0.000000
O O12 0.571421 0.885088 0.819160
O O13 0.000000 0.926290 0.750000
#
# Coordination Sequence:
#
# PCOD8154785 Si02
#       6
#     8   8   8   8   8   4
#     4  12  23  47  75 107 142 189 241 298 361 431
#     4  12  27  44  72 107 150 195 236 305 368 441
#     4  12  27  47  74 108 146 188 243 298 368 434
#     4  12  26  49  75 104 146 190 239 301 360 431
#     4  12  25  44  77 105 140 192 249 300 356 427
#     4  12  24  46  72 102 152 180 250 294 360 426
#
# _framework density 22.343185999999999
#
# number of rings (size 3 to 8) (size 9 to 14) (size 15 to 20)
#    0.000    0.000    7.273    2.182    5.091    0.000 
#    3.273    0.000    0.000    0.000    0.000    0.000 
#    0.000    0.000    0.000    0.000    0.000    0.000 
#
# Total GULP energy -272776.144265 kJ/mol
# GULP energy per Si atom -12398.915648 kJ/mol
# Density = 2.229233 g / cm^3
# Si number density = 22.343186 Si / 1000 Ang^3
#
#
#
# Elastic Constant Matrix: (Units=GPa)
#
#
# Indices 1 2 3 4 5 6 
#
# 1 135.8261 31.0798 66.9555 0.0000 10.0358 0.0000
# 2 31.0798 103.8978 65.7483 0.0000 10.2926 0.0000
# 3 66.9555 65.7483 160.4303 0.0000 25.2965 0.0000
# 4 0.0000 0.0000 0.0000 50.3186 0.0000 15.3579
# 5 10.0358 10.2926 25.2965 0.0000 28.9032 0.0000
# 6 0.0000 0.0000 0.0000 15.3579 0.0000 20.5167
#
#
#
# Elastic Compliance Matrix: (Units=1/GPa)
#
#
# Indices 1 2 3 4 5 6 
#
# 1 0.009285 -0.000439 -0.003726 0.000000 0.000193 0.000000
# 2 -0.000439 0.013016 -0.005156 0.000000 0.000030 0.000000
# 3 -0.003726 -0.005156 0.010914 0.000000 -0.006422 0.000000
# 4 0.000000 0.000000 0.000000 0.025758 0.000000 -0.019282
# 5 0.000193 0.000030 -0.006422 0.000000 0.040141 0.000000
# 6 0.000000 0.000000 0.000000 -0.019282 0.000000 0.063174
#
#
# Mechanical properties :
#
#
# Convention : Reuss Voigt Hill
#
# Bulk Modulus (GPa) = 68.61555 80.85793 74.73674
# Shear Modulus (GPa) = 26.91252 35.70574 31.30913
#
# Velocity S-wave (km/s) = 3.47437 4.00191 3.74743
# Velocity P-wave (km/s) = 6.84627 7.59087 7.22817
#
# Compressibility (1/GPa) = 0.01457396
#
# Stress axis : x y z
#
# Youngs Moduli (GPa) = 107.69930 76.82957 91.62780
#
# Poissons Ratio (x) = 0.03373 0.34137
# Poissons Ratio (y) = 0.04728 0.47240
# Poissons Ratio (z) = 0.40125 0.39611
#
# Static dielectric constant tensor:
#      x y z
#    x 4.107900 0.000000 0.232820 
#    y 0.000000 6.731920 0.000000 
#    z 0.232820 0.000000 4.453240 
# 
# 
# High freq. dielectric constant tensor:
#      x y z
#    x 1.882180 0.000000 0.006300 
#    y 0.000000 1.879750 0.000000 
#    z 0.006300 0.000000 1.891210 
# 
# From -- ./inp_files/129390.got.cif
#   From: 2010.06.25/outbox.cif.g09.slc.cpg/sg15_65_cif.got.tgz:129390.got - 2010.06.28 07:06:18.
