data_PCOD8154289
_publ_section_title
;
Structure prediction by ZEFSAII (Michael W. Deem and Ramdas Pophale) SiO2 
 PCOD8154289
Probable space group: C 2/C
;
_chemical_formula_sum "Si O2"
_cell_formula_units_Z 32
_cell_length_a 17.644842
_cell_length_b 6.532900
_cell_length_c 11.731864
_cell_angle_alpha 90.000000
_cell_angle_beta 97.038658
_cell_angle_gamma 90.000000
_cell_volume 1342.163534
_symmetry_space_group_name_H-M "C 2/C"
_symmetry_group_IT_number 15
_symmetry_cell_setting 'monoclinic'
loop_
_space_group_symop_operation_xyz
x,y,z
-x,y,1/2-z
-x,-y,-z
x,-y,1/2+z
1/2+x,1/2+y,z
1/2-x,1/2+y,1/2-z
1/2-x,1/2-y,-z
1/2+x,1/2-y,1/2+z
loop_
_atom_site_type_symbol
_atom_site_label
_atom_site_fract_x
_atom_site_fract_y
_atom_site_fract_z
Si Si1 0.889184 0.628659 0.486379
Si Si2 0.707836 0.155165 0.384377
Si Si3 0.036587 0.293621 0.142140
Si Si4 0.344557 0.448836 0.306236
O O1 0.844513 0.536219 0.586752
O O2 0.901505 0.450936 0.395395
O O3 0.840233 0.803232 0.416247
O O4 0.968917 0.732272 0.537974
O O5 0.750000 0.250000 0.500000
O O6 0.655314 0.326575 0.313547
O O7 0.769039 0.087363 0.300530
O O8 0.000000 0.385597 0.250000
O O9 0.077753 0.079535 0.177178
#
# Coordination Sequence:
#
# PCOD8154289 Si02
#       4
#     8   8   8   8
#     4  11  25  49  72 105 146 193 245 305 362 433
#     4  12  26  46  77 106 148 195 243 299 371 437
#     4  11  26  44  74 107 146 189 245 304 364 434
#     4  12  27  46  73 107 144 195 244 303 366 434
#
# _framework density 23.842103000000002
#
# number of rings (size 3 to 8) (size 9 to 14) (size 15 to 20)
#    0.000    0.500    2.500    4.500    7.000    5.000 
#    0.000    0.000    0.000    0.000    0.000    0.000 
#    0.000    0.000    0.000    0.000    0.000    0.000 
#
# Total GULP energy -198518.381765 kJ/mol
# GULP energy per Si atom -12407.398860 kJ/mol
# Density = 2.378784 g / cm^3
# Si number density = 23.842103 Si / 1000 Ang^3
#
#
#
# Elastic Constant Matrix: (Units=GPa)
#
#
# Indices 1 2 3 4 5 6 
#
# 1 102.9305 47.0921 27.2253 0.0000 2.5426 0.0000
# 2 47.0921 90.1057 40.1179 0.0000 23.3624 0.0000
# 3 27.2253 40.1179 100.1394 0.0000 2.2765 0.0000
# 4 0.0000 0.0000 0.0000 56.5943 0.0000 8.9343
# 5 2.5426 23.3624 2.2765 0.0000 41.8879 0.0000
# 6 0.0000 0.0000 0.0000 8.9343 0.0000 45.7689
#
#
#
# Elastic Compliance Matrix: (Units=1/GPa)
#
#
# Indices 1 2 3 4 5 6 
#
# 1 0.013244 -0.007511 -0.000670 0.000000 0.003422 0.000000
# 2 -0.007511 0.020392 -0.005887 0.000000 -0.010598 0.000000
# 3 -0.000670 -0.005887 0.012466 0.000000 0.002646 0.000000
# 4 0.000000 0.000000 0.000000 0.018231 0.000000 -0.003559
# 5 0.003422 -0.010598 0.002646 0.000000 0.029432 0.000000
# 6 0.000000 0.000000 0.000000 -0.003559 0.000000 0.022544
#
#
# Mechanical properties :
#
#
# Convention : Reuss Voigt Hill
#
# Bulk Modulus (GPa) = 55.65264 58.00512 56.82888
# Shear Modulus (GPa) = 33.23733 40.76626 37.00179
#
# Velocity S-wave (km/s) = 3.73776 4.13951 3.94376
# Velocity P-wave (km/s) = 6.48234 6.87234 6.68019
#
# Compressibility (1/GPa) = 0.01796860
#
# Stress axis : x y z
#
# Youngs Moduli (GPa) = 75.50486 49.03867 80.21677
#
# Poissons Ratio (x) = 0.36832 0.05371
# Poissons Ratio (y) = 0.56711 0.47220
# Poissons Ratio (z) = 0.05055 0.28867
#
# Static dielectric constant tensor:
#      x y z
#    x 4.274800 0.000000 0.057970 
#    y 0.000000 4.280610 0.000000 
#    z 0.057970 0.000000 4.209830 
# 
# 
# High freq. dielectric constant tensor:
#      x y z
#    x 1.951260 0.000000 0.009830 
#    y 0.000000 1.941790 0.000000 
#    z 0.009830 0.000000 1.952280 
# 
# From -- ./inp_files/109057.got.cif
#   From: 2010.06.25/outbox.cif.g09.slc.cpg/sg15_55_cif.got.tgz:109057.got - 2010.06.28 07:06:18.
