data_PCOD8154258
_publ_section_title
;
Structure prediction by ZEFSAII (Michael W. Deem and Ramdas Pophale) SiO2 
 PCOD8154258
Probable space group: C 2/C
;
_chemical_formula_sum "Si O2"
_cell_formula_units_Z 44
_cell_length_a 26.187530
_cell_length_b 6.747935
_cell_length_c 12.522496
_cell_angle_alpha 90.000000
_cell_angle_beta 71.671303
_cell_angle_gamma 90.000000
_cell_volume 2100.608960
_symmetry_space_group_name_H-M "C 2/C"
_symmetry_group_IT_number 15
_symmetry_cell_setting 'monoclinic'
loop_
_space_group_symop_operation_xyz
x,y,z
-x,y,1/2-z
-x,-y,-z
x,-y,1/2+z
1/2+x,1/2+y,z
1/2-x,1/2+y,1/2-z
1/2-x,1/2-y,-z
1/2+x,1/2-y,1/2+z
loop_
_atom_site_type_symbol
_atom_site_label
_atom_site_fract_x
_atom_site_fract_y
_atom_site_fract_z
Si Si1 0.454294 0.636756 0.078215
Si Si2 0.773737 0.054940 0.535648
Si Si3 0.325866 0.781406 0.876696
Si Si4 0.865800 0.822751 0.125252
Si Si5 0.915721 0.522927 0.455739
Si Si6 0.500000 0.833415 0.250000
O O1 0.397901 0.525336 0.118215
O O2 0.469751 0.691036 0.187903
O O3 0.500000 0.500000 0.000000
O O4 0.448129 0.835005 0.013520
O O5 0.750000 0.250000 0.500000
O O6 0.808361 0.120532 0.614449
O O7 0.726735 0.913196 0.608345
O O8 0.809774 0.939955 0.424235
O O9 0.358044 0.777239 0.745221
O O10 0.362430 0.875237 0.944933
O O11 0.899120 0.675578 0.028193
O O12 0.955885 0.472229 0.333843
#
# Coordination Sequence:
#
# PCOD8154258 Si02
#       6
#     8   8   8   8   8   4
#     4  12  28  47  71 105 141 185 239 286 352 419
#     4  11  25  48  69 106 141 181 239 285 351 419
#     4  11  27  44  74 102 142 186 230 294 347 418
#     4  12  27  46  75 103 143 189 233 292 351 420
#     4  12  26  50  69 109 140 182 241 290 350 419
#     4  12  28  46  76 102 144 188 230 298 348 412
#
# _framework density 20.946307000000001
#
# number of rings (size 3 to 8) (size 9 to 14) (size 15 to 20)
#    0.000    0.364    5.455    1.636   10.182    1.455 
#    0.000    0.000    0.000    0.000    0.000    0.000 
#    0.000    0.000    0.000    0.000    0.000    0.000 
#
# Total GULP energy -272999.497849 kJ/mol
# GULP energy per Si atom -12409.068084 kJ/mol
# Density = 2.089863 g / cm^3
# Si number density = 20.946307 Si / 1000 Ang^3
#
#
#
# Elastic Constant Matrix: (Units=GPa)
#
#
# Indices 1 2 3 4 5 6 
#
# 1 107.6584 49.8842 40.8574 0.0000 18.8837 0.0000
# 2 49.8842 125.3100 51.0044 0.0000 9.6422 0.0000
# 3 40.8574 51.0044 129.0547 0.0000 2.6756 0.0000
# 4 0.0000 0.0000 0.0000 32.4290 0.0000 -2.4971
# 5 18.8837 9.6422 2.6756 0.0000 46.4512 0.0000
# 6 0.0000 0.0000 0.0000 -2.4971 0.0000 51.3792
#
#
#
# Elastic Compliance Matrix: (Units=1/GPa)
#
#
# Indices 1 2 3 4 5 6 
#
# 1 0.012692 -0.003726 -0.002458 0.000000 -0.004245 0.000000
# 2 -0.003726 0.010749 -0.003058 0.000000 -0.000541 0.000000
# 3 -0.002458 -0.003058 0.009713 0.000000 0.001074 0.000000
# 4 0.000000 0.000000 0.000000 0.030952 0.000000 0.001504
# 5 -0.004245 -0.000541 0.001074 0.000000 0.023304 0.000000
# 6 0.000000 0.000000 0.000000 0.001504 0.000000 0.019536
#
#
# Mechanical properties :
#
#
# Convention : Reuss Voigt Hill
#
# Bulk Modulus (GPa) = 68.15468 71.72388 69.93928
# Shear Modulus (GPa) = 38.36703 40.73702 39.55202
#
# Velocity S-wave (km/s) = 4.28446 4.41481 4.35012
# Velocity P-wave (km/s) = 7.55539 7.76553 7.66118
#
# Compressibility (1/GPa) = 0.01467251
#
# Stress axis : x y z
#
# Youngs Moduli (GPa) = 78.78831 93.02791 102.95550
#
# Poissons Ratio (x) = 0.34658 0.25305
# Poissons Ratio (y) = 0.29353 0.31480
# Poissons Ratio (z) = 0.19365 0.28445
#
# Static dielectric constant tensor:
#      x y z
#    x 4.063870 0.000000 0.070370 
#    y 0.000000 4.069410 0.000000 
#    z 0.070370 0.000000 3.745280 
# 
# 
# High freq. dielectric constant tensor:
#      x y z
#    x 1.843920 0.000000 0.005410 
#    y 0.000000 1.835640 0.000000 
#    z 0.005410 0.000000 1.822350 
# 
# From -- ./inp_files/124991.got.cif
#   From: 2010.06.25/outbox.cif.g09.slc.cpg/sg15_63_cif.got.tgz:124991.got - 2010.06.28 07:06:18.
