data_PCOD8154967
_publ_section_title
;
Structure prediction by ZEFSAII (Michael W. Deem and Ramdas Pophale) SiO2 
 PCOD8154967
Probable space group: C 2/C
;
_chemical_formula_sum "Si O2"
_cell_formula_units_Z 52
_cell_length_a 10.846961
_cell_length_b 10.856778
_cell_length_c 31.231422
_cell_angle_alpha 90.000000
_cell_angle_beta 137.015987
_cell_angle_gamma 90.000000
_cell_volume 2507.576203
_symmetry_space_group_name_H-M "C 2/C"
_symmetry_group_IT_number 15
_symmetry_cell_setting 'monoclinic'
loop_
_space_group_symop_operation_xyz
x,y,z
-x,y,1/2-z
-x,-y,-z
x,-y,1/2+z
1/2+x,1/2+y,z
1/2-x,1/2+y,1/2-z
1/2-x,1/2-y,-z
1/2+x,1/2-y,1/2+z
loop_
_atom_site_type_symbol
_atom_site_label
_atom_site_fract_x
_atom_site_fract_y
_atom_site_fract_z
Si Si1 0.334738 0.238071 0.438730
Si Si2 0.350157 0.335601 0.350784
Si Si3 0.500000 0.004934 0.750000
Si Si4 0.503525 0.148755 0.332541
Si Si5 0.394143 0.747539 0.419749
Si Si6 0.102692 0.556507 0.924262
Si Si7 0.373639 0.457740 0.565697
O O1 0.372225 0.250242 0.398163
O O2 0.524216 0.229157 0.512275
O O3 0.229284 0.358078 0.427675
O O4 0.216579 0.115702 0.417707
O O5 0.351532 0.245894 0.309740
O O6 0.523653 0.423805 0.390431
O O7 0.165069 0.410329 0.306314
O O8 0.565678 0.919497 0.727542
O O9 0.682336 0.226496 0.368234
O O10 0.530449 0.053151 0.377471
O O11 0.434674 0.865172 0.400080
O O12 0.482827 0.626622 0.422253
O O13 0.218435 0.501413 0.992977
#
# Coordination Sequence:
#
# PCOD8154967 Si02
#       7
#     8   8   4   8   8   8   8
#     4   9  18  36  65  98 130 159 189 238 305 372
#     4  12  25  41  65  89 116 163 210 252 304 359
#     4  12  28  48  58  80 120 164 216 270 296 336
#     4  12  25  41  65  89 116 163 210 252 304 359
#     4   9  18  36  65  98 130 159 189 238 305 372
#     4   9  18  36  65  98 130 159 189 238 305 372
#     4   9  18  36  65  98 130 159 189 238 305 372
#
# _framework density 20.737154
#
# number of rings (size 3 to 8) (size 9 to 14) (size 15 to 20)
#    0.000    1.846    3.077    2.769    0.000    8.615 
#    0.000    3.077    0.000    0.000    0.000    0.000 
#    0.000    0.000    0.000    0.000    0.000    0.000 
#
# Total GULP energy -322427.948406 kJ/mol
# GULP energy per Si atom -12401.074939 kJ/mol
# Density = 2.068996 g / cm^3
# Si number density = 20.737154 Si / 1000 Ang^3
#
#
#
# Elastic Constant Matrix: (Units=GPa)
#
#
# Indices 1 2 3 4 5 6 
#
# 1 56.9804 28.0007 12.2777 0.0000 -5.6906 0.0000
# 2 28.0007 66.0189 17.9061 0.0000 -11.2201 0.0000
# 3 12.2777 17.9061 48.3339 0.0000 -3.1511 0.0000
# 4 0.0000 0.0000 0.0000 -1.2922 0.0000 11.6074
# 5 -5.6906 -11.2201 -3.1511 0.0000 12.7201 0.0000
# 6 0.0000 0.0000 0.0000 11.6074 0.0000 -6.7512
#
#
#
# Elastic Compliance Matrix: (Units=1/GPa)
#
#
# Indices 1 2 3 4 5 6 
#
# 1 0.022461 -0.008547 -0.002415 0.000000 0.001911 0.000000
# 2 -0.008547 0.022741 -0.005281 0.000000 0.014928 0.000000
# 3 -0.002415 -0.005281 0.023261 0.000000 0.000024 0.000000
# 4 0.000000 0.000000 0.000000 0.053577 0.000000 0.092116
# 5 0.001911 0.014928 0.000024 0.000000 0.092645 0.000000
# 6 0.000000 0.000000 0.000000 0.092116 0.000000 0.010255
#
#
# Mechanical properties :
#
#
# Convention : Reuss Voigt Hill
#
# Bulk Modulus (GPa) = 27.79393 31.96693 29.88043
# Shear Modulus (GPa) = 18.55857 8.47857 13.51857
#
# Velocity S-wave (km/s) = 2.99481 2.02422 2.55601
# Velocity P-wave (km/s) = 5.03890 4.57297 4.81158
#
# Compressibility (1/GPa) = 0.03597907
#
# Stress axis : x y z
#
# Youngs Moduli (GPa) = 44.52172 43.97263 42.99105
#
# Poissons Ratio (x) = 0.37582 0.10381
# Poissons Ratio (y) = 0.38051 0.22702
# Poissons Ratio (z) = 0.10750 0.23221
#
# Static dielectric constant tensor:
#      x y z
#    x 3.785740 0.000000 -0.094180 
#    y 0.000000 3.810740 0.000000 
#    z -0.094180 0.000000 3.567580 
# 
# 
# High freq. dielectric constant tensor:
#      x y z
#    x 1.814570 0.000000 -0.008070 
#    y 0.000000 1.817070 0.000000 
#    z -0.008070 0.000000 1.785450 
# 
# From -- ./inp_files/310853.got.cif
#   From: 2010.06.25/outbox.cif.g09.slc.cpg/sg15_156_cif.got.tgz:310853.got - 2010.06.28 07:06:18.
