data_PCOD8154362
_publ_section_title
;
Structure prediction by ZEFSAII (Michael W. Deem and Ramdas Pophale) SiO2 
 PCOD8154362
Probable space group: C 2/C
;
_chemical_formula_sum "Si O2"
_cell_formula_units_Z 60
_cell_length_a 18.639545
_cell_length_b 17.534692
_cell_length_c 11.077753
_cell_angle_alpha 90.000000
_cell_angle_beta 135.785133
_cell_angle_gamma 90.000000
_cell_volume 2524.856021
_symmetry_space_group_name_H-M "C 2/C"
_symmetry_group_IT_number 15
_symmetry_cell_setting 'monoclinic'
loop_
_space_group_symop_operation_xyz
x,y,z
-x,y,1/2-z
-x,-y,-z
x,-y,1/2+z
1/2+x,1/2+y,z
1/2-x,1/2+y,1/2-z
1/2-x,1/2-y,-z
1/2+x,1/2-y,1/2+z
loop_
_atom_site_type_symbol
_atom_site_label
_atom_site_fract_x
_atom_site_fract_y
_atom_site_fract_z
Si Si1 0.248009 0.925623 0.287746
Si Si2 0.562789 0.494104 0.453121
Si Si3 0.500000 0.779765 0.750000
Si Si4 0.898906 0.547967 0.412745
Si Si5 0.393228 0.196573 0.570419
Si Si6 0.371945 0.321787 0.951086
Si Si7 0.203958 0.364000 0.914041
Si Si8 0.283573 0.209909 0.679801
O O1 0.220855 0.898634 0.390954
O O2 0.313592 0.857358 0.306725
O O3 0.324839 0.995594 0.402996
O O4 0.153126 0.943938 0.083023
O O5 0.500000 0.507860 0.250000
O O6 0.500000 0.500000 0.500000
O O7 0.613360 0.411376 0.519820
O O8 0.474682 0.723723 0.608801
O O9 0.599919 0.828367 0.840798
O O10 0.918356 0.624846 0.514067
O O11 0.836187 0.566990 0.216876
O O12 0.000000 0.500000 0.500000
O O13 0.500000 0.226747 0.750000
O O14 0.312118 0.179205 0.581392
O O15 0.337396 0.269050 0.441249
O O16 0.274315 0.304201 0.923210
O O17 0.343812 0.289186 0.784998
#
# Coordination Sequence:
#
# PCOD8154362 Si02
#       8
#     8   8   4   8   8   8   8   8
#     4  12  27  45  76 107 151 194 249 316 385 461
#     4  12  28  49  77 112 151 209 261 321 390 469
#     4  12  26  42  82 108 144 188 264 310 388 466
#     4  12  27  47  75 108 155 200 253 314 392 470
#     4  11  26  46  73 102 152 196 250 315 380 459
#     4  12  25  49  74 107 153 194 253 327 380 463
#     4  12  26  49  74 114 146 198 251 319 392 455
#     4  11  26  47  71 108 143 201 245 313 390 448
#
# _framework density 23.763731
#
# number of rings (size 3 to 8) (size 9 to 14) (size 15 to 20)
#    0.000    0.267    4.667    2.800    5.600    3.733 
#    0.000    0.000    0.000    0.000    0.000    0.000 
#    0.000    0.000    0.000    0.000    0.000    0.000 
#
# Total GULP energy -371648.901188 kJ/mol
# GULP energy per Si atom -12388.296706 kJ/mol
# Density = 2.370964 g / cm^3
# Si number density = 23.763731 Si / 1000 Ang^3
#
#
#
# Elastic Constant Matrix: (Units=GPa)
#
#
# Indices 1 2 3 4 5 6 
#
# 1 92.2997 29.6771 33.1538 0.0000 -4.5328 0.0000
# 2 29.6771 87.0387 41.4632 0.0000 -4.4055 0.0000
# 3 33.1538 41.4632 157.7684 0.0000 -9.9184 0.0000
# 4 0.0000 0.0000 0.0000 36.5572 0.0000 -0.9457
# 5 -4.5328 -4.4055 -9.9184 0.0000 43.8888 0.0000
# 6 0.0000 0.0000 0.0000 -0.9457 0.0000 31.9888
#
#
#
# Elastic Compliance Matrix: (Units=1/GPa)
#
#
# Indices 1 2 3 4 5 6 
#
# 1 0.012583 -0.003451 -0.001702 0.000000 0.000569 0.000000
# 2 -0.003451 0.014093 -0.002954 0.000000 0.000391 0.000000
# 3 -0.001702 -0.002954 0.007550 0.000000 0.001234 0.000000
# 4 0.000000 0.000000 0.000000 0.027375 0.000000 0.000809
# 5 0.000569 0.000391 0.001234 0.000000 0.023162 0.000000
# 6 0.000000 0.000000 0.000000 0.000809 0.000000 0.031285
#
#
# Mechanical properties :
#
#
# Convention : Reuss Voigt Hill
#
# Bulk Modulus (GPa) = 55.51649 60.63276 58.07462
# Shear Modulus (GPa) = 36.16252 38.00780 37.08516
#
# Velocity S-wave (km/s) = 3.90520 4.00359 3.95470
# Velocity P-wave (km/s) = 6.61413 6.85142 6.73382
#
# Compressibility (1/GPa) = 0.01801267
#
# Stress axis : x y z
#
# Youngs Moduli (GPa) = 79.47240 70.95824 132.45258
#
# Poissons Ratio (x) = 0.24488 0.22537
# Poissons Ratio (y) = 0.27426 0.39126
# Poissons Ratio (z) = 0.13522 0.20961
#
# Static dielectric constant tensor:
#      x y z
#    x 4.039670 0.000000 0.113350 
#    y 0.000000 5.051660 0.000000 
#    z 0.113350 0.000000 4.696310 
# 
# 
# High freq. dielectric constant tensor:
#      x y z
#    x 1.935990 0.000000 -0.000280 
#    y 0.000000 1.942780 0.000000 
#    z -0.000280 0.000000 1.961420 
# 
# From -- ./inp_files/113819.got.cif
#   From: 2010.06.25/outbox.cif.g09.slc.cpg/sg15_57_cif.got.tgz:113819.got - 2010.06.28 07:06:18.
