data_PCOD8154097
_publ_section_title
;
Structure prediction by ZEFSAII (Michael W. Deem and Ramdas Pophale) SiO2 
 PCOD8154097
Probable space group: C 2/C
;
_chemical_formula_sum "Si O2"
_cell_formula_units_Z 40
_cell_length_a 22.192065
_cell_length_b 5.145380
_cell_length_c 20.495969
_cell_angle_alpha 90.000000
_cell_angle_beta 40.335435
_cell_angle_gamma 90.000000
_cell_volume 1514.827878
_symmetry_space_group_name_H-M "C 2/C"
_symmetry_group_IT_number 15
_symmetry_cell_setting 'monoclinic'
loop_
_space_group_symop_operation_xyz
x,y,z
-x,y,1/2-z
-x,-y,-z
x,-y,1/2+z
1/2+x,1/2+y,z
1/2-x,1/2+y,1/2-z
1/2-x,1/2-y,-z
1/2+x,1/2-y,1/2+z
loop_
_atom_site_type_symbol
_atom_site_label
_atom_site_fract_x
_atom_site_fract_y
_atom_site_fract_z
Si Si1 0.739914 0.565068 0.835796
Si Si2 0.103643 0.317725 0.867091
Si Si3 0.901995 0.341741 0.000423
Si Si4 0.805421 0.136804 0.394022
Si Si5 0.598738 0.884465 0.648997
O O1 0.846277 0.496102 0.728439
O O2 0.679455 0.591364 0.818928
O O3 0.747045 0.829564 0.874370
O O4 0.684387 0.351980 0.922963
O O5 0.005746 0.206484 0.920379
O O6 0.091903 0.441220 0.948783
O O7 0.890337 0.451470 0.936827
O O8 0.750000 0.250000 0.500000
O O9 0.889738 0.346816 0.319993
O O10 0.829780 0.837256 0.385242
O O11 0.500000 0.766153 0.750000
#
# Coordination Sequence:
#
# PCOD8154097 Si02
#       5
#     8   8   8   8   8
#     4  12  24  44  73 102 145 187 246 301 371 447
#     4  11  25  44  70 106 140 195 241 299 376 435
#     4  11  25  46  70 102 149 185 246 305 364 443
#     4  12  26  46  77 106 145 197 246 307 377 439
#     4  12  27  49  74 110 148 196 249 311 374 444
#
# _framework density 26.405643000000001
#
# number of rings (size 3 to 8) (size 9 to 14) (size 15 to 20)
#    0.000    0.400    4.000    4.200    2.800    1.600 
#    3.600    0.000    0.000    0.000    0.000    0.000 
#    0.000    0.000    0.000    0.000    0.000    0.000 
#
# Total GULP energy -247824.625388 kJ/mol
# GULP energy per Si atom -12391.231269 kJ/mol
# Density = 2.634554 g / cm^3
# Si number density = 26.405643 Si / 1000 Ang^3
#
#
#
# Elastic Constant Matrix: (Units=GPa)
#
#
# Indices 1 2 3 4 5 6 
#
# 1 151.8502 24.5438 27.4951 0.0779 0.0786 0.0459
# 2 24.5438 70.0866 10.4481 0.2307 -2.6391 -0.1605
# 3 27.4951 10.4481 104.7101 0.1951 4.9703 -0.2244
# 4 0.0779 0.2307 0.1951 22.2295 -0.1457 6.8710
# 5 0.0786 -2.6391 4.9703 -0.1457 41.2445 0.0857
# 6 0.0459 -0.1605 -0.2244 6.8710 0.0857 49.9533
#
#
#
# Elastic Compliance Matrix: (Units=1/GPa)
#
#
# Indices 1 2 3 4 5 6 
#
# 1 0.007260 -0.002290 -0.001680 0.000021 0.000042 -0.000025
# 2 -0.002290 0.015257 -0.000973 -0.000155 0.001097 0.000066
# 3 -0.001680 -0.000973 0.010150 -0.000100 -0.001283 0.000060
# 4 0.000021 -0.000155 -0.000100 0.046987 0.000182 -0.006464
# 5 0.000042 0.001097 -0.001283 0.000182 0.024471 -0.000069
# 6 -0.000025 0.000066 0.000060 -0.006464 -0.000069 0.020908
#
#
# Mechanical properties :
#
#
# Convention : Reuss Voigt Hill
#
# Bulk Modulus (GPa) = 43.89688 50.18013 47.03850
# Shear Modulus (GPa) = 35.08468 40.29610 37.69039
#
# Velocity S-wave (km/s) = 3.64906 3.91070 3.78214
# Velocity P-wave (km/s) = 5.86637 6.27983 6.07662
#
# Compressibility (1/GPa) = 0.02278066
#
# Stress axis : x y z
#
# Youngs Moduli (GPa) = 137.74510 65.54315 98.52679
#
# Poissons Ratio (x) = 0.15012 0.16551
# Poissons Ratio (y) = 0.31550 0.09583
# Poissons Ratio (z) = 0.23139 0.06375
#
# Static dielectric constant tensor:
#      x y z
#    x 5.869930 -0.003780 -0.630260 
#    y -0.003780 5.456190 0.002630 
#    z -0.630260 0.002630 5.257030 
# 
# 
# High freq. dielectric constant tensor:
#      x y z
#    x 2.088820 -0.000060 -0.005210 
#    y -0.000060 2.031500 0.000040 
#    z -0.005210 0.000040 2.076430 
# 
# From -- ./inp_files/254202.got.cif
#   From: 2010.06.25/outbox.cif.g09.slc.cpg/sg15_128_cif.got.tgz:254202.got - 2010.06.28 07:06:18.
