data_PCOD8154901
_publ_section_title
;
Structure prediction by ZEFSAII (Michael W. Deem and Ramdas Pophale) SiO2 
 PCOD8154901
Probable space group: C 2/C
;
_chemical_formula_sum "Si O2"
_cell_formula_units_Z 52
_cell_length_a 17.780143
_cell_length_b 14.474230
_cell_length_c 14.470876
_cell_angle_alpha 90.000000
_cell_angle_beta 139.449290
_cell_angle_gamma 90.000000
_cell_volume 2421.138309
_symmetry_space_group_name_H-M "C 2/C"
_symmetry_group_IT_number 15
_symmetry_cell_setting 'monoclinic'
loop_
_space_group_symop_operation_xyz
x,y,z
-x,y,1/2-z
-x,-y,-z
x,-y,1/2+z
1/2+x,1/2+y,z
1/2-x,1/2+y,1/2-z
1/2-x,1/2-y,-z
1/2+x,1/2-y,1/2+z
loop_
_atom_site_type_symbol
_atom_site_label
_atom_site_fract_x
_atom_site_fract_y
_atom_site_fract_z
Si Si1 0.487148 0.060028 0.397546
Si Si2 0.754579 0.615367 0.862257
Si Si3 0.785461 0.668805 0.467641
Si Si4 0.364894 0.495209 0.611385
Si Si5 0.865615 0.988226 0.899941
Si Si6 0.219999 0.313375 0.746377
Si Si7 0.500000 0.932091 0.250000
O O1 0.612084 0.099849 0.488281
O O2 0.397504 0.142112 0.326314
O O3 0.500000 0.000000 0.500000
O O4 0.438888 0.996228 0.269683
O O5 0.682155 0.590616 0.887373
O O6 0.714412 0.551022 0.739717
O O7 0.738836 0.721943 0.823231
O O8 0.750000 0.750000 0.500000
O O9 0.691754 0.587171 0.382346
O O10 0.795818 0.711563 0.375630
O O11 0.909011 0.631627 0.613489
O O12 0.500000 0.490737 0.750000
O O13 0.336670 0.482975 0.477562
O O14 0.830406 0.880924 0.858197
O O15 0.000000 0.000000 0.000000
#
# Coordination Sequence:
#
# PCOD8154901 Si02
#       7
#     8   8   8   8   8   8   4
#     4  12  24  48  73 100 149 191 242 296 359 437
#     4  12  27  47  71 108 145 189 245 298 362 437
#     4  12  26  44  72 112 140 187 245 302 363 426
#     4  12  24  47  71 101 148 185 236 296 366 430
#     4  12  24  47  72 100 145 188 232 298 362 427
#     4  12  27  46  74 106 144 193 242 295 366 431
#     4  12  24  48  74 104 148 192 238 304 366 412
#
# _framework density 21.477501
#
# number of rings (size 3 to 8) (size 9 to 14) (size 15 to 20)
#    0.000    0.000    7.692    1.846    5.385    0.615 
#    1.385    0.000    0.000    0.000    0.000    0.000 
#    0.000    0.000    0.000    0.000    0.000    0.000 
#
# Total GULP energy -322522.652477 kJ/mol
# GULP energy per Si atom -12404.717403 kJ/mol
# Density = 2.142862 g / cm^3
# Si number density = 21.477501 Si / 1000 Ang^3
#
#
#
# Elastic Constant Matrix: (Units=GPa)
#
#
# Indices 1 2 3 4 5 6 
#
# 1 107.5603 24.1910 41.2003 0.0000 0.7899 0.0000
# 2 24.1910 116.0240 19.4766 0.0000 11.8435 0.0000
# 3 41.2003 19.4766 74.3073 0.0000 18.6407 0.0000
# 4 0.0000 0.0000 0.0000 24.6246 0.0000 -12.3623
# 5 0.7899 11.8435 18.6407 0.0000 52.7113 0.0000
# 6 0.0000 0.0000 0.0000 -12.3623 0.0000 21.9672
#
#
#
# Elastic Compliance Matrix: (Units=1/GPa)
#
#
# Indices 1 2 3 4 5 6 
#
# 1 0.012371 -0.001663 -0.007101 0.000000 0.002699 0.000000
# 2 -0.001663 0.009322 -0.001100 0.000000 -0.001681 0.000000
# 3 -0.007101 -0.001100 0.019307 0.000000 -0.006474 0.000000
# 4 0.000000 0.000000 0.000000 0.056601 0.000000 0.031853
# 5 0.002699 -0.001681 -0.006474 0.000000 0.021598 0.000000
# 6 0.000000 0.000000 0.000000 0.031853 0.000000 0.063448
#
#
# Mechanical properties :
#
#
# Convention : Reuss Voigt Hill
#
# Bulk Modulus (GPa) = 47.00685 51.95862 49.48273
# Shear Modulus (GPa) = 23.87048 34.06220 28.96634
#
# Velocity S-wave (km/s) = 3.33741 3.98672 3.67643
# Velocity P-wave (km/s) = 6.06508 6.74066 6.41177
#
# Compressibility (1/GPa) = 0.02127349
#
# Stress axis : x y z
#
# Youngs Moduli (GPa) = 80.83346 107.27549 51.79493
#
# Poissons Ratio (x) = 0.17840 0.36777
# Poissons Ratio (y) = 0.13442 0.05696
# Poissons Ratio (z) = 0.57396 0.11797
#
# Static dielectric constant tensor:
#      x y z
#    x 4.266160 0.000000 -0.192240 
#    y 0.000000 4.092870 0.000000 
#    z -0.192240 0.000000 4.166900 
# 
# 
# High freq. dielectric constant tensor:
#      x y z
#    x 1.863490 0.000000 -0.003780 
#    y 0.000000 1.836310 0.000000 
#    z -0.003780 0.000000 1.859120 
# 
# From -- ./inp_files/162464.got.cif
#   From: 2010.06.25/outbox.cif.g09.slc.cpg/sg15_82_cif.got.tgz:162464.got - 2010.06.28 07:06:18.
