data_PCOD8154337
_publ_section_title
;
Structure prediction by ZEFSAII (Michael W. Deem and Ramdas Pophale) SiO2 
 PCOD8154337
Probable space group: C 2/C
;
_chemical_formula_sum "Si O2"
_cell_formula_units_Z 56
_cell_length_a 14.419253
_cell_length_b 8.971834
_cell_length_c 23.417459
_cell_angle_alpha 90.000000
_cell_angle_beta 123.466265
_cell_angle_gamma 90.000000
_cell_volume 2527.199287
_symmetry_space_group_name_H-M "C 2/C"
_symmetry_group_IT_number 15
_symmetry_cell_setting 'monoclinic'
loop_
_space_group_symop_operation_xyz
x,y,z
-x,y,1/2-z
-x,-y,-z
x,-y,1/2+z
1/2+x,1/2+y,z
1/2-x,1/2+y,1/2-z
1/2-x,1/2-y,-z
1/2+x,1/2-y,1/2+z
loop_
_atom_site_type_symbol
_atom_site_label
_atom_site_fract_x
_atom_site_fract_y
_atom_site_fract_z
Si Si1 0.103163 0.397326 0.018521
Si Si2 0.893903 0.249064 0.246682
Si Si3 0.732616 0.575817 0.504051
Si Si4 0.481615 0.388151 0.073907
Si Si5 0.807200 0.260310 0.335035
Si Si6 0.418432 0.594461 0.768057
Si Si7 0.719679 0.443868 0.125697
O O1 0.152500 0.333661 0.093437
O O2 0.197735 0.492792 0.020467
O O3 0.075419 0.264224 0.965779
O O4 0.000000 0.500000 0.000000
O O5 0.900180 0.281644 0.317038
O O6 0.781628 0.311137 0.179729
O O7 0.000000 0.320841 0.250000
O O8 0.895157 0.072838 0.239682
O O9 0.750000 0.750000 0.500000
O O10 0.603600 0.526867 0.455762
O O11 0.774912 0.533678 0.582106
O O12 0.525672 0.378048 0.152622
O O13 0.588706 0.411012 0.069639
O O14 0.698739 0.328270 0.271033
O O15 0.775500 0.088668 0.333279
O O16 0.500000 0.671286 0.750000
#
# Coordination Sequence:
#
# PCOD8154337 Si02
#       7
#     8   8   8   8   8   8   8
#     4  12  30  47  77 108 151 202 254 312 382 459
#     4  11  26  47  73 109 144 196 252 305 370 455
#     4  12  29  48  77 109 148 194 257 317 379 454
#     4  12  25  51  74 110 150 199 253 311 383 451
#     4  12  25  50  69 110 150 194 249 308 376 448
#     4  11  26  44  78 103 149 196 250 311 377 447
#     4  12  27  45  76 107 150 196 245 315 377 448
#
# _framework density 22.158916999999999
#
# number of rings (size 3 to 8) (size 9 to 14) (size 15 to 20)
#    0.000    0.286    4.286    2.571   14.000    1.714 
#    0.000    0.000    0.000    0.000    0.000    0.000 
#    0.000    0.000    0.000    0.000    0.000    0.000 
#
# Total GULP energy -347194.347105 kJ/mol
# GULP energy per Si atom -12399.798111 kJ/mol
# Density = 2.210848 g / cm^3
# Si number density = 22.158917 Si / 1000 Ang^3
#
#
#
# Elastic Constant Matrix: (Units=GPa)
#
#
# Indices 1 2 3 4 5 6 
#
# 1 152.7706 60.6937 56.6562 0.0000 -16.7540 0.0000
# 2 60.6937 117.5911 63.3950 0.0000 4.9049 0.0000
# 3 56.6562 63.3950 152.5054 0.0000 -9.7298 0.0000
# 4 0.0000 0.0000 0.0000 133.0299 0.0000 38.7749
# 5 -16.7540 4.9049 -9.7298 0.0000 39.9560 0.0000
# 6 0.0000 0.0000 0.0000 38.7749 0.0000 40.2257
#
#
#
# Elastic Compliance Matrix: (Units=1/GPa)
#
#
# Indices 1 2 3 4 5 6 
#
# 1 0.009151 -0.004117 -0.001433 0.000000 0.003993 0.000000
# 2 -0.004117 0.013063 -0.004178 0.000000 -0.004347 0.000000
# 3 -0.001433 -0.004178 0.008960 0.000000 0.002094 0.000000
# 4 0.000000 0.000000 0.000000 0.010454 0.000000 -0.010077
# 5 0.003993 -0.004347 0.002094 0.000000 0.027746 0.000000
# 6 0.000000 0.000000 0.000000 -0.010077 0.000000 0.034574
#
#
# Mechanical properties :
#
#
# Convention : Reuss Voigt Hill
#
# Bulk Modulus (GPa) = 85.34648 87.15077 86.24863
# Shear Modulus (GPa) = 39.27437 58.78379 49.02908
#
# Velocity S-wave (km/s) = 4.21455 5.15615 4.70894
# Velocity P-wave (km/s) = 7.89193 8.65235 8.28087
#
# Compressibility (1/GPa) = 0.01171694
#
# Stress axis : x y z
#
# Youngs Moduli (GPa) = 109.27849 76.55389 111.60752
#
# Poissons Ratio (x) = 0.31517 0.15998
# Poissons Ratio (y) = 0.44990 0.46629
# Poissons Ratio (z) = 0.15664 0.31984
#
# Static dielectric constant tensor:
#      x y z
#    x 5.330480 0.000000 0.446420 
#    y 0.000000 4.283760 0.000000 
#    z 0.446420 0.000000 4.277940 
# 
# 
# High freq. dielectric constant tensor:
#      x y z
#    x 1.895390 0.000000 -0.015410 
#    y 0.000000 1.870150 0.000000 
#    z -0.015410 0.000000 1.885950 
# 
# From -- ./inp_files/273242.got.cif
#   From: 2010.06.25/outbox.cif.g09.slc.cpg/sg15_137_cif.got.tgz:273242.got - 2010.06.28 07:06:18.
