data_PCOD8154008
_publ_section_title
;
Structure prediction by ZEFSAII (Michael W. Deem and Ramdas Pophale) SiO2 
 PCOD8154008
Probable space group: C 2/C
;
_chemical_formula_sum "Si O2"
_cell_formula_units_Z 52
_cell_length_a 22.671461
_cell_length_b 6.688795
_cell_length_c 18.242739
_cell_angle_alpha 90.000000
_cell_angle_beta 58.761042
_cell_angle_gamma 90.000000
_cell_volume 2365.318145
_symmetry_space_group_name_H-M "C 2/C"
_symmetry_group_IT_number 15
_symmetry_cell_setting 'monoclinic'
loop_
_space_group_symop_operation_xyz
x,y,z
-x,y,1/2-z
-x,-y,-z
x,-y,1/2+z
1/2+x,1/2+y,z
1/2-x,1/2+y,1/2-z
1/2-x,1/2-y,-z
1/2+x,1/2-y,1/2+z
loop_
_atom_site_type_symbol
_atom_site_label
_atom_site_fract_x
_atom_site_fract_y
_atom_site_fract_z
Si Si1 0.868845 0.555838 0.584191
Si Si2 0.599103 0.774817 0.802159
Si Si3 0.546427 0.395914 0.910743
Si Si4 0.574675 0.816969 0.084298
Si Si5 0.500000 0.965799 0.750000
Si Si6 0.733386 0.270245 0.125615
Si Si7 0.703654 0.555693 0.014178
O O1 0.896942 0.401964 0.626000
O O2 0.896895 0.774952 0.581400
O O3 0.894088 0.487826 0.487881
O O4 0.786301 0.584822 0.634963
O O5 0.585697 0.546495 0.831873
O O6 0.672695 0.799312 0.717275
O O7 0.535700 0.836615 0.790887
O O8 0.501036 0.246275 0.892138
O O9 0.500000 0.500000 0.000000
O O10 0.562314 0.905719 0.173620
O O11 0.625464 0.627347 0.052016
O O12 0.700680 0.400328 0.082147
O O13 0.768888 0.065462 0.074062
O O14 0.750000 0.750000 0.000000
#
# Coordination Sequence:
#
# PCOD8154008 Si02
#       7
#     8   8   8   8   4   8   8
#     4  12  26  50  72 105 146 189 242 298 357 428
#     4  12  29  47  72 108 147 190 241 305 352 429
#     4  12  25  45  74 105 139 195 238 285 367 424
#     4  12  25  47  76 103 147 189 238 300 357 428
#     4  12  28  48  72 110 148 182 244 304 356 430
#     4  11  28  44  75 108 144 189 242 296 357 430
#     4  11  24  48  73 105 141 193 238 294 363 421
#
# _framework density 21.984359000000001
#
# number of rings (size 3 to 8) (size 9 to 14) (size 15 to 20)
#    0.000    0.308    4.615    3.231    8.615    1.231 
#    0.000    0.000    0.000    0.000    0.000    0.000 
#    0.000    0.000    0.000    0.000    0.000    0.000 
#
# Total GULP energy -322517.828766 kJ/mol
# GULP energy per Si atom -12404.531876 kJ/mol
# Density = 2.193432 g / cm^3
# Si number density = 21.984359 Si / 1000 Ang^3
#
#
#
# Elastic Constant Matrix: (Units=GPa)
#
#
# Indices 1 2 3 4 5 6 
#
# 1 103.4655 28.4124 28.7452 0.0030 -5.6428 -0.0030
# 2 28.4124 103.9383 39.2652 -0.0154 -2.0930 -0.0238
# 3 28.7452 39.2652 117.8687 -0.0013 -9.3602 -0.0049
# 4 0.0030 -0.0154 -0.0013 36.8914 -0.0014 -5.3134
# 5 -5.6428 -2.0930 -9.3602 -0.0014 31.8862 -0.0018
# 6 -0.0030 -0.0238 -0.0049 -5.3134 -0.0018 46.4978
#
#
#
# Elastic Compliance Matrix: (Units=1/GPa)
#
#
# Indices 1 2 3 4 5 6 
#
# 1 0.010853 -0.002264 -0.001794 -0.000002 0.001245 -0.000001
# 2 -0.002264 0.011483 -0.003322 0.000006 -0.000622 0.000006
# 3 -0.001794 -0.003322 0.010224 -0.000001 0.002466 -0.000001
# 4 -0.000002 0.000006 -0.000001 0.027560 0.000001 0.003149
# 5 0.001245 -0.000622 0.002466 0.000001 0.032265 0.000001
# 6 -0.000001 0.000006 -0.000001 0.003149 0.000001 0.021866
#
#
# Mechanical properties :
#
#
# Convention : Reuss Voigt Hill
#
# Bulk Modulus (GPa) = 56.18180 57.56867 56.87524
# Shear Modulus (GPa) = 37.05225 38.31171 37.68198
#
# Velocity S-wave (km/s) = 4.10981 4.17907 4.14458
# Velocity P-wave (km/s) = 6.93769 7.03770 6.98787
#
# Compressibility (1/GPa) = 0.01779936
#
# Stress axis : x y z
#
# Youngs Moduli (GPa) = 92.14005 87.08831 97.80869
#
# Poissons Ratio (x) = 0.19718 0.17543
# Poissons Ratio (y) = 0.20861 0.32496
# Poissons Ratio (z) = 0.16527 0.28934
#
# Static dielectric constant tensor:
#      x y z
#    x 3.974120 -0.000060 -0.063350 
#    y -0.000060 4.376720 0.000000 
#    z -0.063350 0.000000 3.883920 
# 
# 
# High freq. dielectric constant tensor:
#      x y z
#    x 1.878850 0.000000 -0.001440 
#    y 0.000000 1.874680 0.000000 
#    z -0.001440 0.000000 1.867190 
# 
# From -- ./inp_files/256737.got.cif
#   From: 2010.06.25/outbox.cif.g09.slc.cpg/sg15_129_cif.got.tgz:256737.got - 2010.06.28 07:06:18.
