data_PCOD8154593
_publ_section_title
;
Structure prediction by ZEFSAII (Michael W. Deem and Ramdas Pophale) SiO2 
 PCOD8154593
Probable space group: C 2/C
;
_chemical_formula_sum "Si O2"
_cell_formula_units_Z 44
_cell_length_a 12.293276
_cell_length_b 14.493722
_cell_length_c 11.964004
_cell_angle_alpha 90.000000
_cell_angle_beta 98.715777
_cell_angle_gamma 90.000000
_cell_volume 2107.073961
_symmetry_space_group_name_H-M "C 2/C"
_symmetry_group_IT_number 15
_symmetry_cell_setting 'monoclinic'
loop_
_space_group_symop_operation_xyz
x,y,z
-x,y,1/2-z
-x,-y,-z
x,-y,1/2+z
1/2+x,1/2+y,z
1/2-x,1/2+y,1/2-z
1/2-x,1/2-y,-z
1/2+x,1/2-y,1/2+z
loop_
_atom_site_type_symbol
_atom_site_label
_atom_site_fract_x
_atom_site_fract_y
_atom_site_fract_z
Si Si1 0.000000 0.968499 0.750000
Si Si2 0.370615 0.099981 0.245041
Si Si3 0.277643 0.431931 0.226746
Si Si4 0.270728 0.353419 0.980932
Si Si5 0.813423 0.773012 0.394267
Si Si6 0.007003 0.893965 0.967989
O O1 0.055083 0.900166 0.850025
O O2 0.100741 0.031228 0.718852
O O3 0.500000 0.090967 0.250000
O O4 0.340154 0.182161 0.326379
O O5 0.320037 0.005279 0.281643
O O6 0.325545 0.110628 0.113002
O O7 0.280645 0.407914 0.097446
O O8 0.248500 0.345143 0.303586
O O9 0.250000 0.250000 0.000000
O O10 0.384613 0.357278 0.933632
O O11 0.750000 0.750000 0.500000
O O12 0.926482 0.824357 0.443932
O O13 0.000000 0.000000 0.000000
#
# Coordination Sequence:
#
# PCOD8154593 Si02
#       6
#     4   8   8   8   8   8
#     4  12  22  40  78 108 132 180 240 302 356 408
#     4  12  28  48  71 103 151 194 233 291 367 431
#     4  12  25  46  74 104 146 183 242 296 357 427
#     4  12  24  44  73 103 134 190 240 288 351 424
#     4  12  27  47  71 111 145 185 242 305 357 422
#     4  12  23  41  74 104 136 181 237 299 353 409
#
# _framework density 20.882038000000001
#
# number of rings (size 3 to 8) (size 9 to 14) (size 15 to 20)
#    0.000    0.000    7.273    2.182    3.818    0.727 
#    3.273    0.000    0.000    0.000    0.000    0.000 
#    0.000    0.000    0.000    0.000    0.000    0.000 
#
# Total GULP energy -272621.195227 kJ/mol
# GULP energy per Si atom -12391.872510 kJ/mol
# Density = 2.083451 g / cm^3
# Si number density = 20.882038 Si / 1000 Ang^3
#
#
#
# Elastic Constant Matrix: (Units=GPa)
#
#
# Indices 1 2 3 4 5 6 
#
# 1 129.1791 52.7098 27.2191 0.0000 4.5150 0.0000
# 2 52.7098 123.6780 32.6959 0.0000 -7.2063 0.0000
# 3 27.2191 32.6959 129.2458 0.0000 -0.9755 0.0000
# 4 0.0000 0.0000 0.0000 42.2812 0.0000 -2.7619
# 5 4.5150 -7.2063 -0.9755 0.0000 36.6616 0.0000
# 6 0.0000 0.0000 0.0000 -2.7619 0.0000 33.5009
#
#
#
# Elastic Compliance Matrix: (Units=1/GPa)
#
#
# Indices 1 2 3 4 5 6 
#
# 1 0.009643 -0.003949 -0.001047 0.000000 -0.001992 0.000000
# 2 -0.003949 0.010383 -0.001776 0.000000 0.002480 0.000000
# 3 -0.001047 -0.001776 0.008407 0.000000 0.000003 0.000000
# 4 0.000000 0.000000 0.000000 0.023779 0.000000 0.001960
# 5 -0.001992 0.002480 0.000003 0.000000 0.028009 0.000000
# 6 0.000000 0.000000 0.000000 0.001960 0.000000 0.030012
#
#
# Mechanical properties :
#
#
# Convention : Reuss Voigt Hill
#
# Bulk Modulus (GPa) = 67.16597 67.48360 67.32479
# Shear Modulus (GPa) = 38.83836 40.45397 39.64616
#
# Velocity S-wave (km/s) = 4.31733 4.40621 4.36199
# Velocity P-wave (km/s) = 7.55557 7.63367 7.59472
#
# Compressibility (1/GPa) = 0.01488849
#
# Stress axis : x y z
#
# Youngs Moduli (GPa) = 103.70593 96.31589 118.94842
#
# Poissons Ratio (x) = 0.38034 0.12452
# Poissons Ratio (y) = 0.40952 0.21127
# Poissons Ratio (z) = 0.10856 0.17107
#
# Static dielectric constant tensor:
#      x y z
#    x 3.744950 0.000000 0.179520 
#    y 0.000000 4.120140 0.000000 
#    z 0.179520 0.000000 3.752620 
# 
# 
# High freq. dielectric constant tensor:
#      x y z
#    x 1.807460 0.000000 0.000450 
#    y 0.000000 1.825580 0.000000 
#    z 0.000450 0.000000 1.848410 
# 
# From -- ./inp_files/86166.got.cif
#   From: 2010.06.25/outbox.cif.g09.slc.cpg/sg15_44_cif.got.tgz:86166.got - 2010.06.28 07:06:18.
