data_PCOD8154260
_publ_section_title
;
Structure prediction by ZEFSAII (Michael W. Deem and Ramdas Pophale) SiO2 
 PCOD8154260
Probable space group: C 2/C
;
_chemical_formula_sum "Si O2"
_cell_formula_units_Z 44
_cell_length_a 6.722580
_cell_length_b 26.094633
_cell_length_c 14.435194
_cell_angle_alpha 90.000000
_cell_angle_beta 124.729389
_cell_angle_gamma 90.000000
_cell_volume 2081.149967
_symmetry_space_group_name_H-M "C 2/C"
_symmetry_group_IT_number 15
_symmetry_cell_setting 'monoclinic'
loop_
_space_group_symop_operation_xyz
x,y,z
-x,y,1/2-z
-x,-y,-z
x,-y,1/2+z
1/2+x,1/2+y,z
1/2-x,1/2+y,1/2-z
1/2-x,1/2-y,-z
1/2+x,1/2-y,1/2+z
loop_
_atom_site_type_symbol
_atom_site_label
_atom_site_fract_x
_atom_site_fract_y
_atom_site_fract_z
Si Si1 0.500000 0.031772 0.750000
Si Si2 0.954945 0.911373 0.454522
Si Si3 0.690053 0.618304 0.376351
Si Si4 0.445488 0.036065 0.069733
Si Si5 0.887487 0.274120 0.951112
Si Si6 0.922240 0.189147 0.625295
O O1 0.278849 0.067983 0.661428
O O2 0.426239 0.993507 0.812275
O O3 0.893541 0.896432 0.543120
O O4 0.158910 0.955742 0.509532
O O5 0.052711 0.861699 0.428371
O O6 0.500000 0.599156 0.250000
O O7 0.728555 0.678617 0.373435
O O8 0.941561 0.591446 0.417924
O O9 0.500000 0.000000 0.000000
O O10 0.909807 0.233700 0.873292
O O11 0.750000 0.250000 0.000000
O O12 0.146773 0.292961 0.054704
O O13 0.000000 0.177156 0.750000
#
# Coordination Sequence:
#
# PCOD8154260 Si02
#       6
#     4   8   8   8   8   8
#     4  12  28  46  78 102 148 190 236 310 354 434
#     4  12  27  49  71 113 141 187 248 293 366 429
#     4  12  27  47  76 103 143 192 239 301 357 431
#     4  12  27  48  70 103 146 186 243 293 362 423
#     4  11  25  48  70 106 144 189 242 288 360 437
#     4  11  27  44  75 106 149 186 236 300 360 434
#
# _framework density 21.142157999999998
#
# number of rings (size 3 to 8) (size 9 to 14) (size 15 to 20)
#    0.000    0.364    5.455    1.636   10.182    0.000 
#    1.636    0.000    0.000    0.000    0.000    0.000 
#    0.000    0.000    0.000    0.000    0.000    0.000 
#
# Total GULP energy -272878.674553 kJ/mol
# GULP energy per Si atom -12403.576116 kJ/mol
# Density = 2.109404 g / cm^3
# Si number density = 21.142158 Si / 1000 Ang^3
#
#
#
# Elastic Constant Matrix: (Units=GPa)
#
#
# Indices 1 2 3 4 5 6 
#
# 1 137.5734 57.7921 63.1509 0.0000 -7.2650 0.0000
# 2 57.7921 121.3554 43.4399 0.0000 -4.5036 0.0000
# 3 63.1509 43.4399 140.2322 0.0000 -16.3537 0.0000
# 4 0.0000 0.0000 0.0000 24.3644 0.0000 -16.3981
# 5 -7.2650 -4.5036 -16.3537 0.0000 37.1902 0.0000
# 6 0.0000 0.0000 0.0000 -16.3981 0.0000 37.3418
#
#
#
# Elastic Compliance Matrix: (Units=1/GPa)
#
#
# Indices 1 2 3 4 5 6 
#
# 1 0.010461 -0.003707 -0.003559 0.000000 0.000030 0.000000
# 2 -0.003707 0.010582 -0.001627 0.000000 -0.000158 0.000000
# 3 -0.003559 -0.001627 0.009628 0.000000 0.003341 0.000000
# 4 0.000000 0.000000 0.000000 0.058263 0.000000 0.025585
# 5 0.000030 -0.000158 0.003341 0.000000 0.028345 0.000000
# 6 0.000000 0.000000 0.000000 0.025585 0.000000 0.038015
#
#
# Mechanical properties :
#
#
# Convention : Reuss Voigt Hill
#
# Bulk Modulus (GPa) = 77.61305 80.88074 79.24689
# Shear Modulus (GPa) = 28.18871 35.43116 31.80994
#
# Velocity S-wave (km/s) = 3.65539 4.09816 3.88309
# Velocity P-wave (km/s) = 7.38956 7.79307 7.59400
#
# Compressibility (1/GPa) = 0.01288443
#
# Stress axis : x y z
#
# Youngs Moduli (GPa) = 95.58914 94.49922 103.86750
#
# Poissons Ratio (x) = 0.35029 0.36971
# Poissons Ratio (y) = 0.35433 0.16901
# Poissons Ratio (z) = 0.34024 0.15377
#
# Static dielectric constant tensor:
#      x y z
#    x 3.787000 0.000000 -0.106120 
#    y 0.000000 4.108200 0.000000 
#    z -0.106120 0.000000 3.721030 
# 
# 
# High freq. dielectric constant tensor:
#      x y z
#    x 1.845090 0.000000 -0.004270 
#    y 0.000000 1.850870 0.000000 
#    z -0.004270 0.000000 1.832720 
# 
# From -- ./inp_files/74009.got.cif
#   From: 2010.06.25/outbox.cif.g09.slc.cpg/sg15_38_cif.got.tgz:74009.got - 2010.06.28 07:06:18.
