data_PCOD8154941
_publ_section_title
;
Structure prediction by ZEFSAII (Michael W. Deem and Ramdas Pophale) SiO2 
 PCOD8154941
Probable space group: C 2/C
;
_chemical_formula_sum "Si O2"
_cell_formula_units_Z 36
_cell_length_a 7.967555
_cell_length_b 18.004405
_cell_length_c 11.200231
_cell_angle_alpha 90.000000
_cell_angle_beta 114.984786
_cell_angle_gamma 90.000000
_cell_volume 1456.331660
_symmetry_space_group_name_H-M "C 2/C"
_symmetry_group_IT_number 15
_symmetry_cell_setting 'monoclinic'
loop_
_space_group_symop_operation_xyz
x,y,z
-x,y,1/2-z
-x,-y,-z
x,-y,1/2+z
1/2+x,1/2+y,z
1/2-x,1/2+y,1/2-z
1/2-x,1/2-y,-z
1/2+x,1/2-y,1/2+z
loop_
_atom_site_type_symbol
_atom_site_label
_atom_site_fract_x
_atom_site_fract_y
_atom_site_fract_z
Si Si1 0.641501 0.368417 0.941972
Si Si2 0.500000 0.506890 0.250000
Si Si3 0.566553 0.819297 0.656879
Si Si4 0.629804 0.766045 0.116570
Si Si5 0.316419 0.088305 0.737879
O O1 0.521914 0.440780 0.872526
O O2 0.811395 0.364532 0.900028
O O3 0.527730 0.292645 0.891399
O O4 0.696414 0.378306 0.094426
O O5 0.316628 0.457900 0.214694
O O6 0.500000 0.871424 0.750000
O O7 0.394378 0.779568 0.534816
O O8 0.674403 0.757527 0.769734
O O9 0.585042 0.845732 0.159503
O O10 0.500000 0.041833 0.750000
#
# Coordination Sequence:
#
# PCOD8154941 Si02
#       5
#     8   4   8   8   8
#     4  12  25  51  75 105 160 205 251 325 393 457
#     4  12  30  50  74 114 158 208 258 320 392 470
#     4  12  25  41  76 116 148 194 267 320 385 456
#     4  12  24  48  78 111 153 201 260 325 384 458
#     4  12  27  50  80 112 154 205 261 322 390 460
#
# _framework density 24.719645
#
# number of rings (size 3 to 8) (size 9 to 14) (size 15 to 20)
#    0.000    0.000    6.667    3.333    1.556    3.556 
#    4.000    0.000    0.000    0.000    0.000    0.000 
#    0.000    0.000    0.000    0.000    0.000    0.000 
#
# Total GULP energy -223018.473732 kJ/mol
# GULP energy per Si atom -12389.915207 kJ/mol
# Density = 2.466338 g / cm^3
# Si number density = 24.719645 Si / 1000 Ang^3
#
#
#
# Elastic Constant Matrix: (Units=GPa)
#
#
# Indices 1 2 3 4 5 6 
#
# 1 86.3913 40.5872 30.5150 0.0000 4.2834 0.0000
# 2 40.5872 111.5208 34.3209 0.0000 -1.2762 0.0000
# 3 30.5150 34.3209 180.4402 0.0000 -1.0948 0.0000
# 4 0.0000 0.0000 0.0000 7.3959 0.0000 -8.9530
# 5 4.2834 -1.2762 -1.0948 0.0000 49.2008 0.0000
# 6 0.0000 0.0000 0.0000 -8.9530 0.0000 20.5422
#
#
#
# Elastic Compliance Matrix: (Units=1/GPa)
#
#
# Indices 1 2 3 4 5 6 
#
# 1 0.014444 -0.004799 -0.001538 0.000000 -0.001416 0.000000
# 2 -0.004799 0.011121 -0.001300 0.000000 0.000677 0.000000
# 3 -0.001538 -0.001300 0.006051 0.000000 0.000235 0.000000
# 4 0.000000 0.000000 0.000000 0.286211 0.000000 0.124741
# 5 -0.001416 0.000677 0.000235 0.000000 0.020471 0.000000
# 6 0.000000 0.000000 0.000000 0.124741 0.000000 0.103047
#
#
# Mechanical properties :
#
#
# Convention : Reuss Voigt Hill
#
# Bulk Modulus (GPa) = 61.19561 65.46650 63.33106
# Shear Modulus (GPa) = 10.82095 33.62307 22.22201
#
# Velocity S-wave (km/s) = 2.09451 3.69206 3.00152
# Velocity P-wave (km/s) = 5.53705 6.68701 6.13902
#
# Compressibility (1/GPa) = 0.01634104
#
# Stress axis : x y z
#
# Youngs Moduli (GPa) = 69.23468 89.91702 165.26820
#
# Poissons Ratio (x) = 0.43155 0.25424
# Poissons Ratio (y) = 0.33229 0.21478
# Poissons Ratio (z) = 0.10651 0.11686
#
# Static dielectric constant tensor:
#      x y z
#    x 4.625190 0.000000 -0.047400 
#    y 0.000000 4.091680 0.000000 
#    z -0.047400 0.000000 5.034080 
# 
# 
# High freq. dielectric constant tensor:
#      x y z
#    x 1.997830 0.000000 0.000990 
#    y 0.000000 1.945740 0.000000 
#    z 0.000990 0.000000 2.020610 
# 
# From -- ./inp_files/77991.got.cif
#   From: 2010.06.25/outbox.cif.g09.slc.cpg/sg15_39_cif.got.tgz:77991.got - 2010.06.28 07:06:18.
