data_PCOD8154471
_publ_section_title
;
Structure prediction by ZEFSAII (Michael W. Deem and Ramdas Pophale) SiO2 
 PCOD8154471
Probable space group: C 2/C
;
_chemical_formula_sum "Si O2"
_cell_formula_units_Z 32
_cell_length_a 26.322921
_cell_length_b 4.928779
_cell_length_c 15.076770
_cell_angle_alpha 90.000000
_cell_angle_beta 143.163935
_cell_angle_gamma 90.000000
_cell_volume 1172.710587
_symmetry_space_group_name_H-M "C 2/C"
_symmetry_group_IT_number 15
_symmetry_cell_setting 'monoclinic'
loop_
_space_group_symop_operation_xyz
x,y,z
-x,y,1/2-z
-x,-y,-z
x,-y,1/2+z
1/2+x,1/2+y,z
1/2-x,1/2+y,1/2-z
1/2-x,1/2-y,-z
1/2+x,1/2-y,1/2+z
loop_
_atom_site_type_symbol
_atom_site_label
_atom_site_fract_x
_atom_site_fract_y
_atom_site_fract_z
Si Si1 0.337933 0.447238 0.696843
Si Si2 0.082757 0.909937 0.509592
Si Si3 0.659666 0.147429 0.463124
Si Si4 0.475161 0.086571 0.819960
O O1 0.381659 0.536456 0.850203
O O2 0.348636 0.674578 0.637144
O O3 0.236099 0.427959 0.569829
O O4 0.381865 0.160151 0.734529
O O5 0.161474 0.828643 0.555031
O O6 0.021423 0.649782 0.440739
O O7 0.026900 0.137657 0.384838
O O8 0.566171 0.998992 0.335724
#
# Coordination Sequence:
#
# PCOD8154471 Si02
#       4
#     8   8   8   8
#     4  11  27  53  77 114 156 202 255 314 393 453
#     4  12  29  48  80 115 153 204 259 315 380 460
#     4  11  28  50  79 113 159 202 253 321 383 459
#     4  12  26  51  76 115 151 202 259 314 380 456
#
# _framework density 27.287212
#
# number of rings (size 3 to 8) (size 9 to 14) (size 15 to 20)
#    0.000    0.500    2.500    3.000   10.500    2.000 
#    4.500    0.000    0.000    0.000    0.000    0.000 
#    0.000    0.000    0.000    0.000    0.000    0.000 
#
# Total GULP energy -198290.228603 kJ/mol
# GULP energy per Si atom -12393.139288 kJ/mol
# Density = 2.722510 g / cm^3
# Si number density = 27.287212 Si / 1000 Ang^3
#
#
#
# Elastic Constant Matrix: (Units=GPa)
#
#
# Indices 1 2 3 4 5 6 
#
# 1 112.9397 43.8814 63.0014 0.0003 -6.9050 -0.0001
# 2 43.8814 139.2734 56.4246 0.0023 4.1940 0.0003
# 3 63.0014 56.4246 174.8431 0.0012 10.9920 0.0006
# 4 0.0003 0.0023 0.0012 42.8059 0.0009 5.0985
# 5 -6.9050 4.1940 10.9920 0.0009 53.6605 0.0001
# 6 -0.0001 0.0003 0.0006 5.0985 0.0001 31.9388
#
#
#
# Elastic Compliance Matrix: (Units=1/GPa)
#
#
# Indices 1 2 3 4 5 6 
#
# 1 0.011994 -0.002346 -0.003721 0.000000 0.002489 0.000000
# 2 -0.002346 0.008720 -0.001932 0.000000 -0.000588 0.000000
# 3 -0.003721 -0.001932 0.007805 0.000000 -0.001927 0.000000
# 4 0.000000 0.000000 0.000000 0.023814 0.000000 -0.003802
# 5 0.002489 -0.000588 -0.001927 0.000000 0.019397 0.000000
# 6 0.000000 0.000000 0.000000 -0.003802 0.000000 0.031917
#
#
# Mechanical properties :
#
#
# Convention : Reuss Voigt Hill
#
# Bulk Modulus (GPa) = 79.87047 83.74124 81.80586
# Shear Modulus (GPa) = 40.38227 43.26430 41.82329
#
# Velocity S-wave (km/s) = 3.85112 3.98617 3.91923
# Velocity P-wave (km/s) = 7.00776 7.20705 7.10810
#
# Compressibility (1/GPa) = 0.01252027
#
# Stress axis : x y z
#
# Youngs Moduli (GPa) = 83.37634 114.68363 128.12847
#
# Poissons Ratio (x) = 0.26909 0.47677
# Poissons Ratio (y) = 0.19563 0.24749
# Poissons Ratio (z) = 0.31024 0.22152
#
# Static dielectric constant tensor:
#      x y z
#    x 5.444200 0.000000 0.533870 
#    y 0.000000 4.799960 0.000000 
#    z 0.533870 0.000000 5.498040 
# 
# 
# High freq. dielectric constant tensor:
#      x y z
#    x 2.127870 0.000000 0.011460 
#    y 0.000000 2.095380 0.000000 
#    z 0.011460 0.000000 2.116900 
# 
# From -- ./inp_files/223771.got.cif
#   From: 2010.06.25/outbox.cif.g09.slc.cpg/sg15_112_cif.got.tgz:223771.got - 2010.06.28 07:06:18.
