data_PCOD8154415
_publ_section_title
;
Structure prediction by ZEFSAII (Michael W. Deem and Ramdas Pophale) SiO2 
 PCOD8154415
Probable space group: C 2/C
;
_chemical_formula_sum "Si O2"
_cell_formula_units_Z 44
_cell_length_a 9.467471
_cell_length_b 11.102282
_cell_length_c 25.097223
_cell_angle_alpha 90.000000
_cell_angle_beta 44.424132
_cell_angle_gamma 90.000000
_cell_volume 1846.493304
_symmetry_space_group_name_H-M "C 2/C"
_symmetry_group_IT_number 15
_symmetry_cell_setting 'monoclinic'
loop_
_space_group_symop_operation_xyz
x,y,z
-x,y,1/2-z
-x,-y,-z
x,-y,1/2+z
1/2+x,1/2+y,z
1/2-x,1/2+y,1/2-z
1/2-x,1/2-y,-z
1/2+x,1/2-y,1/2+z
loop_
_atom_site_type_symbol
_atom_site_label
_atom_site_fract_x
_atom_site_fract_y
_atom_site_fract_z
Si Si1 0.500000 0.557779 0.250000
Si Si2 0.284019 0.002442 0.959006
Si Si3 0.675464 0.871728 0.374967
Si Si4 0.942206 0.742506 0.381835
Si Si5 0.273421 0.346135 0.716407
Si Si6 0.361236 0.547397 0.614959
O O1 0.304775 0.476528 0.312960
O O2 0.552980 0.641873 0.285675
O O3 0.335716 0.859969 0.945562
O O4 0.452075 0.077042 0.945874
O O5 0.275654 0.052244 0.900784
O O6 0.071408 0.021205 0.045297
O O7 0.771393 0.833161 0.405483
O O8 0.658297 0.758887 0.340868
O O9 0.056323 0.683218 0.300689
O O10 0.100693 0.816859 0.374870
O O11 0.250415 0.471587 0.690769
#
# Coordination Sequence:
#
# PCOD8154415 Si02
#       6
#     4   8   8   8   8   8
#     4  12  24  44  64 110 132 182 236 284 358 408
#     4  11  27  47  72 102 144 190 230 291 350 422
#     4  12  24  43  70 101 138 180 232 290 349 405
#     4  12  24  46  72  99 139 186 233 292 346 411
#     4  12  24  43  73 101 142 178 235 294 341 420
#     4  11  26  49  70 105 144 186 237 282 358 422
#
# _framework density 23.828951
#
# number of rings (size 3 to 8) (size 9 to 14) (size 15 to 20)
#    0.000    0.364    7.273    0.545    2.545    1.455 
#    0.000    0.000    0.000    0.000    0.000    0.000 
#    0.000    0.000    0.000    0.000    0.000    0.000 
#
# Total GULP energy -272995.226759 kJ/mol
# GULP energy per Si atom -12408.873944 kJ/mol
# Density = 2.377472 g / cm^3
# Si number density = 23.828951 Si / 1000 Ang^3
#
#
#
# Elastic Constant Matrix: (Units=GPa)
#
#
# Indices 1 2 3 4 5 6 
#
# 1 99.9067 41.8721 -0.8617 0.0000 -0.1194 0.0000
# 2 41.8721 78.4557 -8.4531 0.0000 -3.8510 0.0000
# 3 -0.8617 -8.4531 42.4409 0.0000 -8.6083 -0.0001
# 4 0.0000 0.0000 0.0000 19.6885 0.0000 -10.9977
# 5 -0.1194 -3.8510 -8.6083 0.0000 36.1586 0.0001
# 6 0.0000 0.0000 -0.0001 -10.9977 0.0001 45.4353
#
#
#
# Elastic Compliance Matrix: (Units=1/GPa)
#
#
# Indices 1 2 3 4 5 6 
#
# 1 0.012984 -0.007128 -0.001367 0.000000 -0.001042 0.000000
# 2 -0.007128 0.017093 0.003808 0.000000 0.002704 0.000000
# 3 -0.001367 0.003808 0.025611 0.000000 0.006498 0.000000
# 4 0.000000 0.000000 0.000000 0.058732 0.000000 0.014216
# 5 -0.001042 0.002704 0.006498 0.000000 0.029487 0.000000
# 6 0.000000 0.000000 0.000000 0.014216 0.000000 0.025450
#
#
# Mechanical properties :
#
#
# Convention : Reuss Voigt Hill
#
# Bulk Modulus (GPa) = 21.59193 31.76865 26.68029
# Shear Modulus (GPa) = 25.75064 32.80621 29.27842
#
# Velocity S-wave (km/s) = 3.29088 3.71447 3.50907
# Velocity P-wave (km/s) = 4.84982 5.63536 5.25728
#
# Compressibility (1/GPa) = 0.04631360
#
# Stress axis : x y z
#
# Youngs Moduli (GPa) = 77.01969 58.50264 39.04580
#
# Poissons Ratio (x) = 0.41700 0.05339
# Poissons Ratio (y) = 0.54899 -0.14869
# Poissons Ratio (z) = 0.10532 -0.22279
#
# Static dielectric constant tensor:
#      x y z
#    x 4.387000 0.000000 0.045320 
#    y 0.000000 4.281590 0.000000 
#    z 0.045320 0.000000 4.093070 
# 
# 
# High freq. dielectric constant tensor:
#      x y z
#    x 1.954490 0.000000 0.001650 
#    y 0.000000 1.946020 0.000000 
#    z 0.001650 0.000000 1.935150 
# 
# From -- ./inp_files/230241.got.cif
#   From: 2010.06.25/outbox.cif.g09.slc.cpg/sg15_116_cif.got.tgz:230241.got - 2010.06.28 07:06:18.
