data_PCOD8154025
_publ_section_title
;
Structure prediction by ZEFSAII (Michael W. Deem and Ramdas Pophale) SiO2 
 PCOD8154025
Probable space group: C 2/C
;
_chemical_formula_sum "Si O2"
_cell_formula_units_Z 60
_cell_length_a 14.547304
_cell_length_b 14.394854
_cell_length_c 14.325302
_cell_angle_alpha 90.000000
_cell_angle_beta 59.317277
_cell_angle_gamma 90.000000
_cell_volume 2579.854056
_symmetry_space_group_name_H-M "C 2/C"
_symmetry_group_IT_number 15
_symmetry_cell_setting 'monoclinic'
loop_
_space_group_symop_operation_xyz
x,y,z
-x,y,1/2-z
-x,-y,-z
x,-y,1/2+z
1/2+x,1/2+y,z
1/2-x,1/2+y,1/2-z
1/2-x,1/2-y,-z
1/2+x,1/2-y,1/2+z
loop_
_atom_site_type_symbol
_atom_site_label
_atom_site_fract_x
_atom_site_fract_y
_atom_site_fract_z
Si Si1 0.000000 0.956910 0.250000
Si Si2 0.106463 0.459700 0.541756
Si Si3 0.137831 0.209619 0.978219
Si Si4 0.297863 0.740698 0.246155
Si Si5 0.476932 0.593798 0.958692
Si Si6 0.696773 0.417420 0.616596
Si Si7 0.488799 0.134284 0.583376
Si Si8 0.753424 0.329564 0.922421
O O1 0.031161 0.898203 0.326680
O O2 0.904790 0.017565 0.340181
O O3 0.200317 0.516315 0.440234
O O4 0.058089 0.384522 0.495127
O O5 0.148428 0.400934 0.609005
O O6 0.014572 0.534386 0.619225
O O7 0.220850 0.199407 0.851267
O O8 0.024121 0.171193 0.002489
O O9 0.191817 0.159787 0.037914
O O10 0.105986 0.315926 0.018238
O O11 0.316009 0.638262 0.279814
O O12 0.406459 0.801392 0.183468
O O13 0.236877 0.722789 0.180749
O O14 0.500000 0.500000 0.000000
O O15 0.351099 0.607455 0.017193
O O16 0.750000 0.250000 0.000000
#
# Coordination Sequence:
#
# PCOD8154025 Si02
#       8
#     4   8   8   8   8   8   8   8
#     4  12  24  38  76 104 138 192 234 304 368 428
#     4  11  24  49  72 104 151 191 235 316 361 430
#     4  12  25  48  70 107 144 196 245 308 365 442
#     4  12  26  45  76 104 140 203 241 297 382 441
#     4  12  24  44  69 107 146 184 244 310 358 435
#     4  12  25  47  72 108 146 186 250 305 365 445
#     4  11  25  49  73 103 152 189 247 307 363 444
#     4  12  24  48  71 104 147 194 243 302 365 440
#
# _framework density 23.257128999999999
#
# number of rings (size 3 to 8) (size 9 to 14) (size 15 to 20)
#    0.000    0.267    6.667    2.000    3.733    0.000 
#    0.000    1.333    0.000    0.000    0.000    0.000 
#    0.000    0.000    0.000    0.000    0.000    0.000 
#
# Total GULP energy -371971.025364 kJ/mol
# GULP energy per Si atom -12399.034179 kJ/mol
# Density = 2.320419 g / cm^3
# Si number density = 23.257129 Si / 1000 Ang^3
#
#
#
# Elastic Constant Matrix: (Units=GPa)
#
#
# Indices 1 2 3 4 5 6 
#
# 1 116.9872 35.2498 31.0472 0.0000 12.6504 0.0000
# 2 35.2498 78.6666 20.1505 0.0000 3.1111 0.0000
# 3 31.0472 20.1505 102.7881 0.0000 14.0091 0.0000
# 4 0.0000 0.0000 0.0000 37.5173 0.0000 5.7184
# 5 12.6504 3.1111 14.0091 0.0000 41.2481 0.0000
# 6 0.0000 0.0000 0.0000 5.7184 0.0000 54.5727
#
#
#
# Elastic Compliance Matrix: (Units=1/GPa)
#
#
# Indices 1 2 3 4 5 6 
#
# 1 0.010584 -0.004120 -0.002086 0.000000 -0.002227 0.000000
# 2 -0.004120 0.014989 -0.001795 0.000000 0.000743 0.000000
# 3 -0.002086 -0.001795 0.011120 0.000000 -0.003002 0.000000
# 4 0.000000 0.000000 0.000000 0.027087 0.000000 -0.002838
# 5 -0.002227 0.000743 -0.003002 0.000000 0.025890 0.000000
# 6 0.000000 0.000000 0.000000 -0.002838 0.000000 0.018622
#
#
# Mechanical properties :
#
#
# Convention : Reuss Voigt Hill
#
# Bulk Modulus (GPa) = 48.33198 52.37075 50.35137
# Shear Modulus (GPa) = 38.11301 40.80059 39.45680
#
# Velocity S-wave (km/s) = 4.05256 4.19301 4.12338
# Velocity P-wave (km/s) = 6.53639 6.78298 6.66082
#
# Compressibility (1/GPa) = 0.02069024
#
# Stress axis : x y z
#
# Youngs Moduli (GPa) = 94.48490 66.71773 89.93044
#
# Poissons Ratio (x) = 0.27489 0.18756
# Poissons Ratio (y) = 0.38929 0.16143
# Poissons Ratio (z) = 0.19706 0.11976
#
# Static dielectric constant tensor:
#      x y z
#    x 4.425140 0.000000 0.165170 
#    y 0.000000 4.642510 0.000000 
#    z 0.165170 0.000000 4.033130 
# 
# 
# High freq. dielectric constant tensor:
#      x y z
#    x 1.941900 0.000000 0.004110 
#    y 0.000000 1.935720 0.000000 
#    z 0.004110 0.000000 1.899430 
# 
# From -- ./inp_files/154234.got.cif
#   From: 2010.06.25/outbox.cif.g09.slc.cpg/sg15_78_cif.got.tgz:154234.got - 2010.06.28 07:06:18.
