data_PCOD8154813
_publ_section_title
;
Structure prediction by ZEFSAII (Michael W. Deem and Ramdas Pophale) SiO2 
 PCOD8154813
Probable space group: C 2/C
;
_chemical_formula_sum "Si O2"
_cell_formula_units_Z 40
_cell_length_a 18.254571
_cell_length_b 23.662529
_cell_length_c 5.254815
_cell_angle_alpha 90.000000
_cell_angle_beta 50.157564
_cell_angle_gamma 90.000000
_cell_volume 1742.783913
_symmetry_space_group_name_H-M "C 2/C"
_symmetry_group_IT_number 15
_symmetry_cell_setting 'monoclinic'
loop_
_space_group_symop_operation_xyz
x,y,z
-x,y,1/2-z
-x,-y,-z
x,-y,1/2+z
1/2+x,1/2+y,z
1/2-x,1/2+y,1/2-z
1/2-x,1/2-y,-z
1/2+x,1/2-y,1/2+z
loop_
_atom_site_type_symbol
_atom_site_label
_atom_site_fract_x
_atom_site_fract_y
_atom_site_fract_z
Si Si1 0.317857 0.462664 0.751942
Si Si2 0.500000 0.823977 0.750000
Si Si3 0.853023 0.383412 0.417707
Si Si4 0.353614 0.230124 0.191989
Si Si5 0.500000 0.610338 0.750000
Si Si6 0.500000 0.963501 0.250000
Si Si7 0.500000 0.683754 0.250000
O O1 0.307879 0.492528 0.501037
O O2 0.417184 0.430416 0.531497
O O3 0.239606 0.414588 0.982577
O O4 0.569903 0.868271 0.464784
O O5 0.566403 0.783233 0.772738
O O6 0.823549 0.325433 0.610951
O O7 0.905243 0.425736 0.495076
O O8 0.250000 0.250000 0.500000
O O9 0.405839 0.277541 0.901766
O O10 0.474205 0.647689 0.559504
O O11 0.500000 0.000000 0.500000
#
# Coordination Sequence:
#
# PCOD8154813 Si02
#       7
#     8   4   8   8   4   4   4
#     4  12  28  50  77 112 148 202 258 319 390 452
#     4  12  24  48  74 103 159 194 256 308 388 444
#     4  12  26  45  71 110 147 195 250 315 374 464
#     4  12  27  46  75 108 156 203 252 313 384 466
#     4  12  27  49  79 106 155 195 262 323 376 460
#     4  12  24  42  69 102 143 192 235 301 368 440
#     4  12  25  49  72 119 145 203 255 310 392 458
#
# _framework density 22.951782999999999
#
# number of rings (size 3 to 8) (size 9 to 14) (size 15 to 20)
#    0.000    0.000    4.000    5.400    5.600    0.800 
#    0.000    0.000    0.000    0.000    0.000    0.000 
#    0.000    0.000    0.000    0.000    0.000    0.000 
#
# Total GULP energy -247898.284723 kJ/mol
# GULP energy per Si atom -12394.914236 kJ/mol
# Density = 2.289954 g / cm^3
# Si number density = 22.951783 Si / 1000 Ang^3
#
#
#
# Elastic Constant Matrix: (Units=GPa)
#
#
# Indices 1 2 3 4 5 6 
#
# 1 79.1177 37.3443 52.5449 0.0000 -11.2450 0.0000
# 2 37.3443 132.5090 71.5514 0.0000 -7.3015 0.0000
# 3 52.5449 71.5514 157.1822 0.0000 -22.5703 0.0000
# 4 0.0000 0.0000 0.0000 -82.3620 0.0000 -33.8504
# 5 -11.2450 -7.3015 -22.5703 0.0000 57.3694 0.0000
# 6 0.0000 0.0000 0.0000 -33.8504 0.0000 -11.9658
#
#
#
# Elastic Compliance Matrix: (Units=1/GPa)
#
#
# Indices 1 2 3 4 5 6 
#
# 1 0.016824 -0.002298 -0.004395 0.000000 0.001276 0.000000
# 2 -0.002298 0.010336 -0.004041 0.000000 -0.000725 0.000000
# 3 -0.004395 -0.004041 0.010040 0.000000 0.002574 0.000000
# 4 0.000000 0.000000 0.000000 0.074633 0.000000 -0.211133
# 5 0.001276 -0.000725 0.002574 0.000000 0.018602 0.000000
# 6 0.000000 0.000000 0.000000 -0.211133 0.000000 0.513712
#
#
# Mechanical properties :
#
#
# Convention : Reuss Voigt Hill
#
# Bulk Modulus (GPa) = 63.56041 76.85447 70.20744
# Shear Modulus (GPa) = 7.45311 6.43287 6.94299
#
# Velocity S-wave (km/s) = 1.80398 1.67597 1.74115
# Velocity P-wave (km/s) = 5.66500 6.10762 5.89047
#
# Compressibility (1/GPa) = 0.01573306
#
# Stress axis : x y z
#
# Youngs Moduli (GPa) = 59.43788 96.74459 99.59690
#
# Poissons Ratio (x) = 0.22232 0.43772
# Poissons Ratio (y) = 0.13659 0.40249
# Poissons Ratio (z) = 0.26122 0.39096
#
# Static dielectric constant tensor:
#      x y z
#    x 4.015890 0.000000 -0.102820 
#    y 0.000000 4.464480 0.000000 
#    z -0.102820 0.000000 4.119790 
# 
# 
# High freq. dielectric constant tensor:
#      x y z
#    x 1.899780 0.000000 -0.010800 
#    y 0.000000 1.937010 0.000000 
#    z -0.010800 0.000000 1.922760 
# 
# From -- ./inp_files/7954.got.cif
#   From: 2010.06.25/outbox.cif.g09.slc.cpg/sg15_4_cif.got.tgz:7954.got - 2010.06.28 07:06:18.
