data_PCOD8154135
_publ_section_title
;
Structure prediction by ZEFSAII (Michael W. Deem and Ramdas Pophale) SiO2 
 PCOD8154135
Probable space group: C 2/C
;
_chemical_formula_sum "Si O2"
_cell_formula_units_Z 32
_cell_length_a 8.562956
_cell_length_b 8.499393
_cell_length_c 18.673456
_cell_angle_alpha 90.000000
_cell_angle_beta 89.778436
_cell_angle_gamma 90.000000
_cell_volume 1359.042627
_symmetry_space_group_name_H-M "C 2/C"
_symmetry_group_IT_number 15
_symmetry_cell_setting 'monoclinic'
loop_
_space_group_symop_operation_xyz
x,y,z
-x,y,1/2-z
-x,-y,-z
x,-y,1/2+z
1/2+x,1/2+y,z
1/2-x,1/2+y,1/2-z
1/2-x,1/2-y,-z
1/2+x,1/2-y,1/2+z
loop_
_atom_site_type_symbol
_atom_site_label
_atom_site_fract_x
_atom_site_fract_y
_atom_site_fract_z
Si Si1 0.164529 0.368570 0.402929
Si Si2 0.667146 0.879927 0.157679
Si Si3 0.832676 0.030348 0.281651
Si Si4 0.164530 0.970274 0.962531
O O1 0.301973 0.412617 0.347648
O O2 0.154444 0.181698 0.411818
O O3 0.200106 0.450472 0.478734
O O4 0.001880 0.429946 0.371386
O O5 0.673925 0.708107 0.191327
O O6 0.705943 0.005693 0.219348
O O7 0.787929 0.887127 0.090322
O O8 0.000000 0.985743 0.250000
O O9 0.000000 0.000000 0.000000
#
# Coordination Sequence:
#
# PCOD8154135 Si02
#       4
#     8   8   8   8
#     4  11  25  45  71 102 135 178 226 277 340 403
#     4  12  25  45  69 100 137 179 227 278 338 401
#     4  12  26  45  69  99 139 180 226 281 334 400
#     4  11  25  47  72 101 138 177 223 282 340 401
#
# _framework density 23.545988000000001
#
# number of rings (size 3 to 8) (size 9 to 14) (size 15 to 20)
#    0.000    0.500    0.000    9.000    0.000   12.000 
#    0.000    3.750    0.000    0.000    0.000    0.000 
#    0.000    0.000    0.000    0.000    0.000    0.000 
#
# Total GULP energy -198483.094491 kJ/mol
# GULP energy per Si atom -12405.193406 kJ/mol
# Density = 2.349240 g / cm^3
# Si number density = 23.545988 Si / 1000 Ang^3
#
#
#
# Elastic Constant Matrix: (Units=GPa)
#
#
# Indices 1 2 3 4 5 6 
#
# 1 117.4130 50.4461 57.5067 0.0000 -3.4700 0.0000
# 2 50.4461 89.6022 56.0324 0.0000 -12.0480 0.0000
# 3 57.5067 56.0324 137.5448 0.0000 -8.8215 0.0000
# 4 0.0000 0.0000 0.0000 62.5673 0.0000 -10.4133
# 5 -3.4700 -12.0480 -8.8215 0.0000 68.4941 0.0000
# 6 0.0000 0.0000 0.0000 -10.4133 0.0000 25.4458
#
#
#
# Elastic Compliance Matrix: (Units=1/GPa)
#
#
# Indices 1 2 3 4 5 6 
#
# 1 0.012160 -0.005004 -0.003088 0.000000 -0.000662 0.000000
# 2 -0.005004 0.017274 -0.004806 0.000000 0.002166 0.000000
# 3 -0.003088 -0.004806 0.010542 0.000000 0.000356 0.000000
# 4 0.000000 0.000000 0.000000 0.017151 0.000000 0.007019
# 5 -0.000662 0.002166 0.000356 0.000000 0.014993 0.000000
# 6 0.000000 0.000000 0.000000 0.007019 0.000000 0.042172
#
#
# Mechanical properties :
#
#
# Convention : Reuss Voigt Hill
#
# Bulk Modulus (GPa) = 70.52014 74.72559 72.62286
# Shear Modulus (GPa) = 34.52693 43.33974 38.93333
#
# Velocity S-wave (km/s) = 3.83346 4.29493 4.07074
# Velocity P-wave (km/s) = 7.04336 7.51000 7.28042
#
# Compressibility (1/GPa) = 0.01418035
#
# Stress axis : x y z
#
# Youngs Moduli (GPa) = 82.23899 57.88912 94.85764
#
# Poissons Ratio (x) = 0.28967 0.29291
# Poissons Ratio (y) = 0.41152 0.45590
# Poissons Ratio (z) = 0.25394 0.27822
#
# Static dielectric constant tensor:
#      x y z
#    x 4.326710 0.000000 0.069000 
#    y 0.000000 4.049710 0.000000 
#    z 0.069000 0.000000 4.779790 
# 
# 
# High freq. dielectric constant tensor:
#      x y z
#    x 1.937040 0.000000 0.005180 
#    y 0.000000 1.917910 0.000000 
#    z 0.005180 0.000000 1.969030 
# 
# From -- ./inp_files/229212.got.cif
#   From: 2010.06.25/outbox.cif.g09.slc.cpg/sg15_115_cif.got.tgz:229212.got - 2010.06.28 07:06:18.
