data_PCOD8154413
_publ_section_title
;
Structure prediction by ZEFSAII (Michael W. Deem and Ramdas Pophale) SiO2 
 PCOD8154413
Probable space group: C 2/C
;
_chemical_formula_sum "Si O2"
_cell_formula_units_Z 24
_cell_length_a 11.501571
_cell_length_b 10.746795
_cell_length_c 19.225066
_cell_angle_alpha 90.000000
_cell_angle_beta 158.451704
_cell_angle_gamma 90.000000
_cell_volume 872.785647
_symmetry_space_group_name_H-M "C 2/C"
_symmetry_group_IT_number 15
_symmetry_cell_setting 'monoclinic'
loop_
_space_group_symop_operation_xyz
x,y,z
-x,y,1/2-z
-x,-y,-z
x,-y,1/2+z
1/2+x,1/2+y,z
1/2-x,1/2+y,1/2-z
1/2-x,1/2-y,-z
1/2+x,1/2-y,1/2+z
loop_
_atom_site_type_symbol
_atom_site_label
_atom_site_fract_x
_atom_site_fract_y
_atom_site_fract_z
Si Si1 0.417601 0.985958 0.847492
Si Si2 0.820110 0.912680 0.957877
Si Si3 0.155440 0.308959 0.572022
O O1 0.124166 0.994356 0.627422
O O2 0.710417 0.904922 0.978900
O O3 0.277074 0.919873 0.836679
O O4 0.512620 0.128436 0.921931
O O5 0.500000 0.975016 0.750000
O O6 0.902362 0.784305 0.965139
O O7 0.500000 0.246125 0.750000
#
# Coordination Sequence:
#
# PCOD8154413 Si02
#       3
#     8   8   8
#     4  11  26  51  75 115 161 193 259 316 376 457
#     4  12  28  47  80 115 152 204 254 314 382 451
#     4  11  26  48  82 111 152 210 247 315 388 443
#
# _framework density 27.498159999999999
#
# number of rings (size 3 to 8) (size 9 to 14) (size 15 to 20)
#    0.000    0.667    3.333    2.000    9.333    5.333 
#    0.000    0.000    0.000    0.000    0.000    0.000 
#    0.000    0.000    0.000    0.000    0.000    0.000 
#
# Total GULP energy -148694.215462 kJ/mol
# GULP energy per Si atom -12391.184622 kJ/mol
# Density = 2.743557 g / cm^3
# Si number density = 27.498160 Si / 1000 Ang^3
#
#
#
# Elastic Constant Matrix: (Units=GPa)
#
#
# Indices 1 2 3 4 5 6 
#
# 1 136.9709 57.6606 71.5955 0.0058 38.3523 -0.0017
# 2 57.6606 90.8660 56.4845 0.0530 2.1414 -0.0075
# 3 71.5955 56.4845 188.7942 0.1473 13.3749 -0.0198
# 4 0.0058 0.0530 0.1473 26.3680 -0.0123 10.8279
# 5 38.3523 2.1414 13.3749 -0.0123 46.1753 -0.0055
# 6 -0.0017 -0.0075 -0.0198 10.8279 -0.0055 68.3025
#
#
#
# Elastic Compliance Matrix: (Units=1/GPa)
#
#
# Indices 1 2 3 4 5 6 
#
# 1 0.015108 -0.007690 -0.002619 0.000024 -0.011433 -0.000006
# 2 -0.007690 0.017448 -0.002756 -0.000017 0.006376 0.000004
# 3 -0.002619 -0.002756 0.007097 -0.000036 0.000247 0.000007
# 4 0.000024 -0.000017 -0.000036 0.040566 0.000002 -0.006431
# 5 -0.011433 0.006376 0.000247 0.000002 0.030786 0.000003
# 6 -0.000006 0.000004 0.000007 -0.006431 0.000003 0.015660
#
#
# Mechanical properties :
#
#
# Convention : Reuss Voigt Hill
#
# Bulk Modulus (GPa) = 73.94110 87.56803 80.75456
# Shear Modulus (GPa) = 31.78618 43.56186 37.67402
#
# Velocity S-wave (km/s) = 3.40360 3.98449 3.70544
# Velocity P-wave (km/s) = 6.51105 7.28576 6.90928
#
# Compressibility (1/GPa) = 0.01352428
#
# Stress axis : x y z
#
# Youngs Moduli (GPa) = 66.18884 57.31431 140.90828
#
# Poissons Ratio (x) = 0.44074 0.36901
# Poissons Ratio (y) = 0.50899 0.38828
# Poissons Ratio (z) = 0.17333 0.15793
#
# Static dielectric constant tensor:
#      x y z
#    x 5.668090 0.000010 -0.031280 
#    y 0.000010 4.259110 -0.000120 
#    z -0.031280 -0.000120 5.030000 
# 
# 
# High freq. dielectric constant tensor:
#      x y z
#    x 2.161760 0.000000 0.012860 
#    y 0.000000 2.068620 -0.000010 
#    z 0.012860 -0.000010 2.121340 
# 
# From -- ./inp_files/26940.got.cif
#   From: 2010.06.25/outbox.cif.g09.slc.cpg/sg15_14_cif.got.tgz:26940.got - 2010.06.28 07:06:18.
