data_PCOD8154887
_publ_section_title
;
Structure prediction by ZEFSAII (Michael W. Deem and Ramdas Pophale) SiO2 
 PCOD8154887
Probable space group: C 2/C
;
_chemical_formula_sum "Si O2"
_cell_formula_units_Z 24
_cell_length_a 10.104114
_cell_length_b 18.137482
_cell_length_c 7.258231
_cell_angle_alpha 90.000000
_cell_angle_beta 129.516748
_cell_angle_gamma 90.000000
_cell_volume 1026.141837
_symmetry_space_group_name_H-M "C 2/C"
_symmetry_group_IT_number 15
_symmetry_cell_setting 'monoclinic'
loop_
_space_group_symop_operation_xyz
x,y,z
-x,y,1/2-z
-x,-y,-z
x,-y,1/2+z
1/2+x,1/2+y,z
1/2-x,1/2+y,1/2-z
1/2-x,1/2-y,-z
1/2+x,1/2-y,1/2+z
loop_
_atom_site_type_symbol
_atom_site_label
_atom_site_fract_x
_atom_site_fract_y
_atom_site_fract_z
Si Si1 0.302130 0.666331 0.523816
Si Si2 0.335466 0.948229 0.325666
Si Si3 0.679076 0.416678 0.819879
O O1 0.250000 0.750000 0.500000
O O2 0.174585 0.618484 0.538695
O O3 0.268714 0.644908 0.282205
O O4 0.500000 0.652231 0.750000
O O5 0.675649 0.916802 0.391460
O O6 0.500000 0.000000 0.500000
O O7 0.172762 0.002780 0.216975
O O8 0.500000 0.394633 0.750000
#
# Coordination Sequence:
#
# PCOD8154887 Si02
#       3
#     8   8   8
#     4  12  29  50  74 110 160 205 258 326 391 457
#     4  12  26  45  78 116 147 198 263 321 387 468
#     4  12  24  46  76 106 149 199 255 316 384 461
#
# _framework density 23.388580999999999
#
# number of rings (size 3 to 8) (size 9 to 14) (size 15 to 20)
#    0.000    0.000    6.667    3.000    4.667    1.333 
#    0.000    0.000    0.000    0.000    0.000    0.000 
#    0.000    0.000    0.000    0.000    0.000    0.000 
#
# Total GULP energy -148822.287462 kJ/mol
# GULP energy per Si atom -12401.857289 kJ/mol
# Density = 2.333535 g / cm^3
# Si number density = 23.388581 Si / 1000 Ang^3
#
#
#
# Elastic Constant Matrix: (Units=GPa)
#
#
# Indices 1 2 3 4 5 6 
#
# 1 122.2689 97.7094 86.8370 0.0000 -35.9793 0.0000
# 2 97.7094 196.4849 55.7375 0.0000 -22.9237 0.0000
# 3 86.8370 55.7375 167.2393 0.0000 -27.3690 0.0000
# 4 0.0000 0.0000 0.0000 35.6109 0.0000 -5.6148
# 5 -35.9793 -22.9237 -27.3690 0.0000 56.5362 0.0000
# 6 0.0000 0.0000 0.0000 -5.6148 0.0000 48.0588
#
#
#
# Elastic Compliance Matrix: (Units=1/GPa)
#
#
# Indices 1 2 3 4 5 6 
#
# 1 0.022074 -0.007981 -0.007638 0.000000 0.007115 0.000000
# 2 -0.007981 0.008624 0.001098 0.000000 -0.001051 0.000000
# 3 -0.007638 0.001098 0.009619 0.000000 0.000241 0.000000
# 4 0.000000 0.000000 0.000000 0.028608 0.000000 0.003342
# 5 0.007115 -0.001051 0.000241 0.000000 0.021906 0.000000
# 6 0.000000 0.000000 0.000000 0.003342 0.000000 0.021198
#
#
# Mechanical properties :
#
#
# Convention : Reuss Voigt Hill
#
# Bulk Modulus (GPa) = 88.68431 107.39566 98.03998
# Shear Modulus (GPa) = 34.52328 44.42179 39.47254
#
# Velocity S-wave (km/s) = 3.84614 4.36282 4.11260
# Velocity P-wave (km/s) = 7.59762 8.44965 8.03494
#
# Compressibility (1/GPa) = 0.01127595
#
# Stress axis : x y z
#
# Youngs Moduli (GPa) = 45.30180 115.95369 103.96261
#
# Poissons Ratio (x) = 0.92537 0.79403
# Poissons Ratio (y) = 0.36153 -0.11411
# Poissons Ratio (z) = 0.34600 -0.12727
#
# Static dielectric constant tensor:
#      x y z
#    x 4.708230 0.000000 -0.162730 
#    y 0.000000 4.046560 0.000000 
#    z -0.162730 0.000000 4.367560 
# 
# 
# High freq. dielectric constant tensor:
#      x y z
#    x 1.953130 0.000000 -0.006880 
#    y 0.000000 1.903330 0.000000 
#    z -0.006880 0.000000 1.934340 
# 
# From -- ./inp_files/21407.got.cif
#   From: 2010.06.25/outbox.cif.g09.slc.cpg/sg15_11_cif.got.tgz:21407.got - 2010.06.28 07:06:18.
