data_PCOD8154266
_publ_section_title
;
Structure prediction by ZEFSAII (Michael W. Deem and Ramdas Pophale) SiO2 
 PCOD8154266
Probable space group: C 2/C
;
_chemical_formula_sum "Si O2"
_cell_formula_units_Z 44
_cell_length_a 6.581942
_cell_length_b 14.334429
_cell_length_c 19.750279
_cell_angle_alpha 90.000000
_cell_angle_beta 98.305112
_cell_angle_gamma 90.000000
_cell_volume 1843.865110
_symmetry_space_group_name_H-M "C 2/C"
_symmetry_group_IT_number 15
_symmetry_cell_setting 'monoclinic'
loop_
_space_group_symop_operation_xyz
x,y,z
-x,y,1/2-z
-x,-y,-z
x,-y,1/2+z
1/2+x,1/2+y,z
1/2-x,1/2+y,1/2-z
1/2-x,1/2-y,-z
1/2+x,1/2-y,1/2+z
loop_
_atom_site_type_symbol
_atom_site_label
_atom_site_fract_x
_atom_site_fract_y
_atom_site_fract_z
Si Si1 0.917394 0.889203 0.171623
Si Si2 0.000000 0.407100 0.750000
Si Si3 0.850604 0.780889 0.799296
Si Si4 0.851770 0.833436 0.578338
Si Si5 0.770993 0.876256 0.433458
Si Si6 0.935164 0.519269 0.385369
O O1 0.778665 0.796581 0.167321
O O2 0.783237 0.969832 0.132593
O O3 0.000000 0.915861 0.250000
O O4 0.107369 0.878682 0.130501
O O5 0.800572 0.343781 0.752705
O O6 0.037573 0.470388 0.816890
O O7 0.000000 0.734416 0.750000
O O8 0.968680 0.849462 0.857821
O O9 0.914158 0.877848 0.508020
O O10 0.845399 0.721970 0.572353
O O11 0.628618 0.879850 0.586321
O O12 0.603142 0.959470 0.434729
#
# Coordination Sequence:
#
# PCOD8154266 Si02
#       6
#     8   4   8   8   8   8
#     4  12  26  43  72 106 139 184 237 295 361 430
#     4  12  26  42  72 102 142 184 236 292 362 426
#     4  12  24  46  70 105 141 187 240 297 364 431
#     4  11  25  48  72 100 145 188 239 295 363 435
#     4  11  26  50  69 102 143 189 237 298 363 433
#     4  12  26  45  70 106 141 188 241 300 357 438
#
# _framework density 23.862919000000002
#
# number of rings (size 3 to 8) (size 9 to 14) (size 15 to 20)
#    0.000    0.364    4.545    3.818    6.364    1.455 
#    3.273    0.000    0.000    0.000    0.000    0.000 
#    0.000    0.000    0.000    0.000    0.000    0.000 
#
# Total GULP energy -272741.286451 kJ/mol
# GULP energy per Si atom -12397.331202 kJ/mol
# Density = 2.380861 g / cm^3
# Si number density = 23.862919 Si / 1000 Ang^3
#
#
#
# Elastic Constant Matrix: (Units=GPa)
#
#
# Indices 1 2 3 4 5 6 
#
# 1 86.6214 17.2812 28.8676 0.0000 8.2114 0.0000
# 2 17.2812 78.4371 -1.3519 0.0000 9.2567 0.0000
# 3 28.8676 -1.3519 117.1134 0.0000 0.2687 0.0000
# 4 0.0000 0.0000 0.0000 26.1647 0.0000 -1.6895
# 5 8.2114 9.2567 0.2687 0.0000 35.0775 0.0000
# 6 0.0000 0.0000 0.0000 -1.6895 0.0000 44.0382
#
#
#
# Elastic Compliance Matrix: (Units=1/GPa)
#
#
# Indices 1 2 3 4 5 6 
#
# 1 0.013429 -0.002733 -0.003336 0.000000 -0.002397 0.000000
# 2 -0.002733 0.013718 0.000839 0.000000 -0.002987 0.000000
# 3 -0.003336 0.000839 0.009370 0.000000 0.000488 0.000000
# 4 0.000000 0.000000 0.000000 0.038314 0.000000 0.001470
# 5 -0.002397 -0.002987 0.000488 0.000000 0.029854 0.000000
# 6 0.000000 0.000000 0.000000 0.001470 0.000000 0.022764
#
#
# Mechanical properties :
#
#
# Convention : Reuss Voigt Hill
#
# Bulk Modulus (GPa) = 38.37937 41.30730 39.84334
# Shear Modulus (GPa) = 34.10757 36.88107 35.49432
#
# Velocity S-wave (km/s) = 3.78473 3.93560 3.86090
# Velocity P-wave (km/s) = 5.93440 6.16439 6.05049
#
# Compressibility (1/GPa) = 0.02605566
#
# Stress axis : x y z
#
# Youngs Moduli (GPa) = 74.46681 72.89585 106.72778
#
# Poissons Ratio (x) = 0.19924 0.35606
# Poissons Ratio (y) = 0.20354 -0.08954
# Poissons Ratio (z) = 0.24843 -0.06115
#
# Static dielectric constant tensor:
#      x y z
#    x 4.127790 0.000000 0.171520 
#    y 0.000000 4.486940 0.000000 
#    z 0.171520 0.000000 4.588680 
# 
# 
# High freq. dielectric constant tensor:
#      x y z
#    x 1.936720 0.000000 0.000520 
#    y 0.000000 1.947100 0.000000 
#    z 0.000520 0.000000 1.960480 
# 
# From -- ./inp_files/260419.got.cif
#   From: 2010.06.25/outbox.cif.g09.slc.cpg/sg15_131_cif.got.tgz:260419.got - 2010.06.28 07:06:18.
