data_PCOD8154460
_publ_section_title
;
Structure prediction by ZEFSAII (Michael W. Deem and Ramdas Pophale) SiO2 
 PCOD8154460
Probable space group: C 2/C
;
_chemical_formula_sum "Si O2"
_cell_formula_units_Z 32
_cell_length_a 17.797181
_cell_length_b 5.010095
_cell_length_c 24.912818
_cell_angle_alpha 90.000000
_cell_angle_beta 145.541294
_cell_angle_gamma 90.000000
_cell_volume 1256.875574
_symmetry_space_group_name_H-M "C 2/C"
_symmetry_group_IT_number 15
_symmetry_cell_setting 'monoclinic'
loop_
_space_group_symop_operation_xyz
x,y,z
-x,y,1/2-z
-x,-y,-z
x,-y,1/2+z
1/2+x,1/2+y,z
1/2-x,1/2+y,1/2-z
1/2-x,1/2-y,-z
1/2+x,1/2-y,1/2+z
loop_
_atom_site_type_symbol
_atom_site_label
_atom_site_fract_x
_atom_site_fract_y
_atom_site_fract_z
Si Si1 0.276212 0.027229 0.380430
Si Si2 0.484575 0.363933 0.320405
Si Si3 0.847589 0.340354 0.104628
Si Si4 0.493450 0.704130 0.947221
O O1 0.161040 0.827453 0.291208
O O2 0.367682 0.862132 0.475759
O O3 0.228757 0.297297 0.383578
O O4 0.368086 0.102484 0.383693
O O5 0.530042 0.639532 0.321513
O O6 0.472796 0.420764 0.376795
O O7 0.589788 0.134795 0.365563
O O8 0.750000 0.250000 0.000000
O O9 0.500000 0.500000 0.000000
#
# Coordination Sequence:
#
# PCOD8154460 Si02
#       4
#     8   8   8   8
#     4  11  28  48  76 116 151 206 264 324 399 474
#     4  12  29  48  82 112 154 207 260 327 393 474
#     4  12  26  52  77 110 156 205 265 322 391 471
#     4  11  27  49  79 110 162 203 258 331 397 483
#
# _framework density 25.459959000000001
#
# number of rings (size 3 to 8) (size 9 to 14) (size 15 to 20)
#    0.000    0.500    2.500    3.000   14.000    2.000 
#    0.000    0.000    0.000    0.000    0.000    0.000 
#    0.000    0.000    0.000    0.000    0.000    0.000 
#
# Total GULP energy -198336.030716 kJ/mol
# GULP energy per Si atom -12396.001920 kJ/mol
# Density = 2.540201 g / cm^3
# Si number density = 25.459959 Si / 1000 Ang^3
#
#
#
# Elastic Constant Matrix: (Units=GPa)
#
#
# Indices 1 2 3 4 5 6 
#
# 1 135.1336 19.8650 58.4564 0.0196 -10.1779 0.0513
# 2 19.8650 56.1171 11.3067 0.0413 -1.6646 0.1156
# 3 58.4564 11.3067 149.8232 -0.0006 12.7483 -0.0338
# 4 0.0196 0.0413 -0.0006 28.8750 0.0048 -4.1493
# 5 -10.1779 -1.6646 12.7483 0.0048 33.1554 0.0157
# 6 0.0513 0.1156 -0.0338 -4.1493 0.0157 35.6013
#
#
#
# Elastic Compliance Matrix: (Units=1/GPa)
#
#
# Indices 1 2 3 4 5 6 
#
# 1 0.009852 -0.002544 -0.004031 -0.000006 0.004447 -0.000012
# 2 -0.002544 0.018823 -0.000457 -0.000034 0.000340 -0.000062
# 3 -0.004031 -0.000457 0.008673 0.000007 -0.004595 0.000018
# 4 -0.000006 -0.000034 0.000007 0.035222 -0.000013 0.004105
# 5 0.004447 0.000340 -0.004595 -0.000013 0.033310 -0.000028
# 6 -0.000012 -0.000062 0.000018 0.004105 -0.000028 0.028568
#
#
# Mechanical properties :
#
#
# Convention : Reuss Voigt Hill
#
# Bulk Modulus (GPa) = 42.94543 57.81446 50.37995
# Shear Modulus (GPa) = 31.99567 36.28938 34.14253
#
# Velocity S-wave (km/s) = 3.54885 3.77948 3.66598
# Velocity P-wave (km/s) = 5.80490 6.46554 6.14411
#
# Compressibility (1/GPa) = 0.02328536
#
# Stress axis : x y z
#
# Youngs Moduli (GPa) = 101.49766 53.12751 115.30601
#
# Poissons Ratio (x) = 0.13514 0.46474
# Poissons Ratio (y) = 0.25818 0.05269
# Poissons Ratio (z) = 0.40909 0.02428
#
# Static dielectric constant tensor:
#      x y z
#    x 5.101260 -0.001120 0.184580 
#    y -0.001120 4.496790 0.000260 
#    z 0.184580 0.000260 4.907340 
# 
# 
# High freq. dielectric constant tensor:
#      x y z
#    x 2.030510 -0.000010 0.009190 
#    y -0.000010 2.003780 0.000000 
#    z 0.009190 0.000000 2.037330 
# 
# From -- ./inp_files/314980.got.cif
#   From: 2010.06.25/outbox.cif.g09.slc.cpg/sg15_158_cif.got.tgz:314980.got - 2010.06.28 07:06:18.
