data_PCOD8154839
_publ_section_title
;
Structure prediction by ZEFSAII (Michael W. Deem and Ramdas Pophale) SiO2 
 PCOD8154839
Probable space group: C 2/C
;
_chemical_formula_sum "Si O2"
_cell_formula_units_Z 48
_cell_length_a 22.546095
_cell_length_b 10.557512
_cell_length_c 8.931083
_cell_angle_alpha 90.000000
_cell_angle_beta 112.193449
_cell_angle_gamma 90.000000
_cell_volume 1968.373861
_symmetry_space_group_name_H-M "C 2/C"
_symmetry_group_IT_number 15
_symmetry_cell_setting 'monoclinic'
loop_
_space_group_symop_operation_xyz
x,y,z
-x,y,1/2-z
-x,-y,-z
x,-y,1/2+z
1/2+x,1/2+y,z
1/2-x,1/2+y,1/2-z
1/2-x,1/2-y,-z
1/2+x,1/2-y,1/2+z
loop_
_atom_site_type_symbol
_atom_site_label
_atom_site_fract_x
_atom_site_fract_y
_atom_site_fract_z
Si Si1 0.318704 0.933105 0.719975
Si Si2 0.500000 0.281738 0.750000
Si Si3 0.241701 0.888883 0.932679
Si Si4 0.383793 0.671631 0.732987
Si Si5 0.384063 0.551651 0.038001
Si Si6 0.058115 0.406531 0.066337
Si Si7 0.500000 0.219725 0.250000
O O1 0.340469 0.796086 0.681051
O O2 0.286637 0.010076 0.557497
O O3 0.376636 0.015974 0.844800
O O4 0.261709 0.902731 0.780514
O O5 0.549598 0.373929 0.879821
O O6 0.456677 0.195719 0.818855
O O7 0.250000 0.750000 0.000000
O O8 0.166732 0.909972 0.883559
O O9 0.388279 0.599152 0.575710
O O10 0.458793 0.705523 0.835813
O O11 0.359693 0.581577 0.846381
O O12 0.000000 0.500000 0.000000
O O13 0.057167 0.351958 0.895535
#
# Coordination Sequence:
#
# PCOD8154839 Si02
#       7
#     8   4   8   8   8   8   4
#     4  12  27  50  77 117 151 204 261 317 384 461
#     4  12  26  48  78 112 150 206 252 320 394 450
#     4  12  27  52  79 110 155 202 257 317 384 463
#     4  12  27  47  72 109 150 202 254 315 385 453
#     4  12  27  51  74 106 154 203 257 315 383 460
#     4  12  25  43  77 111 152 195 251 326 386 458
#     4  12  24  44  72 110 148 190 250 310 388 454
#
# _framework density 24.385611000000001
#
# number of rings (size 3 to 8) (size 9 to 14) (size 15 to 20)
#    0.000    0.000    5.000    4.000    4.667    2.000 
#    6.000    0.000    0.000    0.000    0.000    0.000 
#    0.000    0.000    0.000    0.000    0.000    0.000 
#
# Total GULP energy -297321.328449 kJ/mol
# GULP energy per Si atom -12388.388685 kJ/mol
# Density = 2.433011 g / cm^3
# Si number density = 24.385611 Si / 1000 Ang^3
#
#
#
# Elastic Constant Matrix: (Units=GPa)
#
#
# Indices 1 2 3 4 5 6 
#
# 1 115.8155 26.8436 -1.4770 0.0000 -11.2684 0.0000
# 2 26.8436 151.9279 43.0868 0.0000 -7.5760 0.0000
# 3 -1.4770 43.0868 56.7745 0.0000 -17.8771 0.0000
# 4 0.0000 0.0000 0.0000 14.6702 0.0000 -24.2233
# 5 -11.2684 -7.5760 -17.8771 0.0000 35.9736 0.0000
# 6 0.0000 0.0000 0.0000 -24.2233 0.0000 29.3544
#
#
#
# Elastic Compliance Matrix: (Units=1/GPa)
#
#
# Indices 1 2 3 4 5 6 
#
# 1 0.009664 -0.002479 0.003464 0.000000 0.004226 0.000000
# 2 -0.002479 0.009107 -0.007844 0.000000 -0.002757 0.000000
# 3 0.003464 -0.007844 0.027833 0.000000 0.013265 0.000000
# 4 0.000000 0.000000 0.000000 -0.188008 0.000000 -0.155145
# 5 0.004226 -0.002757 0.013265 0.000000 0.035133 0.000000
# 6 0.000000 0.000000 0.000000 -0.155145 0.000000 -0.093959
#
#
# Mechanical properties :
#
#
# Convention : Reuss Voigt Hill
#
# Bulk Modulus (GPa) = 30.40808 51.26940 40.83874
# Shear Modulus (GPa) = -28.48224 33.07063 2.29419
#
# Velocity S-wave (km/s) = -3.42130 3.68659 0.97100
# Velocity P-wave (km/s) = 1.76361 6.26030 4.24742
#
# Compressibility (1/GPa) = 0.03288600
#
# Stress axis : x y z
#
# Youngs Moduli (GPa) = 103.47239 109.80309 35.92802
#
# Poissons Ratio (x) = 0.27221 -0.12444
# Poissons Ratio (y) = 0.25652 0.28182
# Poissons Ratio (z) = -0.35839 0.86130
#
# Static dielectric constant tensor:
#      x y z
#    x 4.113260 0.000000 -0.483770 
#    y 0.000000 5.754560 0.000000 
#    z -0.483770 0.000000 3.496140 
# 
# 
# High freq. dielectric constant tensor:
#      x y z
#    x 1.992270 0.000000 -0.012520 
#    y 0.000000 1.984650 0.000000 
#    z -0.012520 0.000000 1.959850 
# 
# From -- ./inp_files/60911.got.cif
#   From: 2010.06.25/outbox.cif.g09.slc.cpg/sg15_31_cif.got.tgz:60911.got - 2010.06.28 07:06:18.
