data_PCOD8154389
_publ_section_title
;
Structure prediction by ZEFSAII (Michael W. Deem and Ramdas Pophale) SiO2 
 PCOD8154389
Probable space group: C 2/C
;
_chemical_formula_sum "Si O2"
_cell_formula_units_Z 52
_cell_length_a 10.837801
_cell_length_b 8.093404
_cell_length_c 24.356385
_cell_angle_alpha 90.000000
_cell_angle_beta 59.198014
_cell_angle_gamma 90.000000
_cell_volume 1835.055215
_symmetry_space_group_name_H-M "C 2/C"
_symmetry_group_IT_number 15
_symmetry_cell_setting 'monoclinic'
loop_
_space_group_symop_operation_xyz
x,y,z
-x,y,1/2-z
-x,-y,-z
x,-y,1/2+z
1/2+x,1/2+y,z
1/2-x,1/2+y,1/2-z
1/2-x,1/2-y,-z
1/2+x,1/2-y,1/2+z
loop_
_atom_site_type_symbol
_atom_site_label
_atom_site_fract_x
_atom_site_fract_y
_atom_site_fract_z
Si Si1 0.501363 0.475281 0.163074
Si Si2 0.844478 0.331308 0.524505
Si Si3 0.958090 0.629624 0.320225
Si Si4 0.347050 0.156047 0.580827
Si Si5 0.500000 0.715826 0.250000
Si Si6 0.669326 0.490659 0.404243
Si Si7 0.698783 0.909721 0.286867
O O1 0.594250 0.302949 0.138682
O O2 0.581604 0.612652 0.182104
O O3 0.449059 0.530932 0.115473
O O4 0.359438 0.445628 0.232823
O O5 0.750000 0.250000 0.500000
O O6 0.766499 0.495409 0.569928
O O7 0.875468 0.182758 0.559794
O O8 0.986740 0.397810 0.461967
O O9 0.837247 0.485397 0.347194
O O10 0.000000 0.679037 0.250000
O O11 0.103016 0.574966 0.318993
O O12 0.334547 0.341842 0.556565
O O13 0.300866 0.186349 0.655214
O O14 0.621532 0.819485 0.253448
#
# Coordination Sequence:
#
# PCOD8154389 Si02
#       7
#     8   8   8   8   4   8   8
#     4  12  25  42  68 105 151 191 240 297 373 460
#     4  11  27  50  76 104 139 195 259 310 375 436
#     4  12  23  41  65 100 145 194 241 288 371 450
#     4  11  26  47  75 105 142 194 249 315 371 435
#     4  12  24  38  68 102 138 194 232 280 370 450
#     4  12  25  48  71 107 152 190 241 318 370 442
#     4  12  23  44  69 103 150 189 243 302 366 449
#
# _framework density 28.337022000000001
#
# number of rings (size 3 to 8) (size 9 to 14) (size 15 to 20)
#    0.000    0.308    4.615    4.154    0.000    5.538 
#    0.000    0.000    0.000    0.000    0.000    0.000 
#    0.000    0.000    0.000    0.000    0.000    0.000 
#
# Total GULP energy -322195.182779 kJ/mol
# GULP energy per Si atom -12392.122415 kJ/mol
# Density = 2.827253 g / cm^3
# Si number density = 28.337022 Si / 1000 Ang^3
#
#
#
# Elastic Constant Matrix: (Units=GPa)
#
#
# Indices 1 2 3 4 5 6 
#
# 1 100.9967 24.4745 16.2552 0.0000 24.4206 0.0000
# 2 24.4745 184.9646 34.2812 0.0000 22.0881 0.0000
# 3 16.2552 34.2812 87.0590 0.0000 12.7749 0.0000
# 4 0.0000 0.0000 0.0000 19.5769 0.0000 -7.6772
# 5 24.4206 22.0881 12.7749 0.0000 33.2023 0.0000
# 6 0.0000 0.0000 0.0000 -7.6772 0.0000 46.0703
#
#
#
# Elastic Compliance Matrix: (Units=1/GPa)
#
#
# Indices 1 2 3 4 5 6 
#
# 1 0.012160 -0.000456 -0.000872 0.000000 -0.008305 0.000000
# 2 -0.000456 0.006183 -0.001903 0.000000 -0.003046 0.000000
# 3 -0.000872 -0.001903 0.012844 0.000000 -0.003034 0.000000
# 4 0.000000 0.000000 0.000000 0.054652 0.000000 0.009107
# 5 -0.008305 -0.003046 -0.003034 0.000000 0.039421 0.000000
# 6 0.000000 0.000000 0.000000 0.009107 0.000000 0.023224
#
#
# Mechanical properties :
#
#
# Convention : Reuss Voigt Hill
#
# Bulk Modulus (GPa) = 40.44328 58.11578 49.27953
# Shear Modulus (GPa) = 30.63965 39.63720 35.13843
#
# Velocity S-wave (km/s) = 3.29182 3.74408 3.52521
# Velocity P-wave (km/s) = 5.36202 6.26452 5.83076
#
# Compressibility (1/GPa) = 0.02472599
#
# Stress axis : x y z
#
# Youngs Moduli (GPa) = 82.23477 161.73023 77.85837
#
# Poissons Ratio (x) = 0.07368 0.06792
# Poissons Ratio (y) = 0.03746 0.14814
# Poissons Ratio (z) = 0.07174 0.30772
#
# Static dielectric constant tensor:
#      x y z
#    x 5.920640 0.000000 -0.955530 
#    y 0.000000 8.812170 0.000000 
#    z -0.955530 0.000000 7.244320 
# 
# 
# High freq. dielectric constant tensor:
#      x y z
#    x 2.161030 0.000000 -0.023710 
#    y 0.000000 2.176660 0.000000 
#    z -0.023710 0.000000 2.132260 
# 
# From -- ./inp_files/291473.got.cif
#   From: 2010.06.25/outbox.cif.g09.slc.cpg/sg15_146_cif.got.tgz:291473.got - 2010.06.28 07:06:18.
