data_PCOD8154764
_publ_section_title
;
Structure prediction by ZEFSAII (Michael W. Deem and Ramdas Pophale) SiO2 
 PCOD8154764
Probable space group: C 2/C
;
_chemical_formula_sum "Si O2"
_cell_formula_units_Z 28
_cell_length_a 12.013233
_cell_length_b 8.408015
_cell_length_c 14.228226
_cell_angle_alpha 90.000000
_cell_angle_beta 118.804772
_cell_angle_gamma 90.000000
_cell_volume 1259.332374
_symmetry_space_group_name_H-M "C 2/C"
_symmetry_group_IT_number 15
_symmetry_cell_setting 'monoclinic'
loop_
_space_group_symop_operation_xyz
x,y,z
-x,y,1/2-z
-x,-y,-z
x,-y,1/2+z
1/2+x,1/2+y,z
1/2-x,1/2+y,1/2-z
1/2-x,1/2-y,-z
1/2+x,1/2-y,1/2+z
loop_
_atom_site_type_symbol
_atom_site_label
_atom_site_fract_x
_atom_site_fract_y
_atom_site_fract_z
Si Si1 0.000000 0.487055 0.250000
Si Si2 0.663399 0.203691 0.679215
Si Si3 0.078490 0.045599 0.691304
Si Si4 0.604332 0.209222 0.455432
O O1 0.108407 0.375799 0.250370
O O2 0.060398 0.589159 0.357504
O O3 0.814049 0.172923 0.735021
O O4 0.645086 0.393608 0.672254
O O5 0.594416 0.136017 0.556972
O O6 0.000000 0.990092 0.750000
O O7 0.982536 0.132434 0.580970
O O8 0.750000 0.250000 0.500000
#
# Coordination Sequence:
#
# PCOD8154764 Si02
#       4
#     4   8   8   8
#     4  12  26  44  70 108 138 186 236 286 348 422
#     4  12  26  46  74 102 143 184 234 290 349 414
#     4  12  24  48  72 104 139 182 236 289 344 417
#     4  12  23  46  71  99 143 186 229 290 350 408
#
# _framework density 22.234003000000001
#
# number of rings (size 3 to 8) (size 9 to 14) (size 15 to 20)
#    0.000    0.000    5.714    5.143    0.000    0.000 
#    0.000    4.286    0.000    0.000    0.000    0.000 
#    0.000    0.000    0.000    0.000    0.000    0.000 
#
# Total GULP energy -173633.301014 kJ/mol
# GULP energy per Si atom -12402.378644 kJ/mol
# Density = 2.218340 g / cm^3
# Si number density = 22.234003 Si / 1000 Ang^3
#
#
#
# Elastic Constant Matrix: (Units=GPa)
#
#
# Indices 1 2 3 4 5 6 
#
# 1 106.5639 51.1094 58.2142 0.0000 8.5645 0.0000
# 2 51.1094 114.9573 49.2837 0.0000 16.8009 0.0000
# 3 58.2142 49.2837 145.1454 0.0000 6.7145 0.0000
# 4 0.0000 0.0000 0.0000 24.4959 0.0000 0.0677
# 5 8.5645 16.8009 6.7145 0.0000 45.9708 0.0000
# 6 0.0000 0.0000 0.0000 0.0677 0.0000 43.0774
#
#
#
# Elastic Compliance Matrix: (Units=1/GPa)
#
#
# Indices 1 2 3 4 5 6 
#
# 1 0.013665 -0.004303 -0.004002 0.000000 -0.000389 0.000000
# 2 -0.004303 0.012038 -0.002210 0.000000 -0.003275 0.000000
# 3 -0.004002 -0.002210 0.009236 0.000000 0.000204 0.000000
# 4 0.000000 0.000000 0.000000 0.040823 0.000000 -0.000064
# 5 -0.000389 -0.003275 0.000204 0.000000 0.022992 0.000000
# 6 0.000000 0.000000 0.000000 -0.000064 0.000000 0.023214
#
#
# Mechanical properties :
#
#
# Convention : Reuss Voigt Hill
#
# Bulk Modulus (GPa) = 71.89520 75.98677 73.94099
# Shear Modulus (GPa) = 33.86731 36.57944 35.22337
#
# Velocity S-wave (km/s) = 3.90708 4.06051 3.98453
# Velocity P-wave (km/s) = 7.26358 7.49892 7.38219
#
# Compressibility (1/GPa) = 0.01390913
#
# Stress axis : x y z
#
# Youngs Moduli (GPa) = 73.17893 83.06903 108.27645
#
# Poissons Ratio (x) = 0.35745 0.43329
# Poissons Ratio (y) = 0.31489 0.23931
# Poissons Ratio (z) = 0.29284 0.18360
#
# Static dielectric constant tensor:
#      x y z
#    x 4.121740 0.000000 -0.091200 
#    y 0.000000 3.901600 0.000000 
#    z -0.091200 0.000000 4.454140 
# 
# 
# High freq. dielectric constant tensor:
#      x y z
#    x 1.893070 0.000000 -0.002400 
#    y 0.000000 1.869840 0.000000 
#    z -0.002400 0.000000 1.886960 
# 
# From -- ./inp_files/93299.got.cif
#   From: 2010.06.25/outbox.cif.g09.slc.cpg/sg15_47_cif.got.tgz:93299.got - 2010.06.28 07:06:18.
