data_PCOD8154780
_publ_section_title
;
Structure prediction by ZEFSAII (Michael W. Deem and Ramdas Pophale) SiO2 
 PCOD8154780
Probable space group: C 2/C
;
_chemical_formula_sum "Si O2"
_cell_formula_units_Z 40
_cell_length_a 21.386228
_cell_length_b 19.656572
_cell_length_c 7.614065
_cell_angle_alpha 90.000000
_cell_angle_beta 146.129729
_cell_angle_gamma 90.000000
_cell_volume 1783.851888
_symmetry_space_group_name_H-M "C 2/C"
_symmetry_group_IT_number 15
_symmetry_cell_setting 'monoclinic'
loop_
_space_group_symop_operation_xyz
x,y,z
-x,y,1/2-z
-x,-y,-z
x,-y,1/2+z
1/2+x,1/2+y,z
1/2-x,1/2+y,1/2-z
1/2-x,1/2-y,-z
1/2+x,1/2-y,1/2+z
loop_
_atom_site_type_symbol
_atom_site_label
_atom_site_fract_x
_atom_site_fract_y
_atom_site_fract_z
Si Si1 0.500000 0.385142 0.750000
Si Si2 0.500000 0.858577 0.250000
Si Si3 0.911676 0.156437 0.683461
Si Si4 0.734073 0.422192 0.177580
Si Si5 0.341638 0.208449 0.108508
Si Si6 0.712747 0.069998 0.100191
O O1 0.461755 0.339470 0.496755
O O2 0.396755 0.431238 0.576951
O O3 0.557772 0.812166 0.530005
O O4 0.588839 0.904688 0.353796
O O5 0.884582 0.234985 0.567417
O O6 0.802224 0.107627 0.435906
O O7 0.000000 0.126136 0.750000
O O8 0.789467 0.356524 0.393545
O O9 0.794496 0.489542 0.386661
O O10 0.749660 0.412609 0.007790
O O11 0.250000 0.250000 0.000000
#
# Coordination Sequence:
#
# PCOD8154780 Si02
#       6
#     4   4   8   8   8   8
#     4  12  23  46  78 106 155 190 248 320 365 434
#     4  12  27  50  76 104 155 200 244 314 367 450
#     4  12  26  46  74 115 147 199 249 312 376 443
#     4  12  28  47  74 111 146 201 253 309 375 447
#     4  12  26  47  73 110 150 194 251 301 375 449
#     4  12  28  49  75 109 150 197 257 304 379 446
#
# _framework density 22.423387000000002
#
# number of rings (size 3 to 8) (size 9 to 14) (size 15 to 20)
#    0.000    0.000    6.000    3.000    4.200    5.600 
#    0.000    0.000    0.000    0.000    0.000    0.000 
#    0.000    0.000    0.000    0.000    0.000    0.000 
#
# Total GULP energy -248034.033140 kJ/mol
# GULP energy per Si atom -12401.701657 kJ/mol
# Density = 2.237235 g / cm^3
# Si number density = 22.423387 Si / 1000 Ang^3
#
#
#
# Elastic Constant Matrix: (Units=GPa)
#
#
# Indices 1 2 3 4 5 6 
#
# 1 136.4980 31.3802 55.0667 0.0000 11.8586 0.0000
# 2 31.3802 158.5210 56.4570 0.0000 -1.3686 0.0000
# 3 55.0667 56.4570 129.4481 0.0000 4.2734 0.0000
# 4 0.0000 0.0000 0.0000 36.7252 0.0000 -0.0272
# 5 11.8586 -1.3686 4.2734 0.0000 50.5468 0.0000
# 6 0.0000 0.0000 0.0000 -0.0272 0.0000 51.6678
#
#
#
# Elastic Compliance Matrix: (Units=1/GPa)
#
#
# Indices 1 2 3 4 5 6 
#
# 1 0.009042 -0.000542 -0.003550 0.000000 -0.001836 0.000000
# 2 -0.000542 0.007512 -0.003066 0.000000 0.000590 0.000000
# 3 -0.003550 -0.003066 0.010577 0.000000 -0.000144 0.000000
# 4 0.000000 0.000000 0.000000 0.027229 0.000000 0.000014
# 5 -0.001836 0.000590 -0.000144 0.000000 0.020243 0.000000
# 6 0.000000 0.000000 0.000000 0.000014 0.000000 0.019354
#
#
# Mechanical properties :
#
#
# Convention : Reuss Voigt Hill
#
# Bulk Modulus (GPa) = 78.01609 78.91944 78.46776
# Shear Modulus (GPa) = 44.42714 46.55883 45.49299
#
# Velocity S-wave (km/s) = 4.45599 4.56164 4.50913
# Velocity P-wave (km/s) = 7.83213 7.93828 7.88539
#
# Compressibility (1/GPa) = 0.01281787
#
# Stress axis : x y z
#
# Youngs Moduli (GPa) = 110.59321 133.11348 94.54596
#
# Poissons Ratio (x) = 0.07209 0.33561
# Poissons Ratio (y) = 0.05990 0.28983
# Poissons Ratio (z) = 0.39257 0.40806
#
# Static dielectric constant tensor:
#      x y z
#    x 4.420550 0.000000 0.218490 
#    y 0.000000 4.423110 0.000000 
#    z 0.218490 0.000000 4.344130 
# 
# 
# High freq. dielectric constant tensor:
#      x y z
#    x 1.897270 0.000000 0.007300 
#    y 0.000000 1.892160 0.000000 
#    z 0.007300 0.000000 1.891330 
# 
# From -- ./inp_files/62889.got.cif
#   From: 2010.06.25/outbox.cif.g09.slc.cpg/sg15_32_cif.got.tgz:62889.got - 2010.06.28 07:06:18.
