data_PCOD8154347
_publ_section_title
;
Structure prediction by ZEFSAII (Michael W. Deem and Ramdas Pophale) SiO2 
 PCOD8154347
Probable space group: C 2/C
;
_chemical_formula_sum "Si O2"
_cell_formula_units_Z 40
_cell_length_a 11.906014
_cell_length_b 16.206398
_cell_length_c 18.521431
_cell_angle_alpha 90.000000
_cell_angle_beta 150.999804
_cell_angle_gamma 90.000000
_cell_volume 1732.612074
_symmetry_space_group_name_H-M "C 2/C"
_symmetry_group_IT_number 15
_symmetry_cell_setting 'monoclinic'
loop_
_space_group_symop_operation_xyz
x,y,z
-x,y,1/2-z
-x,-y,-z
x,-y,1/2+z
1/2+x,1/2+y,z
1/2-x,1/2+y,1/2-z
1/2-x,1/2-y,-z
1/2+x,1/2-y,1/2+z
loop_
_atom_site_type_symbol
_atom_site_label
_atom_site_fract_x
_atom_site_fract_y
_atom_site_fract_z
Si Si1 0.969973 0.406613 0.457316
Si Si2 0.435913 0.580809 0.877135
Si Si3 0.848465 0.893038 0.858587
Si Si4 0.124570 0.819205 0.887106
Si Si5 0.643506 0.159423 0.454171
O O1 0.769962 0.383668 0.287285
O O2 0.919752 0.348059 0.497085
O O3 0.000000 0.500000 0.500000
O O4 0.207415 0.388436 0.550026
O O5 0.351557 0.491174 0.853474
O O6 0.491223 0.632349 0.982322
O O7 0.671883 0.587660 0.962839
O O8 0.588751 0.857466 0.723571
O O9 0.938676 0.860677 0.833810
O O10 0.000000 0.775245 0.750000
O O11 0.250000 0.750000 0.000000
O O12 0.750000 0.250000 0.500000
#
# Coordination Sequence:
#
# PCOD8154347 Si02
#       5
#     8   8   8   8   8
#     4  12  25  49  79 107 147 203 254 303 382 459
#     4  11  26  45  77 108 147 198 254 309 373 455
#     4  11  26  49  72 110 152 195 254 311 379 452
#     4  12  28  47  75 102 152 193 248 308 376 453
#     4  12  27  47  76 110 155 198 251 324 388 447
#
# _framework density 23.086531000000001
#
# number of rings (size 3 to 8) (size 9 to 14) (size 15 to 20)
#    0.000    0.400    4.000    2.400    8.400    1.600 
#    0.000    0.000    0.000    0.000    0.000    0.000 
#    0.000    0.000    0.000    0.000    0.000    0.000 
#
# Total GULP energy -247915.635094 kJ/mol
# GULP energy per Si atom -12395.781755 kJ/mol
# Density = 2.303398 g / cm^3
# Si number density = 23.086531 Si / 1000 Ang^3
#
#
#
# Elastic Constant Matrix: (Units=GPa)
#
#
# Indices 1 2 3 4 5 6 
#
# 1 120.0909 34.7947 58.7628 0.0031 1.9004 0.0006
# 2 34.7947 108.2547 46.9362 0.0029 6.4530 0.0002
# 3 58.7628 46.9362 202.7737 0.0144 -20.7640 0.0059
# 4 0.0031 0.0029 0.0144 31.6188 -0.0011 5.4368
# 5 1.9004 6.4530 -20.7640 -0.0011 55.8410 -0.0003
# 6 0.0006 0.0002 0.0059 5.4368 -0.0003 37.5044
#
#
#
# Elastic Compliance Matrix: (Units=1/GPa)
#
#
# Indices 1 2 3 4 5 6 
#
# 1 0.010217 -0.002100 -0.002584 0.000000 -0.001066 0.000000
# 2 -0.002100 0.010955 -0.002131 0.000000 -0.001987 0.000000
# 3 -0.002584 -0.002131 0.006453 -0.000002 0.002734 -0.000001
# 4 0.000000 0.000000 -0.000002 0.032435 0.000000 -0.004702
# 5 -0.001066 -0.001987 0.002734 0.000000 0.019190 0.000000
# 6 0.000000 0.000000 -0.000001 -0.004702 0.000000 0.027345
#
#
# Mechanical properties :
#
#
# Convention : Reuss Voigt Hill
#
# Bulk Modulus (GPa) = 71.44854 79.12297 75.28576
# Shear Modulus (GPa) = 40.03540 44.36788 42.20164
#
# Velocity S-wave (km/s) = 4.16882 4.38860 4.28012
# Velocity P-wave (km/s) = 7.36121 7.74768 7.55692
#
# Compressibility (1/GPa) = 0.01399609
#
# Stress axis : x y z
#
# Youngs Moduli (GPa) = 97.87969 91.28574 154.95549
#
# Poissons Ratio (x) = 0.19170 0.40037
# Poissons Ratio (y) = 0.20555 0.33014
# Poissons Ratio (z) = 0.25290 0.19449
#
# Static dielectric constant tensor:
#      x y z
#    x 4.536080 -0.000040 -0.292610 
#    y -0.000040 4.235710 0.000040 
#    z -0.292610 0.000040 4.732410 
# 
# 
# High freq. dielectric constant tensor:
#      x y z
#    x 1.931420 0.000000 -0.009830 
#    y 0.000000 1.894790 0.000000 
#    z -0.009830 0.000000 1.938560 
# 
# From -- ./inp_files/199726.got.cif
#   From: 2010.06.25/outbox.cif.g09.slc.cpg/sg15_100_cif.got.tgz:199726.got - 2010.06.28 07:06:18.
