data_PCOD8154368
_publ_section_title
;
Structure prediction by ZEFSAII (Michael W. Deem and Ramdas Pophale) SiO2 
 PCOD8154368
Probable space group: C 2/C
;
_chemical_formula_sum "Si O2"
_cell_formula_units_Z 52
_cell_length_a 8.950969
_cell_length_b 15.536702
_cell_length_c 21.065667
_cell_angle_alpha 90.000000
_cell_angle_beta 50.976761
_cell_angle_gamma 90.000000
_cell_volume 2275.956707
_symmetry_space_group_name_H-M "C 2/C"
_symmetry_group_IT_number 15
_symmetry_cell_setting 'monoclinic'
loop_
_space_group_symop_operation_xyz
x,y,z
-x,y,1/2-z
-x,-y,-z
x,-y,1/2+z
1/2+x,1/2+y,z
1/2-x,1/2+y,1/2-z
1/2-x,1/2-y,-z
1/2+x,1/2-y,1/2+z
loop_
_atom_site_type_symbol
_atom_site_label
_atom_site_fract_x
_atom_site_fract_y
_atom_site_fract_z
Si Si1 0.911809 0.585083 0.142764
Si Si2 0.570863 0.368324 0.478837
Si Si3 0.166053 0.755535 0.656883
Si Si4 0.883852 0.251706 0.122401
Si Si5 0.781189 0.015540 0.981708
Si Si6 0.803942 0.929896 0.333599
Si Si7 0.000000 0.658888 0.250000
O O1 0.796360 0.666043 0.145993
O O2 0.767948 0.505743 0.193516
O O3 0.014533 0.602507 0.182413
O O4 0.068186 0.553156 0.049746
O O5 0.704120 0.328554 0.388172
O O6 0.436150 0.291791 0.541741
O O7 0.696997 0.416372 0.500025
O O8 0.433365 0.433406 0.481493
O O9 0.000000 0.730149 0.750000
O O10 0.063709 0.774945 0.617690
O O11 0.852333 0.353380 0.120460
O O12 0.690074 0.215655 0.205456
O O13 0.833783 0.025480 0.893981
O O14 0.000000 0.894154 0.250000
#
# Coordination Sequence:
#
# PCOD8154368 Si02
#       7
#     8   8   8   8   8   8   4
#     4  12  26  49  74 107 149 196 242 307 367 435
#     4  11  26  46  76 109 149 198 241 309 360 445
#     4  12  26  44  76 106 148 190 248 303 371 431
#     4  12  25  50  70 112 147 192 248 300 365 436
#     4  11  26  48  73 109 150 196 248 296 379 429
#     4  12  28  44  75 108 148 191 247 306 366 438
#     4  12  26  46  76 106 146 196 246 300 362 436
#
# _framework density 22.847535000000001
#
# number of rings (size 3 to 8) (size 9 to 14) (size 15 to 20)
#    0.000    0.308    3.846    4.154    6.462    1.231 
#    2.769    0.000    0.000    0.000    0.000    0.000 
#    0.000    0.000    0.000    0.000    0.000    0.000 
#
# Total GULP energy -322450.274244 kJ/mol
# GULP energy per Si atom -12401.933625 kJ/mol
# Density = 2.279553 g / cm^3
# Si number density = 22.847535 Si / 1000 Ang^3
#
#
#
# Elastic Constant Matrix: (Units=GPa)
#
#
# Indices 1 2 3 4 5 6 
#
# 1 90.6256 40.7689 11.4451 0.0001 2.3444 -0.0001
# 2 40.7689 135.9331 44.4642 -0.0003 12.4447 0.0006
# 3 11.4451 44.4642 117.2179 0.0008 -10.9137 -0.0004
# 4 0.0001 -0.0003 0.0008 36.9204 0.0006 -7.1578
# 5 2.3444 12.4447 -10.9137 0.0006 26.3130 -0.0008
# 6 -0.0001 0.0006 -0.0004 -7.1578 -0.0008 43.2987
#
#
#
# Elastic Compliance Matrix: (Units=1/GPa)
#
#
# Indices 1 2 3 4 5 6 
#
# 1 0.012781 -0.004039 0.000370 0.000000 0.000925 0.000000
# 2 -0.004039 0.010519 -0.004187 0.000000 -0.006352 0.000000
# 3 0.000370 -0.004187 0.010677 0.000000 0.006376 0.000000
# 4 0.000000 0.000000 0.000000 0.027982 -0.000001 0.004626
# 5 0.000925 -0.006352 0.006376 -0.000001 0.043570 0.000001
# 6 0.000000 0.000000 0.000000 0.004626 0.000001 0.023860
#
#
# Mechanical properties :
#
#
# Convention : Reuss Voigt Hill
#
# Bulk Modulus (GPa) = 54.74970 59.68142 57.21556
# Shear Modulus (GPa) = 33.07115 37.77965 35.42540
#
# Velocity S-wave (km/s) = 3.80869 4.07080 3.94193
# Velocity P-wave (km/s) = 6.58457 6.94792 6.76868
#
# Compressibility (1/GPa) = 0.01826494
#
# Stress axis : x y z
#
# Youngs Moduli (GPa) = 78.24297 95.06503 93.65996
#
# Poissons Ratio (x) = 0.38397 -0.03469
# Poissons Ratio (y) = 0.31602 0.39218
# Poissons Ratio (z) = -0.02898 0.39806
#
# Static dielectric constant tensor:
#      x y z
#    x 4.312630 0.000000 -0.084170 
#    y 0.000000 4.117460 0.000000 
#    z -0.084170 0.000000 4.252780 
# 
# 
# High freq. dielectric constant tensor:
#      x y z
#    x 1.911440 0.000000 -0.008580 
#    y 0.000000 1.908300 0.000000 
#    z -0.008580 0.000000 1.907700 
# 
# From -- ./inp_files/233001.got.cif
#   From: 2010.06.25/outbox.cif.g09.slc.cpg/sg15_117_cif.got.tgz:233001.got - 2010.06.28 07:06:18.
