data_PCOD8154189
_publ_section_title
;
Structure prediction by ZEFSAII (Michael W. Deem and Ramdas Pophale) SiO2 
 PCOD8154189
Probable space group: C 2/C
;
_chemical_formula_sum "Si O2"
_cell_formula_units_Z 36
_cell_length_a 21.127527
_cell_length_b 15.453068
_cell_length_c 12.552960
_cell_angle_alpha 90.000000
_cell_angle_beta 157.054809
_cell_angle_gamma 90.000000
_cell_volume 1597.745147
_symmetry_space_group_name_H-M "C 2/C"
_symmetry_group_IT_number 15
_symmetry_cell_setting 'monoclinic'
loop_
_space_group_symop_operation_xyz
x,y,z
-x,y,1/2-z
-x,-y,-z
x,-y,1/2+z
1/2+x,1/2+y,z
1/2-x,1/2+y,1/2-z
1/2-x,1/2-y,-z
1/2+x,1/2-y,1/2+z
loop_
_atom_site_type_symbol
_atom_site_label
_atom_site_fract_x
_atom_site_fract_y
_atom_site_fract_z
Si Si1 0.567514 0.746879 0.672874
Si Si2 0.413606 0.697446 0.223539
Si Si3 0.483263 0.070203 0.102374
Si Si4 0.000000 0.130864 0.750000
Si Si5 0.264000 0.480874 0.431289
O O1 0.546862 0.704672 0.524207
O O2 0.506706 0.844495 0.567733
O O3 0.454834 0.692296 0.580141
O O4 0.750000 0.750000 0.000000
O O5 0.500000 0.733614 0.250000
O O6 0.250000 0.750000 0.000000
O O7 0.375856 0.595600 0.149541
O O8 0.500000 0.095987 0.250000
O O9 0.611473 0.994582 0.273787
O O10 0.302305 0.039293 0.790641
O O11 0.854110 0.071662 0.563879
#
# Coordination Sequence:
#
# PCOD8154189 Si02
#       5
#     8   8   8   4   8
#     4  12  27  46  76 108 146 194 245 306 373 439
#     4  12  29  49  76 107 152 196 248 303 370 441
#     4  11  25  46  72 102 152 191 241 295 372 442
#     4  12  26  44  78 108 142 182 254 300 364 434
#     4  11  26  47  69 111 142 194 241 302 364 439
#
# _framework density 22.531753999999999
#
# number of rings (size 3 to 8) (size 9 to 14) (size 15 to 20)
#    0.000    0.444    6.667    0.000    9.333    1.778 
#    0.000    0.000    0.000    0.000    0.000    0.000 
#    0.000    0.000    0.000    0.000    0.000    0.000 
#
# Total GULP energy -223190.633685 kJ/mol
# GULP energy per Si atom -12399.479649 kJ/mol
# Density = 2.248047 g / cm^3
# Si number density = 22.531754 Si / 1000 Ang^3
#
#
#
# Elastic Constant Matrix: (Units=GPa)
#
#
# Indices 1 2 3 4 5 6 
#
# 1 125.4851 36.5004 50.0700 0.0000 -24.1733 0.0000
# 2 36.5004 103.4883 36.0387 0.0000 -7.4024 0.0000
# 3 50.0700 36.0387 135.1555 0.0000 -24.9307 0.0000
# 4 0.0000 0.0000 0.0000 32.6379 0.0000 -0.3959
# 5 -24.1733 -7.4024 -24.9307 0.0000 44.3066 0.0000
# 6 0.0000 0.0000 0.0000 -0.3959 0.0000 40.9191
#
#
#
# Elastic Compliance Matrix: (Units=1/GPa)
#
#
# Indices 1 2 3 4 5 6 
#
# 1 0.010444 -0.002544 -0.002475 0.000000 0.003881 0.000000
# 2 -0.002544 0.011273 -0.002201 0.000000 -0.000743 0.000000
# 3 -0.002475 -0.002201 0.009580 0.000000 0.003673 0.000000
# 4 0.000000 0.000000 0.000000 0.030643 0.000000 0.000296
# 5 0.003881 -0.000743 0.003673 0.000000 0.026630 0.000000
# 6 0.000000 0.000000 0.000000 0.000296 0.000000 0.024441
#
#
# Mechanical properties :
#
#
# Convention : Reuss Voigt Hill
#
# Bulk Modulus (GPa) = 59.31825 67.70524 63.51175
# Shear Modulus (GPa) = 37.57414 39.67402 38.62408
#
# Velocity S-wave (km/s) = 4.08807 4.20075 4.14479
# Velocity P-wave (km/s) = 6.97615 7.32410 7.15224
#
# Compressibility (1/GPa) = 0.01685822
#
# Stress axis : x y z
#
# Youngs Moduli (GPa) = 95.74681 88.70396 104.38455
#
# Poissons Ratio (x) = 0.22568 0.25835
# Poissons Ratio (y) = 0.24360 0.22970
# Poissons Ratio (z) = 0.23697 0.19519
#
# Static dielectric constant tensor:
#      x y z
#    x 4.068680 0.000000 -0.013050 
#    y 0.000000 4.208930 0.000000 
#    z -0.013050 0.000000 4.148920 
# 
# 
# High freq. dielectric constant tensor:
#      x y z
#    x 1.881800 0.000000 -0.000850 
#    y 0.000000 1.904370 0.000000 
#    z -0.000850 0.000000 1.893040 
# 
# From -- ./inp_files/112573.got.cif
#   From: 2010.06.25/outbox.cif.g09.slc.cpg/sg15_57_cif.got.tgz:112573.got - 2010.06.28 07:06:18.
