data_PCOD8154914
_publ_section_title
;
Structure prediction by ZEFSAII (Michael W. Deem and Ramdas Pophale) SiO2 
 PCOD8154914
Probable space group: C 2/C
;
_chemical_formula_sum "Si O2"
_cell_formula_units_Z 56
_cell_length_a 30.110054
_cell_length_b 7.547541
_cell_length_c 12.088451
_cell_angle_alpha 90.000000
_cell_angle_beta 117.266254
_cell_angle_gamma 90.000000
_cell_volume 2441.936288
_symmetry_space_group_name_H-M "C 2/C"
_symmetry_group_IT_number 15
_symmetry_cell_setting 'monoclinic'
loop_
_space_group_symop_operation_xyz
x,y,z
-x,y,1/2-z
-x,-y,-z
x,-y,1/2+z
1/2+x,1/2+y,z
1/2-x,1/2+y,1/2-z
1/2-x,1/2-y,-z
1/2+x,1/2-y,1/2+z
loop_
_atom_site_type_symbol
_atom_site_label
_atom_site_fract_x
_atom_site_fract_y
_atom_site_fract_z
Si Si1 0.696951 0.738002 0.673565
Si Si2 0.129185 0.620301 0.278000
Si Si3 0.047609 0.397260 0.512430
Si Si4 0.548561 0.443671 0.873299
Si Si5 0.894670 0.281336 0.514201
Si Si6 0.141939 0.242938 0.386985
Si Si7 0.690577 0.343510 0.730707
O O1 0.678785 0.839143 0.762939
O O2 0.667355 0.803239 0.531119
O O3 0.684731 0.532318 0.667673
O O4 0.755536 0.762138 0.728829
O O5 0.080399 0.669879 0.152293
O O6 0.128416 0.735824 0.389078
O O7 0.126230 0.415115 0.302135
O O8 0.031871 0.218732 0.431923
O O9 0.077677 0.529613 0.465565
O O10 0.000000 0.500000 0.500000
O O11 0.500000 0.503257 0.750000
O O12 0.567408 0.616454 0.962870
O O13 0.593630 0.379238 0.846629
O O14 0.850222 0.281911 0.374335
O O15 0.180979 0.140087 0.351650
#
# Coordination Sequence:
#
# PCOD8154914 Si02
#       7
#     8   8   8   8   8   8   8
#     4  12  27  47  73 109 146 197 254 302 386 439
#     4  12  24  47  77 102 151 191 247 312 368 446
#     4  12  27  48  75 109 148 197 249 308 374 447
#     4  12  27  47  74 110 150 194 250 307 373 445
#     4  12  27  49  74 111 149 198 252 305 380 442
#     4  12  24  50  73 107 150 190 248 314 368 446
#     4  12  27  48  74 107 149 197 247 314 374 448
#
# _framework density 22.932621000000001
#
# number of rings (size 3 to 8) (size 9 to 14) (size 15 to 20)
#    0.000    0.000    5.714    3.000    4.000    1.143 
#    0.000    0.000    0.000    0.000    0.000    0.000 
#    0.000    0.000    0.000    0.000    0.000    0.000 
#
# Total GULP energy -347368.349138 kJ/mol
# GULP energy per Si atom -12406.012469 kJ/mol
# Density = 2.288043 g / cm^3
# Si number density = 22.932621 Si / 1000 Ang^3
#
#
#
# Elastic Constant Matrix: (Units=GPa)
#
#
# Indices 1 2 3 4 5 6 
#
# 1 123.3083 1.3040 50.6226 0.0000 -2.0576 0.0000
# 2 1.3040 57.9998 16.0212 0.0000 -0.4385 0.0000
# 3 50.6226 16.0212 112.2979 0.0000 -3.6542 0.0000
# 4 0.0000 0.0000 0.0000 30.4482 0.0000 -3.1724
# 5 -2.0576 -0.4385 -3.6542 0.0000 47.7791 0.0000
# 6 0.0000 0.0000 0.0000 -3.1724 0.0000 34.1091
#
#
#
# Elastic Compliance Matrix: (Units=1/GPa)
#
#
# Indices 1 2 3 4 5 6 
#
# 1 0.010014 0.001064 -0.004663 0.000000 0.000084 0.000000
# 2 0.001064 0.018062 -0.003057 0.000000 -0.000022 0.000000
# 3 -0.004663 -0.003057 0.011464 0.000000 0.000648 0.000000
# 4 0.000000 0.000000 0.000000 0.033164 0.000000 0.003085
# 5 0.000084 -0.000022 0.000648 0.000000 0.020983 0.000000
# 6 0.000000 0.000000 0.000000 0.003085 0.000000 0.029605
#
#
# Mechanical properties :
#
#
# Convention : Reuss Voigt Hill
#
# Bulk Modulus (GPa) = 38.12866 47.72238 42.92552
# Shear Modulus (GPa) = 34.40031 37.51117 35.95574
#
# Velocity S-wave (km/s) = 3.87726 4.04878 3.96395
# Velocity P-wave (km/s) = 6.05861 6.53543 6.30153
#
# Compressibility (1/GPa) = 0.02622699
#
# Stress axis : x y z
#
# Youngs Moduli (GPa) = 99.85619 55.36549 87.22732
#
# Poissons Ratio (x) = -0.05889 0.40677
# Poissons Ratio (y) = -0.10621 0.26666
# Poissons Ratio (z) = 0.46567 0.16925
#
# Static dielectric constant tensor:
#      x y z
#    x 4.366830 0.000000 -0.123800 
#    y 0.000000 4.473830 0.000000 
#    z -0.123800 0.000000 4.106830 
# 
# 
# High freq. dielectric constant tensor:
#      x y z
#    x 1.913260 0.000000 -0.007230 
#    y 0.000000 1.920180 0.000000 
#    z -0.007230 0.000000 1.906070 
# 
# From -- ./inp_files/125971.got.cif
#   From: 2010.06.25/outbox.cif.g09.slc.cpg/sg15_63_cif.got.tgz:125971.got - 2010.06.28 07:06:18.
