data_PCOD8154185
_publ_section_title
;
Structure prediction by ZEFSAII (Michael W. Deem and Ramdas Pophale) SiO2 
 PCOD8154185
Probable space group: C 2/C
;
_chemical_formula_sum "Si O2"
_cell_formula_units_Z 40
_cell_length_a 14.984841
_cell_length_b 13.942107
_cell_length_c 8.948248
_cell_angle_alpha 90.000000
_cell_angle_beta 114.476293
_cell_angle_gamma 90.000000
_cell_volume 1701.466170
_symmetry_space_group_name_H-M "C 2/C"
_symmetry_group_IT_number 15
_symmetry_cell_setting 'monoclinic'
loop_
_space_group_symop_operation_xyz
x,y,z
-x,y,1/2-z
-x,-y,-z
x,-y,1/2+z
1/2+x,1/2+y,z
1/2-x,1/2+y,1/2-z
1/2-x,1/2-y,-z
1/2+x,1/2-y,1/2+z
loop_
_atom_site_type_symbol
_atom_site_label
_atom_site_fract_x
_atom_site_fract_y
_atom_site_fract_z
Si Si1 0.532964 0.285204 0.434496
Si Si2 0.647764 0.660395 0.524536
Si Si3 0.709051 0.998353 0.318656
Si Si4 0.216000 0.811148 0.751693
Si Si5 0.578608 0.926068 0.997477
O O1 0.500000 0.325833 0.250000
O O2 0.466284 0.340438 0.509765
O O3 0.646889 0.302999 0.556679
O O4 0.519190 0.170822 0.425502
O O5 0.692315 0.552591 0.552611
O O6 0.699949 0.729865 0.683521
O O7 0.654513 0.701368 0.361703
O O8 0.733413 0.085203 0.223552
O O9 0.635252 0.036623 0.391906
O O10 0.656291 0.914214 0.186195
O O11 0.500000 0.000000 0.000000
#
# Coordination Sequence:
#
# PCOD8154185 Si02
#       5
#     8   8   8   8   8
#     4  12  27  43  72 109 146 188 242 301 361 430
#     4  11  25  46  71 106 143 196 241 297 369 430
#     4  12  25  45  73 103 146 194 239 303 363 430
#     4  11  25  46  72 101 149 193 244 294 363 439
#     4  12  25  44  70 109 143 186 246 302 362 425
#
# _framework density 23.509134
#
# number of rings (size 3 to 8) (size 9 to 14) (size 15 to 20)
#    0.000    0.400    4.000    4.800    5.600    4.000 
#    0.000    0.000    0.000    0.000    0.000    0.000 
#    0.000    0.000    0.000    0.000    0.000    0.000 
#
# Total GULP energy -248005.488439 kJ/mol
# GULP energy per Si atom -12400.274422 kJ/mol
# Density = 2.345563 g / cm^3
# Si number density = 23.509134 Si / 1000 Ang^3
#
#
#
# Elastic Constant Matrix: (Units=GPa)
#
#
# Indices 1 2 3 4 5 6 
#
# 1 97.8248 23.0641 16.5165 0.0000 -12.7587 0.0000
# 2 23.0641 77.7124 -0.4102 0.0000 -6.2403 0.0000
# 3 16.5165 -0.4102 106.9083 0.0000 4.6993 0.0000
# 4 0.0000 0.0000 0.0000 33.0746 0.0000 5.0037
# 5 -12.7587 -6.2403 4.6993 0.0000 37.0242 0.0000
# 6 0.0000 0.0000 0.0000 5.0037 0.0000 43.8170
#
#
#
# Elastic Compliance Matrix: (Units=1/GPa)
#
#
# Indices 1 2 3 4 5 6 
#
# 1 0.011811 -0.003212 -0.002003 0.000000 0.003783 0.000000
# 2 -0.003212 0.013918 0.000498 0.000000 0.001176 0.000000
# 3 -0.002003 0.000498 0.009746 0.000000 -0.001843 0.000000
# 4 0.000000 0.000000 0.000000 0.030766 0.000000 -0.003513
# 5 0.003783 0.001176 -0.001843 0.000000 0.028745 0.000000
# 6 0.000000 0.000000 0.000000 -0.003513 0.000000 0.023223
#
#
# Mechanical properties :
#
#
# Convention : Reuss Voigt Hill
#
# Bulk Modulus (GPa) = 38.40143 40.08735 39.24439
# Shear Modulus (GPa) = 36.67671 39.00150 37.83910
#
# Velocity S-wave (km/s) = 3.95410 4.07749 4.01627
# Velocity P-wave (km/s) = 6.10055 6.26552 6.18359
#
# Compressibility (1/GPa) = 0.02604069
#
# Stress axis : x y z
#
# Youngs Moduli (GPa) = 84.66425 71.84759 102.60343
#
# Poissons Ratio (x) = 0.23079 0.20555
# Poissons Ratio (y) = 0.27196 -0.05110
# Poissons Ratio (z) = 0.16961 -0.03578
#
# Static dielectric constant tensor:
#      x y z
#    x 3.977100 0.000000 0.459300 
#    y 0.000000 4.081270 0.000000 
#    z 0.459300 0.000000 3.802650 
# 
# 
# High freq. dielectric constant tensor:
#      x y z
#    x 1.930080 0.000000 0.002010 
#    y 0.000000 1.920880 0.000000 
#    z 0.002010 0.000000 1.940960 
# 
# From -- ./inp_files/37844.got.cif
#   From: 2010.06.25/outbox.cif.g09.slc.cpg/sg15_19_cif.got.tgz:37844.got - 2010.06.28 07:06:18.
