data_PCOD8154170
_publ_section_title
;
Structure prediction by ZEFSAII (Michael W. Deem and Ramdas Pophale) SiO2 
 PCOD8154170
Probable space group: C 2/C
;
_chemical_formula_sum "Si O2"
_cell_formula_units_Z 40
_cell_length_a 19.527176
_cell_length_b 9.218727
_cell_length_c 11.705493
_cell_angle_alpha 90.000000
_cell_angle_beta 119.691812
_cell_angle_gamma 90.000000
_cell_volume 1830.505680
_symmetry_space_group_name_H-M "C 2/C"
_symmetry_group_IT_number 15
_symmetry_cell_setting 'monoclinic'
loop_
_space_group_symop_operation_xyz
x,y,z
-x,y,1/2-z
-x,-y,-z
x,-y,1/2+z
1/2+x,1/2+y,z
1/2-x,1/2+y,1/2-z
1/2-x,1/2-y,-z
1/2+x,1/2-y,1/2+z
loop_
_atom_site_type_symbol
_atom_site_label
_atom_site_fract_x
_atom_site_fract_y
_atom_site_fract_z
Si Si1 0.910641 0.047667 0.415004
Si Si2 0.171777 0.238952 0.584180
Si Si3 0.643805 0.238173 0.803682
Si Si4 0.439717 0.774998 0.617260
Si Si5 0.910113 0.568517 0.304305
O O1 0.894984 0.115719 0.278083
O O2 0.890713 0.170577 0.494140
O O3 0.853545 0.912783 0.382127
O O4 0.000000 0.000000 0.500000
O O5 0.264875 0.235946 0.651730
O O6 0.130152 0.260773 0.427753
O O7 0.146197 0.370816 0.643683
O O8 0.599555 0.103772 0.708111
O O9 0.500000 0.682385 0.750000
O O10 0.497702 0.888194 0.596103
O O11 0.383036 0.866167 0.656725
#
# Coordination Sequence:
#
# PCOD8154170 Si02
#       5
#     8   8   8   8   8
#     4  12  24  43  71 100 136 174 231 286 332 395
#     4  11  25  46  65  98 139 179 222 276 340 410
#     4  11  27  42  68  99 135 182 224 271 345 406
#     4   8  21  40  65  95 125 168 221 276 335 380
#     4   9  21  44  65  92 133 171 220 277 329 402
#
# _framework density 21.851884999999999
#
# number of rings (size 3 to 8) (size 9 to 14) (size 15 to 20)
#    1.200    0.400    2.000    1.200    8.400    4.000 
#    0.000    2.000    0.000    0.000    0.000    0.000 
#    0.000    0.000    0.000    0.000    0.000    0.000 
#
# Total GULP energy -247890.439896 kJ/mol
# GULP energy per Si atom -12394.521995 kJ/mol
# Density = 2.180215 g / cm^3
# Si number density = 21.851885 Si / 1000 Ang^3
#
#
#
# Elastic Constant Matrix: (Units=GPa)
#
#
# Indices 1 2 3 4 5 6 
#
# 1 75.1935 27.1981 31.4596 0.0000 -16.8055 0.0000
# 2 27.1981 128.1120 45.9255 0.0000 -7.7239 0.0000
# 3 31.4596 45.9255 85.8655 0.0000 -9.1060 0.0000
# 4 0.0000 0.0000 0.0000 37.5884 0.0000 -4.2305
# 5 -16.8055 -7.7239 -9.1060 0.0000 34.4759 0.0000
# 6 0.0000 0.0000 0.0000 -4.2305 0.0000 26.7258
#
#
#
# Elastic Compliance Matrix: (Units=1/GPa)
#
#
# Indices 1 2 3 4 5 6 
#
# 1 0.017413 -0.001555 -0.004820 0.000000 0.006866 0.000000
# 2 -0.001555 0.009819 -0.004660 0.000000 0.000211 0.000000
# 3 -0.004820 -0.004660 0.015992 0.000000 0.000831 0.000000
# 4 0.000000 0.000000 0.000000 0.027086 0.000000 0.004288
# 5 0.006866 0.000211 0.000831 0.000000 0.032620 0.000000
# 6 0.000000 0.000000 0.000000 0.004288 0.000000 0.038096
#
#
# Mechanical properties :
#
#
# Convention : Reuss Voigt Hill
#
# Bulk Modulus (GPa) = 47.26978 55.37079 51.32028
# Shear Modulus (GPa) = 29.38655 32.06388 30.72521
#
# Velocity S-wave (km/s) = 3.67114 3.83473 3.75382
# Velocity P-wave (km/s) = 6.29671 6.70828 6.50575
#
# Compressibility (1/GPa) = 0.02115516
#
# Stress axis : x y z
#
# Youngs Moduli (GPa) = 57.42966 101.84479 62.53005
#
# Poissons Ratio (x) = 0.15836 0.30138
# Poissons Ratio (y) = 0.08930 0.29136
# Poissons Ratio (z) = 0.27680 0.47455
#
# Static dielectric constant tensor:
#      x y z
#    x 3.158730 0.000000 -0.651550 
#    y 0.000000 3.678710 0.000000 
#    z -0.651550 0.000000 3.750520 
# 
# 
# High freq. dielectric constant tensor:
#      x y z
#    x 1.845020 0.000000 -0.020770 
#    y 0.000000 1.859250 0.000000 
#    z -0.020770 0.000000 1.859280 
# 
# From -- ./inp_files/109775.got.cif
#   From: 2010.06.25/outbox.cif.g09.slc.cpg/sg15_55_cif.got.tgz:109775.got - 2010.06.28 07:06:18.
