data_PCOD8154958
_publ_section_title
;
Structure prediction by ZEFSAII (Michael W. Deem and Ramdas Pophale) SiO2 
 PCOD8154958
Probable space group: C 2/C
;
_chemical_formula_sum "Si O2"
_cell_formula_units_Z 32
_cell_length_a 8.580297
_cell_length_b 16.311745
_cell_length_c 10.527164
_cell_angle_alpha 90.000000
_cell_angle_beta 65.008489
_cell_angle_gamma 90.000000
_cell_volume 1335.426050
_symmetry_space_group_name_H-M "C 2/C"
_symmetry_group_IT_number 15
_symmetry_cell_setting 'monoclinic'
loop_
_space_group_symop_operation_xyz
x,y,z
-x,y,1/2-z
-x,-y,-z
x,-y,1/2+z
1/2+x,1/2+y,z
1/2-x,1/2+y,1/2-z
1/2-x,1/2-y,-z
1/2+x,1/2-y,1/2+z
loop_
_atom_site_type_symbol
_atom_site_label
_atom_site_fract_x
_atom_site_fract_y
_atom_site_fract_z
Si Si1 0.500000 0.561152 0.750000
Si Si2 0.500000 0.942148 0.250000
Si Si3 0.739181 0.439841 0.763251
Si Si4 0.210388 0.657058 0.995107
Si Si5 0.666130 0.162664 0.494122
O O1 0.574375 0.499867 0.833264
O O2 0.346645 0.617447 0.852959
O O3 0.352333 0.887907 0.368939
O O4 0.596194 0.000745 0.318667
O O5 0.710238 0.381545 0.650409
O O6 0.775772 0.388484 0.876122
O O7 0.021301 0.661358 0.002980
O O8 0.250000 0.750000 0.000000
O O9 0.750000 0.250000 0.500000
#
# Coordination Sequence:
#
# PCOD8154958 Si02
#       5
#     4   4   8   8   8
#     4  12  28  48  78 114 152 200 254 312 380 458
#     4  12  24  50  78 106 150 198 250 318 374 444
#     4  12  26  51  79 109 150 200 254 316 378 444
#     4  12  29  48  74 114 154 199 248 316 384 450
#     4  12  29  47  78 112 152 198 255 315 379 450
#
# _framework density 23.962388000000001
#
# number of rings (size 3 to 8) (size 9 to 14) (size 15 to 20)
#    0.000    0.000    5.000    3.000   14.000    0.000 
#    0.000    0.000    0.000    0.000    0.000    0.000 
#    0.000    0.000    0.000    0.000    0.000    0.000 
#
# Total GULP energy -198275.262819 kJ/mol
# GULP energy per Si atom -12392.203926 kJ/mol
# Density = 2.390785 g / cm^3
# Si number density = 23.962388 Si / 1000 Ang^3
#
#
#
# Elastic Constant Matrix: (Units=GPa)
#
#
# Indices 1 2 3 4 5 6 
#
# 1 108.3310 79.5281 31.3331 0.0000 6.2531 0.0000
# 2 79.5281 195.4201 68.1790 0.0000 7.1612 0.0000
# 3 31.3331 68.1790 129.8892 0.0000 9.4045 0.0000
# 4 0.0000 0.0000 0.0000 32.6154 0.0000 2.1022
# 5 6.2531 7.1612 9.4045 0.0000 29.5273 0.0000
# 6 0.0000 0.0000 0.0000 2.1022 0.0000 65.5600
#
#
#
# Elastic Compliance Matrix: (Units=1/GPa)
#
#
# Indices 1 2 3 4 5 6 
#
# 1 0.013243 -0.005213 -0.000355 0.000000 -0.001427 0.000000
# 2 -0.005213 0.008323 -0.003117 0.000000 0.000078 0.000000
# 3 -0.000355 -0.003117 0.009581 0.000000 -0.002221 0.000000
# 4 0.000000 0.000000 0.000000 0.030724 0.000000 -0.000985
# 5 -0.001427 0.000078 -0.002221 0.000000 0.034858 0.000000
# 6 0.000000 0.000000 0.000000 -0.000985 0.000000 0.015285
#
#
# Mechanical properties :
#
#
# Convention : Reuss Voigt Hill
#
# Bulk Modulus (GPa) = 72.58157 87.96895 80.27526
# Shear Modulus (GPa) = 37.31982 42.51390 39.91686
#
# Velocity S-wave (km/s) = 3.95071 4.21669 4.08587
# Velocity P-wave (km/s) = 7.15307 7.77806 7.47210
#
# Compressibility (1/GPa) = 0.01377760
#
# Stress axis : x y z
#
# Youngs Moduli (GPa) = 75.51043 120.14294 104.36927
#
# Poissons Ratio (x) = 0.62635 0.03703
# Poissons Ratio (y) = 0.39366 0.32532
# Poissons Ratio (z) = 0.02679 0.37449
#
# Static dielectric constant tensor:
#      x y z
#    x 4.625280 0.000000 0.020960 
#    y 0.000000 4.453880 0.000000 
#    z 0.020960 0.000000 4.134180 
# 
# 
# High freq. dielectric constant tensor:
#      x y z
#    x 1.972030 0.000000 0.004240 
#    y 0.000000 1.975220 0.000000 
#    z 0.004240 0.000000 1.937430 
# 
# From -- ./inp_files/75574.got.cif
#   From: 2010.06.25/outbox.cif.g09.slc.cpg/sg15_38_cif.got.tgz:75574.got - 2010.06.28 07:06:18.
