data_PCOD8154425
_publ_section_title
;
Structure prediction by ZEFSAII (Michael W. Deem and Ramdas Pophale) SiO2 
 PCOD8154425
Probable space group: C 2/C
;
_chemical_formula_sum "Si O2"
_cell_formula_units_Z 48
_cell_length_a 8.740959
_cell_length_b 10.621717
_cell_length_c 23.500831
_cell_angle_alpha 90.000000
_cell_angle_beta 73.010536
_cell_angle_gamma 90.000000
_cell_volume 2086.689124
_symmetry_space_group_name_H-M "C 2/C"
_symmetry_group_IT_number 15
_symmetry_cell_setting 'monoclinic'
loop_
_space_group_symop_operation_xyz
x,y,z
-x,y,1/2-z
-x,-y,-z
x,-y,1/2+z
1/2+x,1/2+y,z
1/2-x,1/2+y,1/2-z
1/2-x,1/2-y,-z
1/2+x,1/2-y,1/2+z
loop_
_atom_site_type_symbol
_atom_site_label
_atom_site_fract_x
_atom_site_fract_y
_atom_site_fract_z
Si Si1 0.821902 0.113870 0.789852
Si Si2 0.311137 0.103096 0.266559
Si Si3 0.837559 0.977118 0.410589
Si Si4 0.712670 0.774685 0.938146
Si Si5 0.694897 0.483810 0.392707
Si Si6 0.853630 0.632369 0.474080
O O1 0.753162 0.248690 0.772890
O O2 0.821743 0.117330 0.858904
O O3 0.000000 0.092764 0.750000
O O4 0.725650 0.986179 0.783651
O O5 0.500000 0.108151 0.250000
O O6 0.222999 0.027254 0.325768
O O7 0.684209 0.962894 0.469901
O O8 0.005684 0.964479 0.425502
O O9 0.828555 0.123854 0.395669
O O10 0.764387 0.653963 0.896231
O O11 0.533150 0.822682 0.948336
O O12 0.750000 0.750000 0.000000
O O13 0.788102 0.580609 0.421991
O O14 0.750000 0.750000 0.500000
#
# Coordination Sequence:
#
# PCOD8154425 Si02
#       6
#     8   8   8   8   8   8
#     4  11  26  50  71 103 140 188 242 297 359 424
#     4  11  28  46  76 103 142 189 242 298 362 428
#     4  12  25  45  73 101 145 190 238 297 356 432
#     4  12  27  44  71 108 146 187 241 288 362 437
#     4  12  26  47  69 106 144 185 239 298 358 426
#     4  12  24  44  72 101 147 188 229 296 362 423
#
# _framework density 23.002948
#
# number of rings (size 3 to 8) (size 9 to 14) (size 15 to 20)
#    0.000    0.333    5.000    3.000    4.667    2.000 
#    0.000    0.000    0.000    0.000    0.000    0.000 
#    0.000    0.000    0.000    0.000    0.000    0.000 
#
# Total GULP energy -297412.622295 kJ/mol
# GULP energy per Si atom -12392.192596 kJ/mol
# Density = 2.295059 g / cm^3
# Si number density = 23.002948 Si / 1000 Ang^3
#
#
#
# Elastic Constant Matrix: (Units=GPa)
#
#
# Indices 1 2 3 4 5 6 
#
# 1 69.9765 32.0521 9.8010 0.0000 20.9991 0.0000
# 2 32.0521 160.5895 2.1272 0.0000 16.3885 0.0000
# 3 9.8010 2.1272 65.3851 0.0000 9.2684 0.0000
# 4 0.0000 0.0000 0.0000 39.9238 0.0000 7.8745
# 5 20.9991 16.3885 9.2684 0.0000 30.8218 0.0000
# 6 0.0000 0.0000 0.0000 7.8745 0.0000 38.6477
#
#
#
# Elastic Compliance Matrix: (Units=1/GPa)
#
#
# Indices 1 2 3 4 5 6 
#
# 1 0.019027 -0.002638 -0.001178 0.000000 -0.011206 0.000000
# 2 -0.002638 0.006956 0.000458 0.000000 -0.002039 0.000000
# 3 -0.001178 0.000458 0.016061 0.000000 -0.004271 0.000000
# 4 0.000000 0.000000 0.000000 0.026096 0.000000 -0.005317
# 5 -0.011206 -0.002039 -0.004271 0.000000 0.042448 0.000000
# 6 0.000000 0.000000 0.000000 -0.005317 0.000000 0.026958
#
#
# Mechanical properties :
#
#
# Convention : Reuss Voigt Hill
#
# Bulk Modulus (GPa) = 28.30650 42.65686 35.48168
# Shear Modulus (GPa) = 32.04363 38.67672 35.36017
#
# Velocity S-wave (km/s) = 3.73637 4.10491 3.92497
# Velocity P-wave (km/s) = 5.56294 6.40714 5.99990
#
# Compressibility (1/GPa) = 0.03532757
#
# Stress axis : x y z
#
# Youngs Moduli (GPa) = 52.55763 143.76842 62.26246
#
# Poissons Ratio (x) = 0.37931 0.07333
# Poissons Ratio (y) = 0.13867 -0.02853
# Poissons Ratio (z) = 0.06190 -0.06587
#
# Static dielectric constant tensor:
#      x y z
#    x 4.006200 0.000000 0.270470 
#    y 0.000000 4.848050 0.000000 
#    z 0.270470 0.000000 3.980960 
# 
# 
# High freq. dielectric constant tensor:
#      x y z
#    x 1.904940 0.000000 0.000660 
#    y 0.000000 1.941650 0.000000 
#    z 0.000660 0.000000 1.901330 
# 
# From -- ./inp_files/263246.got.cif
#   From: 2010.06.25/outbox.cif.g09.slc.cpg/sg15_132_cif.got.tgz:263246.got - 2010.06.28 07:06:18.
