data_PCOD8154061
_publ_section_title
;
Structure prediction by ZEFSAII (Michael W. Deem and Ramdas Pophale) SiO2 
 PCOD8154061
Probable space group: C 2/C
;
_chemical_formula_sum "Si O2"
_cell_formula_units_Z 32
_cell_length_a 15.018859
_cell_length_b 16.065055
_cell_length_c 10.120218
_cell_angle_alpha 90.000000
_cell_angle_beta 147.771237
_cell_angle_gamma 90.000000
_cell_volume 1302.211202
_symmetry_space_group_name_H-M "C 2/C"
_symmetry_group_IT_number 15
_symmetry_cell_setting 'monoclinic'
loop_
_space_group_symop_operation_xyz
x,y,z
-x,y,1/2-z
-x,-y,-z
x,-y,1/2+z
1/2+x,1/2+y,z
1/2-x,1/2+y,1/2-z
1/2-x,1/2-y,-z
1/2+x,1/2-y,1/2+z
loop_
_atom_site_type_symbol
_atom_site_label
_atom_site_fract_x
_atom_site_fract_y
_atom_site_fract_z
Si Si1 0.644520 0.979424 0.317050
Si Si2 0.594060 0.863048 0.593055
Si Si3 0.834444 0.950073 0.294877
Si Si4 0.530540 0.301048 0.441028
O O1 0.776800 0.946929 0.374710
O O2 0.574367 0.069808 0.186078
O O3 0.712134 0.996391 0.548444
O O4 0.499775 0.908484 0.146999
O O5 0.485534 0.783048 0.496302
O O6 0.787983 0.842294 0.804915
O O7 0.875372 0.858343 0.292092
O O8 0.000000 0.000000 0.500000
O O9 0.500000 0.281449 0.250000
#
# Coordination Sequence:
#
# PCOD8154061 Si02
#       4
#     8   8   8   8
#     4  11  26  45  73 106 150 191 237 305 367 443
#     4  11  25  42  70 109 144 187 245 304 365 417
#     4  12  23  48  75 106 145 189 246 297 368 441
#     4  12  23  44  72 112 142 197 252 309 351 445
#
# _framework density 24.573587
#
# number of rings (size 3 to 8) (size 9 to 14) (size 15 to 20)
#    0.000    0.500    5.000    3.000    3.500    3.000 
#    0.000    1.250    5.500    0.000    0.000    0.000 
#    0.000    0.000    0.000    0.000    0.000    0.000 
#
# Total GULP energy -198249.751997 kJ/mol
# GULP energy per Si atom -12390.609500 kJ/mol
# Density = 2.451766 g / cm^3
# Si number density = 24.573587 Si / 1000 Ang^3
#
#
#
# Elastic Constant Matrix: (Units=GPa)
#
#
# Indices 1 2 3 4 5 6 
#
# 1 149.5974 45.2376 31.8505 0.0000 20.1177 0.0000
# 2 45.2376 179.2998 63.2772 0.0000 17.9027 0.0000
# 3 31.8505 63.2772 106.1933 0.0000 19.9068 0.0000
# 4 0.0000 0.0000 0.0000 39.6128 0.0000 16.8200
# 5 20.1177 17.9027 19.9068 0.0000 31.8036 0.0000
# 6 0.0000 0.0000 0.0000 16.8200 0.0000 25.1161
#
#
#
# Elastic Compliance Matrix: (Units=1/GPa)
#
#
# Indices 1 2 3 4 5 6 
#
# 1 0.007748 -0.001282 -0.000880 0.000000 -0.003629 0.000000
# 2 -0.001282 0.007340 -0.003814 0.000000 -0.000933 0.000000
# 3 -0.000880 -0.003814 0.012968 0.000000 -0.005414 0.000000
# 4 0.000000 0.000000 0.000000 0.035275 0.000000 -0.023623
# 5 -0.003629 -0.000933 -0.005414 0.000000 0.037652 0.000000
# 6 0.000000 0.000000 0.000000 -0.023623 0.000000 0.055636
#
#
# Mechanical properties :
#
#
# Convention : Reuss Voigt Hill
#
# Bulk Modulus (GPa) = 62.09576 79.53568 70.81572
# Shear Modulus (GPa) = 28.74583 38.95484 33.85034
#
# Velocity S-wave (km/s) = 3.42392 3.98582 3.71551
# Velocity P-wave (km/s) = 6.39962 7.32249 6.87656
#
# Compressibility (1/GPa) = 0.01610416
#
# Stress axis : x y z
#
# Youngs Moduli (GPa) = 129.07370 136.24049 77.11168
#
# Poissons Ratio (x) = 0.17466 0.06783
# Poissons Ratio (y) = 0.16547 0.29412
# Poissons Ratio (z) = 0.11354 0.51964
#
# Static dielectric constant tensor:
#      x y z
#    x 6.813980 0.000000 2.953560 
#    y 0.000000 3.352770 0.000000 
#    z 2.953560 0.000000 7.373850 
# 
# 
# High freq. dielectric constant tensor:
#      x y z
#    x 1.997890 0.000000 0.017430 
#    y 0.000000 1.989240 0.000000 
#    z 0.017430 0.000000 1.983780 
# 
# From -- ./inp_files/85306.got.cif
#   From: 2010.06.25/outbox.cif.g09.slc.cpg/sg15_43_cif.got.tgz:85306.got - 2010.06.28 07:06:18.
