data_PCOD8154456
_publ_section_title
;
Structure prediction by ZEFSAII (Michael W. Deem and Ramdas Pophale) SiO2 
 PCOD8154456
Probable space group: C 2/C
;
_chemical_formula_sum "Si O2"
_cell_formula_units_Z 32
_cell_length_a 14.496099
_cell_length_b 10.850681
_cell_length_c 7.187328
_cell_angle_alpha 90.000000
_cell_angle_beta 86.273522
_cell_angle_gamma 90.000000
_cell_volume 1128.122864
_symmetry_space_group_name_H-M "C 2/C"
_symmetry_group_IT_number 15
_symmetry_cell_setting 'monoclinic'
loop_
_space_group_symop_operation_xyz
x,y,z
-x,y,1/2-z
-x,-y,-z
x,-y,1/2+z
1/2+x,1/2+y,z
1/2-x,1/2+y,1/2-z
1/2-x,1/2-y,-z
1/2+x,1/2-y,1/2+z
loop_
_atom_site_type_symbol
_atom_site_label
_atom_site_fract_x
_atom_site_fract_y
_atom_site_fract_z
Si Si1 0.656810 0.210703 0.751160
Si Si2 0.893600 0.509743 0.033413
Si Si3 0.633696 0.769150 0.767218
Si Si4 0.987500 0.854243 0.523700
O O1 0.655395 0.108576 0.590721
O O2 0.756410 0.268900 0.733118
O O3 0.650331 0.127319 0.943047
O O4 0.571032 0.313162 0.776807
O O5 0.888037 0.583102 0.239812
O O6 0.000000 0.500000 0.000000
O O7 0.589317 0.683340 0.618297
O O8 0.584913 0.717672 0.969216
O O9 0.000000 0.000000 0.500000
#
# Coordination Sequence:
#
# PCOD8154456 Si02
#       4
#     8   8   8   8
#     4  12  27  48  82 112 155 200 257 312 383 451
#     4  12  26  48  80 112 152 198 258 319 372 448
#     4  11  27  48  76 113 150 201 258 303 384 446
#     4  11  27  49  77 111 160 197 249 316 383 450
#
# _framework density 28.365704999999998
#
# number of rings (size 3 to 8) (size 9 to 14) (size 15 to 20)
#    0.000    0.500    2.500    3.750   10.500    4.000 
#    0.000    0.000    0.000    0.000    0.000    0.000 
#    0.000    0.000    0.000    0.000    0.000    0.000 
#
# Total GULP energy -198276.381309 kJ/mol
# GULP energy per Si atom -12392.273832 kJ/mol
# Density = 2.830114 g / cm^3
# Si number density = 28.365705 Si / 1000 Ang^3
#
#
#
# Elastic Constant Matrix: (Units=GPa)
#
#
# Indices 1 2 3 4 5 6 
#
# 1 280.4963 82.6424 16.5624 0.0000 -29.8696 0.0000
# 2 82.6424 237.6749 4.1036 0.0000 -15.2054 0.0000
# 3 16.5624 4.1036 64.1554 0.0000 -29.2523 0.0000
# 4 0.0000 0.0000 0.0000 35.7263 0.0000 -12.0018
# 5 -29.8696 -15.2054 -29.2523 0.0000 34.6102 0.0000
# 6 0.0000 0.0000 0.0000 -12.0018 0.0000 50.4019
#
#
#
# Elastic Compliance Matrix: (Units=1/GPa)
#
#
# Indices 1 2 3 4 5 6 
#
# 1 0.004294 -0.001267 0.000665 0.000000 0.003711 0.000000
# 2 -0.001267 0.004740 0.000772 0.000000 0.001641 0.000000
# 3 0.000665 0.000772 0.025678 0.000000 0.022616 0.000000
# 4 0.000000 0.000000 0.000000 0.030424 0.000000 0.007245
# 5 0.003711 0.001641 0.022616 0.000000 0.051932 0.000000
# 6 0.000000 0.000000 0.000000 0.007245 0.000000 0.021566
#
#
# Mechanical properties :
#
#
# Convention : Reuss Voigt Hill
#
# Bulk Modulus (GPa) = 28.52932 87.66036 58.09484
# Shear Modulus (GPa) = 33.33809 56.08222 44.71015
#
# Velocity S-wave (km/s) = 3.43198 4.45130 3.97445
# Velocity P-wave (km/s) = 5.07781 7.57558 6.44878
#
# Compressibility (1/GPa) = 0.03505166
#
# Stress axis : x y z
#
# Youngs Moduli (GPa) = 232.85916 210.98131 38.94372
#
# Poissons Ratio (x) = 0.26737 -0.02588
# Poissons Ratio (y) = 0.29510 -0.03008
# Poissons Ratio (z) = -0.15474 -0.16297
#
# Static dielectric constant tensor:
#      x y z
#    x 4.980940 0.000000 -0.726850 
#    y 0.000000 5.394450 0.000000 
#    z -0.726850 0.000000 8.047080 
# 
# 
# High freq. dielectric constant tensor:
#      x y z
#    x 2.140700 0.000000 -0.003950 
#    y 0.000000 2.168050 0.000000 
#    z -0.003950 0.000000 2.249580 
# 
# From -- ./inp_files/36576.got.cif
#   From: 2010.06.25/outbox.cif.g09.slc.cpg/sg15_19_cif.got.tgz:36576.got - 2010.06.28 07:06:18.
