data_PCOD8154351
_publ_section_title
;
Structure prediction by ZEFSAII (Michael W. Deem and Ramdas Pophale) SiO2 
 PCOD8154351
Probable space group: C 2/C
;
_chemical_formula_sum "Si O2"
_cell_formula_units_Z 48
_cell_length_a 9.523748
_cell_length_b 11.657692
_cell_length_c 25.059453
_cell_angle_alpha 90.000000
_cell_angle_beta 123.255587
_cell_angle_gamma 90.000000
_cell_volume 2326.586473
_symmetry_space_group_name_H-M "C 2/C"
_symmetry_group_IT_number 15
_symmetry_cell_setting 'monoclinic'
loop_
_space_group_symop_operation_xyz
x,y,z
-x,y,1/2-z
-x,-y,-z
x,-y,1/2+z
1/2+x,1/2+y,z
1/2-x,1/2+y,1/2-z
1/2-x,1/2-y,-z
1/2+x,1/2-y,1/2+z
loop_
_atom_site_type_symbol
_atom_site_label
_atom_site_fract_x
_atom_site_fract_y
_atom_site_fract_z
Si Si1 0.749553 0.162849 0.669013
Si Si2 0.140702 0.913249 0.011462
Si Si3 0.809242 0.265763 0.885770
Si Si4 0.091018 0.885220 0.189359
Si Si5 0.495648 0.991024 0.562092
Si Si6 0.005652 0.864587 0.631434
O O1 0.793247 0.103472 0.734396
O O2 0.672900 0.288582 0.662391
O O3 0.915107 0.175419 0.667296
O O4 0.617701 0.085438 0.611260
O O5 0.148565 0.808028 0.053452
O O6 0.311741 0.985405 0.046471
O O7 0.098498 0.861705 0.945099
O O8 0.000000 0.000000 0.000000
O O9 0.811641 0.190150 0.833365
O O10 0.621796 0.317547 0.850289
O O11 0.947955 0.364775 0.908629
O O12 0.062437 0.009195 0.158507
O O13 0.500000 0.000000 0.500000
#
# Coordination Sequence:
#
# PCOD8154351 Si02
#       6
#     8   8   8   8   8   8
#     4  11  26  46  70  99 141 178 235 288 339 416
#     4  12  25  44  67 109 141 177 229 288 344 415
#     4  12  25  43  73  99 139 184 230 280 353 407
#     4  11  27  46  67 106 131 188 233 278 351 410
#     4  12  24  45  72 102 137 184 230 284 352 406
#     4  12  24  48  71  98 145 179 228 289 340 413
#
# _framework density 20.631084000000001
#
# number of rings (size 3 to 8) (size 9 to 14) (size 15 to 20)
#    0.000    0.333    6.667    1.500    4.667    1.333 
#    0.000    0.000    0.000    0.000    0.000    0.000 
#    0.000    0.000    0.000    0.000    0.000    0.000 
#
# Total GULP energy -297776.692167 kJ/mol
# GULP energy per Si atom -12407.362174 kJ/mol
# Density = 2.058413 g / cm^3
# Si number density = 20.631084 Si / 1000 Ang^3
#
#
#
# Elastic Constant Matrix: (Units=GPa)
#
#
# Indices 1 2 3 4 5 6 
#
# 1 127.9225 44.7598 36.7930 0.0000 1.3350 0.0000
# 2 44.7598 91.5573 9.7238 0.0000 -5.8142 0.0000
# 3 36.7930 9.7238 87.4867 0.0000 -6.4553 0.0000
# 4 0.0000 0.0000 0.0000 3.1300 0.0000 -7.4137
# 5 1.3350 -5.8142 -6.4553 0.0000 34.0105 0.0000
# 6 0.0000 0.0000 0.0000 -7.4137 0.0000 41.8122
#
#
#
# Elastic Compliance Matrix: (Units=1/GPa)
#
#
# Indices 1 2 3 4 5 6 
#
# 1 0.010758 -0.004951 -0.004125 0.000000 -0.002052 0.000000
# 2 -0.004951 0.013427 0.000785 0.000000 0.002639 0.000000
# 3 -0.004125 0.000785 0.013286 0.000000 0.002818 0.000000
# 4 0.000000 0.000000 0.000000 0.550824 0.000000 0.097666
# 5 -0.002052 0.002639 0.002818 0.000000 0.030469 0.000000
# 6 0.000000 0.000000 0.000000 0.097666 0.000000 0.041233
#
#
# Mechanical properties :
#
#
# Convention : Reuss Voigt Hill
#
# Bulk Modulus (GPa) = 47.87748 54.39109 51.13428
# Shear Modulus (GPa) = 7.31483 30.16985 18.74234
#
# Velocity S-wave (km/s) = 1.88500 3.82822 3.01732
# Velocity P-wave (km/s) = 5.29098 6.77947 6.08094
#
# Compressibility (1/GPa) = 0.02088664
#
# Stress axis : x y z
#
# Youngs Moduli (GPa) = 92.95777 74.47745 75.26776
#
# Poissons Ratio (x) = 0.36876 0.31050
# Poissons Ratio (y) = 0.46026 -0.05906
# Poissons Ratio (z) = 0.38347 -0.05844
#
# Static dielectric constant tensor:
#      x y z
#    x 4.068780 0.000000 0.024200 
#    y 0.000000 4.224870 0.000000 
#    z 0.024200 0.000000 3.943950 
# 
# 
# High freq. dielectric constant tensor:
#      x y z
#    x 1.820070 0.000000 -0.002550 
#    y 0.000000 1.818840 0.000000 
#    z -0.002550 0.000000 1.815270 
# 
# From -- ./inp_files/263264.got.cif
#   From: 2010.06.25/outbox.cif.g09.slc.cpg/sg15_132_cif.got.tgz:263264.got - 2010.06.28 07:06:18.
