data_PCOD8154071
_publ_section_title
;
Structure prediction by ZEFSAII (Michael W. Deem and Ramdas Pophale) SiO2 
 PCOD8154071
Probable space group: C 2/C
;
_chemical_formula_sum "Si O2"
_cell_formula_units_Z 48
_cell_length_a 15.879707
_cell_length_b 11.143618
_cell_length_c 12.574073
_cell_angle_alpha 90.000000
_cell_angle_beta 101.313606
_cell_angle_gamma 90.000000
_cell_volume 2181.837686
_symmetry_space_group_name_H-M "C 2/C"
_symmetry_group_IT_number 15
_symmetry_cell_setting 'monoclinic'
loop_
_space_group_symop_operation_xyz
x,y,z
-x,y,1/2-z
-x,-y,-z
x,-y,1/2+z
1/2+x,1/2+y,z
1/2-x,1/2+y,1/2-z
1/2-x,1/2-y,-z
1/2+x,1/2-y,1/2+z
loop_
_atom_site_type_symbol
_atom_site_label
_atom_site_fract_x
_atom_site_fract_y
_atom_site_fract_z
Si Si1 0.097995 0.011965 0.286605
Si Si2 0.329698 0.294822 0.843736
Si Si3 0.787547 0.005635 0.491564
Si Si4 0.376363 0.918948 0.936116
Si Si5 0.313736 0.680836 0.815704
Si Si6 0.518847 0.127072 0.631429
O O1 0.109913 0.886310 0.227520
O O2 0.000000 0.051799 0.250000
O O3 0.158008 0.111653 0.248704
O O4 0.126163 0.003446 0.416281
O O5 0.290201 0.365696 0.934197
O O6 0.265115 0.192115 0.786501
O O7 0.419469 0.232370 0.897106
O O8 0.701998 0.000766 0.541555
O O9 0.784105 0.893739 0.410779
O O10 0.343565 0.812410 0.854583
O O11 0.438281 0.998007 0.877629
O O12 0.428680 0.863485 0.047902
O O13 0.500000 0.145605 0.750000
#
# Coordination Sequence:
#
# PCOD8154071 Si02
#       6
#     8   8   8   8   8   8
#     4  11  26  42  67 102 136 177 227 282 336 399
#     4  11  25  44  72  97 136 178 229 278 337 403
#     4  11  25  45  71  99 135 179 232 277 338 404
#     4  11  25  44  67 101 132 182 226 279 341 405
#     4  11  25  43  68  98 136 179 228 277 344 401
#     4  11  26  43  69  98 137 176 226 282 341 402
#
# _framework density 21.999803
#
# number of rings (size 3 to 8) (size 9 to 14) (size 15 to 20)
#    0.000    1.000    1.667    3.000   11.667    4.667 
#    0.000    0.000    0.000    0.000    0.000    0.000 
#    0.000    0.000    0.000    0.000    0.000    0.000 
#
# Total GULP energy -297776.948648 kJ/mol
# GULP energy per Si atom -12407.372860 kJ/mol
# Density = 2.194973 g / cm^3
# Si number density = 21.999803 Si / 1000 Ang^3
#
#
#
# Elastic Constant Matrix: (Units=GPa)
#
#
# Indices 1 2 3 4 5 6 
#
# 1 72.6494 22.9155 11.7550 0.0000 22.7924 0.0000
# 2 22.9155 80.2403 19.5576 0.0000 -4.0735 0.0000
# 3 11.7550 19.5576 73.7229 0.0000 28.0411 0.0000
# 4 0.0000 0.0000 0.0000 37.4122 0.0000 -1.2454
# 5 22.7924 -4.0735 28.0411 0.0000 31.6890 0.0000
# 6 0.0000 0.0000 0.0000 -1.2454 0.0000 36.5603
#
#
#
# Elastic Compliance Matrix: (Units=1/GPa)
#
#
# Indices 1 2 3 4 5 6 
#
# 1 0.023886 -0.010364 0.009017 0.000000 -0.026492 0.000000
# 2 -0.010364 0.019043 -0.010801 0.000000 0.019460 0.000000
# 3 0.009017 -0.010801 0.027112 0.000000 -0.031865 0.000000
# 4 0.000000 0.000000 0.000000 0.026760 0.000000 0.000912
# 5 -0.026492 0.019460 -0.031865 0.000000 0.081309 0.000000
# 6 0.000000 0.000000 0.000000 0.000912 0.000000 0.027383
#
#
# Mechanical properties :
#
#
# Convention : Reuss Voigt Hill
#
# Bulk Modulus (GPa) = 21.86038 37.22986 29.54512
# Shear Modulus (GPa) = 20.40500 32.62459 26.51479
#
# Velocity S-wave (km/s) = 3.04881 3.85509 3.47541
# Velocity P-wave (km/s) = 4.72777 6.06425 5.43723
#
# Compressibility (1/GPa) = 0.04574486
#
# Stress axis : x y z
#
# Youngs Moduli (GPa) = 41.86532 52.51266 36.88394
#
# Poissons Ratio (x) = 0.54425 -0.33259
# Poissons Ratio (y) = 0.43390 0.39839
# Poissons Ratio (z) = -0.37751 0.56720
#
# Static dielectric constant tensor:
#      x y z
#    x 3.986680 0.000000 0.080380 
#    y 0.000000 3.984980 0.000000 
#    z 0.080380 0.000000 3.987070 
# 
# 
# High freq. dielectric constant tensor:
#      x y z
#    x 1.864730 0.000000 0.005900 
#    y 0.000000 1.876230 0.000000 
#    z 0.005900 0.000000 1.871710 
# 
# From -- ./inp_files/104265.got.cif
#   From: 2010.06.25/outbox.cif.g09.slc.cpg/sg15_53_cif.got.tgz:104265.got - 2010.06.28 07:06:18.
