data_PCOD8154033
_publ_section_title
;
Structure prediction by ZEFSAII (Michael W. Deem and Ramdas Pophale) SiO2 
 PCOD8154033
Probable space group: C 2/C
;
_chemical_formula_sum "Si O2"
_cell_formula_units_Z 40
_cell_length_a 9.451891
_cell_length_b 11.500343
_cell_length_c 19.935287
_cell_angle_alpha 90.000000
_cell_angle_beta 138.913010
_cell_angle_gamma 90.000000
_cell_volume 1424.138632
_symmetry_space_group_name_H-M "C 2/C"
_symmetry_group_IT_number 15
_symmetry_cell_setting 'monoclinic'
loop_
_space_group_symop_operation_xyz
x,y,z
-x,y,1/2-z
-x,-y,-z
x,-y,1/2+z
1/2+x,1/2+y,z
1/2-x,1/2+y,1/2-z
1/2-x,1/2-y,-z
1/2+x,1/2-y,1/2+z
loop_
_atom_site_type_symbol
_atom_site_label
_atom_site_fract_x
_atom_site_fract_y
_atom_site_fract_z
Si Si1 0.756658 0.525202 0.727488
Si Si2 0.000000 0.145846 0.750000
Si Si3 0.100836 0.858196 0.918465
Si Si4 0.899371 0.753798 0.965720
Si Si5 0.641287 0.066008 0.445463
Si Si6 0.000000 0.721140 0.750000
O O1 0.622519 0.559974 0.744456
O O2 0.620106 0.426909 0.640846
O O3 0.983591 0.468280 0.829000
O O4 0.797211 0.639589 0.696840
O O5 0.171538 0.224452 0.849997
O O6 0.095181 0.764994 0.979747
O O7 0.079336 0.800435 0.838706
O O8 0.296807 0.948662 0.992568
O O9 0.856269 0.871601 0.992915
O O10 0.974997 0.652015 0.043132
#
# Coordination Sequence:
#
# PCOD8154033 Si02
#       6
#     8   4   8   8   8   4
#     4  12  27  51  76 114 158 201 258 318 384 458
#     4  12  23  51  74 110 152 206 247 317 378 454
#     4  12  26  51  79 114 155 200 260 315 381 461
#     4  11  24  49  81 110 157 199 260 316 387 454
#     4  11  27  47  79 116 150 204 256 320 385 454
#     4  12  29  49  80 110 158 204 259 313 386 454
#
# _framework density 28.087154999999999
#
# number of rings (size 3 to 8) (size 9 to 14) (size 15 to 20)
#    0.000    0.400    4.000    3.600    0.000    3.200 
#    3.600    0.000    0.000    0.000    0.000    0.000 
#    0.000    0.000    0.000    0.000    0.000    0.000 
#
# Total GULP energy -248198.926138 kJ/mol
# GULP energy per Si atom -12409.946307 kJ/mol
# Density = 2.802323 g / cm^3
# Si number density = 28.087155 Si / 1000 Ang^3
#
#
#
# Elastic Constant Matrix: (Units=GPa)
#
#
# Indices 1 2 3 4 5 6 
#
# 1 140.7040 37.5144 -23.4319 0.0000 -23.8145 0.0000
# 2 37.5144 149.9477 17.6389 0.0000 -22.3770 0.0000
# 3 -23.4319 17.6389 61.3810 0.0000 -8.3071 0.0000
# 4 0.0000 0.0000 0.0000 36.7494 0.0000 -0.1734
# 5 -23.8145 -22.3770 -8.3071 0.0000 45.9115 0.0000
# 6 0.0000 0.0000 0.0000 -0.1734 0.0000 48.4080
#
#
#
# Elastic Compliance Matrix: (Units=1/GPa)
#
#
# Indices 1 2 3 4 5 6 
#
# 1 0.009270 -0.002196 0.004793 0.000000 0.004606 0.000000
# 2 -0.002196 0.007875 -0.002805 0.000000 0.002192 0.000000
# 3 0.004793 -0.002805 0.019558 0.000000 0.004658 0.000000
# 4 0.000000 0.000000 0.000000 0.027212 0.000000 0.000097
# 5 0.004606 0.002192 0.004658 0.000000 0.026081 0.000000
# 6 0.000000 0.000000 0.000000 0.000097 0.000000 0.020658
#
#
# Mechanical properties :
#
#
# Convention : Reuss Voigt Hill
#
# Bulk Modulus (GPa) = 27.55667 46.16393 36.86030
# Shear Modulus (GPa) = 40.59579 47.56787 44.08183
#
# Velocity S-wave (km/s) = 3.80590 4.11978 3.96595
# Velocity P-wave (km/s) = 5.39867 6.25314 5.84155
#
# Compressibility (1/GPa) = 0.03628886
#
# Stress axis : x y z
#
# Youngs Moduli (GPa) = 107.87142 126.97787 51.13040
#
# Poissons Ratio (x) = 0.27882 -0.24508
# Poissons Ratio (y) = 0.23687 0.14341
# Poissons Ratio (z) = -0.51705 0.35614
#
# Static dielectric constant tensor:
#      x y z
#    x 5.197780 0.000000 0.029540 
#    y 0.000000 5.580690 0.000000 
#    z 0.029540 0.000000 5.457810 
# 
# 
# High freq. dielectric constant tensor:
#      x y z
#    x 2.150230 0.000000 0.000500 
#    y 0.000000 2.161450 0.000000 
#    z 0.000500 0.000000 2.146450 
# 
# From -- ./inp_files/269072.got.cif
#   From: 2010.06.25/outbox.cif.g09.slc.cpg/sg15_135_cif.got.tgz:269072.got - 2010.06.28 07:06:18.
