data_PCOD8154372
_publ_section_title
;
Structure prediction by ZEFSAII (Michael W. Deem and Ramdas Pophale) SiO2 
 PCOD8154372
Probable space group: C 2/C
;
_chemical_formula_sum "Si O2"
_cell_formula_units_Z 28
_cell_length_a 12.750265
_cell_length_b 8.216814
_cell_length_c 15.659914
_cell_angle_alpha 90.000000
_cell_angle_beta 140.010613
_cell_angle_gamma 90.000000
_cell_volume 1054.347197
_symmetry_space_group_name_H-M "C 2/C"
_symmetry_group_IT_number 15
_symmetry_cell_setting 'monoclinic'
loop_
_space_group_symop_operation_xyz
x,y,z
-x,y,1/2-z
-x,-y,-z
x,-y,1/2+z
1/2+x,1/2+y,z
1/2-x,1/2+y,1/2-z
1/2-x,1/2-y,-z
1/2+x,1/2-y,1/2+z
loop_
_atom_site_type_symbol
_atom_site_label
_atom_site_fract_x
_atom_site_fract_y
_atom_site_fract_z
Si Si1 0.191516 0.462919 0.950701
Si Si2 0.071931 0.967551 0.663629
Si Si3 0.224703 0.265931 0.130563
Si Si4 0.500000 0.235145 0.750000
O O1 0.145684 0.339617 0.844324
O O2 0.097833 0.631207 0.880895
O O3 0.385402 0.488825 0.065033
O O4 0.135405 0.385628 0.006483
O O5 0.098678 0.866551 0.592425
O O6 0.125782 0.847860 0.775093
O O7 0.184334 0.129365 0.739226
#
# Coordination Sequence:
#
# PCOD8154372 Si02
#       4
#     8   8   8   4
#     4  11  26  49  73 108 153 196 245 316 365 447
#     4  12  25  50  73 112 151 193 251 312 367 455
#     4  11  26  46  78 104 149 192 254 300 383 435
#     4  12  26  46  76 106 156 196 246 304 378 434
#
# _framework density 26.556715000000001
#
# number of rings (size 3 to 8) (size 9 to 14) (size 15 to 20)
#    0.000    0.571    2.857    3.429    8.000    1.143 
#    0.000    0.000    0.000    0.000    0.000    0.000 
#    0.000    0.000    0.000    0.000    0.000    0.000 
#
# Total GULP energy -173515.483575 kJ/mol
# GULP energy per Si atom -12393.963112 kJ/mol
# Density = 2.649627 g / cm^3
# Si number density = 26.556715 Si / 1000 Ang^3
#
#
#
# Elastic Constant Matrix: (Units=GPa)
#
#
# Indices 1 2 3 4 5 6 
#
# 1 99.3587 44.1888 36.9201 0.0000 -21.5287 0.0000
# 2 44.1888 133.3594 37.6302 0.0000 3.1587 0.0000
# 3 36.9201 37.6302 48.3026 0.0000 -9.3553 0.0000
# 4 0.0000 0.0000 0.0000 47.0079 0.0000 -24.4507
# 5 -21.5287 3.1587 -9.3553 0.0000 42.6713 0.0000
# 6 0.0000 0.0000 0.0000 -24.4507 0.0000 62.5713
#
#
#
# Elastic Compliance Matrix: (Units=1/GPa)
#
#
# Indices 1 2 3 4 5 6 
#
# 1 0.016005 -0.003016 -0.008644 0.000000 0.006403 0.000000
# 2 -0.003016 0.010433 -0.006545 0.000000 -0.003729 0.000000
# 3 -0.008644 -0.006545 0.033061 0.000000 0.003372 0.000000
# 4 0.000000 0.000000 0.000000 0.026700 0.000000 0.010433
# 5 0.006403 -0.003729 0.003372 0.000000 0.027681 0.000000
# 6 0.000000 0.000000 0.000000 0.010433 0.000000 0.020059
#
#
# Mechanical properties :
#
#
# Convention : Reuss Voigt Hill
#
# Bulk Modulus (GPa) = 43.30772 57.61101 50.45936
# Shear Modulus (GPa) = 28.08281 41.26887 34.67584
#
# Velocity S-wave (km/s) = 3.25540 3.94634 3.61741
# Velocity P-wave (km/s) = 5.52025 6.51963 6.04064
#
# Compressibility (1/GPa) = 0.02309057
#
# Stress axis : x y z
#
# Youngs Moduli (GPa) = 62.47968 95.85033 30.24670
#
# Poissons Ratio (x) = 0.28908 0.26145
# Poissons Ratio (y) = 0.18844 0.19796
# Poissons Ratio (z) = 0.54006 0.62731
#
# Static dielectric constant tensor:
#      x y z
#    x 4.611550 0.000000 -0.572120 
#    y 0.000000 5.557350 0.000000 
#    z -0.572120 0.000000 4.716860 
# 
# 
# High freq. dielectric constant tensor:
#      x y z
#    x 2.043360 0.000000 -0.027540 
#    y 0.000000 2.099590 0.000000 
#    z -0.027540 0.000000 2.057040 
# 
# From -- ./inp_files/53567.got.cif
#   From: 2010.06.25/outbox.cif.g09.slc.cpg/sg15_27_cif.got.tgz:53567.got - 2010.06.28 07:06:18.
