data_PCOD8154492
_publ_section_title
;
Structure prediction by ZEFSAII (Michael W. Deem and Ramdas Pophale) SiO2 
 PCOD8154492
Probable space group: C 2/C
;
_chemical_formula_sum "Si O2"
_cell_formula_units_Z 60
_cell_length_a 11.727176
_cell_length_b 17.063605
_cell_length_c 15.228284
_cell_angle_alpha 90.000000
_cell_angle_beta 110.451709
_cell_angle_gamma 90.000000
_cell_volume 2855.219535
_symmetry_space_group_name_H-M "C 2/C"
_symmetry_group_IT_number 15
_symmetry_cell_setting 'monoclinic'
loop_
_space_group_symop_operation_xyz
x,y,z
-x,y,1/2-z
-x,-y,-z
x,-y,1/2+z
1/2+x,1/2+y,z
1/2-x,1/2+y,1/2-z
1/2-x,1/2-y,-z
1/2+x,1/2-y,1/2+z
loop_
_atom_site_type_symbol
_atom_site_label
_atom_site_fract_x
_atom_site_fract_y
_atom_site_fract_z
Si Si1 0.108630 0.263271 0.962571
Si Si2 0.234987 0.297037 0.720881
Si Si3 0.284385 0.666570 0.045735
Si Si4 0.261935 0.058708 0.628300
Si Si5 0.881371 0.400533 0.667337
Si Si6 0.063768 0.851836 0.176196
Si Si7 0.000000 0.628308 0.750000
Si Si8 0.977030 0.756884 0.869665
O O1 0.073929 0.341433 0.897818
O O2 0.044001 0.184285 0.911013
O O3 0.250000 0.250000 0.000000
O O4 0.072589 0.275037 0.052497
O O5 0.215968 0.339523 0.621497
O O6 0.200923 0.354072 0.788215
O O7 0.162125 0.216679 0.714353
O O8 0.376806 0.279669 0.770478
O O9 0.430984 0.669686 0.095689
O O10 0.250000 0.750000 0.000000
O O11 0.243924 0.599171 0.968694
O O12 0.135068 0.075887 0.647272
O O13 0.374624 0.079342 0.723894
O O14 0.289588 0.968433 0.609699
O O15 0.000000 0.433498 0.750000
O O16 0.000000 0.879860 0.250000
O O17 0.963917 0.678675 0.654435
#
# Coordination Sequence:
#
# PCOD8154492 Si02
#       8
#     8   8   8   8   8   8   4   8
#     4  12  23  40  69 102 130 179 244 289 342 427
#     4  12  21  41  68  99 132 183 241 286 347 421
#     4  12  21  38  68 100 135 181 233 285 349 425
#     4  12  26  44  65 106 145 179 231 302 363 419
#     4  12  26  46  67 100 147 185 229 298 372 418
#     4  12  21  41  72  99 132 187 241 289 338 426
#     4  12  22  38  66  98 136 170 226 294 344 414
#     4  12  20  37  68 102 127 171 240 291 328 410
#
# _framework density 21.014144000000002
#
# number of rings (size 3 to 8) (size 9 to 14) (size 15 to 20)
#    0.000    0.000   11.333    0.000    0.000    0.000 
#    2.400    5.333    0.000    0.000    0.000    0.000 
#    0.000    0.000    0.000    0.000    0.000    0.000 
#
# Total GULP energy -371758.140234 kJ/mol
# GULP energy per Si atom -12391.938008 kJ/mol
# Density = 2.096632 g / cm^3
# Si number density = 21.014144 Si / 1000 Ang^3
#
#
#
# Elastic Constant Matrix: (Units=GPa)
#
#
# Indices 1 2 3 4 5 6 
#
# 1 84.4076 9.7163 17.6264 0.0000 0.9159 0.0000
# 2 9.7163 62.6671 15.7244 0.0000 -7.9541 0.0000
# 3 17.6264 15.7244 95.4105 0.0000 -16.0556 0.0000
# 4 0.0000 0.0000 0.0000 13.7639 0.0000 4.6181
# 5 0.9159 -7.9541 -16.0556 0.0000 58.3876 0.0000
# 6 0.0000 0.0000 0.0000 4.6181 0.0000 18.9282
#
#
#
# Elastic Compliance Matrix: (Units=1/GPa)
#
#
# Indices 1 2 3 4 5 6 
#
# 1 0.012498 -0.001507 -0.002231 0.000000 -0.001015 0.000000
# 2 -0.001507 0.016969 -0.002228 0.000000 0.001722 0.000000
# 3 -0.002231 -0.002228 0.011759 0.000000 0.002965 0.000000
# 4 0.000000 0.000000 0.000000 0.079132 0.000000 -0.019306
# 5 -0.001015 0.001722 0.002965 0.000000 0.018193 0.000000
# 6 0.000000 0.000000 0.000000 -0.019306 0.000000 0.057542
#
#
# Mechanical properties :
#
#
# Convention : Reuss Voigt Hill
#
# Bulk Modulus (GPa) = 34.13768 36.51328 35.32548
# Shear Modulus (GPa) = 22.95798 31.51047 27.23422
#
# Velocity S-wave (km/s) = 3.30889 3.87652 3.60390
# Velocity P-wave (km/s) = 5.55686 6.11963 5.84502
#
# Compressibility (1/GPa) = 0.02929314
#
# Stress axis : x y z
#
# Youngs Moduli (GPa) = 80.01487 58.93196 85.03786
#
# Poissons Ratio (x) = 0.08879 0.18975
# Poissons Ratio (y) = 0.12055 0.18950
# Poissons Ratio (z) = 0.17854 0.13132
#
# Static dielectric constant tensor:
#      x y z
#    x 4.645560 0.000000 -0.016980 
#    y 0.000000 3.665160 0.000000 
#    z -0.016980 0.000000 4.098790 
# 
# 
# High freq. dielectric constant tensor:
#      x y z
#    x 1.844690 0.000000 0.003660 
#    y 0.000000 1.783460 0.000000 
#    z 0.003660 0.000000 1.836840 
# 
# From -- ./inp_files/146112.got.cif
#   From: 2010.06.25/outbox.cif.g09.slc.cpg/sg15_74_cif.got.tgz:146112.got - 2010.06.28 07:06:18.
