data_PCOD8154178
_publ_section_title
;
Structure prediction by ZEFSAII (Michael W. Deem and Ramdas Pophale) SiO2 
 PCOD8154178
Probable space group: C 2/C
;
_chemical_formula_sum "Si O2"
_cell_formula_units_Z 36
_cell_length_a 22.103567
_cell_length_b 17.156387
_cell_length_c 9.181109
_cell_angle_alpha 90.000000
_cell_angle_beta 152.648538
_cell_angle_gamma 90.000000
_cell_volume 1599.628904
_symmetry_space_group_name_H-M "C 2/C"
_symmetry_group_IT_number 15
_symmetry_cell_setting 'monoclinic'
loop_
_space_group_symop_operation_xyz
x,y,z
-x,y,1/2-z
-x,-y,-z
x,-y,1/2+z
1/2+x,1/2+y,z
1/2-x,1/2+y,1/2-z
1/2-x,1/2-y,-z
1/2+x,1/2-y,1/2+z
loop_
_atom_site_type_symbol
_atom_site_label
_atom_site_fract_x
_atom_site_fract_y
_atom_site_fract_z
Si Si1 0.676948 0.151126 0.803111
Si Si2 0.894159 0.065110 0.798969
Si Si3 0.500000 0.966068 0.750000
Si Si4 0.938670 0.214509 0.270482
Si Si5 0.747884 0.039913 0.191037
O O1 0.594851 0.084679 0.551691
O O2 0.572089 0.215082 0.636254
O O3 0.787005 0.185280 0.927387
O O4 0.765637 0.113630 0.122190
O O5 0.794782 0.065811 0.450688
O O6 0.821677 0.038551 0.792838
O O7 0.960643 0.149081 0.956788
O O8 0.000000 0.000000 0.000000
O O9 0.407425 0.022108 0.646062
O O10 0.000000 0.245690 0.250000
#
# Coordination Sequence:
#
# PCOD8154178 Si02
#       5
#     8   8   4   8   8
#     4  11  26  44  69 104 144 185 228 297 355 422
#     4  12  23  43  72 102 134 184 242 292 339 418
#     4  12  24  46  68 100 144 184 236 288 356 426
#     4  11  25  46  70 102 144 183 237 290 359 420
#     4  12  25  43  73 103 138 188 239 290 351 415
#
# _framework density 22.505220999999999
#
# number of rings (size 3 to 8) (size 9 to 14) (size 15 to 20)
#    0.000    0.444    4.444    4.000    1.556    3.556 
#    0.000    3.333    0.000    0.000    0.000    0.000 
#    0.000    0.000    0.000    0.000    0.000    0.000 
#
# Total GULP energy -223167.121186 kJ/mol
# GULP energy per Si atom -12398.173399 kJ/mol
# Density = 2.245400 g / cm^3
# Si number density = 22.505221 Si / 1000 Ang^3
#
#
#
# Elastic Constant Matrix: (Units=GPa)
#
#
# Indices 1 2 3 4 5 6 
#
# 1 127.8923 21.7584 26.1466 0.0000 28.6655 0.0000
# 2 21.7584 78.4480 4.4007 0.0000 7.2914 0.0000
# 3 26.1466 4.4007 70.0080 0.0000 7.4356 0.0000
# 4 0.0000 0.0000 0.0000 40.9012 0.0000 16.6451
# 5 28.6655 7.2914 7.4356 0.0000 45.1357 0.0000
# 6 0.0000 0.0000 0.0000 16.6451 0.0000 30.6712
#
#
#
# Elastic Compliance Matrix: (Units=1/GPa)
#
#
# Indices 1 2 3 4 5 6 
#
# 1 0.010036 -0.002099 -0.003028 0.000000 -0.005536 0.000000
# 2 -0.002099 0.013406 0.000030 0.000000 -0.000837 0.000000
# 3 -0.003028 0.000030 0.015480 0.000000 -0.000632 0.000000
# 4 0.000000 0.000000 0.000000 0.031379 0.000000 -0.017029
# 5 -0.005536 -0.000837 -0.000632 0.000000 0.025911 0.000000
# 6 0.000000 0.000000 0.000000 -0.017029 0.000000 0.041846
#
#
# Mechanical properties :
#
#
# Convention : Reuss Voigt Hill
#
# Bulk Modulus (GPa) = 34.80986 42.32887 38.56937
# Shear Modulus (GPa) = 31.68003 38.27780 34.97891
#
# Velocity S-wave (km/s) = 3.75597 4.12860 3.94668
# Velocity P-wave (km/s) = 5.85754 6.44798 6.15984
#
# Compressibility (1/GPa) = 0.02872749
#
# Stress axis : x y z
#
# Youngs Moduli (GPa) = 99.63966 74.59526 64.59815
#
# Poissons Ratio (x) = 0.15659 0.19563
# Poissons Ratio (y) = 0.20917 -0.00196
# Poissons Ratio (z) = 0.30175 -0.00226
#
# Static dielectric constant tensor:
#      x y z
#    x 4.117720 0.000000 0.223950 
#    y 0.000000 4.547420 0.000000 
#    z 0.223950 0.000000 4.187650 
# 
# 
# High freq. dielectric constant tensor:
#      x y z
#    x 1.903420 0.000000 0.016020 
#    y 0.000000 1.889560 0.000000 
#    z 0.016020 0.000000 1.879460 
# 
# From -- ./inp_files/22517.got.cif
#   From: 2010.06.25/outbox.cif.g09.slc.cpg/sg15_12_cif.got.tgz:22517.got - 2010.06.28 07:06:18.
