data_PCOD8154644
_publ_section_title
;
Structure prediction by ZEFSAII (Michael W. Deem and Ramdas Pophale) SiO2 
 PCOD8154644
Probable space group: C 2/C
;
_chemical_formula_sum "Si O2"
_cell_formula_units_Z 60
_cell_length_a 21.844157
_cell_length_b 5.086721
_cell_length_c 23.038259
_cell_angle_alpha 90.000000
_cell_angle_beta 91.355621
_cell_angle_gamma 90.000000
_cell_volume 2559.182713
_symmetry_space_group_name_H-M "C 2/C"
_symmetry_group_IT_number 15
_symmetry_cell_setting 'monoclinic'
loop_
_space_group_symop_operation_xyz
x,y,z
-x,y,1/2-z
-x,-y,-z
x,-y,1/2+z
1/2+x,1/2+y,z
1/2-x,1/2+y,1/2-z
1/2-x,1/2-y,-z
1/2+x,1/2-y,1/2+z
loop_
_atom_site_type_symbol
_atom_site_label
_atom_site_fract_x
_atom_site_fract_y
_atom_site_fract_z
Si Si1 0.634959 0.480243 0.937320
Si Si2 0.421562 0.988333 0.622881
Si Si3 0.000000 0.008912 0.250000
Si Si4 0.768240 0.597845 0.276756
Si Si5 0.646723 0.622582 0.065083
Si Si6 0.048452 0.334779 0.149884
Si Si7 0.893574 0.375752 0.745476
Si Si8 0.726534 0.111667 0.089892
O O1 0.599543 0.217698 0.920161
O O2 0.707642 0.412334 0.939125
O O3 0.612112 0.717568 0.896080
O O4 0.617671 0.550812 0.002795
O O5 0.496694 0.975105 0.619127
O O6 0.398373 0.057883 0.688032
O O7 0.941163 0.846672 0.233034
O O8 0.993145 0.162540 0.309156
O O9 0.780169 0.314552 0.245971
O O10 0.828254 0.757846 0.255603
O O11 0.761282 0.539631 0.343557
O O12 0.588692 0.659295 0.106784
O O13 0.694888 0.398457 0.086389
O O14 0.681847 0.899027 0.060024
O O15 0.094945 0.486662 0.192410
#
# Coordination Sequence:
#
# PCOD8154644 Si02
#       8
#     8   8   4   8   8   8   8   8
#     4  12  27  47  72 104 144 192 244 303 360 423
#     4  12  25  45  70 104 145 190 237 304 367 422
#     4  12  22  44  72 104 136 188 242 286 350 428
#     4  12  26  42  68 108 146 178 223 295 365 422
#     4  12  27  47  75 104 140 193 250 296 354 432
#     4  12  26  43  74 106 143 192 244 295 362 440
#     4  12  24  44  70 104 141 188 237 288 356 442
#     4  12  24  48  72 103 140 194 245 294 358 435
#
# _framework density 23.444987000000001
#
# number of rings (size 3 to 8) (size 9 to 14) (size 15 to 20)
#    0.000    0.000    4.000    6.400    1.867    1.067 
#    0.000    0.000    0.000    0.000    0.000    0.000 
#    0.000    0.000    0.000    0.000    0.000    0.000 
#
# Total GULP energy -371812.581336 kJ/mol
# GULP energy per Si atom -12393.752711 kJ/mol
# Density = 2.339163 g / cm^3
# Si number density = 23.444987 Si / 1000 Ang^3
#
#
#
# Elastic Constant Matrix: (Units=GPa)
#
#
# Indices 1 2 3 4 5 6 
#
# 1 72.6511 12.7920 34.4700 0.0000 -20.2187 0.0000
# 2 12.7920 93.6534 5.5176 0.0000 -0.3154 0.0000
# 3 34.4700 5.5176 91.7298 0.0000 -2.8672 0.0000
# 4 0.0000 0.0000 0.0000 31.7967 0.0000 3.1684
# 5 -20.2187 -0.3154 -2.8672 0.0000 37.5462 0.0000
# 6 0.0000 0.0000 0.0000 3.1684 0.0000 45.4617
#
#
#
# Elastic Compliance Matrix: (Units=1/GPa)
#
#
# Indices 1 2 3 4 5 6 
#
# 1 0.020533 -0.002342 -0.007247 0.000000 0.010484 0.000000
# 2 -0.002342 0.010983 0.000183 0.000000 -0.001155 0.000000
# 3 -0.007247 0.000183 0.013524 0.000000 -0.002868 0.000000
# 4 0.000000 0.000000 0.000000 0.031670 0.000000 -0.002207
# 5 0.010484 -0.001155 -0.002868 0.000000 0.032051 0.000000
# 6 0.000000 0.000000 0.000000 -0.002207 0.000000 0.022150
#
#
# Mechanical properties :
#
#
# Convention : Reuss Voigt Hill
#
# Bulk Modulus (GPa) = 38.12723 40.39927 39.26325
# Shear Modulus (GPa) = 31.55251 36.64455 34.09853
#
# Velocity S-wave (km/s) = 3.67251 3.95777 3.81780
# Velocity P-wave (km/s) = 5.85498 6.17691 6.01810
#
# Compressibility (1/GPa) = 0.02622798
#
# Stress axis : x y z
#
# Youngs Moduli (GPa) = 48.70198 91.05058 73.94126
#
# Poissons Ratio (x) = 0.21327 0.53587
# Poissons Ratio (y) = 0.11407 -0.01356
# Poissons Ratio (z) = 0.35296 -0.01670
#
# Static dielectric constant tensor:
#      x y z
#    x 4.430710 0.000000 0.129130 
#    y 0.000000 4.368850 0.000000 
#    z 0.129130 0.000000 4.294110 
# 
# 
# High freq. dielectric constant tensor:
#      x y z
#    x 1.944530 0.000000 0.002850 
#    y 0.000000 1.931780 0.000000 
#    z 0.002850 0.000000 1.933230 
# 
# From -- ./inp_files/278952.got.cif
#   From: 2010.06.25/outbox.cif.g09.slc.cpg/sg15_140_cif.got.tgz:278952.got - 2010.06.28 07:06:18.
