data_PCOD8154982
_publ_section_title
;
Structure prediction by ZEFSAII (Michael W. Deem and Ramdas Pophale) SiO2 
 PCOD8154982
Probable space group: C 2/C
;
_chemical_formula_sum "Si O2"
_cell_formula_units_Z 48
_cell_length_a 18.428889
_cell_length_b 6.868727
_cell_length_c 22.710471
_cell_angle_alpha 90.000000
_cell_angle_beta 52.544708
_cell_angle_gamma 90.000000
_cell_volume 2282.065093
_symmetry_space_group_name_H-M "C 2/C"
_symmetry_group_IT_number 15
_symmetry_cell_setting 'monoclinic'
loop_
_space_group_symop_operation_xyz
x,y,z
-x,y,1/2-z
-x,-y,-z
x,-y,1/2+z
1/2+x,1/2+y,z
1/2-x,1/2+y,1/2-z
1/2-x,1/2-y,-z
1/2+x,1/2-y,1/2+z
loop_
_atom_site_type_symbol
_atom_site_label
_atom_site_fract_x
_atom_site_fract_y
_atom_site_fract_z
Si Si1 0.922898 0.768592 0.433271
Si Si2 0.231497 0.415857 0.692099
Si Si3 0.173533 0.874767 0.570161
Si Si4 0.589390 0.022583 0.666940
Si Si5 0.309441 0.060821 0.588653
Si Si6 0.131436 0.745391 0.349903
O O1 0.912742 0.653552 0.377582
O O2 0.879856 0.644640 0.506758
O O3 0.027502 0.814216 0.395869
O O4 0.870450 0.973825 0.453994
O O5 0.180151 0.503264 0.661164
O O6 0.283353 0.218314 0.650340
O O7 0.158299 0.380137 0.779613
O O8 0.306833 0.564269 0.677917
O O9 0.250000 0.750000 0.500000
O O10 0.094016 0.730752 0.632025
O O11 0.216499 0.990959 0.603504
O O12 0.500000 0.015925 0.750000
O O13 0.358361 0.880855 0.596201
#
# Coordination Sequence:
#
# PCOD8154982 Si02
#       6
#     8   8   8   8   8   8
#     4  12  27  45  72 106 141 182 239 294 345 416
#     4  12  25  45  72 103 141 189 227 288 355 418
#     4  12  25  45  74 104 138 187 238 290 354 415
#     4  12  25  44  76 106 139 183 241 292 347 418
#     4  12  25  45  73 100 143 187 230 288 355 417
#     4  12  27  45  70 103 144 184 233 285 358 418
#
# _framework density 21.033580000000001
#
# number of rings (size 3 to 8) (size 9 to 14) (size 15 to 20)
#    0.000    0.000    8.333    2.000    0.000    5.333 
#    0.000    0.000    0.000    0.000    0.000    0.000 
#    0.000    0.000    0.000    0.000    0.000    0.000 
#
# Total GULP energy -297813.064848 kJ/mol
# GULP energy per Si atom -12408.877702 kJ/mol
# Density = 2.098571 g / cm^3
# Si number density = 21.033580 Si / 1000 Ang^3
#
#
#
# Elastic Constant Matrix: (Units=GPa)
#
#
# Indices 1 2 3 4 5 6 
#
# 1 111.9580 37.4131 24.6034 -0.0026 -11.4066 0.0073
# 2 37.4131 115.9828 43.7504 0.0015 -7.7563 -0.0018
# 3 24.6034 43.7504 124.7965 0.0033 -8.0441 -0.0044
# 4 -0.0026 0.0015 0.0033 36.4898 0.0020 20.9410
# 5 -11.4066 -7.7563 -8.0441 0.0020 32.0897 -0.0041
# 6 0.0073 -0.0018 -0.0044 20.9410 -0.0041 0.5318
#
#
#
# Elastic Compliance Matrix: (Units=1/GPa)
#
#
# Indices 1 2 3 4 5 6 
#
# 1 0.010350 -0.002824 -0.000871 -0.000004 0.002778 0.000008
# 2 -0.002824 0.010783 -0.003172 0.000001 0.000807 -0.000003
# 3 -0.000871 -0.003172 0.009379 0.000002 0.001275 -0.000006
# 4 -0.000004 0.000001 0.000002 -0.001269 0.000006 0.049964
# 5 0.002778 0.000807 0.001275 0.000006 0.032665 -0.000014
# 6 0.000008 -0.000003 -0.000006 0.049964 -0.000014 -0.087064
#
#
# Mechanical properties :
#
#
# Convention : Reuss Voigt Hill
#
# Bulk Modulus (GPa) = 59.60128 62.69680 61.14904
# Shear Modulus (GPa) = -857.88394 30.28696 -413.79849
#
# Velocity S-wave (km/s) = -20.21755 3.79876 -14.04135
# Velocity P-wave (km/s) = 22.72887 7.00810 15.28869
#
# Compressibility (1/GPa) = 0.01677816
#
# Stress axis : x y z
#
# Youngs Moduli (GPa) = 96.61632 92.73566 106.62291
#
# Poissons Ratio (x) = 0.26191 0.09291
# Poissons Ratio (y) = 0.27287 0.33816
# Poissons Ratio (z) = 0.08419 0.29411
#
# Static dielectric constant tensor:
#      x y z
#    x 3.846210 -0.000020 0.109250 
#    y -0.000020 4.434420 -0.000040 
#    z 0.109250 -0.000040 3.880440 
# 
# 
# High freq. dielectric constant tensor:
#      x y z
#    x 1.828730 0.000000 0.005700 
#    y 0.000000 1.837060 0.000000 
#    z 0.005700 0.000000 1.836090 
# 
# From -- ./inp_files/278840.got.cif
#   From: 2010.06.25/outbox.cif.g09.slc.cpg/sg15_140_cif.got.tgz:278840.got - 2010.06.28 07:06:18.
