data_PCOD8154596
_publ_section_title
;
Structure prediction by ZEFSAII (Michael W. Deem and Ramdas Pophale) SiO2 
 PCOD8154596
Probable space group: C 2/C
;
_chemical_formula_sum "Si O2"
_cell_formula_units_Z 52
_cell_length_a 25.394656
_cell_length_b 11.949491
_cell_length_c 9.496244
_cell_angle_alpha 90.000000
_cell_angle_beta 122.415573
_cell_angle_gamma 90.000000
_cell_volume 2432.651101
_symmetry_space_group_name_H-M "C 2/C"
_symmetry_group_IT_number 15
_symmetry_cell_setting 'monoclinic'
loop_
_space_group_symop_operation_xyz
x,y,z
-x,y,1/2-z
-x,-y,-z
x,-y,1/2+z
1/2+x,1/2+y,z
1/2-x,1/2+y,1/2-z
1/2-x,1/2-y,-z
1/2+x,1/2-y,1/2+z
loop_
_atom_site_type_symbol
_atom_site_label
_atom_site_fract_x
_atom_site_fract_y
_atom_site_fract_z
Si Si1 0.443134 0.045840 0.335428
Si Si2 0.218157 0.410586 0.076192
Si Si3 0.205862 0.005628 0.063157
Si Si4 0.868824 0.787178 0.955748
Si Si5 0.500000 0.237197 0.250000
Si Si6 0.123698 0.409128 0.485710
Si Si7 0.822533 0.217208 0.091353
O O1 0.462850 0.166445 0.310818
O O2 0.386457 0.065225 0.363679
O O3 0.500000 0.000000 0.500000
O O4 0.431034 0.959758 0.190508
O O5 0.260459 0.421272 0.276993
O O6 0.168359 0.307632 0.005814
O O7 0.254213 0.409605 0.978604
O O8 0.185023 0.529257 0.022393
O O9 0.159428 0.089092 0.074623
O O10 0.169410 0.916438 0.914168
O O11 0.860086 0.745000 0.784107
O O12 0.942690 0.804073 0.095435
O O13 0.140204 0.279226 0.482309
O O14 0.750000 0.250000 0.000000
#
# Coordination Sequence:
#
# PCOD8154596 Si02
#       7
#     8   8   8   8   4   8   8
#     4  12  22  41  65 100 131 177 231 282 338 392
#     4  12  22  41  69 104 136 173 227 291 352 411
#     4  12  25  42  70 101 141 181 223 289 352 420
#     4  12  25  46  68 102 137 186 238 280 353 409
#     4  12  26  44  70  94 146 190 232 292 322 422
#     4  12  23  38  68 100 138 172 221 282 352 405
#     4  12  23  43  68 100 143 175 222 291 349 416
#
# _framework density 21.375857
#
# number of rings (size 3 to 8) (size 9 to 14) (size 15 to 20)
#    0.000    0.000    7.692    3.231    0.000    1.231 
#    0.000    0.769    3.385    0.000    0.000    0.000 
#    0.000    0.000    0.000    0.000    0.000    0.000 
#
# Total GULP energy -322160.497886 kJ/mol
# GULP energy per Si atom -12390.788380 kJ/mol
# Density = 2.132720 g / cm^3
# Si number density = 21.375857 Si / 1000 Ang^3
#
#
#
# Elastic Constant Matrix: (Units=GPa)
#
#
# Indices 1 2 3 4 5 6 
#
# 1 69.0523 28.3471 38.2830 0.0000 5.4314 0.0000
# 2 28.3471 93.1779 3.4653 0.0000 5.1543 0.0000
# 3 38.2830 3.4653 92.9634 0.0000 13.0274 0.0000
# 4 0.0000 0.0000 0.0000 30.0805 0.0000 -1.3086
# 5 5.4314 5.1543 13.0274 0.0000 39.0334 0.0000
# 6 0.0000 0.0000 0.0000 -1.3086 0.0000 29.1454
#
#
#
# Elastic Compliance Matrix: (Units=1/GPa)
#
#
# Indices 1 2 3 4 5 6 
#
# 1 0.022000 -0.006403 -0.008928 0.000000 0.000764 0.000000
# 2 -0.006403 0.012679 0.002386 0.000000 -0.001579 0.000000
# 3 -0.008928 0.002386 0.014912 0.000000 -0.004050 0.000000
# 4 0.000000 0.000000 0.000000 0.033309 0.000000 0.001496
# 5 0.000764 -0.001579 -0.004050 0.000000 0.027073 0.000000
# 6 0.000000 0.000000 0.000000 0.001496 0.000000 0.034378
#
#
# Mechanical properties :
#
#
# Convention : Reuss Voigt Hill
#
# Bulk Modulus (GPa) = 42.19495 43.93161 43.06328
# Shear Modulus (GPa) = 28.06740 31.99174 30.02957
#
# Velocity S-wave (km/s) = 3.62752 3.87283 3.75218
# Velocity P-wave (km/s) = 6.10963 6.37142 6.24190
#
# Compressibility (1/GPa) = 0.02369952
#
# Stress axis : x y z
#
# Youngs Moduli (GPa) = 45.45421 78.87161 67.05923
#
# Poissons Ratio (x) = 0.50503 0.59872
# Poissons Ratio (y) = 0.29105 -0.15998
# Poissons Ratio (z) = 0.40582 -0.18816
#
# Static dielectric constant tensor:
#      x y z
#    x 4.145070 0.000000 -0.503340 
#    y 0.000000 3.438690 0.000000 
#    z -0.503340 0.000000 5.251040 
# 
# 
# High freq. dielectric constant tensor:
#      x y z
#    x 1.825490 0.000000 -0.009060 
#    y 0.000000 1.824980 0.000000 
#    z -0.009060 0.000000 1.854650 
# 
# From -- ./inp_files/65608.got.cif
#   From: 2010.06.25/outbox.cif.g09.slc.cpg/sg15_33_cif.got.tgz:65608.got - 2010.06.28 07:06:18.
