data_PCOD8154858
_publ_section_title
;
Structure prediction by ZEFSAII (Michael W. Deem and Ramdas Pophale) SiO2 
 PCOD8154858
Probable space group: C 2/C
;
_chemical_formula_sum "Si O2"
_cell_formula_units_Z 44
_cell_length_a 11.536157
_cell_length_b 23.266790
_cell_length_c 14.436495
_cell_angle_alpha 90.000000
_cell_angle_beta 148.866618
_cell_angle_gamma 90.000000
_cell_volume 2003.442675
_symmetry_space_group_name_H-M "C 2/C"
_symmetry_group_IT_number 15
_symmetry_cell_setting 'monoclinic'
loop_
_space_group_symop_operation_xyz
x,y,z
-x,y,1/2-z
-x,-y,-z
x,-y,1/2+z
1/2+x,1/2+y,z
1/2-x,1/2+y,1/2-z
1/2-x,1/2-y,-z
1/2+x,1/2-y,1/2+z
loop_
_atom_site_type_symbol
_atom_site_label
_atom_site_fract_x
_atom_site_fract_y
_atom_site_fract_z
Si Si1 0.952985 0.591004 0.111946
Si Si2 0.148003 0.675628 0.102186
Si Si3 0.298828 0.506236 0.793034
Si Si4 0.881066 0.214033 0.010955
Si Si5 0.500000 0.462607 0.250000
Si Si6 0.415275 0.883541 0.284990
O O1 0.014387 0.647068 0.095017
O O2 0.096902 0.536788 0.174767
O O3 0.000000 0.605365 0.250000
O O4 0.690443 0.577757 0.924211
O O5 0.411422 0.679531 0.304393
O O6 0.042481 0.738941 0.013390
O O7 0.120401 0.639193 0.988028
O O8 0.391115 0.495787 0.752798
O O9 0.221395 0.572433 0.745232
O O10 0.500000 0.500000 0.000000
O O11 0.750000 0.250000 0.000000
O O12 0.726310 0.170045 0.849465
O O13 0.500000 0.916671 0.250000
#
# Coordination Sequence:
#
# PCOD8154858 Si02
#       6
#     8   8   8   8   4   8
#     4  12  27  51  73 105 147 194 248 301 367 444
#     4  12  25  43  72 101 145 189 238 303 369 427
#     4  12  26  48  74 109 147 194 243 300 371 447
#     4  12  24  45  69 106 147 185 241 308 364 430
#     4  12  26  46  74  98 152 188 238 310 356 434
#     4  12  25  41  71 106 144 189 239 296 370 434
#
# _framework density 21.962195999999999
#
# number of rings (size 3 to 8) (size 9 to 14) (size 15 to 20)
#    0.000    0.000    7.273    2.727    0.000    0.000 
#    3.273    0.909    2.000    0.000    0.000    0.000 
#    0.000    0.000    0.000    0.000    0.000    0.000 
#
# Total GULP energy -272817.885155 kJ/mol
# GULP energy per Si atom -12400.812962 kJ/mol
# Density = 2.191221 g / cm^3
# Si number density = 21.962196 Si / 1000 Ang^3
#
#
#
# Elastic Constant Matrix: (Units=GPa)
#
#
# Indices 1 2 3 4 5 6 
#
# 1 135.4445 46.1563 44.0787 0.0002 -19.0741 0.0001
# 2 46.1563 108.0651 36.9267 0.0001 -0.6558 0.0001
# 3 44.0787 36.9267 172.9637 0.0009 -2.5735 0.0008
# 4 0.0002 0.0001 0.0009 28.2885 0.0004 -9.3262
# 5 -19.0741 -0.6558 -2.5735 0.0004 38.7771 0.0003
# 6 0.0001 0.0001 0.0008 -9.3262 0.0003 37.0669
#
#
#
# Elastic Compliance Matrix: (Units=1/GPa)
#
#
# Indices 1 2 3 4 5 6 
#
# 1 0.009803 -0.003591 -0.001662 0.000000 0.004651 0.000000
# 2 -0.003591 0.011297 -0.001522 0.000000 -0.001676 0.000000
# 3 -0.001662 -0.001522 0.006524 0.000000 -0.000410 0.000000
# 4 0.000000 0.000000 0.000000 0.038547 -0.000001 0.009699
# 5 0.004651 -0.001676 -0.000410 -0.000001 0.028021 0.000000
# 6 0.000000 0.000000 0.000000 0.009699 0.000000 0.029418
#
#
# Mechanical properties :
#
#
# Convention : Reuss Voigt Hill
#
# Bulk Modulus (GPa) = 71.05160 74.53295 72.79228
# Shear Modulus (GPa) = 35.24823 40.11394 37.68109
#
# Velocity S-wave (km/s) = 4.01053 4.27839 4.14662
# Velocity P-wave (km/s) = 7.33947 7.64309 7.49282
#
# Compressibility (1/GPa) = 0.01407428
#
# Stress axis : x y z
#
# Youngs Moduli (GPa) = 102.01331 88.51819 153.28052
#
# Poissons Ratio (x) = 0.31783 0.25481
# Poissons Ratio (y) = 0.36629 0.23326
# Poissons Ratio (z) = 0.16958 0.13470
#
# Static dielectric constant tensor:
#      x y z
#    x 4.235500 0.000000 -0.246680 
#    y 0.000000 5.172520 0.000000 
#    z -0.246680 0.000000 4.293860 
# 
# 
# High freq. dielectric constant tensor:
#      x y z
#    x 1.858590 0.000000 -0.018270 
#    y 0.000000 1.858700 0.000000 
#    z -0.018270 0.000000 1.891970 
# 
# From -- ./inp_files/148630.got.cif
#   From: 2010.06.25/outbox.cif.g09.slc.cpg/sg15_75_cif.got.tgz:148630.got - 2010.06.28 07:06:18.
