data_PCOD8154551
_publ_section_title
;
Structure prediction by ZEFSAII (Michael W. Deem and Ramdas Pophale) SiO2 
 PCOD8154551
Probable space group: C 2/C
;
_chemical_formula_sum "Si O2"
_cell_formula_units_Z 44
_cell_length_a 5.483968
_cell_length_b 17.126511
_cell_length_c 19.424299
_cell_angle_alpha 90.000000
_cell_angle_beta 100.574891
_cell_angle_gamma 90.000000
_cell_volume 1793.369143
_symmetry_space_group_name_H-M "C 2/C"
_symmetry_group_IT_number 15
_symmetry_cell_setting 'monoclinic'
loop_
_space_group_symop_operation_xyz
x,y,z
-x,y,1/2-z
-x,-y,-z
x,-y,1/2+z
1/2+x,1/2+y,z
1/2-x,1/2+y,1/2-z
1/2-x,1/2-y,-z
1/2+x,1/2-y,1/2+z
loop_
_atom_site_type_symbol
_atom_site_label
_atom_site_fract_x
_atom_site_fract_y
_atom_site_fract_z
Si Si1 0.000000 0.238315 0.250000
Si Si2 0.942327 0.987604 0.166430
Si Si3 0.395732 0.348001 0.066305
Si Si4 0.405218 0.884621 0.814902
Si Si5 0.430337 0.769890 0.101830
Si Si6 0.364089 0.613935 0.414262
O O1 0.764886 0.184258 0.223701
O O2 0.022772 0.293610 0.183740
O O3 0.711501 0.045744 0.146116
O O4 0.000000 0.980449 0.250000
O O5 0.142134 0.031653 0.127714
O O6 0.897272 0.902383 0.133553
O O7 0.656291 0.302009 0.071515
O O8 0.145851 0.295401 0.059047
O O9 0.364579 0.400382 0.996065
O O10 0.500000 0.926032 0.750000
O O11 0.611978 0.844317 0.874294
O O12 0.415475 0.674616 0.096098
#
# Coordination Sequence:
#
# PCOD8154551 Si02
#       6
#     4   8   8   8   8   8
#     4  12  24  44  76 116 136 204 252 316 358 454
#     4  12  26  48  73 111 146 200 253 312 373 451
#     4  12  32  47  73 116 161 192 237 325 393 441
#     4  12  21  44  79 108 138 195 269 311 348 450
#     4  12  27  49  76 109 154 196 252 307 381 451
#     4  12  26  49  80 104 147 206 260 299 371 460
#
# _framework density 24.534827
#
# number of rings (size 3 to 8) (size 9 to 14) (size 15 to 20)
#    0.000    0.000    6.364    2.727    7.636    0.727 
#    0.000    0.000    0.000    0.000    0.000    0.000 
#    0.000    0.000    0.000    0.000    0.000    0.000 
#
# Total GULP energy -272610.698501 kJ/mol
# GULP energy per Si atom -12391.395386 kJ/mol
# Density = 2.447898 g / cm^3
# Si number density = 24.534827 Si / 1000 Ang^3
#
#
#
# Elastic Constant Matrix: (Units=GPa)
#
#
# Indices 1 2 3 4 5 6 
#
# 1 124.1469 17.3743 26.2915 0.0000 16.7016 0.0000
# 2 17.3743 51.9896 0.6561 0.0000 14.4055 0.0000
# 3 26.2915 0.6561 137.2008 0.0000 -1.3746 0.0000
# 4 0.0000 0.0000 0.0000 33.0210 0.0000 -11.1143
# 5 16.7016 14.4055 -1.3746 0.0000 39.7182 0.0000
# 6 0.0000 0.0000 0.0000 -11.1143 0.0000 17.9466
#
#
#
# Elastic Compliance Matrix: (Units=1/GPa)
#
#
# Indices 1 2 3 4 5 6 
#
# 1 0.009155 -0.002172 -0.001775 0.000000 -0.003124 0.000000
# 2 -0.002172 0.021903 0.000241 0.000000 -0.007023 0.000000
# 3 -0.001775 0.000241 0.007637 0.000000 0.000923 0.000000
# 4 0.000000 0.000000 0.000000 0.038259 0.000000 0.023694
# 5 -0.003124 -0.007023 0.000923 0.000000 0.029070 0.000000
# 6 0.000000 0.000000 0.000000 0.023694 0.000000 0.070394
#
#
# Mechanical properties :
#
#
# Convention : Reuss Voigt Hill
#
# Bulk Modulus (GPa) = 31.96583 44.66456 38.31519
# Shear Modulus (GPa) = 25.73902 36.07151 30.90527
#
# Velocity S-wave (km/s) = 3.24247 3.83850 3.55300
# Velocity P-wave (km/s) = 5.20338 6.15545 5.69933
#
# Compressibility (1/GPa) = 0.03128340
#
# Stress axis : x y z
#
# Youngs Moduli (GPa) = 109.22918 45.65551 130.94352
#
# Poissons Ratio (x) = 0.09915 0.23246
# Poissons Ratio (y) = 0.23720 -0.03156
# Poissons Ratio (z) = 0.19391 -0.01101
#
# Static dielectric constant tensor:
#      x y z
#    x 4.700450 0.000000 -0.343300 
#    y 0.000000 3.967310 0.000000 
#    z -0.343300 0.000000 4.975710 
# 
# 
# High freq. dielectric constant tensor:
#      x y z
#    x 1.984960 0.000000 -0.012320 
#    y 0.000000 1.943720 0.000000 
#    z -0.012320 0.000000 1.998300 
# 
# From -- ./inp_files/227063.got.cif
#   From: 2010.06.25/outbox.cif.g09.slc.cpg/sg15_114_cif.got.tgz:227063.got - 2010.06.28 07:06:18.
