data_PCOD8154859
_publ_section_title
;
Structure prediction by ZEFSAII (Michael W. Deem and Ramdas Pophale) SiO2 
 PCOD8154859
Probable space group: C 2/C
;
_chemical_formula_sum "Si O2"
_cell_formula_units_Z 40
_cell_length_a 14.442129
_cell_length_b 17.017884
_cell_length_c 10.212140
_cell_angle_alpha 90.000000
_cell_angle_beta 134.999903
_cell_angle_gamma 90.000000
_cell_volume 1774.758547
_symmetry_space_group_name_H-M "C 2/C"
_symmetry_group_IT_number 15
_symmetry_cell_setting 'monoclinic'
loop_
_space_group_symop_operation_xyz
x,y,z
-x,y,1/2-z
-x,-y,-z
x,-y,1/2+z
1/2+x,1/2+y,z
1/2-x,1/2+y,1/2-z
1/2-x,1/2-y,-z
1/2+x,1/2-y,1/2+z
loop_
_atom_site_type_symbol
_atom_site_label
_atom_site_fract_x
_atom_site_fract_y
_atom_site_fract_z
Si Si1 0.637603 0.729217 0.575411
Si Si2 0.211053 0.575312 0.830407
Si Si3 0.130646 0.825312 0.591700
Si Si4 0.000000 0.914006 0.250000
Si Si5 0.312192 0.520783 0.199795
Si Si6 0.000000 0.664006 0.750000
O O1 0.680449 0.642806 0.575915
O O2 0.744177 0.768169 0.778824
O O3 0.498785 0.725512 0.509372
O O4 0.617414 0.783256 0.426440
O O5 0.215352 0.518168 0.709530
O O6 0.065428 0.611498 0.700785
O O7 0.239411 0.524489 0.988196
O O8 0.114642 0.861497 0.430070
O O9 0.145465 0.892807 0.715016
O O10 0.059027 0.966744 0.191614
#
# Coordination Sequence:
#
# PCOD8154859 Si02
#       6
#     8   8   8   4   8   4
#     4  12  24  45  73 106 140 189 240 302 351 429
#     4  12  25  45  74 106 143 186 245 296 360 424
#     4  12  25  45  74 106 143 186 245 296 360 424
#     4  12  24  45  70 107 144 186 246 296 358 429
#     4  12  24  45  73 106 140 189 240 302 351 429
#     4  12  24  45  70 107 144 186 246 296 358 429
#
# _framework density 22.538276
#
# number of rings (size 3 to 8) (size 9 to 14) (size 15 to 20)
#    0.000    0.000    8.000    3.600    0.000    1.600 
#    0.000    0.000    0.000    0.000    0.000    0.000 
#    0.000    0.000    0.000    0.000    0.000    0.000 
#
# Total GULP energy -248099.877213 kJ/mol
# GULP energy per Si atom -12404.993861 kJ/mol
# Density = 2.248698 g / cm^3
# Si number density = 22.538276 Si / 1000 Ang^3
#
#
#
# Elastic Constant Matrix: (Units=GPa)
#
#
# Indices 1 2 3 4 5 6 
#
# 1 101.8800 56.3264 36.0364 0.0000 2.3543 0.0000
# 2 56.3264 108.7859 56.3272 0.0000 -0.0003 0.0000
# 3 36.0364 56.3272 101.8818 0.0000 -2.3544 0.0000
# 4 0.0000 0.0000 0.0000 32.2250 0.0000 0.0002
# 5 2.3543 -0.0003 -2.3544 0.0000 44.5671 0.0000
# 6 0.0000 0.0000 0.0000 0.0002 0.0000 32.2249
#
#
#
# Elastic Compliance Matrix: (Units=1/GPa)
#
#
# Indices 1 2 3 4 5 6 
#
# 1 0.013905 -0.006506 -0.001340 0.000000 -0.000805 0.000000
# 2 -0.006506 0.015929 -0.006506 0.000000 0.000000 0.000000
# 3 -0.001340 -0.006506 0.013905 0.000000 0.000805 0.000000
# 4 0.000000 0.000000 0.000000 0.031032 0.000000 0.000000
# 5 -0.000805 0.000000 0.000805 0.000000 0.022523 0.000000
# 6 0.000000 0.000000 0.000000 0.000000 0.000000 0.031032
#
#
# Mechanical properties :
#
#
# Convention : Reuss Voigt Hill
#
# Bulk Modulus (GPa) = 66.50724 67.76974 67.13849
# Shear Modulus (GPa) = 30.85641 32.72726 31.79183
#
# Velocity S-wave (km/s) = 3.70410 3.81474 3.75983
# Velocity P-wave (km/s) = 6.91856 7.03825 6.97866
#
# Compressibility (1/GPa) = 0.01503596
#
# Stress axis : x y z
#
# Youngs Moduli (GPa) = 71.91706 62.77702 71.91804
#
# Poissons Ratio (x) = 0.40841 0.09638
# Poissons Ratio (y) = 0.46787 0.46788
# Poissons Ratio (z) = 0.09637 0.40841
#
# Static dielectric constant tensor:
#      x y z
#    x 3.949340 0.000000 -0.000010 
#    y 0.000000 4.271030 0.000000 
#    z -0.000010 0.000000 3.949360 
# 
# 
# High freq. dielectric constant tensor:
#      x y z
#    x 1.880920 0.000000 0.000000 
#    y 0.000000 1.896840 0.000000 
#    z 0.000000 0.000000 1.880920 
# 
# From -- ./inp_files/98539.got.cif
#   From: 2010.06.25/outbox.cif.g09.slc.cpg/sg15_50_cif.got.tgz:98539.got - 2010.06.28 07:06:18.
