data_PCOD8154557
_publ_section_title
;
Structure prediction by ZEFSAII (Michael W. Deem and Ramdas Pophale) SiO2 
 PCOD8154557
Probable space group: C 2/C
;
_chemical_formula_sum "Si O2"
_cell_formula_units_Z 44
_cell_length_a 11.577159
_cell_length_b 15.010321
_cell_length_c 12.106390
_cell_angle_alpha 90.000000
_cell_angle_beta 94.083493
_cell_angle_gamma 90.000000
_cell_volume 2098.469736
_symmetry_space_group_name_H-M "C 2/C"
_symmetry_group_IT_number 15
_symmetry_cell_setting 'monoclinic'
loop_
_space_group_symop_operation_xyz
x,y,z
-x,y,1/2-z
-x,-y,-z
x,-y,1/2+z
1/2+x,1/2+y,z
1/2-x,1/2+y,1/2-z
1/2-x,1/2-y,-z
1/2+x,1/2-y,1/2+z
loop_
_atom_site_type_symbol
_atom_site_label
_atom_site_fract_x
_atom_site_fract_y
_atom_site_fract_z
Si Si1 0.944688 0.093485 0.020845
Si Si2 0.275166 0.161879 0.572257
Si Si3 0.478647 0.102510 0.973719
Si Si4 0.696258 0.803099 0.183429
Si Si5 0.058232 0.242069 0.872632
Si Si6 0.000000 0.171912 0.250000
O O1 0.947978 0.110245 0.151464
O O2 0.808608 0.085539 0.981052
O O3 0.004355 0.172074 0.955083
O O4 0.000000 0.000000 0.000000
O O5 0.250000 0.250000 0.500000
O O6 0.409183 0.138753 0.581141
O O7 0.243344 0.169254 0.698502
O O8 0.368248 0.116292 0.885488
O O9 0.464632 0.157647 0.086124
O O10 0.500000 0.000000 0.000000
O O11 0.803114 0.769178 0.117015
O O12 0.602234 0.727193 0.200075
O O13 0.000000 0.230041 0.750000
#
# Coordination Sequence:
#
# PCOD8154557 Si02
#       6
#     8   8   8   8   8   4
#     4  12  28  45  71 108 139 184 240 288 353 423
#     4  12  21  47  73  96 139 188 233 287 349 427
#     4  12  27  44  69 106 140 186 241 287 352 417
#     4  12  22  44  75  96 142 189 232 288 358 417
#     4  12  25  45  69 104 144 185 234 299 351 412
#     4  12  24  46  76  96 138 194 232 282 358 424
#
# _framework density 20.967659999999999
#
# number of rings (size 3 to 8) (size 9 to 14) (size 15 to 20)
#    0.000    0.000    9.091    0.545    3.818    1.455 
#    0.000    0.000    0.000    0.000    0.000    0.000 
#    0.000    0.000    0.000    0.000    0.000    0.000 
#
# Total GULP energy -272785.516204 kJ/mol
# GULP energy per Si atom -12399.341646 kJ/mol
# Density = 2.091994 g / cm^3
# Si number density = 20.967660 Si / 1000 Ang^3
#
#
#
# Elastic Constant Matrix: (Units=GPa)
#
#
# Indices 1 2 3 4 5 6 
#
# 1 129.4476 31.6912 23.1273 0.0000 5.4003 0.0000
# 2 31.6912 130.5640 42.5734 0.0000 5.9723 0.0000
# 3 23.1273 42.5734 135.1968 0.0000 18.0117 0.0000
# 4 0.0000 0.0000 0.0000 21.5669 0.0000 0.0743
# 5 5.4003 5.9723 18.0117 0.0000 37.8989 0.0000
# 6 0.0000 0.0000 0.0000 0.0743 0.0000 32.1026
#
#
#
# Elastic Compliance Matrix: (Units=1/GPa)
#
#
# Indices 1 2 3 4 5 6 
#
# 1 0.008315 -0.001731 -0.000807 0.000000 -0.000529 0.000000
# 2 -0.001731 0.008896 -0.002510 0.000000 0.000038 0.000000
# 3 -0.000807 -0.002510 0.008815 0.000000 -0.003679 0.000000
# 4 0.000000 0.000000 0.000000 0.046368 0.000000 -0.000107
# 5 -0.000529 0.000038 -0.003679 0.000000 0.028204 0.000000
# 6 0.000000 0.000000 0.000000 -0.000107 0.000000 0.031150
#
#
# Mechanical properties :
#
#
# Convention : Reuss Voigt Hill
#
# Bulk Modulus (GPa) = 62.77443 65.55471 64.16457
# Shear Modulus (GPa) = 33.97785 38.16812 36.07298
#
# Velocity S-wave (km/s) = 4.02990 4.27116 4.15228
# Velocity P-wave (km/s) = 7.18729 7.46032 7.32508
#
# Compressibility (1/GPa) = 0.01593005
#
# Stress axis : x y z
#
# Youngs Moduli (GPa) = 120.26273 112.40947 113.43946
#
# Poissons Ratio (x) = 0.19458 0.09154
# Poissons Ratio (y) = 0.20818 0.28477
# Poissons Ratio (z) = 0.09704 0.28218
#
# Static dielectric constant tensor:
#      x y z
#    x -23.833760 0.000000 -12.797520 
#    y 0.000000 3.437470 0.000000 
#    z -12.797520 0.000000 -1.801700 
# 
# 
# High freq. dielectric constant tensor:
#      x y z
#    x 1.846780 0.000000 0.006390 
#    y 0.000000 1.794670 0.000000 
#    z 0.006390 0.000000 1.843550 
# 
# From -- ./inp_files/86139.got.cif
#   From: 2010.06.25/outbox.cif.g09.slc.cpg/sg15_44_cif.got.tgz:86139.got - 2010.06.28 07:06:18.
