data_PCOD8154192
_publ_section_title
;
Structure prediction by ZEFSAII (Michael W. Deem and Ramdas Pophale) SiO2 
 PCOD8154192
Probable space group: C 2/C
;
_chemical_formula_sum "Si O2"
_cell_formula_units_Z 44
_cell_length_a 12.507050
_cell_length_b 13.801681
_cell_length_c 11.991051
_cell_angle_alpha 90.000000
_cell_angle_beta 103.721018
_cell_angle_gamma 90.000000
_cell_volume 2010.805279
_symmetry_space_group_name_H-M "C 2/C"
_symmetry_group_IT_number 15
_symmetry_cell_setting 'monoclinic'
loop_
_space_group_symop_operation_xyz
x,y,z
-x,y,1/2-z
-x,-y,-z
x,-y,1/2+z
1/2+x,1/2+y,z
1/2-x,1/2+y,1/2-z
1/2-x,1/2-y,-z
1/2+x,1/2-y,1/2+z
loop_
_atom_site_type_symbol
_atom_site_label
_atom_site_fract_x
_atom_site_fract_y
_atom_site_fract_z
Si Si1 0.798383 0.907972 0.675151
Si Si2 0.888338 0.537495 0.525803
Si Si3 0.441966 0.751402 0.117351
Si Si4 0.000000 0.955110 0.250000
Si Si5 0.301992 0.135910 0.122538
Si Si6 0.587803 0.687531 0.948670
O O1 0.706477 0.971103 0.590615
O O2 0.845037 0.827408 0.601859
O O3 0.743194 0.851814 0.764453
O O4 0.894010 0.977962 0.745182
O O5 0.893057 0.646162 0.570808
O O6 0.858771 0.468724 0.622535
O O7 0.000000 0.500000 0.500000
O O8 0.500000 0.761374 0.250000
O O9 0.528133 0.715611 0.047574
O O10 0.014996 0.890229 0.363853
O O11 0.393599 0.218326 0.123963
O O12 0.205735 0.142575 0.007052
#
# Coordination Sequence:
#
# PCOD8154192 Si02
#       6
#     8   8   8   4   8   8
#     4  12  27  47  73 109 145 192 244 307 360 438
#     4  12  28  47  72 107 145 195 240 300 368 436
#     4  12  26  49  75 109 149 190 247 305 366 434
#     4  12  26  46  80 108 146 192 248 298 372 428
#     4  11  25  46  72 106 147 185 245 297 369 430
#     4  11  25  46  75 108 145 188 241 306 363 433
#
# _framework density 21.881779000000002
#
# number of rings (size 3 to 8) (size 9 to 14) (size 15 to 20)
#    0.000    0.364    6.364    0.545    7.636    2.909 
#    0.000    0.000    0.000    0.000    0.000    0.000 
#    0.000    0.000    0.000    0.000    0.000    0.000 
#
# Total GULP energy -272950.945391 kJ/mol
# GULP energy per Si atom -12406.861154 kJ/mol
# Density = 2.183198 g / cm^3
# Si number density = 21.881779 Si / 1000 Ang^3
#
#
#
# Elastic Constant Matrix: (Units=GPa)
#
#
# Indices 1 2 3 4 5 6 
#
# 1 135.3378 64.3523 51.1519 0.0000 -12.7597 0.0000
# 2 64.3523 144.9805 41.7111 0.0000 -8.1835 0.0000
# 3 51.1519 41.7111 84.9954 0.0000 -23.0770 0.0000
# 4 0.0000 0.0000 0.0000 38.1874 0.0000 -3.9375
# 5 -12.7597 -8.1835 -23.0770 0.0000 39.5114 0.0000
# 6 0.0000 0.0000 0.0000 -3.9375 0.0000 44.2247
#
#
#
# Elastic Compliance Matrix: (Units=1/GPa)
#
#
# Indices 1 2 3 4 5 6 
#
# 1 0.010848 -0.003419 -0.004863 0.000000 -0.000045 0.000000
# 2 -0.003419 0.009128 -0.002625 0.000000 -0.000746 0.000000
# 3 -0.004863 -0.002625 0.018310 0.000000 0.008580 0.000000
# 4 0.000000 0.000000 0.000000 0.026429 0.000000 0.002353
# 5 -0.000045 -0.000746 0.008580 0.000000 0.030151 0.000000
# 6 0.000000 0.000000 0.000000 0.002353 0.000000 0.022821
#
#
# Mechanical properties :
#
#
# Convention : Reuss Voigt Hill
#
# Bulk Modulus (GPa) = 60.70690 75.52713 68.11702
# Shear Modulus (GPa) = 34.48468 38.25793 36.37130
#
# Velocity S-wave (km/s) = 3.97414 4.18591 4.08140
# Velocity P-wave (km/s) = 6.99011 7.61271 7.30805
#
# Compressibility (1/GPa) = 0.01647259
#
# Stress axis : x y z
#
# Youngs Moduli (GPa) = 92.18025 109.55427 54.61555
#
# Poissons Ratio (x) = 0.37452 0.26561
# Poissons Ratio (y) = 0.31513 0.14335
# Poissons Ratio (z) = 0.44830 0.28756
#
# Static dielectric constant tensor:
#      x y z
#    x 4.038620 0.000000 0.057460 
#    y 0.000000 4.143440 0.000000 
#    z 0.057460 0.000000 3.791580 
# 
# 
# High freq. dielectric constant tensor:
#      x y z
#    x 1.872550 0.000000 -0.000470 
#    y 0.000000 1.873700 0.000000 
#    z -0.000470 0.000000 1.858800 
# 
# From -- ./inp_files/86050.got.cif
#   From: 2010.06.25/outbox.cif.g09.slc.cpg/sg15_44_cif.got.tgz:86050.got - 2010.06.28 07:06:18.
