data_PCOD8154269
_publ_section_title
;
Structure prediction by ZEFSAII (Michael W. Deem and Ramdas Pophale) SiO2 
 PCOD8154269
Probable space group: C 2/C
;
_chemical_formula_sum "Si O2"
_cell_formula_units_Z 44
_cell_length_a 5.155968
_cell_length_b 13.813886
_cell_length_c 26.042404
_cell_angle_alpha 90.000000
_cell_angle_beta 68.585265
_cell_angle_gamma 90.000000
_cell_volume 1726.788243
_symmetry_space_group_name_H-M "C 2/C"
_symmetry_group_IT_number 15
_symmetry_cell_setting 'monoclinic'
loop_
_space_group_symop_operation_xyz
x,y,z
-x,y,1/2-z
-x,-y,-z
x,-y,1/2+z
1/2+x,1/2+y,z
1/2-x,1/2+y,1/2-z
1/2-x,1/2-y,-z
1/2+x,1/2-y,1/2+z
loop_
_atom_site_type_symbol
_atom_site_label
_atom_site_fract_x
_atom_site_fract_y
_atom_site_fract_z
Si Si1 0.116548 0.672348 0.474687
Si Si2 0.665619 0.078243 0.326066
Si Si3 0.045866 0.034148 0.393341
Si Si4 0.000000 0.556835 0.750000
Si Si5 0.387334 0.670257 0.919736
Si Si6 0.084692 0.788365 0.302831
O O1 0.250000 0.750000 0.500000
O O2 0.342141 0.590562 0.446838
O O3 0.869011 0.631637 0.527802
O O4 0.016212 0.728872 0.430968
O O5 0.904150 0.041160 0.347372
O O6 0.737519 0.186802 0.302880
O O7 0.353819 0.079247 0.372716
O O8 0.678481 0.009049 0.275707
O O9 0.087040 0.923400 0.408567
O O10 0.199309 0.624990 0.701638
O O11 0.333002 0.693677 0.862634
O O12 0.000000 0.792330 0.250000
#
# Coordination Sequence:
#
# PCOD8154269 Si02
#       6
#     8   8   8   4   8   8
#     4  11  26  45  78 109 157 201 264 321 391 463
#     4  12  28  50  79 117 156 203 267 321 387 473
#     4  12  27  50  79 111 159 204 259 325 390 467
#     4  12  28  48  78 114 154 214 254 330 388 468
#     4  11  25  48  72 115 149 207 256 321 390 465
#     4  12  26  48  80 109 158 206 257 324 393 458
#
# _framework density 25.480831999999999
#
# number of rings (size 3 to 8) (size 9 to 14) (size 15 to 20)
#    0.000    0.364    4.545    2.727    7.636    2.182 
#    0.000    0.000    0.000    0.000    0.000    0.000 
#    0.000    0.000    0.000    0.000    0.000    0.000 
#
# Total GULP energy -272657.617096 kJ/mol
# GULP energy per Si atom -12393.528050 kJ/mol
# Density = 2.542284 g / cm^3
# Si number density = 25.480832 Si / 1000 Ang^3
#
#
#
# Elastic Constant Matrix: (Units=GPa)
#
#
# Indices 1 2 3 4 5 6 
#
# 1 32.2811 -17.6502 5.9348 0.0000 0.6290 0.0000
# 2 -17.6502 121.5319 38.4609 0.0000 -7.4228 0.0000
# 3 5.9348 38.4609 166.7201 0.0000 3.3594 0.0000
# 4 0.0000 0.0000 0.0000 40.8435 0.0000 -10.2926
# 5 0.6290 -7.4228 3.3594 0.0000 40.0168 0.0000
# 6 0.0000 0.0000 0.0000 -10.2926 0.0000 14.1475
#
#
#
# Elastic Compliance Matrix: (Units=1/GPa)
#
#
# Indices 1 2 3 4 5 6 
#
# 1 0.034675 0.005910 -0.002613 0.000000 0.000771 0.000000
# 2 0.005910 0.010018 -0.002561 0.000000 0.001980 0.000000
# 3 -0.002613 -0.002561 0.006702 0.000000 -0.000997 0.000000
# 4 0.000000 0.000000 0.000000 0.029980 0.000000 0.021811
# 5 0.000771 0.001980 -0.000997 0.000000 0.025428 0.000000
# 6 0.000000 0.000000 0.000000 0.021811 0.000000 0.086552
#
#
# Mechanical properties :
#
#
# Convention : Reuss Voigt Hill
#
# Bulk Modulus (GPa) = 18.91595 41.55824 30.23710
# Shear Modulus (GPa) = 23.86559 38.58739 31.22649
#
# Velocity S-wave (km/s) = 3.06373 3.89571 3.50450
# Velocity P-wave (km/s) = 4.46710 6.04818 5.31674
#
# Compressibility (1/GPa) = 0.05286543
#
# Stress axis : x y z
#
# Youngs Moduli (GPa) = 28.83951 99.81892 149.20754
#
# Poissons Ratio (x) = -0.58992 0.38991
# Poissons Ratio (y) = -0.17044 0.38218
# Poissons Ratio (z) = 0.07536 0.25567
#
# Static dielectric constant tensor:
#      x y z
#    x 4.170070 0.000000 -0.083450 
#    y 0.000000 4.484220 0.000000 
#    z -0.083450 0.000000 4.604460 
# 
# 
# High freq. dielectric constant tensor:
#      x y z
#    x 1.982040 0.000000 -0.002400 
#    y 0.000000 2.043810 0.000000 
#    z -0.002400 0.000000 2.046740 
# 
# From -- ./inp_files/260344.got.cif
#   From: 2010.06.25/outbox.cif.g09.slc.cpg/sg15_131_cif.got.tgz:260344.got - 2010.06.28 07:06:18.
