data_PCOD8154411
_publ_section_title
;
Structure prediction by ZEFSAII (Michael W. Deem and Ramdas Pophale) SiO2 
 PCOD8154411
Probable space group: C 2/C
;
_chemical_formula_sum "Si O2"
_cell_formula_units_Z 40
_cell_length_a 8.645141
_cell_length_b 24.317165
_cell_length_c 7.547123
_cell_angle_alpha 90.000000
_cell_angle_beta 100.521784
_cell_angle_gamma 90.000000
_cell_volume 1559.918604
_symmetry_space_group_name_H-M "C 2/C"
_symmetry_group_IT_number 15
_symmetry_cell_setting 'monoclinic'
loop_
_space_group_symop_operation_xyz
x,y,z
-x,y,1/2-z
-x,-y,-z
x,-y,1/2+z
1/2+x,1/2+y,z
1/2-x,1/2+y,1/2-z
1/2-x,1/2-y,-z
1/2+x,1/2-y,1/2+z
loop_
_atom_site_type_symbol
_atom_site_label
_atom_site_fract_x
_atom_site_fract_y
_atom_site_fract_z
Si Si1 0.821928 0.082901 0.018190
Si Si2 0.370275 0.413190 0.072510
Si Si3 0.685449 0.987764 0.803132
Si Si4 0.680247 0.190991 0.464883
Si Si5 0.830452 0.693491 0.452577
O O1 0.742897 0.054917 0.169605
O O2 0.758944 0.144129 0.968857
O O3 0.011807 0.084775 0.075482
O O4 0.764809 0.048629 0.826606
O O5 0.500000 0.424158 0.250000
O O6 0.238044 0.460663 0.006294
O O7 0.290219 0.354157 0.080384
O O8 0.500000 0.993040 0.750000
O O9 0.750000 0.250000 0.500000
O O10 0.515234 0.192208 0.536124
O O11 0.675052 0.179838 0.256047
O O12 0.750000 0.750000 0.500000
#
# Coordination Sequence:
#
# PCOD8154411 Si02
#       5
#     8   8   8   8   8
#     4  12  26  47  77 111 156 203 262 322 399 464
#     4  12  27  48  77 113 157 207 261 325 394 467
#     4  12  26  50  77 111 155 206 263 327 393 471
#     4  11  26  48  78 110 157 201 258 325 388 470
#     4  11  26  50  80 114 153 203 262 324 394 467
#
# _framework density 25.642363
#
# number of rings (size 3 to 8) (size 9 to 14) (size 15 to 20)
#    0.000    0.400    2.000    5.400    5.600    4.000 
#    0.000    0.000    0.000    0.000    0.000    0.000 
#    0.000    0.000    0.000    0.000    0.000    0.000 
#
# Total GULP energy -247932.639084 kJ/mol
# GULP energy per Si atom -12396.631954 kJ/mol
# Density = 2.558400 g / cm^3
# Si number density = 25.642363 Si / 1000 Ang^3
#
#
#
# Elastic Constant Matrix: (Units=GPa)
#
#
# Indices 1 2 3 4 5 6 
#
# 1 210.5117 87.3087 18.5757 0.0000 33.5096 0.0000
# 2 87.3087 218.9435 15.8113 0.0000 25.6526 0.0000
# 3 18.5757 15.8113 61.8720 0.0000 15.5963 0.0000
# 4 0.0000 0.0000 0.0000 29.5078 0.0000 10.9629
# 5 33.5096 25.6526 15.5963 0.0000 37.6512 0.0000
# 6 0.0000 0.0000 0.0000 10.9629 0.0000 55.1851
#
#
#
# Elastic Compliance Matrix: (Units=1/GPa)
#
#
# Indices 1 2 3 4 5 6 
#
# 1 0.006254 -0.001993 -0.000343 0.000000 -0.004066 0.000000
# 2 -0.001993 0.005611 -0.000356 0.000000 -0.001901 0.000000
# 3 -0.000343 -0.000356 0.018109 0.000000 -0.006953 0.000000
# 4 0.000000 0.000000 0.000000 0.036590 0.000000 -0.007269
# 5 -0.004066 -0.001901 -0.006953 0.000000 0.034354 0.000000
# 6 0.000000 0.000000 0.000000 -0.007269 0.000000 0.019565
#
#
# Mechanical properties :
#
#
# Convention : Reuss Voigt Hill
#
# Bulk Modulus (GPa) = 40.66803 81.63540 61.15171
# Shear Modulus (GPa) = 37.29537 49.11092 43.20315
#
# Velocity S-wave (km/s) = 3.81785 4.38108 4.10913
# Velocity P-wave (km/s) = 5.94380 7.58268 6.81270
#
# Compressibility (1/GPa) = 0.02458934
#
# Stress axis : x y z
#
# Youngs Moduli (GPa) = 159.88572 178.23435 55.22045
#
# Poissons Ratio (x) = 0.35520 0.01897
# Poissons Ratio (y) = 0.31863 0.01967
# Poissons Ratio (z) = 0.05491 0.06348
#
# Static dielectric constant tensor:
#      x y z
#    x 5.300990 0.000000 -0.295850 
#    y 0.000000 4.683500 0.000000 
#    z -0.295850 0.000000 4.947820 
# 
# 
# High freq. dielectric constant tensor:
#      x y z
#    x 2.047360 0.000000 -0.009870 
#    y 0.000000 2.035610 0.000000 
#    z -0.009870 0.000000 2.050720 
# 
# From -- ./inp_files/23744.got.cif
#   From: 2010.06.25/outbox.cif.g09.slc.cpg/sg15_12_cif.got.tgz:23744.got - 2010.06.28 07:06:18.
