data_PCOD8154206
_publ_section_title
;
Structure prediction by ZEFSAII (Michael W. Deem and Ramdas Pophale) SiO2 
 PCOD8154206
Probable space group: C 2/C
;
_chemical_formula_sum "Si O2"
_cell_formula_units_Z 52
_cell_length_a 28.145767
_cell_length_b 11.151190
_cell_length_c 9.226862
_cell_angle_alpha 90.000000
_cell_angle_beta 56.537167
_cell_angle_gamma 90.000000
_cell_volume 2415.912799
_symmetry_space_group_name_H-M "C 2/C"
_symmetry_group_IT_number 15
_symmetry_cell_setting 'monoclinic'
loop_
_space_group_symop_operation_xyz
x,y,z
-x,y,1/2-z
-x,-y,-z
x,-y,1/2+z
1/2+x,1/2+y,z
1/2-x,1/2+y,1/2-z
1/2-x,1/2-y,-z
1/2+x,1/2-y,1/2+z
loop_
_atom_site_type_symbol
_atom_site_label
_atom_site_fract_x
_atom_site_fract_y
_atom_site_fract_z
Si Si1 0.112848 0.017560 0.451548
Si Si2 0.000000 0.900149 0.750000
Si Si3 0.305842 0.894695 0.877591
Si Si4 0.461324 0.057060 0.443641
Si Si5 0.860989 0.588490 0.986572
Si Si6 0.585637 0.730622 0.300005
Si Si7 0.324733 0.375578 0.379228
O O1 0.117366 0.123632 0.327547
O O2 0.143913 0.054783 0.545580
O O3 0.144586 0.904517 0.325039
O O4 0.047646 0.984450 0.596674
O O5 0.972818 0.815669 0.673035
O O6 0.313663 0.900094 0.690672
O O7 0.327110 0.766874 0.902504
O O8 0.342557 0.995843 0.893759
O O9 0.240186 0.918815 0.021939
O O10 0.500000 0.108098 0.250000
O O11 0.425996 0.167663 0.563184
O O12 0.500000 0.000000 0.500000
O O13 0.420404 0.953111 0.454695
O O14 0.871795 0.717907 0.894505
#
# Coordination Sequence:
#
# PCOD8154206 Si02
#       7
#     8   4   8   8   8   8   8
#     4  12  26  48  69 104 138 185 231 284 340 419
#     4  12  26  46  68 102 144 182 232 274 344 414
#     4  11  25  46  75 100 136 183 229 294 342 410
#     4  12  23  40  64 100 141 179 225 276 341 409
#     4  12  23  46  68 106 139 177 231 287 351 408
#     4  12  25  41  71 100 136 184 223 283 343 410
#     4  11  26  48  71 102 137 181 237 284 347 401
#
# _framework density 21.523955000000001
#
# number of rings (size 3 to 8) (size 9 to 14) (size 15 to 20)
#    0.000    0.308    4.615    4.154    1.077    1.231 
#    0.000    1.538    0.000    0.000    0.000    0.000 
#    0.000    0.000    0.000    0.000    0.000    0.000 
#
# Total GULP energy -322579.278645 kJ/mol
# GULP energy per Si atom -12406.895332 kJ/mol
# Density = 2.147497 g / cm^3
# Si number density = 21.523955 Si / 1000 Ang^3
#
#
#
# Elastic Constant Matrix: (Units=GPa)
#
#
# Indices 1 2 3 4 5 6 
#
# 1 96.2323 45.9823 45.5908 0.0000 -0.7737 0.0000
# 2 45.9823 83.7998 40.5508 0.0000 -3.0740 0.0000
# 3 45.5908 40.5508 150.4639 0.0000 -5.3112 0.0000
# 4 0.0000 0.0000 0.0000 48.4838 0.0000 3.6589
# 5 -0.7737 -3.0740 -5.3112 0.0000 37.9503 0.0000
# 6 0.0000 0.0000 0.0000 3.6589 0.0000 37.1766
#
#
#
# Elastic Compliance Matrix: (Units=1/GPa)
#
#
# Indices 1 2 3 4 5 6 
#
# 1 0.014977 -0.006939 -0.002690 0.000000 -0.000633 0.000000
# 2 -0.006939 0.016952 -0.002434 0.000000 0.000891 0.000000
# 3 -0.002690 -0.002434 0.008149 0.000000 0.000888 0.000000
# 4 0.000000 0.000000 0.000000 0.020780 0.000000 -0.002045
# 5 -0.000633 0.000891 0.000888 0.000000 0.026534 0.000000
# 6 0.000000 0.000000 0.000000 -0.002045 0.000000 0.027100
#
#
# Mechanical properties :
#
#
# Convention : Reuss Voigt Hill
#
# Bulk Modulus (GPa) = 62.69958 66.08266 64.39112
# Shear Modulus (GPa) = 34.73787 37.94694 36.34241
#
# Velocity S-wave (km/s) = 4.02172 4.20338 4.11355
# Velocity P-wave (km/s) = 7.12453 7.37064 7.24863
#
# Compressibility (1/GPa) = 0.01594907
#
# Stress axis : x y z
#
# Youngs Moduli (GPa) = 66.77016 58.99106 122.71929
#
# Poissons Ratio (x) = 0.40937 0.33013
# Poissons Ratio (y) = 0.46335 0.29876
# Poissons Ratio (z) = 0.17962 0.14361
#
# Static dielectric constant tensor:
#      x y z
#    x 3.817970 0.000000 0.097910 
#    y 0.000000 4.150800 0.000000 
#    z 0.097910 0.000000 4.406670 
# 
# 
# High freq. dielectric constant tensor:
#      x y z
#    x 1.843760 0.000000 0.006890 
#    y 0.000000 1.853450 0.000000 
#    z 0.006890 0.000000 1.864320 
# 
# From -- ./inp_files/65358.got.cif
#   From: 2010.06.25/outbox.cif.g09.slc.cpg/sg15_33_cif.got.tgz:65358.got - 2010.06.28 07:06:18.
