data_PCOD8154890
_publ_section_title
;
Structure prediction by ZEFSAII (Michael W. Deem and Ramdas Pophale) SiO2 
 PCOD8154890
Probable space group: C 2/C
;
_chemical_formula_sum "Si O2"
_cell_formula_units_Z 48
_cell_length_a 6.467539
_cell_length_b 28.273493
_cell_length_c 13.686448
_cell_angle_alpha 90.000000
_cell_angle_beta 126.160506
_cell_angle_gamma 90.000000
_cell_volume 2020.600189
_symmetry_space_group_name_H-M "C 2/C"
_symmetry_group_IT_number 15
_symmetry_cell_setting 'monoclinic'
loop_
_space_group_symop_operation_xyz
x,y,z
-x,y,1/2-z
-x,-y,-z
x,-y,1/2+z
1/2+x,1/2+y,z
1/2-x,1/2+y,1/2-z
1/2-x,1/2-y,-z
1/2+x,1/2-y,1/2+z
loop_
_atom_site_type_symbol
_atom_site_label
_atom_site_fract_x
_atom_site_fract_y
_atom_site_fract_z
Si Si1 0.431819 0.068581 0.588561
Si Si2 0.000000 0.098477 0.750000
Si Si3 0.000000 0.492200 0.750000
Si Si4 0.083183 0.673974 0.377493
Si Si5 0.883004 0.152947 0.906990
Si Si6 0.759755 0.245842 0.120441
Si Si7 0.284318 0.080162 0.334194
O O1 0.335199 0.025908 0.631159
O O2 0.338529 0.057032 0.454348
O O3 0.741465 0.067599 0.680767
O O4 0.320360 0.118532 0.596355
O O5 0.015553 0.130445 0.850055
O O6 0.192940 0.459759 0.742316
O O7 0.987264 0.712750 0.428327
O O8 0.979518 0.622117 0.371548
O O9 0.000000 0.693308 0.250000
O O10 0.388973 0.668221 0.456826
O O11 0.750379 0.201475 0.837771
O O12 0.000000 0.223468 0.250000
O O13 0.750000 0.250000 0.000000
O O14 0.000000 0.100989 0.250000
#
# Coordination Sequence:
#
# PCOD8154890 Si02
#       7
#     8   4   4   8   8   8   8
#     4  12  26  50  75 107 148 193 247 319 370 447
#     4  12  24  46  77 106 144 197 244 304 376 434
#     4  12  28  48  71 114 144 195 256 310 384 444
#     4  12  25  48  73 110 154 199 245 310 379 449
#     4  12  26  46  79 108 150 196 256 302 379 447
#     4  12  27  46  75 114 154 198 256 308 375 455
#     4  12  27  48  75 105 149 200 249 308 383 449
#
# _framework density 23.755319
#
# number of rings (size 3 to 8) (size 9 to 14) (size 15 to 20)
#    0.000    0.000    4.167    5.500    4.667    0.667 
#    0.000    0.000    0.000    0.000    0.000    0.000 
#    0.000    0.000    0.000    0.000    0.000    0.000 
#
# Total GULP energy -297601.755932 kJ/mol
# GULP energy per Si atom -12400.073164 kJ/mol
# Density = 2.370125 g / cm^3
# Si number density = 23.755319 Si / 1000 Ang^3
#
#
#
# Elastic Constant Matrix: (Units=GPa)
#
#
# Indices 1 2 3 4 5 6 
#
# 1 108.3421 44.4402 52.3605 0.0000 0.7908 0.0000
# 2 44.4402 125.2703 9.2626 0.0000 -7.5013 0.0000
# 3 52.3605 9.2626 133.0667 0.0000 -7.3865 0.0000
# 4 0.0000 0.0000 0.0000 26.8660 0.0000 -3.1452
# 5 0.7908 -7.5013 -7.3865 0.0000 58.2210 0.0000
# 6 0.0000 0.0000 0.0000 -3.1452 0.0000 22.4083
#
#
#
# Elastic Compliance Matrix: (Units=1/GPa)
#
#
# Indices 1 2 3 4 5 6 
#
# 1 0.013557 -0.004517 -0.005099 0.000000 -0.001413 0.000000
# 2 -0.004517 0.009584 0.001191 0.000000 0.001447 0.000000
# 3 -0.005099 0.001191 0.009518 0.000000 0.001430 0.000000
# 4 0.000000 0.000000 0.000000 0.037844 0.000000 0.005312
# 5 -0.001413 0.001447 0.001430 0.000000 0.017563 0.000000
# 6 0.000000 0.000000 0.000000 0.005312 0.000000 0.045372
#
#
# Mechanical properties :
#
#
# Convention : Reuss Voigt Hill
#
# Bulk Modulus (GPa) = 63.25641 64.31175 63.78408
# Shear Modulus (GPa) = 32.14249 38.87346 35.50797
#
# Velocity S-wave (km/s) = 3.68239 4.04965 3.87038
# Velocity P-wave (km/s) = 6.69075 6.99982 6.84703
#
# Compressibility (1/GPa) = 0.01580867
#
# Stress axis : x y z
#
# Youngs Moduli (GPa) = 73.76084 104.34242 105.06603
#
# Poissons Ratio (x) = 0.47133 0.53570
# Poissons Ratio (y) = 0.33319 -0.12510
# Poissons Ratio (z) = 0.37608 -0.12424
#
# Static dielectric constant tensor:
#      x y z
#    x 4.434690 0.000000 -0.172760 
#    y 0.000000 4.263890 0.000000 
#    z -0.172760 0.000000 4.454820 
# 
# 
# High freq. dielectric constant tensor:
#      x y z
#    x 1.945080 0.000000 -0.008530 
#    y 0.000000 1.945880 0.000000 
#    z -0.008530 0.000000 1.953410 
# 
# From -- ./inp_files/130967.got.cif
#   From: 2010.06.25/outbox.cif.g09.slc.cpg/sg15_66_cif.got.tgz:130967.got - 2010.06.28 07:06:18.
