data_PCOD8154220
_publ_section_title
;
Structure prediction by ZEFSAII (Michael W. Deem and Ramdas Pophale) SiO2 
 PCOD8154220
Probable space group: C 2/C
;
_chemical_formula_sum "Si O2"
_cell_formula_units_Z 36
_cell_length_a 20.834336
_cell_length_b 6.620955
_cell_length_c 22.637793
_cell_angle_alpha 90.000000
_cell_angle_beta 148.752487
_cell_angle_gamma 90.000000
_cell_volume 1619.872744
_symmetry_space_group_name_H-M "C 2/C"
_symmetry_group_IT_number 15
_symmetry_cell_setting 'monoclinic'
loop_
_space_group_symop_operation_xyz
x,y,z
-x,y,1/2-z
-x,-y,-z
x,-y,1/2+z
1/2+x,1/2+y,z
1/2-x,1/2+y,1/2-z
1/2-x,1/2-y,-z
1/2+x,1/2-y,1/2+z
loop_
_atom_site_type_symbol
_atom_site_label
_atom_site_fract_x
_atom_site_fract_y
_atom_site_fract_z
Si Si1 0.080060 0.204078 0.550870
Si Si2 0.186115 0.627831 0.832346
Si Si3 0.500000 0.422800 0.750000
Si Si4 0.349506 0.347038 0.037941
Si Si5 0.011666 0.540948 0.103974
O O1 0.226801 0.192567 0.653715
O O2 0.020508 0.321561 0.448107
O O3 0.087808 0.336252 0.615681
O O4 0.000000 0.000000 0.500000
O O5 0.116107 0.794870 0.816642
O O6 0.084087 0.482905 0.722742
O O7 0.284241 0.523857 0.951707
O O8 0.539746 0.561619 0.836122
O O9 0.392425 0.174972 0.025982
O O10 0.250000 0.250000 0.000000
#
# Coordination Sequence:
#
# PCOD8154220 Si02
#       5
#     8   8   4   8   8
#     4  11  25  47  67 103 141 183 233 293 352 425
#     4  12  25  43  72  98 143 182 234 291 359 420
#     4  12  26  44  72 106 140 188 242 294 360 428
#     4  12  24  45  69 101 144 182 237 296 352 425
#     4  11  26  43  71 103 137 183 238 283 357 421
#
# _framework density 22.223970000000001
#
# number of rings (size 3 to 8) (size 9 to 14) (size 15 to 20)
#    0.000    0.444    2.222    6.000    3.111    0.000 
#    0.000    0.000    0.000    0.000    0.000    0.000 
#    0.000    0.000    0.000    0.000    0.000    0.000 
#
# Total GULP energy -223122.837167 kJ/mol
# GULP energy per Si atom -12395.713176 kJ/mol
# Density = 2.217339 g / cm^3
# Si number density = 22.223970 Si / 1000 Ang^3
#
#
#
# Elastic Constant Matrix: (Units=GPa)
#
#
# Indices 1 2 3 4 5 6 
#
# 1 147.0989 52.5169 14.0109 0.0000 21.4408 0.0003
# 2 52.5169 126.0832 42.6146 0.0001 3.4834 0.0017
# 3 14.0109 42.6146 96.2692 0.0001 -13.7783 0.0001
# 4 0.0000 0.0001 0.0001 40.3692 0.0000 4.7620
# 5 21.4408 3.4834 -13.7783 0.0000 46.7892 0.0000
# 6 0.0003 0.0017 0.0001 4.7620 0.0000 54.9762
#
#
#
# Elastic Compliance Matrix: (Units=1/GPa)
#
#
# Indices 1 2 3 4 5 6 
#
# 1 0.008578 -0.003369 -0.000296 0.000000 -0.003767 0.000000
# 2 -0.003369 0.010831 -0.004384 0.000000 -0.000554 0.000000
# 3 -0.000296 -0.004384 0.012985 0.000000 0.004286 0.000000
# 4 0.000000 0.000000 0.000000 0.025027 0.000000 -0.002168
# 5 -0.003767 -0.000554 0.004286 0.000000 0.024402 0.000000
# 6 0.000000 0.000000 0.000000 -0.002168 0.000000 0.018377
#
#
# Mechanical properties :
#
#
# Convention : Reuss Voigt Hill
#
# Bulk Modulus (GPa) = 61.36269 65.30403 63.33336
# Shear Modulus (GPa) = 41.07437 45.78084 43.42760
#
# Velocity S-wave (km/s) = 4.30374 4.54362 4.42530
# Velocity P-wave (km/s) = 7.23652 7.54813 7.39396
#
# Compressibility (1/GPa) = 0.01629655
#
# Stress axis : x y z
#
# Youngs Moduli (GPa) = 116.57423 92.32482 77.01488
#
# Poissons Ratio (x) = 0.31102 0.02283
# Poissons Ratio (y) = 0.39271 0.33760
# Poissons Ratio (z) = 0.03456 0.40471
#
# Static dielectric constant tensor:
#      x y z
#    x 4.194850 0.000000 0.131560 
#    y 0.000000 3.661400 0.000000 
#    z 0.131560 0.000000 3.753670 
# 
# 
# High freq. dielectric constant tensor:
#      x y z
#    x 1.906290 0.000000 -0.001800 
#    y 0.000000 1.881060 0.000000 
#    z -0.001800 0.000000 1.873620 
# 
# From -- ./inp_files/115613.got.cif
#   From: 2010.06.25/outbox.cif.g09.slc.cpg/sg15_58_cif.got.tgz:115613.got - 2010.06.28 07:06:18.
