data_PCOD8154700
_publ_section_title
;
Structure prediction by ZEFSAII (Michael W. Deem and Ramdas Pophale) SiO2 
 PCOD8154700
Probable space group: C 2/C
;
_chemical_formula_sum "Si O2"
_cell_formula_units_Z 64
_cell_length_a 28.354594
_cell_length_b 21.982975
_cell_length_c 8.909914
_cell_angle_alpha 90.000000
_cell_angle_beta 149.069143
_cell_angle_gamma 90.000000
_cell_volume 2854.626633
_symmetry_space_group_name_H-M "C 2/C"
_symmetry_group_IT_number 15
_symmetry_cell_setting 'monoclinic'
loop_
_space_group_symop_operation_xyz
x,y,z
-x,y,1/2-z
-x,-y,-z
x,-y,1/2+z
1/2+x,1/2+y,z
1/2-x,1/2+y,1/2-z
1/2-x,1/2-y,-z
1/2+x,1/2-y,1/2+z
loop_
_atom_site_type_symbol
_atom_site_label
_atom_site_fract_x
_atom_site_fract_y
_atom_site_fract_z
Si Si1 0.732552 0.930809 0.473726
Si Si2 0.601678 0.826530 0.243138
Si Si3 0.598132 0.838928 0.741769
Si Si4 0.850498 0.750650 0.344187
Si Si5 0.094233 0.123528 0.915636
Si Si6 0.270899 0.943631 0.394380
Si Si7 0.156832 0.254308 0.151626
Si Si8 0.402633 0.387013 0.428656
O O1 0.671318 0.875278 0.364433
O O2 0.728331 0.939900 0.283561
O O3 0.696756 0.990351 0.462663
O O4 0.837303 0.918971 0.804940
O O5 0.652483 0.787523 0.510436
O O6 0.578659 0.775124 0.055994
O O7 0.505320 0.860463 0.006177
O O8 0.580106 0.787539 0.568563
O O9 0.654314 0.896597 0.834777
O O10 0.662111 0.808343 0.043988
O O11 0.887198 0.819186 0.452881
O O12 0.750000 0.750000 0.000000
O O13 0.093566 0.103942 0.740178
O O14 0.000000 0.118298 0.750000
O O15 0.129238 0.192173 0.999914
O O16 0.173426 0.930008 0.204725
O O17 0.250000 0.250000 0.500000
O O18 0.500000 0.411114 0.750000
#
# Coordination Sequence:
#
# PCOD8154700 Si02
#       8
#     8   8   8   8   8   8   8   8
#     4  12  28  49  71 100 133 191 242 298 351 418
#     4  12  26  43  71 104 148 185 238 288 355 420
#     4  12  24  45  68 107 144 188 228 293 350 422
#     4  12  24  42  70 107 148 185 228 284 357 424
#     4  12  25  45  74 107 144 182 232 288 357 428
#     4  12  28  48  73  97 138 185 245 293 354 415
#     4  12  23  41  70 106 143 184 227 287 351 422
#     4  12  26  45  72 108 145 182 229 292 357 429
#
# _framework density 22.419744000000001
#
# number of rings (size 3 to 8) (size 9 to 14) (size 15 to 20)
#    0.000    0.000    5.000    5.250    5.250    1.000 
#    0.000    2.500    0.000    0.000    0.000    0.000 
#    0.000    0.000    0.000    0.000    0.000    0.000 
#
# Total GULP energy -396672.088473 kJ/mol
# GULP energy per Si atom -12396.002765 kJ/mol
# Density = 2.236872 g / cm^3
# Si number density = 22.419744 Si / 1000 Ang^3
#
#
#
# Elastic Constant Matrix: (Units=GPa)
#
#
# Indices 1 2 3 4 5 6 
#
# 1 124.9945 29.3459 19.6638 0.0000 -14.3266 0.0000
# 2 29.3459 81.9184 19.7199 0.0000 -8.1208 0.0000
# 3 19.6638 19.7199 70.6663 0.0000 -0.1923 0.0000
# 4 0.0000 0.0000 0.0000 14.5060 0.0000 -11.1641
# 5 -14.3266 -8.1208 -0.1923 0.0000 45.0017 0.0000
# 6 0.0000 0.0000 0.0000 -11.1641 0.0000 36.0778
#
#
#
# Elastic Compliance Matrix: (Units=1/GPa)
#
#
# Indices 1 2 3 4 5 6 
#
# 1 0.009179 -0.002608 -0.001820 0.000000 0.002444 0.000000
# 2 -0.002608 0.014080 -0.003199 0.000000 0.001697 0.000000
# 3 -0.001820 -0.003199 0.015547 0.000000 -0.001090 0.000000
# 4 0.000000 0.000000 0.000000 0.090487 0.000000 0.028001
# 5 0.002444 0.001697 -0.001090 0.000000 0.023301 0.000000
# 6 0.000000 0.000000 0.000000 0.028001 0.000000 0.036383
#
#
# Mechanical properties :
#
#
# Convention : Reuss Voigt Hill
#
# Bulk Modulus (GPa) = 42.45749 46.11538 44.28644
# Shear Modulus (GPa) = 23.57599 33.04040 28.30820
#
# Velocity S-wave (km/s) = 3.24631 3.84307 3.55723
# Velocity P-wave (km/s) = 5.74718 6.34870 6.05541
#
# Compressibility (1/GPa) = 0.02355297
#
# Stress axis : x y z
#
# Youngs Moduli (GPa) = 108.94411 71.02399 64.32085
#
# Poissons Ratio (x) = 0.18522 0.11705
# Poissons Ratio (y) = 0.28412 0.20575
# Poissons Ratio (z) = 0.19825 0.22719
#
# Static dielectric constant tensor:
#      x y z
#    x 4.509060 0.000000 -0.251370 
#    y 0.000000 4.148650 0.000000 
#    z -0.251370 0.000000 4.199300 
# 
# 
# High freq. dielectric constant tensor:
#      x y z
#    x 1.904930 0.000000 -0.002760 
#    y 0.000000 1.877910 0.000000 
#    z -0.002760 0.000000 1.891990 
# 
# From -- ./inp_files/70980.got.cif
#   From: 2010.06.25/outbox.cif.g09.slc.cpg/sg15_36_cif.got.tgz:70980.got - 2010.06.28 07:06:18.
