data_PCOD8154795
_publ_section_title
;
Structure prediction by ZEFSAII (Michael W. Deem and Ramdas Pophale) SiO2 
 PCOD8154795
Probable space group: C 2/C
;
_chemical_formula_sum "Si O2"
_cell_formula_units_Z 52
_cell_length_a 8.820605
_cell_length_b 16.188092
_cell_length_c 19.139077
_cell_angle_alpha 90.000000
_cell_angle_beta 120.796994
_cell_angle_gamma 90.000000
_cell_volume 2347.477820
_symmetry_space_group_name_H-M "C 2/C"
_symmetry_group_IT_number 15
_symmetry_cell_setting 'monoclinic'
loop_
_space_group_symop_operation_xyz
x,y,z
-x,y,1/2-z
-x,-y,-z
x,-y,1/2+z
1/2+x,1/2+y,z
1/2-x,1/2+y,1/2-z
1/2-x,1/2-y,-z
1/2+x,1/2-y,1/2+z
loop_
_atom_site_type_symbol
_atom_site_label
_atom_site_fract_x
_atom_site_fract_y
_atom_site_fract_z
Si Si1 0.000000 0.736404 0.250000
Si Si2 0.979836 0.019407 0.075883
Si Si3 0.604338 0.131689 0.143169
Si Si4 0.151154 0.674367 0.660260
Si Si5 0.352938 0.300389 0.583553
Si Si6 0.633830 0.073382 0.523186
Si Si7 0.677499 0.986541 0.251868
O O1 0.076545 0.682945 0.205809
O O2 0.157161 0.792525 0.314715
O O3 0.924863 0.114449 0.068988
O O4 0.159742 0.000540 0.158346
O O5 0.833540 0.958039 0.073200
O O6 0.000000 0.000000 0.000000
O O7 0.731346 0.181444 0.121398
O O8 0.413829 0.117267 0.061689
O O9 0.695055 0.044451 0.187089
O O10 0.081922 0.634633 0.572801
O O11 0.166516 0.608651 0.726549
O O12 0.016838 0.746568 0.650714
O O13 0.250000 0.250000 0.500000
O O14 0.500000 0.000000 0.500000
O O15 0.500000 0.012495 0.250000
#
# Coordination Sequence:
#
# PCOD8154795 Si02
#       7
#     4   8   8   8   8   8   8
#     4  12  30  46  68 116 146 196 242 322 376 438
#     4  12  28  47  79 110 150 205 263 301 379 468
#     4  12  26  50  76 103 156 195 251 306 382 457
#     4  12  27  47  74 109 150 190 253 311 386 439
#     4  12  27  48  76 116 151 199 250 319 388 452
#     4  12  23  49  76 104 144 197 247 307 366 456
#     4  12  27  48  76 107 148 204 258 309 373 460
#
# _framework density 22.151434999999999
#
# number of rings (size 3 to 8) (size 9 to 14) (size 15 to 20)
#    0.000    0.000    5.385    2.769    6.462    4.923 
#    0.000    0.000    0.000    0.000    0.000    0.000 
#    0.000    0.000    0.000    0.000    0.000    0.000 
#
# Total GULP energy -322534.795619 kJ/mol
# GULP energy per Si atom -12405.184447 kJ/mol
# Density = 2.210102 g / cm^3
# Si number density = 22.151435 Si / 1000 Ang^3
#
#
#
# Elastic Constant Matrix: (Units=GPa)
#
#
# Indices 1 2 3 4 5 6 
#
# 1 147.8284 63.5426 64.0369 0.0000 7.3118 0.0000
# 2 63.5426 138.1716 57.7088 0.0000 -4.0755 0.0000
# 3 64.0369 57.7088 150.5801 0.0000 9.3120 0.0000
# 4 0.0000 0.0000 0.0000 44.8097 0.0000 13.3783
# 5 7.3118 -4.0755 9.3120 0.0000 48.3172 0.0000
# 6 0.0000 0.0000 0.0000 13.3783 0.0000 18.2321
#
#
#
# Elastic Compliance Matrix: (Units=1/GPa)
#
#
# Indices 1 2 3 4 5 6 
#
# 1 0.009368 -0.003225 -0.002675 0.000000 -0.001174 0.000000
# 2 -0.003225 0.009819 -0.002503 0.000000 0.001799 0.000000
# 3 -0.002675 -0.002503 0.008831 0.000000 -0.001508 0.000000
# 4 0.000000 0.000000 0.000000 0.028577 0.000000 -0.020969
# 5 -0.001174 0.001799 -0.001508 0.000000 0.021317 0.000000
# 6 0.000000 0.000000 0.000000 -0.020969 0.000000 0.070235
#
#
# Mechanical properties :
#
#
# Convention : Reuss Voigt Hill
#
# Bulk Modulus (GPa) = 89.19394 89.68407 89.43901
# Shear Modulus (GPa) = 29.64009 39.02459 34.33234
#
# Velocity S-wave (km/s) = 3.66193 4.20184 3.94114
# Velocity P-wave (km/s) = 7.63103 8.00720 7.82138
#
# Compressibility (1/GPa) = 0.01121152
#
# Stress axis : x y z
#
# Youngs Moduli (GPa) = 106.74701 101.84323 113.23730
#
# Poissons Ratio (x) = 0.32849 0.30293
# Poissons Ratio (y) = 0.34431 0.28339
# Poissons Ratio (z) = 0.28556 0.25487
#
# Static dielectric constant tensor:
#      x y z
#    x 3.685570 0.000000 -0.598840 
#    y 0.000000 5.197830 0.000000 
#    z -0.598840 0.000000 3.175960 
# 
# 
# High freq. dielectric constant tensor:
#      x y z
#    x 1.876940 0.000000 0.003160 
#    y 0.000000 1.887880 0.000000 
#    z 0.003160 0.000000 1.890760 
# 
# From -- ./inp_files/191150.got.cif
#   From: 2010.06.25/outbox.cif.g09.slc.cpg/sg15_96_cif.got.tgz:191150.got - 2010.06.28 07:06:18.
