data_PCOD8154309
_publ_section_title
;
Structure prediction by ZEFSAII (Michael W. Deem and Ramdas Pophale) SiO2 
 PCOD8154309
Probable space group: C 2/C
;
_chemical_formula_sum "Si O2"
_cell_formula_units_Z 48
_cell_length_a 21.345651
_cell_length_b 16.861435
_cell_length_c 18.464398
_cell_angle_alpha 90.000000
_cell_angle_beta 161.195167
_cell_angle_gamma 90.000000
_cell_volume 2142.203691
_symmetry_space_group_name_H-M "C 2/C"
_symmetry_group_IT_number 15
_symmetry_cell_setting 'monoclinic'
loop_
_space_group_symop_operation_xyz
x,y,z
-x,y,1/2-z
-x,-y,-z
x,-y,1/2+z
1/2+x,1/2+y,z
1/2-x,1/2+y,1/2-z
1/2-x,1/2-y,-z
1/2+x,1/2-y,1/2+z
loop_
_atom_site_type_symbol
_atom_site_label
_atom_site_fract_x
_atom_site_fract_y
_atom_site_fract_z
Si Si1 0.780633 0.847938 0.306638
Si Si2 0.279790 0.342950 0.026882
Si Si3 0.210544 0.824518 0.786596
Si Si4 0.430456 0.899828 0.562549
Si Si5 0.947779 0.424901 0.332490
Si Si6 0.288768 0.342319 0.547359
O O1 0.741563 0.769641 0.312858
O O2 0.729810 0.922498 0.303697
O O3 0.005441 0.850954 0.528008
O O4 0.654654 0.848150 0.096065
O O5 0.500000 0.366316 0.250000
O O6 0.250000 0.250000 0.000000
O O7 0.211272 0.388401 0.023925
O O8 0.147661 0.369747 0.815263
O O9 0.219632 0.860724 0.877344
O O10 0.395197 0.868384 0.953700
O O11 0.448096 0.991377 0.561654
O O12 0.874764 0.391992 0.174859
O O13 0.500000 0.366116 0.750000
O O14 0.250000 0.250000 0.500000
#
# Coordination Sequence:
#
# PCOD8154309 Si02
#       6
#     8   8   8   8   8   8
#     4  12  25  45  68 104 148 194 244 284 362 445
#     4  11  25  50  79 107 131 184 250 298 363 428
#     4  12  24  40  71 103 139 197 243 287 356 429
#     4  11  29  46  75 110 145 184 235 316 368 422
#     4  12  26  45  68 107 151 186 240 306 360 419
#     4  12  21  39  68  99 142 192 246 288 336 431
#
# _framework density 22.406834
#
# number of rings (size 3 to 8) (size 9 to 14) (size 15 to 20)
#    0.000    0.333    6.667    2.000    7.000    4.000 
#    0.000    0.000    0.000    0.000    0.000    0.000 
#    0.000    0.000    0.000    0.000    0.000    0.000 
#
# Total GULP energy -297570.595473 kJ/mol
# GULP energy per Si atom -12398.774811 kJ/mol
# Density = 2.235583 g / cm^3
# Si number density = 22.406834 Si / 1000 Ang^3
#
#
#
# Elastic Constant Matrix: (Units=GPa)
#
#
# Indices 1 2 3 4 5 6 
#
# 1 59.0637 21.1650 54.0083 -0.0013 -7.6245 0.0109
# 2 21.1650 99.2481 39.6081 0.0393 8.1083 0.0395
# 3 54.0083 39.6081 179.0712 0.0092 1.8790 0.0203
# 4 -0.0013 0.0393 0.0092 30.6345 0.0042 -2.2353
# 5 -7.6245 8.1083 1.8790 0.0042 47.0320 0.0094
# 6 0.0109 0.0395 0.0203 -2.2353 0.0094 20.0538
#
#
#
# Elastic Compliance Matrix: (Units=1/GPa)
#
#
# Indices 1 2 3 4 5 6 
#
# 1 0.024939 -0.002951 -0.006920 0.000006 0.004828 -0.000002
# 2 -0.002951 0.011556 -0.001641 -0.000016 -0.002405 -0.000020
# 3 -0.006920 -0.001641 0.008046 0.000000 -0.001160 -0.000001
# 4 0.000006 -0.000016 0.000000 0.032911 0.000000 0.003668
# 5 0.004828 -0.002405 -0.001160 0.000000 0.022506 -0.000007
# 6 -0.000002 -0.000020 -0.000001 0.003668 -0.000007 0.050275
#
#
# Mechanical properties :
#
#
# Convention : Reuss Voigt Hill
#
# Bulk Modulus (GPa) = 46.47135 62.99397 54.73266
# Shear Modulus (GPa) = 27.71167 34.38415 31.04791
#
# Velocity S-wave (km/s) = 3.52056 3.92157 3.72646
# Velocity P-wave (km/s) = 6.10824 6.97708 6.55707
#
# Compressibility (1/GPa) = 0.02151864
#
# Stress axis : x y z
#
# Youngs Moduli (GPa) = 40.09782 86.53168 124.27912
#
# Poissons Ratio (x) = 0.25538 0.85995
# Poissons Ratio (y) = 0.11834 0.20391
# Poissons Ratio (z) = 0.27746 0.14198
#
# Static dielectric constant tensor:
#      x y z
#    x 4.359600 -0.005500 0.544290 
#    y -0.005500 4.077670 -0.012660 
#    z 0.544290 -0.012660 5.530100 
# 
# 
# High freq. dielectric constant tensor:
#      x y z
#    x 1.881440 -0.000010 0.009250 
#    y -0.000010 1.863460 -0.000010 
#    z 0.009250 -0.000010 1.905010 
# 
# From -- ./inp_files/216286.got.cif
#   From: 2010.06.25/outbox.cif.g09.slc.cpg/sg15_109_cif.got.tgz:216286.got - 2010.06.28 07:06:18.
