data_PCOD8154842
_publ_section_title
;
Structure prediction by ZEFSAII (Michael W. Deem and Ramdas Pophale) SiO2 
 PCOD8154842
Probable space group: C 2/C
;
_chemical_formula_sum "Si O2"
_cell_formula_units_Z 36
_cell_length_a 12.052385
_cell_length_b 31.594737
_cell_length_c 5.359158
_cell_angle_alpha 90.000000
_cell_angle_beta 130.149871
_cell_angle_gamma 90.000000
_cell_volume 1559.848838
_symmetry_space_group_name_H-M "C 2/C"
_symmetry_group_IT_number 15
_symmetry_cell_setting 'monoclinic'
loop_
_space_group_symop_operation_xyz
x,y,z
-x,y,1/2-z
-x,-y,-z
x,-y,1/2+z
1/2+x,1/2+y,z
1/2-x,1/2+y,1/2-z
1/2-x,1/2-y,-z
1/2+x,1/2-y,1/2+z
loop_
_atom_site_type_symbol
_atom_site_label
_atom_site_fract_x
_atom_site_fract_y
_atom_site_fract_z
Si Si1 0.000000 0.711226 0.250000
Si Si2 0.500000 0.376392 0.250000
Si Si3 0.271266 0.414865 0.577100
Si Si4 0.500000 0.733987 0.250000
Si Si5 0.500000 0.028026 0.750000
Si Si6 0.000000 0.026630 0.250000
Si Si7 0.215799 0.167687 0.699000
O O1 0.998660 0.738303 0.498835
O O2 0.144029 0.682296 0.442612
O O3 0.621505 0.407064 0.537368
O O4 0.421007 0.346340 0.333038
O O5 0.357893 0.444130 0.507719
O O6 0.227404 0.370145 0.393720
O O7 0.134470 0.440665 0.473462
O O8 0.648286 0.706444 0.443737
O O9 0.500000 0.000000 0.500000
O O10 0.000000 0.000000 0.500000
#
# Coordination Sequence:
#
# PCOD8154842 Si02
#       7
#     4   4   8   4   4   4   8
#     4  12  31  45  81 110 160 202 254 322 399 441
#     4  12  24  48  78 109 151 196 268 311 365 450
#     4  12  27  48  78 110 152 205 255 315 378 457
#     4  12  25  53  72 117 154 204 252 324 383 457
#     4  12  32  54  78 118 162 198 247 325 394 454
#     4  12  24  44  73 108 143 190 245 300 373 450
#     4  12  27  48  77 113 151 206 263 315 375 465
#
# _framework density 23.079160000000002
#
# number of rings (size 3 to 8) (size 9 to 14) (size 15 to 20)
#    0.000    0.000    4.444    4.000    9.333    0.000 
#    0.000    0.000    0.000    0.000    0.000    0.000 
#    0.000    0.000    0.000    0.000    0.000    0.000 
#
# Total GULP energy -223237.824680 kJ/mol
# GULP energy per Si atom -12402.101371 kJ/mol
# Density = 2.302663 g / cm^3
# Si number density = 23.079160 Si / 1000 Ang^3
#
#
#
# Elastic Constant Matrix: (Units=GPa)
#
#
# Indices 1 2 3 4 5 6 
#
# 1 123.1629 70.2144 71.5405 0.0000 12.0972 0.0000
# 2 70.2144 150.0188 90.1321 0.0000 2.4216 0.0000
# 3 71.5405 90.1321 175.7100 0.0000 5.3276 0.0000
# 4 0.0000 0.0000 0.0000 -311.3651 0.0000 -14.7549
# 5 12.0972 2.4216 5.3276 0.0000 57.7061 0.0000
# 6 0.0000 0.0000 0.0000 -14.7549 0.0000 39.0340
#
#
#
# Elastic Compliance Matrix: (Units=1/GPa)
#
#
# Indices 1 2 3 4 5 6 
#
# 1 0.012275 -0.003971 -0.002896 0.000000 -0.002139 0.000000
# 2 -0.003971 0.010920 -0.004007 0.000000 0.000744 0.000000
# 3 -0.002896 -0.004007 0.008927 0.000000 -0.000049 0.000000
# 4 0.000000 0.000000 0.000000 -0.003155 0.000000 -0.001193
# 5 -0.002139 0.000744 -0.000049 0.000000 0.017751 0.000000
# 6 0.000000 0.000000 0.000000 -0.001193 0.000000 0.025168
#
#
# Mechanical properties :
#
#
# Convention : Reuss Voigt Hill
#
# Bulk Modulus (GPa) = 96.39328 101.40729 98.90029
# Shear Modulus (GPa) = 51.49683 -28.45801 11.51941
#
# Velocity S-wave (km/s) = 4.72880 -3.51531 2.23654
# Velocity P-wave (km/s) = 8.46596 5.24955 7.04380
#
# Compressibility (1/GPa) = 0.01037417
#
# Stress axis : x y z
#
# Youngs Moduli (GPa) = 81.46315 91.57589 112.01352
#
# Poissons Ratio (x) = 0.36363 0.32442
# Poissons Ratio (y) = 0.32347 0.44888
# Poissons Ratio (z) = 0.23594 0.36697
#
# Static dielectric constant tensor:
#      x y z
#    x 4.135340 0.000000 0.042910 
#    y 0.000000 4.605790 0.000000 
#    z 0.042910 0.000000 4.444470 
# 
# 
# High freq. dielectric constant tensor:
#      x y z
#    x 1.913370 0.000000 0.006040 
#    y 0.000000 1.936330 0.000000 
#    z 0.006040 0.000000 1.922280 
# 
# From -- ./inp_files/5668.got.cif
#   From: 2010.06.25/outbox.cif.g09.slc.cpg/sg15_3_cif.got.tgz:5668.got - 2010.06.28 07:06:18.
