data_PCOD8154047
_publ_section_title
;
Structure prediction by ZEFSAII (Michael W. Deem and Ramdas Pophale) SiO2 
 PCOD8154047
Probable space group: C 2/C
;
_chemical_formula_sum "Si O2"
_cell_formula_units_Z 40
_cell_length_a 14.691029
_cell_length_b 23.862625
_cell_length_c 9.198275
_cell_angle_alpha 90.000000
_cell_angle_beta 34.393950
_cell_angle_gamma 90.000000
_cell_volume 1821.515721
_symmetry_space_group_name_H-M "C 2/C"
_symmetry_group_IT_number 15
_symmetry_cell_setting 'monoclinic'
loop_
_space_group_symop_operation_xyz
x,y,z
-x,y,1/2-z
-x,-y,-z
x,-y,1/2+z
1/2+x,1/2+y,z
1/2-x,1/2+y,1/2-z
1/2-x,1/2-y,-z
1/2+x,1/2-y,1/2+z
loop_
_atom_site_type_symbol
_atom_site_label
_atom_site_fract_x
_atom_site_fract_y
_atom_site_fract_z
Si Si1 0.390118 0.527867 0.764383
Si Si2 0.652741 0.885428 0.450825
Si Si3 0.813695 0.216644 0.644072
Si Si4 0.678492 0.683436 0.191057
Si Si5 0.832131 0.574677 0.894457
O O1 0.500000 0.549870 0.750000
O O2 0.500000 0.500000 0.500000
O O3 0.305828 0.582145 0.810639
O O4 0.262031 0.483341 0.994636
O O5 0.692012 0.818661 0.406099
O O6 0.625240 0.903790 0.321778
O O7 0.500000 0.899122 0.750000
O O8 0.779221 0.283913 0.686918
O O9 0.768485 0.200848 0.539276
O O10 0.991469 0.198613 0.458349
O O11 0.723015 0.617505 0.136609
O O12 0.000000 0.562869 0.750000
#
# Coordination Sequence:
#
# PCOD8154047 Si02
#       5
#     8   8   8   8   8
#     4  12  25  44  70 100 135 176 226 280 339 401
#     4  11  25  44  65  98 143 178 218 280 338 401
#     4   9  19  37  62  96 125 169 216 275 330 386
#     4   9  19  35  66  93 127 162 224 276 323 387
#     4  11  25  41  68 102 133 177 229 273 334 403
#
# _framework density 21.959734999999998
#
# number of rings (size 3 to 8) (size 9 to 14) (size 15 to 20)
#    0.000    1.600    2.000    1.800   14.000    1.600 
#    0.000    1.000    0.000    0.000    0.000    0.000 
#    0.000    0.000    0.000    0.000    0.000    0.000 
#
# Total GULP energy -247884.951054 kJ/mol
# GULP energy per Si atom -12394.247553 kJ/mol
# Density = 2.190975 g / cm^3
# Si number density = 21.959735 Si / 1000 Ang^3
#
#
#
# Elastic Constant Matrix: (Units=GPa)
#
#
# Indices 1 2 3 4 5 6 
#
# 1 106.4530 24.5532 44.6380 0.0002 -20.8706 -0.0004
# 2 24.5532 89.9999 15.9700 0.0001 -6.7126 -0.0002
# 3 44.6380 15.9700 99.0622 0.0005 -5.5996 -0.0007
# 4 0.0002 0.0001 0.0005 23.9287 -0.0004 2.4117
# 5 -20.8706 -6.7126 -5.5996 -0.0004 30.1308 0.0006
# 6 -0.0004 -0.0002 -0.0007 2.4117 0.0006 24.7302
#
#
#
# Elastic Compliance Matrix: (Units=1/GPa)
#
#
# Indices 1 2 3 4 5 6 
#
# 1 0.013727 -0.002192 -0.005379 0.000000 0.008020 0.000000
# 2 -0.002192 0.011939 -0.000881 0.000000 0.000977 0.000000
# 3 -0.005379 -0.000881 0.012571 0.000000 -0.001586 0.000000
# 4 0.000000 0.000000 0.000000 0.042206 0.000001 -0.004116
# 5 0.008020 0.000977 -0.001586 0.000001 0.038667 -0.000001
# 6 0.000000 0.000000 0.000000 -0.004116 -0.000001 0.040838
#
#
# Mechanical properties :
#
#
# Convention : Reuss Voigt Hill
#
# Bulk Modulus (GPa) = 46.87930 51.75974 49.31952
# Shear Modulus (GPa) = 27.17933 29.78152 28.48042
#
# Velocity S-wave (km/s) = 3.52190 3.68664 3.60521
# Velocity P-wave (km/s) = 6.15894 6.46090 6.31173
#
# Compressibility (1/GPa) = 0.02133137
#
# Stress axis : x y z
#
# Youngs Moduli (GPa) = 72.84701 83.76228 79.54897
#
# Poissons Ratio (x) = 0.18364 0.42788
# Poissons Ratio (y) = 0.15971 0.07012
# Poissons Ratio (z) = 0.39183 0.07384
#
# Static dielectric constant tensor:
#      x y z
#    x 4.250440 0.000000 0.238190 
#    y 0.000000 4.430730 0.000000 
#    z 0.238190 0.000000 3.981140 
# 
# 
# High freq. dielectric constant tensor:
#      x y z
#    x 1.857220 0.000000 -0.018400 
#    y 0.000000 1.870070 0.000000 
#    z -0.018400 0.000000 1.849710 
# 
# From -- ./inp_files/41962.got.cif
#   From: 2010.06.25/outbox.cif.g09.slc.cpg/sg15_21_cif.got.tgz:41962.got - 2010.06.28 07:06:18.
