data_PCOD8154027
_publ_section_title
;
Structure prediction by ZEFSAII (Michael W. Deem and Ramdas Pophale) SiO2 
 PCOD8154027
Probable space group: C 2/C
;
_chemical_formula_sum "Si O2"
_cell_formula_units_Z 48
_cell_length_a 14.061699
_cell_length_b 6.131558
_cell_length_c 26.750136
_cell_angle_alpha 90.000000
_cell_angle_beta 124.952629
_cell_angle_gamma 90.000000
_cell_volume 1890.385387
_symmetry_space_group_name_H-M "C 2/C"
_symmetry_group_IT_number 15
_symmetry_cell_setting 'monoclinic'
loop_
_space_group_symop_operation_xyz
x,y,z
-x,y,1/2-z
-x,-y,-z
x,-y,1/2+z
1/2+x,1/2+y,z
1/2-x,1/2+y,1/2-z
1/2-x,1/2-y,-z
1/2+x,1/2-y,1/2+z
loop_
_atom_site_type_symbol
_atom_site_label
_atom_site_fract_x
_atom_site_fract_y
_atom_site_fract_z
Si Si1 0.410793 0.567481 0.429897
Si Si2 0.623336 0.818795 0.730142
Si Si3 0.490499 0.869322 0.125397
Si Si4 0.295462 0.196573 0.067202
Si Si5 0.427780 0.491826 0.674127
Si Si6 0.262564 0.809395 0.185551
O O1 0.500000 0.500000 0.500000
O O2 0.474540 0.740847 0.413689
O O3 0.306650 0.693115 0.424111
O O4 0.353866 0.363131 0.382454
O O5 0.531058 0.648531 0.726147
O O6 0.735008 0.708973 0.737023
O O7 0.575996 0.936299 0.665431
O O8 0.657230 0.969415 0.788478
O O9 0.494940 0.719692 0.175683
O O10 0.360500 0.965297 0.081759
O O11 0.374884 0.395105 0.109422
O O12 0.250000 0.250000 0.000000
O O13 0.331459 0.403990 0.685268
#
# Coordination Sequence:
#
# PCOD8154027 Si02
#       6
#     8   8   8   8   8   8
#     4  12  26  45  78 111 151 202 251 315 390 458
#     4  11  27  51  77 112 150 201 258 319 391 465
#     4  11  24  49  73 112 150 195 265 312 379 464
#     4  11  26  45  74 110 151 206 254 311 384 460
#     4  11  25  50  77 109 152 198 252 323 386 463
#     4  12  26  52  77 115 154 200 259 324 390 464
#
# _framework density 25.391649000000001
#
# number of rings (size 3 to 8) (size 9 to 14) (size 15 to 20)
#    0.000    0.667    3.333    3.000    4.667    2.667 
#    6.000    0.000    0.000    0.000    0.000    0.000 
#    0.000    0.000    0.000    0.000    0.000    0.000 
#
# Total GULP energy -297442.934865 kJ/mol
# GULP energy per Si atom -12393.455619 kJ/mol
# Density = 2.533386 g / cm^3
# Si number density = 25.391649 Si / 1000 Ang^3
#
#
#
# Elastic Constant Matrix: (Units=GPa)
#
#
# Indices 1 2 3 4 5 6 
#
# 1 150.3167 56.6528 44.3276 0.0000 -15.3476 0.0000
# 2 56.6528 119.5559 57.8320 0.0000 5.6308 0.0000
# 3 44.3276 57.8320 132.6216 0.0000 6.5148 0.0000
# 4 0.0000 0.0000 0.0000 37.0717 0.0000 -8.1386
# 5 -15.3476 5.6308 6.5148 0.0000 44.0478 0.0000
# 6 0.0000 0.0000 0.0000 -8.1386 0.0000 56.3558
#
#
#
# Elastic Compliance Matrix: (Units=1/GPa)
#
#
# Indices 1 2 3 4 5 6 
#
# 1 0.008867 -0.003620 -0.001571 0.000000 0.003784 0.000000
# 2 -0.003620 0.012098 -0.003957 0.000000 -0.002223 0.000000
# 3 -0.001571 -0.003957 0.009864 0.000000 -0.001501 0.000000
# 4 0.000000 0.000000 0.000000 0.027858 0.000000 0.004023
# 5 0.003784 -0.002223 -0.001501 0.000000 0.024527 0.000000
# 6 0.000000 0.000000 0.000000 0.004023 0.000000 0.018325
#
#
# Mechanical properties :
#
#
# Convention : Reuss Voigt Hill
#
# Bulk Modulus (GPa) = 79.78058 80.01321 79.89690
# Shear Modulus (GPa) = 40.31852 43.74053 42.02952
#
# Velocity S-wave (km/s) = 3.98913 4.15497 4.07289
# Velocity P-wave (km/s) = 7.25987 7.38907 7.32476
#
# Compressibility (1/GPa) = 0.01253438
#
# Stress axis : x y z
#
# Youngs Moduli (GPa) = 112.78314 82.65752 101.37503
#
# Poissons Ratio (x) = 0.29921 0.15926
# Poissons Ratio (y) = 0.40826 0.40109
# Poissons Ratio (z) = 0.17718 0.32704
#
# Static dielectric constant tensor:
#      x y z
#    x 4.742570 0.000000 0.275260 
#    y 0.000000 4.955400 0.000000 
#    z 0.275260 0.000000 4.363970 
# 
# 
# High freq. dielectric constant tensor:
#      x y z
#    x 2.037890 0.000000 -0.003400 
#    y 0.000000 2.021890 0.000000 
#    z -0.003400 0.000000 2.019600 
# 
# From -- ./inp_files/312449.got.cif
#   From: 2010.06.25/outbox.cif.g09.slc.cpg/sg15_157_cif.got.tgz:312449.got - 2010.06.28 07:06:18.
