data_PCOD8154868
_publ_section_title
;
Structure prediction by ZEFSAII (Michael W. Deem and Ramdas Pophale) SiO2 
 PCOD8154868
Probable space group: C 2/C
;
_chemical_formula_sum "Si O2"
_cell_formula_units_Z 32
_cell_length_a 15.446587
_cell_length_b 9.515350
_cell_length_c 9.793262
_cell_angle_alpha 90.000000
_cell_angle_beta 84.295777
_cell_angle_gamma 90.000000
_cell_volume 1432.282925
_symmetry_space_group_name_H-M "C 2/C"
_symmetry_group_IT_number 15
_symmetry_cell_setting 'monoclinic'
loop_
_space_group_symop_operation_xyz
x,y,z
-x,y,1/2-z
-x,-y,-z
x,-y,1/2+z
1/2+x,1/2+y,z
1/2-x,1/2+y,1/2-z
1/2-x,1/2-y,-z
1/2+x,1/2-y,1/2+z
loop_
_atom_site_type_symbol
_atom_site_label
_atom_site_fract_x
_atom_site_fract_y
_atom_site_fract_z
Si Si1 0.840044 0.333723 0.510201
Si Si2 0.313458 0.730012 0.114483
Si Si3 0.699690 0.995039 0.724985
Si Si4 0.999890 0.860898 0.589369
O O1 0.750000 0.250000 0.500000
O O2 0.852812 0.393546 0.662427
O O3 0.846928 0.474909 0.413734
O O4 0.916923 0.229338 0.462209
O O5 0.293146 0.578327 0.185660
O O6 0.415311 0.732090 0.063428
O O7 0.284593 0.850266 0.221910
O O8 0.250000 0.750000 0.000000
O O9 0.000000 0.897421 0.750000
O O10 0.000000 0.000000 0.500000
#
# Coordination Sequence:
#
# PCOD8154868 Si02
#       4
#     8   8   8   8
#     4  12  25  47  75 108 149 194 245 308 366 442
#     4  12  27  46  75 111 147 195 247 303 376 441
#     4  12  24  45  77 103 149 192 244 297 375 429
#     4  12  28  49  76 110 149 195 253 306 372 450
#
# _framework density 22.341954000000001
#
# number of rings (size 3 to 8) (size 9 to 14) (size 15 to 20)
#    0.000    0.000    7.500    1.500    3.500    1.000 
#    4.500    0.000    0.000    0.000    0.000    0.000 
#    0.000    0.000    0.000    0.000    0.000    0.000 
#
# Total GULP energy -198304.399387 kJ/mol
# GULP energy per Si atom -12394.024962 kJ/mol
# Density = 2.229110 g / cm^3
# Si number density = 22.341954 Si / 1000 Ang^3
#
#
#
# Elastic Constant Matrix: (Units=GPa)
#
#
# Indices 1 2 3 4 5 6 
#
# 1 162.9593 67.5854 62.6671 0.0000 -21.5664 0.0000
# 2 67.5854 136.5927 46.7171 0.0000 -25.0867 0.0000
# 3 62.6671 46.7171 135.5593 0.0000 -9.4992 0.0000
# 4 0.0000 0.0000 0.0000 55.6340 0.0000 7.1936
# 5 -21.5664 -25.0867 -9.4992 0.0000 27.9155 0.0000
# 6 0.0000 0.0000 0.0000 7.1936 0.0000 38.4198
#
#
#
# Elastic Compliance Matrix: (Units=1/GPa)
#
#
# Indices 1 2 3 4 5 6 
#
# 1 0.008844 -0.002767 -0.002899 0.000000 0.003359 0.000000
# 2 -0.002767 0.010572 -0.001893 0.000000 0.006718 0.000000
# 3 -0.002899 -0.001893 0.009316 0.000000 -0.000771 0.000000
# 4 0.000000 0.000000 0.000000 0.018421 0.000000 -0.003449
# 5 0.003359 0.006718 -0.000771 0.000000 0.044192 0.000000
# 6 0.000000 0.000000 0.000000 -0.003449 0.000000 0.026674
#
#
# Mechanical properties :
#
#
# Convention : Reuss Voigt Hill
#
# Bulk Modulus (GPa) = 73.46815 87.67226 80.57021
# Shear Modulus (GPa) = 36.31756 41.60329 38.96042
#
# Velocity S-wave (km/s) = 4.03616 4.31990 4.18044
# Velocity P-wave (km/s) = 7.39430 8.01301 7.70987
#
# Compressibility (1/GPa) = 0.01361134
#
# Stress axis : x y z
#
# Youngs Moduli (GPa) = 113.07557 94.59227 107.34778
#
# Poissons Ratio (x) = 0.26177 0.31123
# Poissons Ratio (y) = 0.31292 0.20323
# Poissons Ratio (z) = 0.32783 0.17908
#
# Static dielectric constant tensor:
#      x y z
#    x 4.017380 0.000000 -0.090120 
#    y 0.000000 4.409210 0.000000 
#    z -0.090120 0.000000 4.204320 
# 
# 
# High freq. dielectric constant tensor:
#      x y z
#    x 1.858080 0.000000 0.000610 
#    y 0.000000 1.897500 0.000000 
#    z 0.000610 0.000000 1.907640 
# 
# From -- ./inp_files/93412.got.cif
#   From: 2010.06.25/outbox.cif.g09.slc.cpg/sg15_47_cif.got.tgz:93412.got - 2010.06.28 07:06:18.
