data_PCOD8154019
_publ_section_title
;
Structure prediction by ZEFSAII (Michael W. Deem and Ramdas Pophale) SiO2 
 PCOD8154019
Probable space group: C 2/C
;
_chemical_formula_sum "Si O2"
_cell_formula_units_Z 44
_cell_length_a 8.536846
_cell_length_b 14.264431
_cell_length_c 18.882807
_cell_angle_alpha 90.000000
_cell_angle_beta 54.921817
_cell_angle_gamma 90.000000
_cell_volume 1881.773791
_symmetry_space_group_name_H-M "C 2/C"
_symmetry_group_IT_number 15
_symmetry_cell_setting 'monoclinic'
loop_
_space_group_symop_operation_xyz
x,y,z
-x,y,1/2-z
-x,-y,-z
x,-y,1/2+z
1/2+x,1/2+y,z
1/2-x,1/2+y,1/2-z
1/2-x,1/2-y,-z
1/2+x,1/2-y,1/2+z
loop_
_atom_site_type_symbol
_atom_site_label
_atom_site_fract_x
_atom_site_fract_y
_atom_site_fract_z
Si Si1 0.500000 0.625743 0.750000
Si Si2 0.415555 0.414113 0.119050
Si Si3 0.978958 0.600279 0.042667
Si Si4 0.734213 0.420879 0.919641
Si Si5 0.630444 0.772114 0.386940
Si Si6 0.663615 0.739045 0.150282
O O1 0.518788 0.564772 0.817028
O O2 0.687938 0.689475 0.701783
O O3 0.257744 0.488530 0.133423
O O4 0.328468 0.309744 0.134607
O O5 0.600017 0.432016 0.022996
O O6 0.762214 0.639744 0.103804
O O7 0.053650 0.594305 0.104135
O O8 0.000000 0.500000 0.000000
O O9 0.108399 0.674795 0.966755
O O10 0.662856 0.337028 0.889862
O O11 0.436316 0.785217 0.392343
O O12 0.500000 0.718865 0.250000
#
# Coordination Sequence:
#
# PCOD8154019 Si02
#       6
#     4   8   8   8   8   8
#     4  12  24  46  72 108 148 192 242 314 364 424
#     4  11  24  48  75 107 146 189 245 303 367 440
#     4  12  26  47  74 104 142 195 248 296 366 442
#     4  11  25  46  77 104 141 197 245 295 367 450
#     4  12  25  45  74 104 148 191 242 304 363 438
#     4  12  26  47  72 106 149 189 243 307 370 428
#
# _framework density 23.382193999999998
#
# number of rings (size 3 to 8) (size 9 to 14) (size 15 to 20)
#    0.000    0.364    5.455    3.273    5.091    0.000 
#    8.182    0.000    0.000    0.000    0.000    0.000 
#    0.000    0.000    0.000    0.000    0.000    0.000 
#
# Total GULP energy -272859.198682 kJ/mol
# GULP energy per Si atom -12402.690849 kJ/mol
# Density = 2.332897 g / cm^3
# Si number density = 23.382194 Si / 1000 Ang^3
#
#
#
# Elastic Constant Matrix: (Units=GPa)
#
#
# Indices 1 2 3 4 5 6 
#
# 1 138.3630 35.7585 36.6544 0.0000 21.9787 -0.0001
# 2 35.7585 123.8792 44.1364 0.0000 3.2590 0.0000
# 3 36.6544 44.1364 104.1134 -0.0007 8.7869 0.0003
# 4 0.0000 0.0000 -0.0007 19.3928 0.0001 7.5157
# 5 21.9787 3.2590 8.7869 0.0001 47.4468 0.0000
# 6 -0.0001 0.0000 0.0003 7.5157 0.0000 36.1440
#
#
#
# Elastic Compliance Matrix: (Units=1/GPa)
#
#
# Indices 1 2 3 4 5 6 
#
# 1 0.008783 -0.001704 -0.002068 0.000000 -0.003568 0.000000
# 2 -0.001704 0.009840 -0.003638 0.000000 0.000787 0.000000
# 3 -0.002068 -0.003638 0.011960 0.000001 -0.001007 0.000000
# 4 0.000000 0.000000 0.000001 0.056085 0.000000 -0.011662
# 5 -0.003568 0.000787 -0.001007 0.000000 0.022862 0.000000
# 6 0.000000 0.000000 0.000000 -0.011662 0.000000 0.030092
#
#
# Mechanical properties :
#
#
# Convention : Reuss Voigt Hill
#
# Bulk Modulus (GPa) = 63.44511 66.60603 65.02557
# Shear Modulus (GPa) = 31.30945 37.25047 34.27996
#
# Velocity S-wave (km/s) = 3.66325 3.99571 3.83308
# Velocity P-wave (km/s) = 6.71456 7.05941 6.88914
#
# Compressibility (1/GPa) = 0.01576166
#
# Stress axis : x y z
#
# Youngs Moduli (GPa) = 113.86181 101.62906 83.61052
#
# Poissons Ratio (x) = 0.17321 0.17294
# Poissons Ratio (y) = 0.19406 0.30415
# Poissons Ratio (z) = 0.23551 0.36970
#
# Static dielectric constant tensor:
#      x y z
#    x 4.562320 0.000000 -0.092740 
#    y 0.000000 4.127790 0.000000 
#    z -0.092740 0.000000 4.383170 
# 
# 
# High freq. dielectric constant tensor:
#      x y z
#    x 1.940880 0.000000 0.008760 
#    y 0.000000 1.918320 0.000000 
#    z 0.008760 0.000000 1.921500 
# 
# From -- ./inp_files/189172.got.cif
#   From: 2010.06.25/outbox.cif.g09.slc.cpg/sg15_95_cif.got.tgz:189172.got - 2010.06.28 07:06:18.
