data_PCOD8154265
_publ_section_title
;
Structure prediction by ZEFSAII (Michael W. Deem and Ramdas Pophale) SiO2 
 PCOD8154265
Probable space group: C 2/C
;
_chemical_formula_sum "Si O2"
_cell_formula_units_Z 48
_cell_length_a 8.898115
_cell_length_b 10.377539
_cell_length_c 26.001311
_cell_angle_alpha 90.000000
_cell_angle_beta 64.709850
_cell_angle_gamma 90.000000
_cell_volume 2170.855947
_symmetry_space_group_name_H-M "C 2/C"
_symmetry_group_IT_number 15
_symmetry_cell_setting 'monoclinic'
loop_
_space_group_symop_operation_xyz
x,y,z
-x,y,1/2-z
-x,-y,-z
x,-y,1/2+z
1/2+x,1/2+y,z
1/2-x,1/2+y,1/2-z
1/2-x,1/2-y,-z
1/2+x,1/2-y,1/2+z
loop_
_atom_site_type_symbol
_atom_site_label
_atom_site_fract_x
_atom_site_fract_y
_atom_site_fract_z
Si Si1 0.192719 0.353600 0.210346
Si Si2 0.239665 0.731595 0.587979
Si Si3 0.694163 0.854431 0.729146
Si Si4 0.691384 0.479224 0.962031
Si Si5 0.434885 0.860221 0.000304
Si Si6 0.603567 0.304001 0.893716
O O1 0.226737 0.330543 0.145660
O O2 0.277126 0.228262 0.223844
O O3 0.261410 0.495490 0.219452
O O4 0.000000 0.346906 0.250000
O O5 0.212317 0.615059 0.550509
O O6 0.422267 0.788186 0.552906
O O7 0.088050 0.828396 0.596818
O O8 0.500000 0.861197 0.750000
O O9 0.785780 0.768388 0.671859
O O10 0.768530 0.373166 0.989306
O O11 0.691539 0.431247 0.902915
O O12 0.500000 0.500000 0.000000
O O13 0.386961 0.799638 0.061840
O O14 0.500000 0.000000 0.000000
#
# Coordination Sequence:
#
# PCOD8154265 Si02
#       6
#     8   8   8   8   8   8
#     4  11  25  48  72 100 140 188 236 298 353 417
#     4  12  25  45  73  99 142 187 233 289 359 423
#     4  11  27  46  73 103 141 185 243 294 354 421
#     4  12  25  44  69 103 143 184 231 288 354 424
#     4  12  26  43  72 108 143 183 234 286 357 426
#     4  12  24  46  69 102 140 185 232 289 351 425
#
# _framework density 22.111091999999999
#
# number of rings (size 3 to 8) (size 9 to 14) (size 15 to 20)
#    0.000    0.333    6.667    2.000    2.333    2.000 
#    3.000    0.000    0.000    0.000    0.000    0.000 
#    0.000    0.000    0.000    0.000    0.000    0.000 
#
# Total GULP energy -297354.775748 kJ/mol
# GULP energy per Si atom -12389.782323 kJ/mol
# Density = 2.206077 g / cm^3
# Si number density = 22.111092 Si / 1000 Ang^3
#
#
#
# Elastic Constant Matrix: (Units=GPa)
#
#
# Indices 1 2 3 4 5 6 
#
# 1 113.3718 41.4706 21.8433 0.0000 -0.9071 0.0000
# 2 41.4706 119.0714 31.4538 0.0000 4.6300 0.0000
# 3 21.8433 31.4538 93.2707 0.0000 -8.3410 0.0000
# 4 0.0000 0.0000 0.0000 28.4034 0.0000 7.6105
# 5 -0.9071 4.6300 -8.3410 0.0000 31.0875 0.0000
# 6 0.0000 0.0000 0.0000 7.6105 0.0000 75.4668
#
#
#
# Elastic Compliance Matrix: (Units=1/GPa)
#
#
# Indices 1 2 3 4 5 6 
#
# 1 0.010259 -0.003256 -0.001265 0.000000 0.000445 0.000000
# 2 -0.003256 0.010411 -0.002967 0.000000 -0.002442 0.000000
# 3 -0.001265 -0.002967 0.012351 0.000000 0.003719 0.000000
# 4 0.000000 0.000000 0.000000 0.036185 0.000000 -0.003649
# 5 0.000445 -0.002442 0.003719 0.000000 0.033542 0.000000
# 6 0.000000 0.000000 0.000000 -0.003649 0.000000 0.013619
#
#
# Mechanical properties :
#
#
# Convention : Reuss Voigt Hill
#
# Bulk Modulus (GPa) = 55.41569 57.24993 56.33281
# Shear Modulus (GPa) = 36.40171 42.38794 39.39483
#
# Velocity S-wave (km/s) = 4.06188 4.38316 4.22557
# Velocity P-wave (km/s) = 6.86406 7.18082 7.02423
#
# Compressibility (1/GPa) = 0.01804543
#
# Stress axis : x y z
#
# Youngs Moduli (GPa) = 97.47674 96.05197 80.96727
#
# Poissons Ratio (x) = 0.31277 0.10240
# Poissons Ratio (y) = 0.31741 0.24020
# Poissons Ratio (z) = 0.12327 0.28496
#
# Static dielectric constant tensor:
#      x y z
#    x -1.609200 0.000000 -10.935020 
#    y 0.000000 4.540400 0.000000 
#    z -10.935020 0.000000 -16.622140 
# 
# 
# High freq. dielectric constant tensor:
#      x y z
#    x 1.871330 0.000000 -0.000550 
#    y 0.000000 1.881350 0.000000 
#    z -0.000550 0.000000 1.880770 
# 
# From -- ./inp_files/263181.got.cif
#   From: 2010.06.25/outbox.cif.g09.slc.cpg/sg15_132_cif.got.tgz:263181.got - 2010.06.28 07:06:18.
