data_PCOD8154281
_publ_section_title
;
Structure prediction by ZEFSAII (Michael W. Deem and Ramdas Pophale) SiO2 
 PCOD8154281
Probable space group: C 2/C
;
_chemical_formula_sum "Si O2"
_cell_formula_units_Z 44
_cell_length_a 11.122021
_cell_length_b 14.126475
_cell_length_c 12.676451
_cell_angle_alpha 90.000000
_cell_angle_beta 98.940661
_cell_angle_gamma 90.000000
_cell_volume 1967.460966
_symmetry_space_group_name_H-M "C 2/C"
_symmetry_group_IT_number 15
_symmetry_cell_setting 'monoclinic'
loop_
_space_group_symop_operation_xyz
x,y,z
-x,y,1/2-z
-x,-y,-z
x,-y,1/2+z
1/2+x,1/2+y,z
1/2-x,1/2+y,1/2-z
1/2-x,1/2-y,-z
1/2+x,1/2-y,1/2+z
loop_
_atom_site_type_symbol
_atom_site_label
_atom_site_fract_x
_atom_site_fract_y
_atom_site_fract_z
Si Si1 0.500000 0.386797 0.750000
Si Si2 0.316378 0.848047 0.493136
Si Si3 0.047092 0.745937 0.935781
Si Si4 0.221002 0.028151 0.799809
Si Si5 0.137928 0.629127 0.267719
Si Si6 0.287702 0.302418 0.354692
O O1 0.480996 0.321959 0.851189
O O2 0.615479 0.451173 0.788768
O O3 0.250000 0.750000 0.500000
O O4 0.448148 0.831929 0.457469
O O5 0.235238 0.918491 0.412275
O O6 0.323448 0.895124 0.608245
O O7 0.155786 0.691660 0.891073
O O8 0.102797 0.795927 0.046720
O O9 0.189348 0.101766 0.704467
O O10 0.344099 0.968523 0.794064
O O11 0.215710 0.713622 0.225742
O O12 0.000000 0.663466 0.250000
#
# Coordination Sequence:
#
# PCOD8154281 Si02
#       6
#     4   8   8   8   8   8
#     4  12  26  46  70 110 146 188 260 304 360 442
#     4  12  26  46  76 105 144 196 243 298 370 432
#     4  11  25  48  76  99 148 195 245 302 369 443
#     4  12  29  44  74 107 149 190 248 303 373 425
#     4  12  26  49  73 110 149 186 251 301 360 450
#     4  11  25  49  73 106 144 199 237 307 373 437
#
# _framework density 22.363848999999998
#
# number of rings (size 3 to 8) (size 9 to 14) (size 15 to 20)
#    0.000    0.364    5.455    2.182    8.909    1.455 
#    0.000    0.000    0.000    0.000    0.000    0.000 
#    0.000    0.000    0.000    0.000    0.000    0.000 
#
# Total GULP energy -272903.933997 kJ/mol
# GULP energy per Si atom -12404.724273 kJ/mol
# Density = 2.231295 g / cm^3
# Si number density = 22.363849 Si / 1000 Ang^3
#
#
#
# Elastic Constant Matrix: (Units=GPa)
#
#
# Indices 1 2 3 4 5 6 
#
# 1 70.7266 8.5751 33.7753 0.0000 6.2738 0.0000
# 2 8.5751 94.9851 40.9730 0.0000 -3.1266 0.0000
# 3 33.7753 40.9730 138.7732 0.0000 -2.7796 0.0000
# 4 0.0000 0.0000 0.0000 45.1594 0.0000 3.5268
# 5 6.2738 -3.1266 -2.7796 0.0000 29.6622 0.0000
# 6 0.0000 0.0000 0.0000 3.5268 0.0000 36.3754
#
#
#
# Elastic Compliance Matrix: (Units=1/GPa)
#
#
# Indices 1 2 3 4 5 6 
#
# 1 0.016430 0.000170 -0.004126 0.000000 -0.003844 0.000000
# 2 0.000170 0.012092 -0.003594 0.000000 0.000902 0.000000
# 3 -0.004126 -0.003594 0.009299 0.000000 0.001365 0.000000
# 4 0.000000 0.000000 0.000000 0.022313 0.000000 -0.002163
# 5 -0.003844 0.000902 0.001365 0.000000 0.034749 0.000000
# 6 0.000000 0.000000 0.000000 -0.002163 0.000000 0.027701
#
#
# Mechanical properties :
#
#
# Convention : Reuss Voigt Hill
#
# Bulk Modulus (GPa) = 44.01103 52.34795 48.17949
# Shear Modulus (GPa) = 34.42197 36.98350 35.70273
#
# Velocity S-wave (km/s) = 3.92749 4.07100 3.99989
# Velocity P-wave (km/s) = 6.34738 6.74949 6.55152
#
# Compressibility (1/GPa) = 0.02272158
#
# Stress axis : x y z
#
# Youngs Moduli (GPa) = 60.86573 82.69613 107.54366
#
# Poissons Ratio (x) = -0.01406 0.44371
# Poissons Ratio (y) = -0.01035 0.38647
# Poissons Ratio (z) = 0.25113 0.29718
#
# Static dielectric constant tensor:
#      x y z
#    x 4.111270 0.000000 -0.117890 
#    y 0.000000 3.917550 0.000000 
#    z -0.117890 0.000000 4.561200 
# 
# 
# High freq. dielectric constant tensor:
#      x y z
#    x 1.889100 0.000000 -0.001650 
#    y 0.000000 1.876050 0.000000 
#    z -0.001650 0.000000 1.899420 
# 
# From -- ./inp_files/86183.got.cif
#   From: 2010.06.25/outbox.cif.g09.slc.cpg/sg15_44_cif.got.tgz:86183.got - 2010.06.28 07:06:18.
