data_PCOD8154514
_publ_section_title
;
Structure prediction by ZEFSAII (Michael W. Deem and Ramdas Pophale) SiO2 
 PCOD8154514
Probable space group: C 2/C
;
_chemical_formula_sum "Si O2"
_cell_formula_units_Z 48
_cell_length_a 11.148648
_cell_length_b 11.426683
_cell_length_c 20.852429
_cell_angle_alpha 90.000000
_cell_angle_beta 72.193596
_cell_angle_gamma 90.000000
_cell_volume 2529.178133
_symmetry_space_group_name_H-M "C 2/C"
_symmetry_group_IT_number 15
_symmetry_cell_setting 'monoclinic'
loop_
_space_group_symop_operation_xyz
x,y,z
-x,y,1/2-z
-x,-y,-z
x,-y,1/2+z
1/2+x,1/2+y,z
1/2-x,1/2+y,1/2-z
1/2-x,1/2-y,-z
1/2+x,1/2-y,1/2+z
loop_
_atom_site_type_symbol
_atom_site_label
_atom_site_fract_x
_atom_site_fract_y
_atom_site_fract_z
Si Si1 0.004191 0.737742 0.048287
Si Si2 0.644831 0.710201 0.402992
Si Si3 0.678407 0.959512 0.546796
Si Si4 0.680479 0.407520 0.098369
Si Si5 0.966556 0.121542 0.328472
Si Si6 0.228327 0.288388 0.075488
O O1 0.041715 0.604077 0.062127
O O2 0.092007 0.824323 0.072334
O O3 0.862451 0.772864 0.089068
O O4 0.027701 0.752782 0.967852
O O5 0.730709 0.622027 0.427674
O O6 0.727280 0.826805 0.372495
O O7 0.593291 0.642894 0.349053
O O8 0.736253 0.981546 0.466200
O O9 0.670459 0.081269 0.585488
O O10 0.593560 0.492525 0.154721
O O11 0.866159 0.215212 0.366973
O O12 0.000000 0.143146 0.250000
O O13 0.250000 0.250000 0.000000
#
# Coordination Sequence:
#
# PCOD8154514 Si02
#       6
#     8   8   8   8   8   8
#     4   9  18  34  63  91 107 134 191 246 291 339
#     4   9  18  37  61  86 113 140 189 242 283 344
#     4   9  18  34  63  90 108 138 188 249 292 329
#     4   9  18  37  62  85 108 146 186 241 296 335
#     4  12  25  39  52  81 122 158 190 230 289 354
#     4  12  21  33  56  84 118 153 184 235 297 344
#
# _framework density 18.978497000000001
#
# number of rings (size 3 to 8) (size 9 to 14) (size 15 to 20)
#    0.000    2.000    3.333    3.000    0.000    4.667 
#    6.000    0.000    0.000    0.000    0.000    0.000 
#    0.000    0.000    0.000    0.000    0.000    0.000 
#
# Total GULP energy -297462.385918 kJ/mol
# GULP energy per Si atom -12394.266080 kJ/mol
# Density = 1.893530 g / cm^3
# Si number density = 18.978497 Si / 1000 Ang^3
#
#
#
# Elastic Constant Matrix: (Units=GPa)
#
#
# Indices 1 2 3 4 5 6 
#
# 1 31.9458 35.8963 23.3433 0.0000 3.9210 0.0000
# 2 35.8963 120.4075 42.5489 0.0000 -5.8676 0.0000
# 3 23.3433 42.5489 96.9757 0.0000 -1.5272 0.0000
# 4 0.0000 0.0000 0.0000 19.3898 0.0000 -5.9237
# 5 3.9210 -5.8676 -1.5272 0.0000 15.4226 0.0000
# 6 0.0000 0.0000 0.0000 -5.9237 0.0000 30.2808
#
#
#
# Elastic Compliance Matrix: (Units=1/GPa)
#
#
# Indices 1 2 3 4 5 6 
#
# 1 0.056223 -0.015240 -0.007175 0.000000 -0.020803 0.000000
# 2 -0.015240 0.014133 -0.002390 0.000000 0.009015 0.000000
# 3 -0.007175 -0.002390 0.013123 0.000000 0.002214 0.000000
# 4 0.000000 0.000000 0.000000 0.054852 0.000000 0.010730
# 5 -0.020803 0.009015 0.002214 0.000000 0.073778 0.000000
# 6 0.000000 0.000000 0.000000 0.010730 0.000000 0.035123
#
#
# Mechanical properties :
#
#
# Convention : Reuss Voigt Hill
#
# Bulk Modulus (GPa) = 29.52583 50.32288 39.92436
# Shear Modulus (GPa) = 16.22687 22.85466 19.54077
#
# Velocity S-wave (km/s) = 2.92723 3.47398 3.21226
# Velocity P-wave (km/s) = 5.19771 6.53182 5.90258
#
# Compressibility (1/GPa) = 0.03386865
#
# Stress axis : x y z
#
# Youngs Moduli (GPa) = 17.78616 70.75887 76.20483
#
# Poissons Ratio (x) = 1.07836 0.54674
# Poissons Ratio (y) = 0.27106 0.18216
# Poissons Ratio (z) = 0.12761 0.16914
#
# Static dielectric constant tensor:
#      x y z
#    x 4.159870 0.000000 -0.405220 
#    y 0.000000 4.396180 0.000000 
#    z -0.405220 0.000000 4.338960 
# 
# 
# High freq. dielectric constant tensor:
#      x y z
#    x 1.753420 0.000000 0.005640 
#    y 0.000000 1.751580 0.000000 
#    z 0.005640 0.000000 1.678680 
# 
# From -- ./inp_files/195984.got.cif
#   From: 2010.06.25/outbox.cif.g09.slc.cpg/sg15_98_cif.got.tgz:195984.got - 2010.06.28 07:06:18.
