data_PCOD8154084
_publ_section_title
;
Structure prediction by ZEFSAII (Michael W. Deem and Ramdas Pophale) SiO2 
 PCOD8154084
Probable space group: C 2/C
;
_chemical_formula_sum "Si O2"
_cell_formula_units_Z 60
_cell_length_a 25.667062
_cell_length_b 9.097202
_cell_length_c 10.955648
_cell_angle_alpha 90.000000
_cell_angle_beta 99.365442
_cell_angle_gamma 90.000000
_cell_volume 2524.028231
_symmetry_space_group_name_H-M "C 2/C"
_symmetry_group_IT_number 15
_symmetry_cell_setting 'monoclinic'
loop_
_space_group_symop_operation_xyz
x,y,z
-x,y,1/2-z
-x,-y,-z
x,-y,1/2+z
1/2+x,1/2+y,z
1/2-x,1/2+y,1/2-z
1/2-x,1/2-y,-z
1/2+x,1/2-y,1/2+z
loop_
_atom_site_type_symbol
_atom_site_label
_atom_site_fract_x
_atom_site_fract_y
_atom_site_fract_z
Si Si1 0.337981 0.823678 0.673122
Si Si2 0.674282 0.923713 0.158688
Si Si3 0.313620 0.408122 0.801835
Si Si4 0.019551 0.263284 0.478855
Si Si5 0.076554 0.556174 0.473390
Si Si6 0.500000 0.568630 0.250000
Si Si7 0.590883 0.584536 0.682610
Si Si8 0.229443 0.925807 0.452501
O O1 0.386155 0.895568 0.620709
O O2 0.365540 0.704662 0.768965
O O3 0.292226 0.742637 0.575794
O O4 0.308354 0.947571 0.741717
O O5 0.691595 0.766680 0.218913
O O6 0.611493 0.935846 0.110521
O O7 0.707253 0.945405 0.044416
O O8 0.375307 0.444743 0.850934
O O9 0.296462 0.477215 0.665760
O O10 0.284065 0.470738 0.913202
O O11 0.058013 0.389866 0.442174
O O12 0.992149 0.173625 0.361831
O O13 0.052369 0.144129 0.564944
O O14 0.973913 0.337429 0.542717
O O15 0.447160 0.467939 0.220585
#
# Coordination Sequence:
#
# PCOD8154084 Si02
#       8
#     8   8   8   8   8   4   8   8
#     4  11  25  45  72 102 139 193 230 304 364 430
#     4  12  24  46  72 103 140 191 237 296 360 437
#     4  11  26  46  75 106 144 190 238 304 358 439
#     4  11  26  45  64 107 136 184 236 296 352 432
#     4  11  25  43  73  99 144 179 243 292 361 424
#     4  12  26  38  74  96 140 190 242 290 356 426
#     4  11  25  45  66  99 142 181 238 289 362 420
#     4  11  26  47  73 107 147 184 247 296 372 428
#
# _framework density 23.771526000000001
#
# number of rings (size 3 to 8) (size 9 to 14) (size 15 to 20)
#    0.000    0.800    2.667    3.200    9.333    0.000 
#    0.000    3.333    0.000    0.000    0.000    0.000 
#    0.000    0.000    0.000    0.000    0.000    0.000 
#
# Total GULP energy -371923.932579 kJ/mol
# GULP energy per Si atom -12397.464419 kJ/mol
# Density = 2.371742 g / cm^3
# Si number density = 23.771526 Si / 1000 Ang^3
#
#
#
# Elastic Constant Matrix: (Units=GPa)
#
#
# Indices 1 2 3 4 5 6 
#
# 1 131.4756 33.8922 17.3376 0.0000 -10.4212 0.0000
# 2 33.8922 109.5745 34.1685 0.0000 -11.9132 0.0000
# 3 17.3376 34.1685 85.2471 0.0000 -4.4872 0.0000
# 4 0.0000 0.0000 0.0000 36.5563 0.0000 -7.3317
# 5 -10.4212 -11.9132 -4.4872 0.0000 44.8049 0.0000
# 6 0.0000 0.0000 0.0000 -7.3317 0.0000 21.3279
#
#
#
# Elastic Compliance Matrix: (Units=1/GPa)
#
#
# Indices 1 2 3 4 5 6 
#
# 1 0.008378 -0.002219 -0.000747 0.000000 0.001284 0.000000
# 2 -0.002219 0.011273 -0.003957 0.000000 0.002085 0.000000
# 3 -0.000747 -0.003957 0.013475 0.000000 0.000124 0.000000
# 4 0.000000 0.000000 0.000000 0.029381 0.000000 0.010100
# 5 0.001284 0.002085 0.000124 0.000000 0.023184 0.000000
# 6 0.000000 0.000000 0.000000 0.010100 0.000000 0.050359
#
#
# Mechanical properties :
#
#
# Convention : Reuss Voigt Hill
#
# Bulk Modulus (GPa) = 51.86736 55.23266 53.55001
# Shear Modulus (GPa) = 31.98477 36.59772 34.29124
#
# Velocity S-wave (km/s) = 3.67210 3.92798 3.80219
# Velocity P-wave (km/s) = 6.31233 6.62248 6.46927
#
# Compressibility (1/GPa) = 0.01927995
#
# Stress axis : x y z
#
# Youngs Moduli (GPa) = 119.35659 88.70521 74.21009
#
# Poissons Ratio (x) = 0.19683 0.05544
# Poissons Ratio (y) = 0.26484 0.29369
# Poissons Ratio (z) = 0.08916 0.35105
#
# Static dielectric constant tensor:
#      x y z
#    x 4.726250 0.000000 0.043570 
#    y 0.000000 4.436820 0.000000 
#    z 0.043570 0.000000 4.069640 
# 
# 
# High freq. dielectric constant tensor:
#      x y z
#    x 1.969420 0.000000 0.006280 
#    y 0.000000 1.953450 0.000000 
#    z 0.006280 0.000000 1.931070 
# 
# From -- ./inp_files/121965.got.cif
#   From: 2010.06.25/outbox.cif.g09.slc.cpg/sg15_61_cif.got.tgz:121965.got - 2010.06.28 07:06:18.
