data_PCOD8154312
_publ_section_title
;
Structure prediction by ZEFSAII (Michael W. Deem and Ramdas Pophale) SiO2 
 PCOD8154312
Probable space group: C 2/C
;
_chemical_formula_sum "Si O2"
_cell_formula_units_Z 52
_cell_length_a 25.740519
_cell_length_b 6.746989
_cell_length_c 16.356775
_cell_angle_alpha 90.000000
_cell_angle_beta 122.846599
_cell_angle_gamma 90.000000
_cell_volume 2386.543076
_symmetry_space_group_name_H-M "C 2/C"
_symmetry_group_IT_number 15
_symmetry_cell_setting 'monoclinic'
loop_
_space_group_symop_operation_xyz
x,y,z
-x,y,1/2-z
-x,-y,-z
x,-y,1/2+z
1/2+x,1/2+y,z
1/2-x,1/2+y,1/2-z
1/2-x,1/2-y,-z
1/2+x,1/2-y,1/2+z
loop_
_atom_site_type_symbol
_atom_site_label
_atom_site_fract_x
_atom_site_fract_y
_atom_site_fract_z
Si Si1 0.061025 0.015295 0.656613
Si Si2 0.392779 0.968616 0.569817
Si Si3 0.284864 0.900284 0.087990
Si Si4 0.199239 0.090275 0.268862
Si Si5 0.500000 0.260793 0.250000
Si Si6 0.213097 0.759352 0.603027
Si Si7 0.472268 0.195353 0.515937
O O1 0.055336 0.165800 0.577061
O O2 0.034947 0.099982 0.717491
O O3 0.132585 0.988584 0.735458
O O4 0.027428 0.807476 0.609830
O O5 0.453266 0.874466 0.660142
O O6 0.354463 0.801958 0.487354
O O7 0.351971 0.060609 0.607093
O O8 0.415772 0.141574 0.528265
O O9 0.291986 0.805645 0.183485
O O10 0.247481 0.105938 0.064675
O O11 0.250000 0.750000 0.000000
O O12 0.205683 0.110125 0.177573
O O13 0.249223 0.940670 0.348687
O O14 0.500000 0.000000 0.500000
#
# Coordination Sequence:
#
# PCOD8154312 Si02
#       7
#     8   8   8   8   4   8   8
#     4  11  28  45  76 105 147 190 246 297 360 437
#     4  12  28  46  78 104 153 188 242 305 357 433
#     4  12  28  47  74 110 146 190 239 300 370 422
#     4  12  27  47  78 105 145 192 241 298 358 444
#     4  12  28  48  72 112 142 194 240 300 364 424
#     4  12  27  50  72 111 145 193 241 296 364 436
#     4  11  25  51  72 106 143 197 241 293 364 430
#
# _framework density 21.788837000000001
#
# number of rings (size 3 to 8) (size 9 to 14) (size 15 to 20)
#    0.000    0.308    4.615    2.308   12.923    2.462 
#    0.000    0.000    0.000    0.000    0.000    0.000 
#    0.000    0.000    0.000    0.000    0.000    0.000 
#
# Total GULP energy -322586.247222 kJ/mol
# GULP energy per Si atom -12407.163355 kJ/mol
# Density = 2.173925 g / cm^3
# Si number density = 21.788837 Si / 1000 Ang^3
#
#
#
# Elastic Constant Matrix: (Units=GPa)
#
#
# Indices 1 2 3 4 5 6 
#
# 1 142.0898 52.4605 35.2617 0.0000 -5.2403 0.0000
# 2 52.4605 112.4954 32.1869 0.0000 -4.9404 0.0000
# 3 35.2617 32.1869 90.0841 0.0000 5.8600 0.0000
# 4 0.0000 0.0000 0.0000 26.5243 0.0000 -8.2304
# 5 -5.2403 -4.9404 5.8600 0.0000 43.1337 0.0000
# 6 0.0000 0.0000 0.0000 -8.2304 0.0000 55.3185
#
#
#
# Elastic Compliance Matrix: (Units=1/GPa)
#
#
# Indices 1 2 3 4 5 6 
#
# 1 0.008927 -0.003453 -0.002326 0.000000 0.001005 0.000000
# 2 -0.003453 0.011352 -0.002786 0.000000 0.001259 0.000000
# 3 -0.002326 -0.002786 0.013162 0.000000 -0.002390 0.000000
# 4 0.000000 0.000000 0.000000 0.039526 0.000000 0.005881
# 5 0.001005 0.001259 -0.002390 0.000000 0.023775 0.000000
# 6 0.000000 0.000000 0.000000 0.005881 0.000000 0.018952
#
#
# Mechanical properties :
#
#
# Convention : Reuss Voigt Hill
#
# Bulk Modulus (GPa) = 61.31047 64.94304 63.12675
# Shear Modulus (GPa) = 36.16319 39.97929 38.07124
#
# Velocity S-wave (km/s) = 4.07838 4.28816 4.18458
# Velocity P-wave (km/s) = 7.09768 7.37483 7.23758
#
# Compressibility (1/GPa) = 0.01631043
#
# Stress axis : x y z
#
# Youngs Moduli (GPa) = 112.01877 88.08864 75.97559
#
# Poissons Ratio (x) = 0.30421 0.17670
# Poissons Ratio (y) = 0.38685 0.21169
# Poissons Ratio (z) = 0.26053 0.24544
#
# Static dielectric constant tensor:
#      x y z
#    x 4.098960 0.000000 0.037930 
#    y 0.000000 5.350670 0.000000 
#    z 0.037930 0.000000 4.265830 
# 
# 
# High freq. dielectric constant tensor:
#      x y z
#    x 1.875250 0.000000 -0.006950 
#    y 0.000000 1.867430 0.000000 
#    z -0.006950 0.000000 1.868720 
# 
# From -- ./inp_files/221353.got.cif
#   From: 2010.06.25/outbox.cif.g09.slc.cpg/sg15_111_cif.got.tgz:221353.got - 2010.06.28 07:06:18.
