data_PCOD8154053
_publ_section_title
;
Structure prediction by ZEFSAII (Michael W. Deem and Ramdas Pophale) SiO2 
 PCOD8154053
Probable space group: C 2/C
;
_chemical_formula_sum "Si O2"
_cell_formula_units_Z 56
_cell_length_a 17.366060
_cell_length_b 19.858432
_cell_length_c 14.412765
_cell_angle_alpha 90.000000
_cell_angle_beta 29.033052
_cell_angle_gamma 90.000000
_cell_volume 2412.217403
_symmetry_space_group_name_H-M "C 2/C"
_symmetry_group_IT_number 15
_symmetry_cell_setting 'monoclinic'
loop_
_space_group_symop_operation_xyz
x,y,z
-x,y,1/2-z
-x,-y,-z
x,-y,1/2+z
1/2+x,1/2+y,z
1/2-x,1/2+y,1/2-z
1/2-x,1/2-y,-z
1/2+x,1/2-y,1/2+z
loop_
_atom_site_type_symbol
_atom_site_label
_atom_site_fract_x
_atom_site_fract_y
_atom_site_fract_z
Si Si1 0.387348 0.642183 0.093212
Si Si2 0.896255 0.273633 0.443935
Si Si3 0.846792 0.708890 0.680719
Si Si4 0.680227 0.019628 0.283715
Si Si5 0.319095 0.993312 0.931565
Si Si6 0.711718 0.593054 0.702392
Si Si7 0.864325 0.879598 0.820230
O O1 0.352905 0.721367 0.114806
O O2 0.226159 0.597919 0.252564
O O3 0.449330 0.633286 0.132734
O O4 0.531522 0.618337 0.875302
O O5 0.797805 0.212763 0.593666
O O6 0.782516 0.328152 0.515975
O O7 0.000000 0.243322 0.250000
O O8 0.998078 0.306252 0.420636
O O9 0.822847 0.649459 0.632409
O O10 0.722142 0.009432 0.132471
O O11 0.500000 0.000000 0.500000
O O12 0.793169 0.972271 0.225912
O O13 0.500000 0.016263 0.750000
O O14 0.288230 0.923869 0.020946
O O15 0.203767 0.045802 0.102051
O O16 0.000000 0.865853 0.750000
#
# Coordination Sequence:
#
# PCOD8154053 Si02
#       7
#     8   8   8   8   8   8   8
#     4  11  25  48  69 105 142 197 239 294 365 425
#     4  11  25  42  66 102 148 192 245 291 367 441
#     4  11  26  45  70 100 147 197 242 299 367 426
#     4  12  26  45  77 104 146 183 240 302 361 426
#     4  12  26  45  72 111 137 187 242 299 369 432
#     4  12  26  46  74 105 145 190 239 302 360 436
#     4  11  25  42  70 105 149 184 235 298 366 445
#
# _framework density 23.215153999999998
#
# number of rings (size 3 to 8) (size 9 to 14) (size 15 to 20)
#    0.000    0.571    4.286    2.143   12.000    2.286 
#    0.000    0.714    0.000    0.000    0.000    0.000 
#    0.000    0.000    0.000    0.000    0.000    0.000 
#
# Total GULP energy -347126.473027 kJ/mol
# GULP energy per Si atom -12397.374037 kJ/mol
# Density = 2.316231 g / cm^3
# Si number density = 23.215154 Si / 1000 Ang^3
#
#
#
# Elastic Constant Matrix: (Units=GPa)
#
#
# Indices 1 2 3 4 5 6 
#
# 1 68.6114 30.5059 37.3056 0.0054 -2.9171 -0.0089
# 2 30.5059 119.4608 36.4999 -0.0115 -3.3028 0.0076
# 3 37.3056 36.4999 103.8669 0.0074 -5.9263 0.0037
# 4 0.0054 -0.0115 0.0074 27.4259 -0.0010 -3.3425
# 5 -2.9171 -3.3028 -5.9263 -0.0010 50.9192 -0.0024
# 6 -0.0089 0.0076 0.0037 -3.3425 -0.0024 24.9124
#
#
#
# Elastic Compliance Matrix: (Units=1/GPa)
#
#
# Indices 1 2 3 4 5 6 
#
# 1 0.019096 -0.003113 -0.005752 -0.000002 0.000223 0.000008
# 2 -0.003113 0.009888 -0.002346 0.000005 0.000190 -0.000003
# 3 -0.005752 -0.002346 0.012574 -0.000004 0.000982 -0.000004
# 4 -0.000002 0.000005 -0.000004 0.037068 0.000001 0.004973
# 5 0.000223 0.000190 0.000982 0.000001 0.019778 0.000002
# 6 0.000008 -0.000003 -0.000004 0.004973 0.000002 0.040808
#
#
# Mechanical properties :
#
#
# Convention : Reuss Voigt Hill
#
# Bulk Modulus (GPa) = 52.25644 55.61799 53.93721
# Shear Modulus (GPa) = 29.75979 33.16002 31.45991
#
# Velocity S-wave (km/s) = 3.58426 3.78349 3.68522
# Velocity P-wave (km/s) = 6.29982 6.56476 6.43365
#
# Compressibility (1/GPa) = 0.01913640
#
# Stress axis : x y z
#
# Youngs Moduli (GPa) = 52.36757 101.13444 79.52907
#
# Poissons Ratio (x) = 0.31480 0.45745
# Poissons Ratio (y) = 0.16301 0.18656
# Poissons Ratio (z) = 0.30122 0.23725
#
# Static dielectric constant tensor:
#      x y z
#    x 4.265700 -0.000060 -0.113210 
#    y -0.000060 4.304860 0.000080 
#    z -0.113210 0.000080 4.318480 
# 
# 
# High freq. dielectric constant tensor:
#      x y z
#    x 1.911270 0.000000 -0.016300 
#    y 0.000000 1.919740 0.000010 
#    z -0.016300 0.000010 1.922890 
# 
# From -- ./inp_files/163755.got.cif
#   From: 2010.06.25/outbox.cif.g09.slc.cpg/sg15_82_cif.got.tgz:163755.got - 2010.06.28 07:06:18.
