data_PCOD8154154
_publ_section_title
;
Structure prediction by ZEFSAII (Michael W. Deem and Ramdas Pophale) SiO2 
 PCOD8154154
Probable space group: C 2/C
;
_chemical_formula_sum "Si O2"
_cell_formula_units_Z 36
_cell_length_a 7.904666
_cell_length_b 15.913216
_cell_length_c 12.661686
_cell_angle_alpha 90.000000
_cell_angle_beta 71.319349
_cell_angle_gamma 90.000000
_cell_volume 1508.790837
_symmetry_space_group_name_H-M "C 2/C"
_symmetry_group_IT_number 15
_symmetry_cell_setting 'monoclinic'
loop_
_space_group_symop_operation_xyz
x,y,z
-x,y,1/2-z
-x,-y,-z
x,-y,1/2+z
1/2+x,1/2+y,z
1/2-x,1/2+y,1/2-z
1/2-x,1/2-y,-z
1/2+x,1/2-y,1/2+z
loop_
_atom_site_type_symbol
_atom_site_label
_atom_site_fract_x
_atom_site_fract_y
_atom_site_fract_z
Si Si1 0.309683 0.649955 0.758501
Si Si2 0.804263 0.968764 0.831439
Si Si3 0.000000 0.597247 0.250000
Si Si4 0.322843 0.656164 0.510984
Si Si5 0.708549 0.705547 0.402550
O O1 0.500000 0.691629 0.750000
O O2 0.302268 0.569881 0.839963
O O3 0.280741 0.629569 0.640273
O O4 0.171823 0.723624 0.818715
O O5 0.644944 0.957281 0.781670
O O6 0.000000 0.938224 0.750000
O O7 0.748287 0.917560 0.948842
O O8 0.884831 0.651459 0.352937
O O9 0.250000 0.750000 0.500000
O O10 0.533073 0.649788 0.448181
O O11 0.750000 0.750000 0.500000
#
# Coordination Sequence:
#
# PCOD8154154 Si02
#       5
#     8   8   4   8   8
#     4  11  25  45  72 107 148 192 246 304 381 437
#     4  11  26  46  72 103 148 190 242 305 372 440
#     4  12  24  46  70 104 140 192 246 294 374 436
#     4  12  26  46  76 111 149 196 255 308 368 450
#     4  12  22  43  73 103 142 192 243 305 361 439
#
# _framework density 23.860167000000001
#
# number of rings (size 3 to 8) (size 9 to 14) (size 15 to 20)
#    0.000    0.444    5.556    2.667    0.000    7.111 
#    0.000    3.333    0.000    0.000    0.000    0.000 
#    0.000    0.000    0.000    0.000    0.000    0.000 
#
# Total GULP energy -223001.241632 kJ/mol
# GULP energy per Si atom -12388.957868 kJ/mol
# Density = 2.380586 g / cm^3
# Si number density = 23.860167 Si / 1000 Ang^3
#
#
#
# Elastic Constant Matrix: (Units=GPa)
#
#
# Indices 1 2 3 4 5 6 
#
# 1 111.8163 3.0190 12.8113 0.0000 2.2633 0.0000
# 2 3.0190 84.2316 20.1889 0.0000 -0.1850 0.0000
# 3 12.8113 20.1889 100.4707 0.0000 14.9122 0.0000
# 4 0.0000 0.0000 0.0000 36.6981 0.0000 14.8938
# 5 2.2633 -0.1850 14.9122 0.0000 41.6108 0.0000
# 6 0.0000 0.0000 0.0000 14.8938 0.0000 18.6819
#
#
#
# Elastic Compliance Matrix: (Units=1/GPa)
#
#
# Indices 1 2 3 4 5 6 
#
# 1 0.009076 -0.000054 -0.001134 0.000000 -0.000088 0.000000
# 2 -0.000054 0.012513 -0.002658 0.000000 0.001011 0.000000
# 3 -0.001134 -0.002658 0.011221 0.000000 -0.003972 0.000000
# 4 0.000000 0.000000 0.000000 0.040283 0.000000 -0.032115
# 5 -0.000088 0.001011 -0.003972 0.000000 0.025465 0.000000
# 6 0.000000 0.000000 0.000000 -0.032115 0.000000 0.079131
#
#
# Mechanical properties :
#
#
# Convention : Reuss Voigt Hill
#
# Bulk Modulus (GPa) = 39.80773 40.95080 40.37927
# Shear Modulus (GPa) = 25.80601 36.76478 31.28540
#
# Velocity S-wave (km/s) = 3.29226 3.92962 3.62497
# Velocity P-wave (km/s) = 5.58319 6.14730 5.87202
#
# Compressibility (1/GPa) = 0.02512075
#
# Stress axis : x y z
#
# Youngs Moduli (GPa) = 110.17659 79.91585 89.11706
#
# Poissons Ratio (x) = 0.00430 0.10102
# Poissons Ratio (y) = 0.00593 0.23684
# Poissons Ratio (z) = 0.12489 0.21239
#
# Static dielectric constant tensor:
#      x y z
#    x 4.209900 0.000000 0.111130 
#    y 0.000000 9.203100 0.000000 
#    z 0.111130 0.000000 4.329610 
# 
# 
# High freq. dielectric constant tensor:
#      x y z
#    x 1.948290 0.000000 0.001720 
#    y 0.000000 1.949370 0.000000 
#    z 0.001720 0.000000 1.946360 
# 
# From -- ./inp_files/76572.got.cif
#   From: 2010.06.25/outbox.cif.g09.slc.cpg/sg15_39_cif.got.tgz:76572.got - 2010.06.28 07:06:18.
