data_PCOD8154553
_publ_section_title
;
Structure prediction by ZEFSAII (Michael W. Deem and Ramdas Pophale) SiO2 
 PCOD8154553
Probable space group: C 2/C
;
_chemical_formula_sum "Si O2"
_cell_formula_units_Z 48
_cell_length_a 8.458377
_cell_length_b 16.528178
_cell_length_c 24.314275
_cell_angle_alpha 90.000000
_cell_angle_beta 45.392960
_cell_angle_gamma 90.000000
_cell_volume 2420.006852
_symmetry_space_group_name_H-M "C 2/C"
_symmetry_group_IT_number 15
_symmetry_cell_setting 'monoclinic'
loop_
_space_group_symop_operation_xyz
x,y,z
-x,y,1/2-z
-x,-y,-z
x,-y,1/2+z
1/2+x,1/2+y,z
1/2-x,1/2+y,1/2-z
1/2-x,1/2-y,-z
1/2+x,1/2-y,1/2+z
loop_
_atom_site_type_symbol
_atom_site_label
_atom_site_fract_x
_atom_site_fract_y
_atom_site_fract_z
Si Si1 0.049371 0.515998 0.424085
Si Si2 0.805114 0.857518 0.342203
Si Si3 0.046028 0.795626 0.079315
Si Si4 0.324646 0.333472 0.839933
Si Si5 0.609800 0.415015 0.976862
Si Si6 0.477348 0.712736 0.420194
O O1 0.130078 0.431342 0.378286
O O2 0.252451 0.576008 0.369936
O O3 0.000000 0.500000 0.500000
O O4 0.858091 0.563485 0.436765
O O5 0.903174 0.848908 0.379412
O O6 0.671649 0.776242 0.367642
O O7 0.000000 0.866655 0.250000
O O8 0.862196 0.728649 0.135138
O O9 0.250000 0.750000 0.000000
O O10 0.968523 0.863163 0.055140
O O11 0.500000 0.336096 0.750000
O O12 0.436996 0.307867 0.868017
O O13 0.582983 0.364409 0.926735
O O14 0.500000 0.500000 0.000000
O O15 0.250000 0.750000 0.500000
#
# Coordination Sequence:
#
# PCOD8154553 Si02
#       6
#     8   8   8   8   8   8
#     4  12  23  43  68  95 130 180 226 269 326 407
#     4  12  25  42  66  99 137 173 218 282 342 388
#     4  12  21  45  69  93 126 179 224 266 322 411
#     4  12  25  42  66  99 136 171 217 283 343 388
#     4  12  24  40  69  98 125 165 236 278 313 385
#     4  12  23  42  69  98 128 176 230 272 327 411
#
# _framework density 19.834652999999999
#
# number of rings (size 3 to 8) (size 9 to 14) (size 15 to 20)
#    0.000    0.000    6.667    4.500    0.000    0.000 
#    0.000    0.000    0.000    0.000    0.000    0.000 
#    0.000    0.000    0.000    0.000    0.000    0.000 
#
# Total GULP energy -297370.492260 kJ/mol
# GULP energy per Si atom -12390.437178 kJ/mol
# Density = 1.978951 g / cm^3
# Si number density = 19.834653 Si / 1000 Ang^3
#
#
#
# Elastic Constant Matrix: (Units=GPa)
#
#
# Indices 1 2 3 4 5 6 
#
# 1 129.4210 41.4476 49.7248 -0.0023 7.6876 0.0005
# 2 41.4476 147.9719 54.3011 -0.0026 -5.3238 0.0004
# 3 49.7248 54.3011 157.2807 -0.0005 6.4438 -0.0004
# 4 -0.0023 -0.0026 -0.0005 47.1219 -0.0007 -10.6869
# 5 7.6876 -5.3238 6.4438 -0.0007 32.0253 0.0001
# 6 0.0005 0.0004 -0.0004 -10.6869 0.0001 52.4563
#
#
#
# Elastic Compliance Matrix: (Units=1/GPa)
#
#
# Indices 1 2 3 4 5 6 
#
# 1 0.009299 -0.001870 -0.002208 0.000000 -0.002099 0.000000
# 2 -0.001870 0.008223 -0.002342 0.000000 0.002287 0.000000
# 3 -0.002208 -0.002342 0.007924 0.000000 -0.001454 0.000000
# 4 0.000000 0.000000 0.000000 0.022250 0.000000 0.004533
# 5 -0.002099 0.002287 -0.001454 0.000000 0.032402 0.000000
# 6 0.000000 0.000000 0.000000 0.004533 0.000000 0.019987
#
#
# Mechanical properties :
#
#
# Convention : Reuss Voigt Hill
#
# Bulk Modulus (GPa) = 79.32212 80.62448 79.97330
# Shear Modulus (GPa) = 42.68899 45.60070 44.14485
#
# Velocity S-wave (km/s) = 4.64426 4.80003 4.72279
# Velocity P-wave (km/s) = 8.29683 8.45322 8.37539
#
# Compressibility (1/GPa) = 0.01260682
#
# Stress axis : x y z
#
# Youngs Moduli (GPa) = 107.54299 121.60463 126.19500
#
# Poissons Ratio (x) = 0.22737 0.27867
# Poissons Ratio (y) = 0.20107 0.29551
# Poissons Ratio (z) = 0.23749 0.28476
#
# Static dielectric constant tensor:
#      x y z
#    x 3.849880 -0.000160 0.181580 
#    y -0.000160 2.649120 -0.000850 
#    z 0.181580 -0.000850 3.574330 
# 
# 
# High freq. dielectric constant tensor:
#      x y z
#    x 1.788150 0.000000 0.003250 
#    y 0.000000 1.801550 0.000000 
#    z 0.003250 0.000000 1.764380 
# 
# From -- ./inp_files/289038.got.cif
#   From: 2010.06.25/outbox.cif.g09.slc.cpg/sg15_145_cif.got.tgz:289038.got - 2010.06.28 07:06:18.
