data_PCOD8154204
_publ_section_title
;
Structure prediction by ZEFSAII (Michael W. Deem and Ramdas Pophale) SiO2 
 PCOD8154204
Probable space group: C 2/C
;
_chemical_formula_sum "Si O2"
_cell_formula_units_Z 44
_cell_length_a 27.778895
_cell_length_b 15.944423
_cell_length_c 14.167610
_cell_angle_alpha 90.000000
_cell_angle_beta 18.426240
_cell_angle_gamma 90.000000
_cell_volume 1983.454680
_symmetry_space_group_name_H-M "C 2/C"
_symmetry_group_IT_number 15
_symmetry_cell_setting 'monoclinic'
loop_
_space_group_symop_operation_xyz
x,y,z
-x,y,1/2-z
-x,-y,-z
x,-y,1/2+z
1/2+x,1/2+y,z
1/2-x,1/2+y,1/2-z
1/2-x,1/2-y,-z
1/2+x,1/2-y,1/2+z
loop_
_atom_site_type_symbol
_atom_site_label
_atom_site_fract_x
_atom_site_fract_y
_atom_site_fract_z
Si Si1 0.886446 0.574409 0.683008
Si Si2 0.000000 0.720298 0.750000
Si Si3 0.248173 0.623686 0.380987
Si Si4 0.322964 0.029944 0.596210
Si Si5 0.521747 0.255488 0.393068
Si Si6 0.209803 0.194494 0.716999
O O1 0.794718 0.551530 0.758262
O O2 0.000000 0.500000 0.500000
O O3 0.979451 0.660314 0.497318
O O4 0.756805 0.585120 0.004348
O O5 0.081219 0.664866 0.678851
O O6 0.132272 0.774777 0.456906
O O7 0.271826 0.552717 0.256988
O O8 0.376696 0.693269 0.127554
O O9 0.269457 0.101683 0.624583
O O10 0.500000 0.012835 0.250000
O O11 0.588674 0.305275 0.357766
O O12 0.646818 0.253590 0.076829
#
# Coordination Sequence:
#
# PCOD8154204 Si02
#       6
#     8   4   8   8   8   8
#     4  12  22  43  73 104 141 192 238 293 358 433
#     4  12  24  42  76 108 136 186 244 298 358 434
#     4  12  25  45  73 106 140 190 246 293 358 432
#     4  12  24  45  70 102 145 194 235 294 366 427
#     4  11  25  46  74 103 146 190 238 302 356 429
#     4  11  26  45  70 106 144 190 239 295 364 425
#
# _framework density 22.183516000000001
#
# number of rings (size 3 to 8) (size 9 to 14) (size 15 to 20)
#    0.000    0.364    6.364    1.636    2.545    0.727 
#    0.000    1.818    0.000    0.000    0.000    0.000 
#    0.000    0.000    0.000    0.000    0.000    0.000 
#
# Total GULP energy -272867.752029 kJ/mol
# GULP energy per Si atom -12403.079638 kJ/mol
# Density = 2.213303 g / cm^3
# Si number density = 22.183516 Si / 1000 Ang^3
#
#
#
# Elastic Constant Matrix: (Units=GPa)
#
#
# Indices 1 2 3 4 5 6 
#
# 1 121.8681 66.9884 51.1955 0.0000 -3.7111 0.0001
# 2 66.9884 141.2167 49.0297 -0.0004 -13.7228 0.0001
# 3 51.1955 49.0297 107.6733 -0.0001 8.5848 -0.0002
# 4 0.0000 -0.0004 -0.0001 23.7685 0.0001 -8.9863
# 5 -3.7111 -13.7228 8.5848 0.0001 34.4825 -0.0004
# 6 0.0001 0.0001 -0.0002 -8.9863 -0.0004 43.7150
#
#
#
# Elastic Compliance Matrix: (Units=1/GPa)
#
#
# Indices 1 2 3 4 5 6 
#
# 1 0.012281 -0.004435 -0.003861 0.000000 0.000518 0.000000
# 2 -0.004435 0.010718 -0.003136 0.000000 0.004569 0.000000
# 3 -0.003861 -0.003136 0.012941 0.000000 -0.004885 0.000000
# 4 0.000000 0.000000 0.000000 0.045618 0.000000 0.009378
# 5 0.000518 0.004569 -0.004885 0.000000 0.032090 0.000000
# 6 0.000000 0.000000 0.000000 0.009378 0.000000 0.024803
#
#
# Mechanical properties :
#
#
# Convention : Reuss Voigt Hill
#
# Bulk Modulus (GPa) = 76.47856 78.35392 77.41624
# Shear Modulus (GPa) = 30.17972 33.96283 32.07127
#
# Velocity S-wave (km/s) = 3.69244 3.91704 3.80639
# Velocity P-wave (km/s) = 7.26148 7.47362 7.36831
#
# Compressibility (1/GPa) = 0.01307556
#
# Stress axis : x y z
#
# Youngs Moduli (GPa) = 81.42556 93.30239 77.27505
#
# Poissons Ratio (x) = 0.41378 0.29838
# Poissons Ratio (y) = 0.36111 0.24234
# Poissons Ratio (z) = 0.31440 0.29260
#
# Static dielectric constant tensor:
#      x y z
#    x 4.235730 0.000000 0.111710 
#    y 0.000000 4.017680 0.000000 
#    z 0.111710 0.000000 3.824920 
# 
# 
# High freq. dielectric constant tensor:
#      x y z
#    x 1.888580 0.000000 0.006480 
#    y 0.000000 1.878340 0.000000 
#    z 0.006480 0.000000 1.857090 
# 
# From -- ./inp_files/182224.got.cif
#   From: 2010.06.25/outbox.cif.g09.slc.cpg/sg15_92_cif.got.tgz:182224.got - 2010.06.28 07:06:18.
