data_PCOD8154712
_publ_section_title
;
Structure prediction by ZEFSAII (Michael W. Deem and Ramdas Pophale) SiO2 
 PCOD8154712
Probable space group: C 2/C
;
_chemical_formula_sum "Si O2"
_cell_formula_units_Z 52
_cell_length_a 19.231361
_cell_length_b 21.502917
_cell_length_c 5.177167
_cell_angle_alpha 90.000000
_cell_angle_beta 96.531442
_cell_angle_gamma 90.000000
_cell_volume 2127.020296
_symmetry_space_group_name_H-M "C 2/C"
_symmetry_group_IT_number 15
_symmetry_cell_setting 'monoclinic'
loop_
_space_group_symop_operation_xyz
x,y,z
-x,y,1/2-z
-x,-y,-z
x,-y,1/2+z
1/2+x,1/2+y,z
1/2-x,1/2+y,1/2-z
1/2-x,1/2-y,-z
1/2+x,1/2-y,1/2+z
loop_
_atom_site_type_symbol
_atom_site_label
_atom_site_fract_x
_atom_site_fract_y
_atom_site_fract_z
Si Si1 0.725049 0.623414 0.911698
Si Si2 0.500000 0.828227 0.250000
Si Si3 0.000000 0.457682 0.750000
Si Si4 0.000000 0.138259 0.750000
Si Si5 0.802439 0.198320 0.103319
Si Si6 0.582212 0.752185 0.629821
Si Si7 0.401671 0.459546 0.032739
Si Si8 0.885405 0.632105 0.039706
O O1 0.703606 0.642377 0.610550
O O2 0.677997 0.565948 0.989909
O O3 0.709357 0.678525 0.107812
O O4 0.807645 0.605538 0.954629
O O5 0.510971 0.786262 0.510249
O O6 0.429982 0.867321 0.287654
O O7 0.930350 0.414247 0.741745
O O8 0.000000 0.500000 0.500000
O O9 0.934980 0.182524 0.788910
O O10 0.961087 0.094089 0.524347
O O11 0.750000 0.250000 0.000000
O O12 0.874707 0.236612 0.112555
O O13 0.623280 0.798428 0.841787
O O14 0.414139 0.494142 0.306157
#
# Coordination Sequence:
#
# PCOD8154712 Si02
#       8
#     8   4   4   4   8   8   8   8
#     4  12  28  47  77 106 153 197 247 306 381 442
#     4  12  23  42  73 111 162 187 236 296 382 460
#     4  12  28  48  74 104 141 195 256 300 354 436
#     4  12  25  48  77 111 149 202 250 314 398 444
#     4  12  25  44  71 116 153 192 237 298 384 470
#     4  12  25  42  75 115 153 193 238 310 390 470
#     4  12  29  54  75 106 147 204 273 322 360 436
#     4  12  26  48  73 115 152 194 242 314 379 455
#
# _framework density 24.447347000000001
#
# number of rings (size 3 to 8) (size 9 to 14) (size 15 to 20)
#    0.000    0.000    6.154    3.231    4.308    1.231 
#    0.000    0.000    0.000    0.000    0.000    0.000 
#    0.000    0.000    0.000    0.000    0.000    0.000 
#
# Total GULP energy -322119.340344 kJ/mol
# GULP energy per Si atom -12389.205398 kJ/mol
# Density = 2.439170 g / cm^3
# Si number density = 24.447347 Si / 1000 Ang^3
#
#
#
# Elastic Constant Matrix: (Units=GPa)
#
#
# Indices 1 2 3 4 5 6 
#
# 1 94.4228 55.6417 25.5273 0.0000 5.4356 0.0000
# 2 55.6417 100.7973 13.7397 0.0000 4.8335 0.0000
# 3 25.5273 13.7397 72.6048 0.0000 -2.8533 0.0000
# 4 0.0000 0.0000 0.0000 40.4300 0.0000 10.9848
# 5 5.4356 4.8335 -2.8533 0.0000 35.5553 0.0000
# 6 0.0000 0.0000 0.0000 10.9848 0.0000 40.5569
#
#
#
# Elastic Compliance Matrix: (Units=1/GPa)
#
#
# Indices 1 2 3 4 5 6 
#
# 1 0.017014 -0.008707 -0.004404 0.000000 -0.001771 0.000000
# 2 -0.008707 0.014724 0.000249 0.000000 -0.000651 0.000000
# 3 -0.004404 0.000249 0.015348 0.000000 0.001871 0.000000
# 4 0.000000 0.000000 0.000000 0.026699 0.000000 -0.007231
# 5 -0.001771 -0.000651 0.001871 0.000000 0.028635 0.000000
# 6 0.000000 0.000000 0.000000 -0.007231 0.000000 0.026615
#
#
# Mechanical properties :
#
#
# Convention : Reuss Voigt Hill
#
# Bulk Modulus (GPa) = 46.80902 50.84916 48.82909
# Shear Modulus (GPa) = 30.88727 34.83618 32.86173
#
# Velocity S-wave (km/s) = 3.55832 3.77894 3.67029
# Velocity P-wave (km/s) = 6.00588 6.31547 6.16262
#
# Compressibility (1/GPa) = 0.02136340
#
# Stress axis : x y z
#
# Youngs Moduli (GPa) = 58.77535 67.91453 65.15535
#
# Poissons Ratio (x) = 0.59131 0.28694
# Poissons Ratio (y) = 0.51174 -0.01624
# Poissons Ratio (z) = 0.25884 -0.01693
#
# Static dielectric constant tensor:
#      x y z
#    x 5.106040 0.000000 0.574280 
#    y 0.000000 4.408610 0.000000 
#    z 0.574280 0.000000 3.569460 
# 
# 
# High freq. dielectric constant tensor:
#      x y z
#    x 1.993360 0.000000 -0.003100 
#    y 0.000000 1.966770 0.000000 
#    z -0.003100 0.000000 1.966130 
# 
# From -- ./inp_files/13421.got.cif
#   From: 2010.06.25/outbox.cif.g09.slc.cpg/sg15_7_cif.got.tgz:13421.got - 2010.06.28 07:06:18.
