data_PCOD8154565
_publ_section_title
;
Structure prediction by ZEFSAII (Michael W. Deem and Ramdas Pophale) SiO2 
 PCOD8154565
Probable space group: C 2/C
;
_chemical_formula_sum "Si O2"
_cell_formula_units_Z 48
_cell_length_a 20.411953
_cell_length_b 11.614282
_cell_length_c 11.586993
_cell_angle_alpha 90.000000
_cell_angle_beta 70.176513
_cell_angle_gamma 90.000000
_cell_volume 2584.152429
_symmetry_space_group_name_H-M "C 2/C"
_symmetry_group_IT_number 15
_symmetry_cell_setting 'monoclinic'
loop_
_space_group_symop_operation_xyz
x,y,z
-x,y,1/2-z
-x,-y,-z
x,-y,1/2+z
1/2+x,1/2+y,z
1/2-x,1/2+y,1/2-z
1/2-x,1/2-y,-z
1/2+x,1/2-y,1/2+z
loop_
_atom_site_type_symbol
_atom_site_label
_atom_site_fract_x
_atom_site_fract_y
_atom_site_fract_z
Si Si1 0.354640 0.733941 0.089230
Si Si2 0.196065 0.287637 0.737843
Si Si3 0.674618 0.199558 0.511824
Si Si4 0.659791 0.420437 0.117060
Si Si5 0.081152 0.149389 0.220760
Si Si6 0.682167 0.944098 0.536191
O O1 0.278656 0.728527 0.190712
O O2 0.407473 0.712335 0.162684
O O3 0.367116 0.633128 0.987741
O O4 0.361495 0.860335 0.024662
O O5 0.166766 0.311351 0.880353
O O6 0.156358 0.175551 0.717179
O O7 0.178233 0.393971 0.666546
O O8 0.750000 0.250000 0.500000
O O9 0.614943 0.280532 0.596379
O O10 0.654482 0.072695 0.568455
O O11 0.613136 0.522170 0.194882
O O12 0.739206 0.459391 0.055289
O O13 0.000000 0.139541 0.250000
#
# Coordination Sequence:
#
# PCOD8154565 Si02
#       6
#     8   8   8   8   8   8
#     4   9  19  38  60  86 120 155 191 244 304 350
#     4   9  19  35  62  93 115 144 199 253 297 352
#     4  12  22  35  61  92 115 155 204 247 294 348
#     4   9  19  37  59  87 119 153 192 249 308 344
#     4  12  26  39  56  88 128 163 197 242 297 364
#     4   9  19  36  64  90 115 149 195 258 302 335
#
# _framework density 18.574756000000001
#
# number of rings (size 3 to 8) (size 9 to 14) (size 15 to 20)
#    0.000    2.000    3.333    2.000    4.667    0.667 
#    0.000    0.833    0.000    0.000    0.000    0.000 
#    0.000    0.000    0.000    0.000    0.000    0.000 
#
# Total GULP energy -297495.688031 kJ/mol
# GULP energy per Si atom -12395.653668 kJ/mol
# Density = 1.853248 g / cm^3
# Si number density = 18.574756 Si / 1000 Ang^3
#
#
#
# Elastic Constant Matrix: (Units=GPa)
#
#
# Indices 1 2 3 4 5 6 
#
# 1 89.5439 43.7739 46.1513 0.0000 8.0025 0.0000
# 2 43.7739 125.3830 36.3600 0.0000 -0.5865 0.0000
# 3 46.1513 36.3600 88.8004 0.0000 14.7033 0.0000
# 4 0.0000 0.0000 0.0000 23.2021 0.0000 -0.1542
# 5 8.0025 -0.5865 14.7033 0.0000 26.7452 0.0000
# 6 0.0000 0.0000 0.0000 -0.1542 0.0000 13.8654
#
#
#
# Elastic Compliance Matrix: (Units=1/GPa)
#
#
# Indices 1 2 3 4 5 6 
#
# 1 0.016718 -0.003841 -0.006902 0.000000 -0.001292 0.000000
# 2 -0.003841 0.010082 -0.002595 0.000000 0.002797 0.000000
# 3 -0.006902 -0.002595 0.017138 0.000000 -0.007414 0.000000
# 4 0.000000 0.000000 0.000000 0.043103 0.000000 0.000479
# 5 -0.001292 0.002797 -0.007414 0.000000 0.041914 0.000000
# 6 0.000000 0.000000 0.000000 0.000479 0.000000 0.072127
#
#
# Mechanical properties :
#
#
# Convention : Reuss Voigt Hill
#
# Bulk Modulus (GPa) = 57.92950 61.81086 59.87018
# Shear Modulus (GPa) = 21.41203 24.59200 23.00202
#
# Velocity S-wave (km/s) = 3.39890 3.64256 3.52284
# Velocity P-wave (km/s) = 6.83069 7.14423 6.98922
#
# Compressibility (1/GPa) = 0.01726236
#
# Stress axis : x y z
#
# Youngs Moduli (GPa) = 59.81453 99.18437 58.34833
#
# Poissons Ratio (x) = 0.38099 0.40273
# Poissons Ratio (y) = 0.22976 0.15141
# Poissons Ratio (z) = 0.41285 0.25739
#
# Static dielectric constant tensor:
#      x y z
#    x 3.117310 0.000000 0.285250 
#    y 0.000000 3.625310 0.000000 
#    z 0.285250 0.000000 3.504370 
# 
# 
# High freq. dielectric constant tensor:
#      x y z
#    x 1.677390 0.000000 0.025630 
#    y 0.000000 1.737200 0.000000 
#    z 0.025630 0.000000 1.724760 
# 
# From -- ./inp_files/103812.got.cif
#   From: 2010.06.25/outbox.cif.g09.slc.cpg/sg15_52_cif.got.tgz:103812.got - 2010.06.28 07:06:18.
