data_PCOD8154634
_publ_section_title
;
Structure prediction by ZEFSAII (Michael W. Deem and Ramdas Pophale) SiO2 
 PCOD8154634
Probable space group: C 2/C
;
_chemical_formula_sum "Si O2"
_cell_formula_units_Z 52
_cell_length_a 23.969979
_cell_length_b 11.733366
_cell_length_c 9.925356
_cell_angle_alpha 90.000000
_cell_angle_beta 51.501656
_cell_angle_gamma 90.000000
_cell_volume 2184.694516
_symmetry_space_group_name_H-M "C 2/C"
_symmetry_group_IT_number 15
_symmetry_cell_setting 'monoclinic'
loop_
_space_group_symop_operation_xyz
x,y,z
-x,y,1/2-z
-x,-y,-z
x,-y,1/2+z
1/2+x,1/2+y,z
1/2-x,1/2+y,1/2-z
1/2-x,1/2-y,-z
1/2+x,1/2-y,1/2+z
loop_
_atom_site_type_symbol
_atom_site_label
_atom_site_fract_x
_atom_site_fract_y
_atom_site_fract_z
Si Si1 0.500000 0.225407 0.250000
Si Si2 0.143415 0.941187 0.634918
Si Si3 0.934802 0.415434 0.621563
Si Si4 0.382952 0.371145 0.533547
Si Si5 0.302601 0.977876 0.446017
Si Si6 0.132487 0.728665 0.491669
Si Si7 0.236866 0.704648 0.871765
O O1 0.554781 0.149125 0.252910
O O2 0.455789 0.299619 0.423736
O O3 0.123330 0.947973 0.823116
O O4 0.229071 0.942720 0.483250
O O5 0.105642 0.827312 0.632964
O O6 0.112817 0.051308 0.606100
O O7 0.930694 0.327228 0.502523
O O8 0.000000 0.500000 0.500000
O O9 0.859375 0.481511 0.747152
O O10 0.317006 0.284009 0.629885
O O11 0.331555 0.867679 0.474504
O O12 0.290260 0.074967 0.577532
O O13 0.187373 0.793434 0.313127
O O14 0.250000 0.750000 0.000000
#
# Coordination Sequence:
#
# PCOD8154634 Si02
#       7
#     4   8   8   8   8   8   8
#     4  12  28  52  72 106 156 206 264 302 384 476
#     4  12  28  48  80 114 156 191 265 323 388 453
#     4  12  28  49  76 107 156 208 257 311 383 460
#     4  12  27  49  75 111 148 209 249 320 384 459
#     4  12  25  45  75 116 149 196 248 325 386 450
#     4  12  27  45  76 114 152 196 255 321 381 458
#     4  12  22  43  75 108 150 194 247 316 390 444
#
# _framework density 23.801953999999999
#
# number of rings (size 3 to 8) (size 9 to 14) (size 15 to 20)
#    0.000    0.000    6.154    2.308    6.462    0.615 
#    0.000    0.000    0.000    0.000    0.000    0.000 
#    0.000    0.000    0.000    0.000    0.000    0.000 
#
# Total GULP energy -322544.316941 kJ/mol
# GULP energy per Si atom -12405.550652 kJ/mol
# Density = 2.374778 g / cm^3
# Si number density = 23.801954 Si / 1000 Ang^3
#
#
#
# Elastic Constant Matrix: (Units=GPa)
#
#
# Indices 1 2 3 4 5 6 
#
# 1 89.2022 27.6983 31.1619 0.0000 6.6401 0.0000
# 2 27.6983 112.6326 13.8430 0.0000 0.5704 0.0000
# 3 31.1619 13.8430 90.0064 0.0000 -4.1208 0.0000
# 4 0.0000 0.0000 0.0000 28.8998 0.0000 3.1667
# 5 6.6401 0.5704 -4.1208 0.0000 35.3684 0.0000
# 6 0.0000 0.0000 0.0000 3.1667 0.0000 51.9090
#
#
#
# Elastic Compliance Matrix: (Units=1/GPa)
#
#
# Indices 1 2 3 4 5 6 
#
# 1 0.013903 -0.002848 -0.004517 0.000000 -0.003090 0.000000
# 2 -0.002848 0.009636 -0.000481 0.000000 0.000323 0.000000
# 3 -0.004517 -0.000481 0.012856 0.000000 0.002354 0.000000
# 4 0.000000 0.000000 0.000000 0.034835 0.000000 -0.002125
# 5 -0.003090 0.000323 0.002354 0.000000 0.029123 0.000000
# 6 0.000000 0.000000 0.000000 -0.002125 0.000000 0.019394
#
#
# Mechanical properties :
#
#
# Convention : Reuss Voigt Hill
#
# Bulk Modulus (GPa) = 48.30296 48.58307 48.44301
# Shear Modulus (GPa) = 35.12698 37.84464 36.48581
#
# Velocity S-wave (km/s) = 3.84579 3.99178 3.91946
# Velocity P-wave (km/s) = 6.32913 6.45767 6.39372
#
# Compressibility (1/GPa) = 0.02070267
#
# Stress axis : x y z
#
# Youngs Moduli (GPa) = 71.92769 103.77385 77.78525
#
# Poissons Ratio (x) = 0.29556 0.35135
# Poissons Ratio (y) = 0.20486 0.03743
# Poissons Ratio (z) = 0.32489 0.04993
#
# Static dielectric constant tensor:
#      x y z
#    x 4.240860 0.000000 -0.178700 
#    y 0.000000 4.607280 0.000000 
#    z -0.178700 0.000000 3.616130 
# 
# 
# High freq. dielectric constant tensor:
#      x y z
#    x 1.940680 0.000000 0.009390 
#    y 0.000000 1.958930 0.000000 
#    z 0.009390 0.000000 1.936320 
# 
# From -- ./inp_files/117936.got.cif
#   From: 2010.06.25/outbox.cif.g09.slc.cpg/sg15_59_cif.got.tgz:117936.got - 2010.06.28 07:06:18.
