data_PCOD8154905
_publ_section_title
;
Structure prediction by ZEFSAII (Michael W. Deem and Ramdas Pophale) SiO2 
 PCOD8154905
Probable space group: C 2/C
;
_chemical_formula_sum "Si O2"
_cell_formula_units_Z 40
_cell_length_a 15.697375
_cell_length_b 14.609084
_cell_length_c 8.558739
_cell_angle_alpha 90.000000
_cell_angle_beta 64.274964
_cell_angle_gamma 90.000000
_cell_volume 1768.195724
_symmetry_space_group_name_H-M "C 2/C"
_symmetry_group_IT_number 15
_symmetry_cell_setting 'monoclinic'
loop_
_space_group_symop_operation_xyz
x,y,z
-x,y,1/2-z
-x,-y,-z
x,-y,1/2+z
1/2+x,1/2+y,z
1/2-x,1/2+y,1/2-z
1/2-x,1/2-y,-z
1/2+x,1/2-y,1/2+z
loop_
_atom_site_type_symbol
_atom_site_label
_atom_site_fract_x
_atom_site_fract_y
_atom_site_fract_z
Si Si1 0.214293 0.729432 0.854431
Si Si2 0.266126 0.053201 0.845617
Si Si3 0.498112 0.242809 0.067463
Si Si4 0.945448 0.077045 0.451505
Si Si5 0.836233 0.379768 0.608757
O O1 0.234888 0.623822 0.798055
O O2 0.266101 0.794420 0.689558
O O3 0.250000 0.750000 0.000000
O O4 0.103490 0.746407 0.918083
O O5 0.308030 0.958033 0.753264
O O6 0.160136 0.040235 0.996949
O O7 0.331605 0.088211 0.934036
O O8 0.500000 0.243845 0.250000
O O9 0.444139 0.151375 0.053562
O O10 0.439739 0.330734 0.056842
O O11 0.000000 0.099080 0.250000
O O12 0.000000 0.000000 0.500000
#
# Coordination Sequence:
#
# PCOD8154905 Si02
#       5
#     8   8   8   8   8
#     4  12  24  47  74 103 148 189 239 303 362 431
#     4  12  26  47  73 107 149 196 239 298 371 436
#     4  12  26  46  73 107 146 192 244 301 367 432
#     4  12  25  45  77 110 144 186 249 304 363 429
#     4  12  27  48  73 107 150 190 249 301 365 442
#
# _framework density 22.621931
#
# number of rings (size 3 to 8) (size 9 to 14) (size 15 to 20)
#    0.000    0.000    4.000    6.000    2.800    0.800 
#    0.000    0.000    0.000    0.000    0.000    0.000 
#    0.000    0.000    0.000    0.000    0.000    0.000 
#
# Total GULP energy -248175.784156 kJ/mol
# GULP energy per Si atom -12408.789208 kJ/mol
# Density = 2.257044 g / cm^3
# Si number density = 22.621931 Si / 1000 Ang^3
#
#
#
# Elastic Constant Matrix: (Units=GPa)
#
#
# Indices 1 2 3 4 5 6 
#
# 1 136.8071 47.4937 49.6760 0.0000 0.8407 0.0000
# 2 47.4937 121.4647 17.6417 0.0000 6.5661 0.0000
# 3 49.6760 17.6417 61.9494 0.0000 22.9469 0.0000
# 4 0.0000 0.0000 0.0000 43.9076 0.0000 0.1385
# 5 0.8407 6.5661 22.9469 0.0000 42.2060 0.0000
# 6 0.0000 0.0000 0.0000 0.1385 0.0000 45.9198
#
#
#
# Elastic Compliance Matrix: (Units=1/GPa)
#
#
# Indices 1 2 3 4 5 6 
#
# 1 0.012777 -0.003661 -0.011670 0.000000 0.006660 0.000000
# 2 -0.003661 0.009637 0.000901 0.000000 -0.001916 0.000000
# 3 -0.011670 0.000901 0.031567 0.000000 -0.017070 0.000000
# 4 0.000000 0.000000 0.000000 0.022775 0.000000 -0.000069
# 5 0.006660 -0.001916 -0.017070 0.000000 0.033140 0.000000
# 6 0.000000 0.000000 0.000000 -0.000069 0.000000 0.021777
#
#
# Mechanical properties :
#
#
# Convention : Reuss Voigt Hill
#
# Bulk Modulus (GPa) = 39.80772 61.09379 50.45075
# Shear Modulus (GPa) = 29.60221 40.10068 34.85144
#
# Velocity S-wave (km/s) = 3.62133 4.21485 3.92931
# Velocity P-wave (km/s) = 5.92626 7.12402 6.55256
#
# Compressibility (1/GPa) = 0.02512075
#
# Stress axis : x y z
#
# Youngs Moduli (GPa) = 78.26514 103.76640 31.67912
#
# Poissons Ratio (x) = 0.37989 0.36970
# Poissons Ratio (y) = 0.28653 -0.02855
# Poissons Ratio (z) = 0.91336 -0.09350
#
# Static dielectric constant tensor:
#      x y z
#    x 4.707000 0.000000 -0.359920 
#    y 0.000000 4.260730 0.000000 
#    z -0.359920 0.000000 4.939180 
# 
# 
# High freq. dielectric constant tensor:
#      x y z
#    x 1.904700 0.000000 -0.001590 
#    y 0.000000 1.901590 0.000000 
#    z -0.001590 0.000000 1.900500 
# 
# From -- ./inp_files/37792.got.cif
#   From: 2010.06.25/outbox.cif.g09.slc.cpg/sg15_19_cif.got.tgz:37792.got - 2010.06.28 07:06:18.
