data_PCOD8154407
_publ_section_title
;
Structure prediction by ZEFSAII (Michael W. Deem and Ramdas Pophale) SiO2 
 PCOD8154407
Probable space group: C 2/C
;
_chemical_formula_sum "Si O2"
_cell_formula_units_Z 40
_cell_length_a 5.354003
_cell_length_b 18.705000
_cell_length_c 17.352809
_cell_angle_alpha 90.000000
_cell_angle_beta 97.788063
_cell_angle_gamma 90.000000
_cell_volume 1721.795738
_symmetry_space_group_name_H-M "C 2/C"
_symmetry_group_IT_number 15
_symmetry_cell_setting 'monoclinic'
loop_
_space_group_symop_operation_xyz
x,y,z
-x,y,1/2-z
-x,-y,-z
x,-y,1/2+z
1/2+x,1/2+y,z
1/2-x,1/2+y,1/2-z
1/2-x,1/2-y,-z
1/2+x,1/2-y,1/2+z
loop_
_atom_site_type_symbol
_atom_site_label
_atom_site_fract_x
_atom_site_fract_y
_atom_site_fract_z
Si Si1 0.861023 0.308883 0.950704
Si Si2 0.457785 0.604672 0.336810
Si Si3 0.051918 0.054437 0.661390
Si Si4 0.337047 0.241340 0.169715
Si Si5 0.040232 0.629973 0.607749
O O1 0.682775 0.356968 0.890558
O O2 0.018122 0.254320 0.904409
O O3 0.750000 0.250000 0.000000
O O4 0.000338 0.363076 0.014182
O O5 0.500000 0.590819 0.250000
O O6 0.401359 0.526159 0.368314
O O7 0.221076 0.657149 0.328802
O O8 0.300148 0.097719 0.643832
O O9 0.000000 0.060492 0.750000
O O10 0.791500 0.082462 0.615665
O O11 0.500000 0.266155 0.250000
O O12 0.095575 0.293685 0.152567
#
# Coordination Sequence:
#
# PCOD8154407 Si02
#       5
#     8   8   8   8   8
#     4  12  26  46  75 112 152 188 251 317 372 436
#     4  11  26  48  76 108 145 199 253 306 369 446
#     4  11  28  49  75 107 156 198 252 303 372 449
#     4  12  26  47  80 106 145 200 258 307 368 452
#     4  12  27  47  75 114 150 197 242 316 379 440
#
# _framework density 23.231556999999999
#
# number of rings (size 3 to 8) (size 9 to 14) (size 15 to 20)
#    0.000    0.400    4.000    3.000    5.600    4.800 
#    0.000    0.000    0.000    0.000    0.000    0.000 
#    0.000    0.000    0.000    0.000    0.000    0.000 
#
# Total GULP energy -247764.401109 kJ/mol
# GULP energy per Si atom -12388.220055 kJ/mol
# Density = 2.317868 g / cm^3
# Si number density = 23.231557 Si / 1000 Ang^3
#
#
#
# Elastic Constant Matrix: (Units=GPa)
#
#
# Indices 1 2 3 4 5 6 
#
# 1 147.3339 68.3000 47.6246 0.0000 -3.0867 0.0000
# 2 68.3000 170.9859 49.4193 0.0000 -1.8115 0.0000
# 3 47.6246 49.4193 103.8525 0.0000 14.3750 0.0000
# 4 0.0000 0.0000 0.0000 126.7978 0.0000 80.0778
# 5 -3.0867 -1.8115 14.3750 0.0000 45.5900 0.0000
# 6 0.0000 0.0000 0.0000 80.0778 0.0000 113.2933
#
#
#
# Elastic Compliance Matrix: (Units=1/GPa)
#
#
# Indices 1 2 3 4 5 6 
#
# 1 0.009072 -0.002721 -0.003069 0.000000 0.001474 0.000000
# 2 -0.002721 0.007677 -0.002533 0.000000 0.000919 0.000000
# 3 -0.003069 -0.002533 0.012845 0.000000 -0.004359 0.000000
# 4 0.000000 0.000000 0.000000 0.014246 0.000000 -0.010069
# 5 0.001474 0.000919 -0.004359 0.000000 0.023445 0.000000
# 6 0.000000 0.000000 0.000000 -0.010069 0.000000 0.015944
#
#
# Mechanical properties :
#
#
# Convention : Reuss Voigt Hill
#
# Bulk Modulus (GPa) = 77.23249 83.65114 80.44181
# Shear Modulus (GPa) = 47.98919 74.25811 61.12365
#
# Velocity S-wave (km/s) = 4.54992 5.65983 5.13495
# Velocity P-wave (km/s) = 7.80507 8.87679 8.35812
#
# Compressibility (1/GPa) = 0.01294792
#
# Stress axis : x y z
#
# Youngs Moduli (GPa) = 110.23336 130.25800 77.85084
#
# Poissons Ratio (x) = 0.35442 0.23895
# Poissons Ratio (y) = 0.29994 0.19717
# Poissons Ratio (z) = 0.33834 0.32991
#
# Static dielectric constant tensor:
#      x y z
#    x 4.158140 0.000000 0.222720 
#    y 0.000000 1.056320 0.000000 
#    z 0.222720 0.000000 3.858810 
# 
# 
# High freq. dielectric constant tensor:
#      x y z
#    x 1.917650 0.000000 0.008220 
#    y 0.000000 1.936780 0.000000 
#    z 0.008220 0.000000 1.936880 
# 
# From -- ./inp_files/184399.got.cif
#   From: 2010.06.25/outbox.cif.g09.slc.cpg/sg15_93_cif.got.tgz:184399.got - 2010.06.28 07:06:18.
