data_PCOD8154629
_publ_section_title
;
Structure prediction by ZEFSAII (Michael W. Deem and Ramdas Pophale) SiO2 
 PCOD8154629
Probable space group: C 2/C
;
_chemical_formula_sum "Si O2"
_cell_formula_units_Z 40
_cell_length_a 18.908625
_cell_length_b 8.709629
_cell_length_c 27.752524
_cell_angle_alpha 90.000000
_cell_angle_beta 157.112157
_cell_angle_gamma 90.000000
_cell_volume 1777.591002
_symmetry_space_group_name_H-M "C 2/C"
_symmetry_group_IT_number 15
_symmetry_cell_setting 'monoclinic'
loop_
_space_group_symop_operation_xyz
x,y,z
-x,y,1/2-z
-x,-y,-z
x,-y,1/2+z
1/2+x,1/2+y,z
1/2-x,1/2+y,1/2-z
1/2-x,1/2-y,-z
1/2+x,1/2-y,1/2+z
loop_
_atom_site_type_symbol
_atom_site_label
_atom_site_fract_x
_atom_site_fract_y
_atom_site_fract_z
Si Si1 0.386502 0.518917 0.292667
Si Si2 0.170370 0.186451 0.650783
Si Si3 0.209832 0.669600 0.601710
Si Si4 0.913316 0.481161 0.744415
Si Si5 0.758595 0.579032 0.985870
O O1 0.322657 0.691998 0.263956
O O2 0.387114 0.420867 0.341418
O O3 0.243635 0.450290 0.165255
O O4 0.589285 0.521051 0.398246
O O5 0.993803 0.271796 0.520491
O O6 0.241961 0.084859 0.651252
O O7 0.354244 0.806893 0.697250
O O8 0.239635 0.579711 0.570531
O O9 0.000000 0.548930 0.750000
O O10 0.055281 0.493840 0.877531
O O11 0.750000 0.750000 0.000000
#
# Coordination Sequence:
#
# PCOD8154629 Si02
#       5
#     8   8   8   8   8
#     4  12  25  43  68  97 133 175 215 274 323 386
#     4  12  27  43  66 100 134 169 223 271 328 382
#     4  12  22  44  71  94 132 177 217 263 329 391
#     4  12  24  42  68  97 132 174 220 269 322 391
#     4  12  22  43  70  98 129 174 221 259 324 395
#
# _framework density 22.502365000000001
#
# number of rings (size 3 to 8) (size 9 to 14) (size 15 to 20)
#    0.000    0.000    6.000    4.200    0.000    4.000 
#    0.000    0.000    0.000    0.000    0.000    0.000 
#    0.000    0.000    0.000    0.000    0.000    0.000 
#
# Total GULP energy -248172.537631 kJ/mol
# GULP energy per Si atom -12408.626882 kJ/mol
# Density = 2.245115 g / cm^3
# Si number density = 22.502365 Si / 1000 Ang^3
#
#
#
# Elastic Constant Matrix: (Units=GPa)
#
#
# Indices 1 2 3 4 5 6 
#
# 1 133.4663 23.3084 35.4142 0.0041 9.1968 -0.0004
# 2 23.3084 55.2660 13.8192 0.0144 10.6500 -0.0008
# 3 35.4142 13.8192 111.3477 0.0674 8.2964 -0.0149
# 4 0.0041 0.0144 0.0674 15.9114 -0.0013 5.2511
# 5 9.1968 10.6500 8.2964 -0.0013 36.3348 0.0015
# 6 -0.0004 -0.0008 -0.0149 5.2511 0.0015 29.3818
#
#
#
# Elastic Compliance Matrix: (Units=1/GPa)
#
#
# Indices 1 2 3 4 5 6 
#
# 1 0.008678 -0.002920 -0.002338 0.000011 -0.000807 -0.000003
# 2 -0.002920 0.020606 -0.001255 -0.000014 -0.005014 0.000003
# 3 -0.002338 -0.001255 0.009978 -0.000045 -0.001319 0.000013
# 4 0.000011 -0.000014 -0.000045 0.066787 0.000014 -0.011936
# 5 -0.000807 -0.005014 -0.001319 0.000014 0.029497 -0.000005
# 6 -0.000003 0.000003 0.000013 -0.011936 -0.000005 0.036168
#
#
# Mechanical properties :
#
#
# Convention : Reuss Voigt Hill
#
# Bulk Modulus (GPa) = 38.11384 49.46263 43.78824
# Shear Modulus (GPa) = 25.84163 31.49480 28.66822
#
# Velocity S-wave (km/s) = 3.39248 3.74521 3.57320
# Velocity P-wave (km/s) = 5.68504 6.38208 6.04362
#
# Compressibility (1/GPa) = 0.02623719
#
# Stress axis : x y z
#
# Youngs Moduli (GPa) = 115.22907 48.52978 100.21629
#
# Poissons Ratio (x) = 0.14171 0.23427
# Poissons Ratio (y) = 0.33648 0.12578
# Poissons Ratio (z) = 0.26936 0.06091
#
# Static dielectric constant tensor:
#      x y z
#    x 4.465650 0.000070 -0.013430 
#    y 0.000070 3.918860 -0.000130 
#    z -0.013430 -0.000130 4.334940 
# 
# 
# High freq. dielectric constant tensor:
#      x y z
#    x 1.899610 0.000000 0.006540 
#    y 0.000000 1.868790 0.000000 
#    z 0.006540 0.000000 1.903940 
# 
# From -- ./inp_files/218768.got.cif
#   From: 2010.06.25/outbox.cif.g09.slc.cpg/sg15_110_cif.got.tgz:218768.got - 2010.06.28 07:06:18.
