data_PCOD8154502
_publ_section_title
;
Structure prediction by ZEFSAII (Michael W. Deem and Ramdas Pophale) SiO2 
 PCOD8154502
Probable space group: C 2/C
;
_chemical_formula_sum "Si O2"
_cell_formula_units_Z 60
_cell_length_a 26.385843
_cell_length_b 22.482774
_cell_length_c 9.770130
_cell_angle_alpha 90.000000
_cell_angle_beta 27.459450
_cell_angle_gamma 90.000000
_cell_volume 2672.611670
_symmetry_space_group_name_H-M "C 2/C"
_symmetry_group_IT_number 15
_symmetry_cell_setting 'monoclinic'
loop_
_space_group_symop_operation_xyz
x,y,z
-x,y,1/2-z
-x,-y,-z
x,-y,1/2+z
1/2+x,1/2+y,z
1/2-x,1/2+y,1/2-z
1/2-x,1/2-y,-z
1/2+x,1/2-y,1/2+z
loop_
_atom_site_type_symbol
_atom_site_label
_atom_site_fract_x
_atom_site_fract_y
_atom_site_fract_z
Si Si1 0.274314 0.708437 0.793014
Si Si2 0.234697 0.428753 0.742985
Si Si3 0.500000 0.523337 0.250000
Si Si4 0.028219 0.713987 0.333865
Si Si5 0.398360 0.181774 0.903344
Si Si6 0.697641 0.477491 0.641769
Si Si7 0.399928 0.336110 0.257306
Si Si8 0.382577 0.389311 0.861741
O O1 0.293717 0.776859 0.696639
O O2 0.324425 0.696513 0.822629
O O3 0.332548 0.670482 0.537930
O O4 0.146546 0.689846 0.101192
O O5 0.237391 0.469908 0.871378
O O6 0.243941 0.469473 0.584648
O O7 0.332527 0.380472 0.516015
O O8 0.124979 0.387912 0.008262
O O9 0.435011 0.485509 0.520371
O O10 0.605911 0.558958 0.053115
O O11 0.036453 0.785723 0.309480
O O12 0.000000 0.690499 0.250000
O O13 0.931670 0.690843 0.664901
O O14 0.500000 0.204711 0.750000
O O15 0.699133 0.414298 0.558939
O O16 0.490505 0.378022 0.974439
#
# Coordination Sequence:
#
# PCOD8154502 Si02
#       8
#     8   8   4   8   8   8   8   8
#     4  12  23  44  75 103 143 188 231 283 357 436
#     4  12  27  45  73 100 143 188 240 288 361 413
#     4  12  20  42  64 104 140 178 228 292 350 412
#     4  12  28  43  68 110 149 180 230 289 355 428
#     4  12  25  48  75 104 140 189 239 288 351 432
#     4  12  26  44  65 104 145 189 235 295 349 424
#     4  12  22  42  70 109 141 183 223 285 359 434
#     4  12  22  37  70 102 141 177 228 288 352 411
#
# _framework density 22.449950000000001
#
# number of rings (size 3 to 8) (size 9 to 14) (size 15 to 20)
#    0.000    0.000    8.000    2.400    3.733    0.533 
#    0.000    0.667    0.000    0.000    0.000    0.000 
#    0.000    0.000    0.000    0.000    0.000    0.000 
#
# Total GULP energy -371933.128736 kJ/mol
# GULP energy per Si atom -12397.770958 kJ/mol
# Density = 2.239885 g / cm^3
# Si number density = 22.449950 Si / 1000 Ang^3
#
#
#
# Elastic Constant Matrix: (Units=GPa)
#
#
# Indices 1 2 3 4 5 6 
#
# 1 67.3123 36.2778 31.9086 -0.0001 16.3737 0.0000
# 2 36.2778 93.4435 32.2004 -0.0001 14.6392 0.0000
# 3 31.9086 32.2004 96.0508 -0.0002 13.8738 0.0000
# 4 -0.0001 -0.0001 -0.0002 30.5383 0.0002 -6.3550
# 5 16.3737 14.6392 13.8738 0.0002 36.0332 0.0000
# 6 0.0000 0.0000 0.0000 -6.3550 0.0000 35.4133
#
#
#
# Elastic Compliance Matrix: (Units=1/GPa)
#
#
# Indices 1 2 3 4 5 6 
#
# 1 0.021504 -0.005969 -0.004322 0.000000 -0.005683 0.000000
# 2 -0.005969 0.014201 -0.002474 0.000000 -0.002105 0.000000
# 3 -0.004322 -0.002474 0.012969 0.000000 -0.002024 0.000000
# 4 0.000000 0.000000 0.000000 0.034016 0.000000 0.006104
# 5 -0.005683 -0.002105 -0.002024 0.000000 0.031969 0.000000
# 6 0.000000 0.000000 0.000000 0.006104 0.000000 0.029333
#
#
# Mechanical properties :
#
#
# Convention : Reuss Voigt Hill
#
# Bulk Modulus (GPa) = 43.20714 50.84223 47.02469
# Shear Modulus (GPa) = 28.21082 30.82496 29.51789
#
# Velocity S-wave (km/s) = 3.54871 3.70949 3.62999
# Velocity P-wave (km/s) = 6.00657 6.40650 6.20976
#
# Compressibility (1/GPa) = 0.02314432
#
# Stress axis : x y z
#
# Youngs Moduli (GPa) = 46.50261 70.41628 77.10878
#
# Poissons Ratio (x) = 0.42032 0.33326
# Poissons Ratio (y) = 0.27758 0.19076
# Poissons Ratio (z) = 0.20098 0.17420
#
# Static dielectric constant tensor:
#      x y z
#    x 3.727030 0.000000 0.217700 
#    y 0.000000 4.101860 0.000000 
#    z 0.217700 0.000000 4.140130 
# 
# 
# High freq. dielectric constant tensor:
#      x y z
#    x 1.862460 0.000000 0.020620 
#    y 0.000000 1.889030 0.000000 
#    z 0.020620 0.000000 1.890210 
# 
# From -- ./inp_files/67718.got.cif
#   From: 2010.06.25/outbox.cif.g09.slc.cpg/sg15_34_cif.got.tgz:67718.got - 2010.06.28 07:06:18.
