data_PCOD8154356
_publ_section_title
;
Structure prediction by ZEFSAII (Michael W. Deem and Ramdas Pophale) SiO2 
 PCOD8154356
Probable space group: C 2/C
;
_chemical_formula_sum "Si O2"
_cell_formula_units_Z 36
_cell_length_a 11.110110
_cell_length_b 13.541728
_cell_length_c 19.811978
_cell_angle_alpha 90.000000
_cell_angle_beta 145.596824
_cell_angle_gamma 90.000000
_cell_volume 1684.141286
_symmetry_space_group_name_H-M "C 2/C"
_symmetry_group_IT_number 15
_symmetry_cell_setting 'monoclinic'
loop_
_space_group_symop_operation_xyz
x,y,z
-x,y,1/2-z
-x,-y,-z
x,-y,1/2+z
1/2+x,1/2+y,z
1/2-x,1/2+y,1/2-z
1/2-x,1/2-y,-z
1/2+x,1/2-y,1/2+z
loop_
_atom_site_type_symbol
_atom_site_label
_atom_site_fract_x
_atom_site_fract_y
_atom_site_fract_z
Si Si1 0.033406 0.187541 0.588545
Si Si2 0.446120 0.140140 0.147674
Si Si3 0.680957 0.049645 0.700577
Si Si4 0.500000 0.444666 0.750000
Si Si5 0.837620 0.689486 0.478513
O O1 0.212742 0.106421 0.687450
O O2 0.079623 0.232757 0.537471
O O3 0.805522 0.134242 0.481541
O O4 0.047975 0.270873 0.652635
O O5 0.500000 0.159952 0.250000
O O6 0.544266 0.038455 0.167825
O O7 0.532724 0.120590 0.588602
O O8 0.864882 0.014058 0.736003
O O9 0.352131 0.376194 0.636798
O O10 0.750000 0.750000 0.500000
#
# Coordination Sequence:
#
# PCOD8154356 Si02
#       5
#     8   8   8   4   8
#     4  11  26  47  72 101 142 186 231 288 348 415
#     4  11  26  46  72 103 139 185 235 283 351 416
#     4  12  27  46  72 103 142 183 235 289 347 417
#     4  12  26  46  72 104 138 186 236 284 350 412
#     4  12  27  47  71 104 143 185 232 291 348 413
#
# _framework density 21.375879000000001
#
# number of rings (size 3 to 8) (size 9 to 14) (size 15 to 20)
#    0.000    0.444    2.222    4.667   14.000    0.889 
#    0.000    0.000    0.000    0.000    0.000    0.000 
#    0.000    0.000    0.000    0.000    0.000    0.000 
#
# Total GULP energy -223364.191923 kJ/mol
# GULP energy per Si atom -12409.121773 kJ/mol
# Density = 2.132723 g / cm^3
# Si number density = 21.375879 Si / 1000 Ang^3
#
#
#
# Elastic Constant Matrix: (Units=GPa)
#
#
# Indices 1 2 3 4 5 6 
#
# 1 141.8391 65.3755 31.2790 0.0001 -1.9130 -0.0002
# 2 65.3755 137.7502 70.4353 0.0001 9.8981 -0.0002
# 3 31.2790 70.4353 122.7324 0.0007 6.5207 -0.0006
# 4 0.0001 0.0001 0.0007 51.9414 0.0000 -8.8422
# 5 -1.9130 9.8981 6.5207 0.0000 38.3999 0.0000
# 6 -0.0002 -0.0002 -0.0006 -8.8422 0.0000 40.0027
#
#
#
# Elastic Compliance Matrix: (Units=1/GPa)
#
#
# Indices 1 2 3 4 5 6 
#
# 1 0.009123 -0.004546 0.000199 0.000000 0.001592 0.000000
# 2 -0.004546 0.012646 -0.005968 0.000000 -0.002473 0.000000
# 3 0.000199 -0.005968 0.011544 0.000000 -0.000412 0.000000
# 4 0.000000 0.000000 0.000000 0.020005 0.000000 0.004422
# 5 0.001592 -0.002473 -0.000412 0.000000 0.026828 0.000000
# 6 0.000000 0.000000 0.000000 0.004422 0.000000 0.025976
#
#
# Mechanical properties :
#
#
# Convention : Reuss Voigt Hill
#
# Bulk Modulus (GPa) = 78.83839 81.83348 80.33593
# Shear Modulus (GPa) = 38.17401 41.75093 39.96247
#
# Velocity S-wave (km/s) = 4.23051 4.42427 4.32848
# Velocity P-wave (km/s) = 7.79904 8.02902 7.91486
#
# Compressibility (1/GPa) = 0.01268418
#
# Stress axis : x y z
#
# Youngs Moduli (GPa) = 109.61135 79.07545 86.62776
#
# Poissons Ratio (x) = 0.35949 -0.01727
# Poissons Ratio (y) = 0.49831 0.51696
# Poissons Ratio (z) = -0.02185 0.47189
#
# Static dielectric constant tensor:
#      x y z
#    x 4.020130 0.000000 0.064150 
#    y 0.000000 4.037030 0.000000 
#    z 0.064150 0.000000 4.198620 
# 
# 
# High freq. dielectric constant tensor:
#      x y z
#    x 1.853490 0.000000 0.001440 
#    y 0.000000 1.854050 0.000000 
#    z 0.001440 0.000000 1.862990 
# 
# From -- ./inp_files/85343.got.cif
#   From: 2010.06.25/outbox.cif.g09.slc.cpg/sg15_43_cif.got.tgz:85343.got - 2010.06.28 07:06:18.
