data_PCOD8154987
_publ_section_title
;
Structure prediction by ZEFSAII (Michael W. Deem and Ramdas Pophale) SiO2 
 PCOD8154987
Probable space group: C 2/C
;
_chemical_formula_sum "Si O2"
_cell_formula_units_Z 40
_cell_length_a 10.834398
_cell_length_b 11.657065
_cell_length_c 24.890778
_cell_angle_alpha 90.000000
_cell_angle_beta 146.292235
_cell_angle_gamma 90.000000
_cell_volume 1744.584235
_symmetry_space_group_name_H-M "C 2/C"
_symmetry_group_IT_number 15
_symmetry_cell_setting 'monoclinic'
loop_
_space_group_symop_operation_xyz
x,y,z
-x,y,1/2-z
-x,-y,-z
x,-y,1/2+z
1/2+x,1/2+y,z
1/2-x,1/2+y,1/2-z
1/2-x,1/2-y,-z
1/2+x,1/2-y,1/2+z
loop_
_atom_site_type_symbol
_atom_site_label
_atom_site_fract_x
_atom_site_fract_y
_atom_site_fract_z
Si Si1 0.124725 0.324537 0.349868
Si Si2 0.531236 0.613822 0.144406
Si Si3 0.396184 0.311409 0.947096
Si Si4 0.330542 0.926421 0.472344
Si Si5 0.983683 0.550908 0.143255
O O1 0.390773 0.334949 0.437629
O O2 0.033721 0.412646 0.362352
O O3 0.000000 0.355667 0.250000
O O4 0.076993 0.195210 0.350267
O O5 0.515634 0.679398 0.081918
O O6 0.398578 0.493666 0.098560
O O7 0.784308 0.593250 0.250545
O O8 0.283929 0.189367 0.921834
O O9 0.210717 0.407618 0.887386
O O10 0.446688 0.896846 0.570956
O O11 0.500000 0.000000 0.500000
#
# Coordination Sequence:
#
# PCOD8154987 Si02
#       5
#     8   8   8   8   8
#     4  12  25  45  73 104 149 191 241 304 369 442
#     4  12  27  48  72 113 148 193 250 307 373 441
#     4  12  25  50  74 105 147 194 248 303 376 441
#     4  12  26  48  76 107 146 196 243 306 369 443
#     4  12  28  46  76 107 145 194 248 305 373 445
#
# _framework density 22.928100000000001
#
# number of rings (size 3 to 8) (size 9 to 14) (size 15 to 20)
#    0.000    0.000    4.000    6.000    5.600    0.000 
#    3.600    0.000    0.000    0.000    0.000    0.000 
#    0.000    0.000    0.000    0.000    0.000    0.000 
#
# Total GULP energy -248129.504273 kJ/mol
# GULP energy per Si atom -12406.475214 kJ/mol
# Density = 2.287591 g / cm^3
# Si number density = 22.928100 Si / 1000 Ang^3
#
#
#
# Elastic Constant Matrix: (Units=GPa)
#
#
# Indices 1 2 3 4 5 6 
#
# 1 99.7853 28.4442 47.5823 0.0000 3.7563 0.0000
# 2 28.4442 111.3965 42.6486 0.0000 0.8933 0.0000
# 3 47.5823 42.6486 165.9019 0.0000 28.8882 0.0000
# 4 0.0000 0.0000 0.0000 28.7917 0.0000 1.0966
# 5 3.7563 0.8933 28.8882 0.0000 30.9923 0.0000
# 6 0.0000 0.0000 0.0000 1.0966 0.0000 53.7063
#
#
#
# Elastic Compliance Matrix: (Units=1/GPa)
#
#
# Indices 1 2 3 4 5 6 
#
# 1 0.012041 -0.001837 -0.003267 0.000000 0.001638 0.000000
# 2 -0.001837 0.010403 -0.002547 0.000000 0.002297 0.000000
# 3 -0.003267 -0.002547 0.008998 0.000000 -0.007918 0.000000
# 4 0.000000 0.000000 0.000000 0.034759 0.000000 -0.000710
# 5 0.001638 0.002297 -0.007918 0.000000 0.039382 0.000000
# 6 0.000000 0.000000 0.000000 -0.000710 0.000000 0.018634
#
#
# Mechanical properties :
#
#
# Convention : Reuss Voigt Hill
#
# Bulk Modulus (GPa) = 61.95766 68.27043 65.11405
# Shear Modulus (GPa) = 34.50667 39.92529 37.21598
#
# Velocity S-wave (km/s) = 3.88363 4.17745 4.03322
# Velocity P-wave (km/s) = 6.86960 7.28756 7.08167
#
# Compressibility (1/GPa) = 0.01614005
#
# Stress axis : x y z
#
# Youngs Moduli (GPa) = 83.04842 96.12699 111.13439
#
# Poissons Ratio (x) = 0.17660 0.36302
# Poissons Ratio (y) = 0.15257 0.28310
# Poissons Ratio (z) = 0.27128 0.24487
#
# Static dielectric constant tensor:
#      x y z
#    x 4.212550 0.000000 -0.013400 
#    y 0.000000 4.440330 0.000000 
#    z -0.013400 0.000000 4.224320 
# 
# 
# High freq. dielectric constant tensor:
#      x y z
#    x 1.909200 0.000000 0.005040 
#    y 0.000000 1.915570 0.000000 
#    z 0.005040 0.000000 1.914490 
# 
# From -- ./inp_files/142343.got.cif
#   From: 2010.06.25/outbox.cif.g09.slc.cpg/sg15_72_cif.got.tgz:142343.got - 2010.06.28 07:06:18.
