data_PCOD8154162
_publ_section_title
;
Structure prediction by ZEFSAII (Michael W. Deem and Ramdas Pophale) SiO2 
 PCOD8154162
Probable space group: C 2/C
;
_chemical_formula_sum "Si O2"
_cell_formula_units_Z 32
_cell_length_a 26.679958
_cell_length_b 5.052759
_cell_length_c 24.111867
_cell_angle_alpha 90.000000
_cell_angle_beta 157.714397
_cell_angle_gamma 90.000000
_cell_volume 1232.650616
_symmetry_space_group_name_H-M "C 2/C"
_symmetry_group_IT_number 15
_symmetry_cell_setting 'monoclinic'
loop_
_space_group_symop_operation_xyz
x,y,z
-x,y,1/2-z
-x,-y,-z
x,-y,1/2+z
1/2+x,1/2+y,z
1/2-x,1/2+y,1/2-z
1/2-x,1/2-y,-z
1/2+x,1/2-y,1/2+z
loop_
_atom_site_type_symbol
_atom_site_label
_atom_site_fract_x
_atom_site_fract_y
_atom_site_fract_z
Si Si1 0.150110 0.491310 0.598306
Si Si2 0.374173 0.150850 0.301964
Si Si3 0.678504 0.366974 0.035410
Si Si4 0.132689 0.349501 0.918792
O O1 0.288593 0.580940 0.712317
O O2 0.164486 0.484051 0.678774
O O3 0.114401 0.217229 0.529616
O O4 0.031318 0.697012 0.461401
O O5 0.328223 0.966751 0.203283
O O6 0.599014 0.615243 0.928101
O O7 0.682431 0.119069 0.998119
O O8 0.000000 0.415893 0.750000
O O9 0.250000 0.250000 0.000000
#
# Coordination Sequence:
#
# PCOD8154162 Si02
#       4
#     8   8   8   8
#     4  11  25  45  74 115 158 200 246 305 372 470
#     4  11  25  45  74 115 158 198 250 300 377 465
#     4  12  26  47  80 106 150 196 250 305 390 431
#     4  12  30  51  74 106 146 194 264 324 368 437
#
# _framework density 25.960318999999998
#
# number of rings (size 3 to 8) (size 9 to 14) (size 15 to 20)
#    0.000    0.500    5.000    1.500    7.000    3.000 
#    0.000    0.000    0.000    0.000    0.000    0.000 
#    0.000    0.000    0.000    0.000    0.000    0.000 
#
# Total GULP energy -198264.372618 kJ/mol
# GULP energy per Si atom -12391.523289 kJ/mol
# Density = 2.590123 g / cm^3
# Si number density = 25.960319 Si / 1000 Ang^3
#
#
#
# Elastic Constant Matrix: (Units=GPa)
#
#
# Indices 1 2 3 4 5 6 
#
# 1 68.3353 20.9051 17.1472 0.0003 -35.9277 0.0006
# 2 20.9051 114.6295 6.3174 0.0008 -36.1413 -0.0004
# 3 17.1472 6.3174 90.0687 0.0006 -34.7747 0.0006
# 4 0.0003 0.0008 0.0006 30.2120 0.0002 -9.9610
# 5 -35.9277 -36.1413 -34.7747 0.0002 47.2706 0.0001
# 6 0.0006 -0.0004 0.0006 -9.9610 0.0001 52.4432
#
#
#
# Elastic Compliance Matrix: (Units=1/GPa)
#
#
# Indices 1 2 3 4 5 6 
#
# 1 0.025922 0.003049 0.004690 -0.000001 0.025483 -0.000001
# 2 0.003049 0.012761 0.004450 -0.000001 0.015348 0.000000
# 3 0.004690 0.004450 0.017581 -0.000001 0.019900 0.000000
# 4 -0.000001 -0.000001 -0.000001 0.035311 -0.000002 0.006707
# 5 0.025483 0.015348 0.019900 -0.000002 0.066897 -0.000001
# 6 -0.000001 0.000000 0.000000 0.006707 -0.000001 0.020342
#
#
# Mechanical properties :
#
#
# Convention : Reuss Voigt Hill
#
# Bulk Modulus (GPa) = 12.40058 40.19699 26.29878
# Shear Modulus (GPa) = 27.57590 41.22940 34.40265
#
# Velocity S-wave (km/s) = 3.26273 3.98951 3.64428
# Velocity P-wave (km/s) = 4.35671 6.06129 5.27826
#
# Compressibility (1/GPa) = 0.08064139
#
# Stress axis : x y z
#
# Youngs Moduli (GPa) = 38.57719 78.36086 56.87959
#
# Poissons Ratio (x) = -0.23888 -0.26675
# Poissons Ratio (y) = -0.11760 -0.25312
# Poissons Ratio (z) = -0.18092 -0.34872
#
# Static dielectric constant tensor:
#      x y z
#    x 4.798350 0.000000 -0.471220 
#    y 0.000000 4.686040 0.000000 
#    z -0.471220 0.000000 4.911170 
# 
# 
# High freq. dielectric constant tensor:
#      x y z
#    x 2.034630 0.000000 -0.032980 
#    y 0.000000 2.037460 0.000000 
#    z -0.032980 0.000000 2.049390 
# 
# From -- ./inp_files/124605.got.cif
#   From: 2010.06.25/outbox.cif.g09.slc.cpg/sg15_63_cif.got.tgz:124605.got - 2010.06.28 07:06:18.
