data_PCOD8154174
_publ_section_title
;
Structure prediction by ZEFSAII (Michael W. Deem and Ramdas Pophale) SiO2 
 PCOD8154174
Probable space group: C 2/C
;
_chemical_formula_sum "Si O2"
_cell_formula_units_Z 44
_cell_length_a 6.721118
_cell_length_b 19.347777
_cell_length_c 17.008770
_cell_angle_alpha 90.000000
_cell_angle_beta 66.659845
_cell_angle_gamma 90.000000
_cell_volume 2030.804422
_symmetry_space_group_name_H-M "C 2/C"
_symmetry_group_IT_number 15
_symmetry_cell_setting 'monoclinic'
loop_
_space_group_symop_operation_xyz
x,y,z
-x,y,1/2-z
-x,-y,-z
x,-y,1/2+z
1/2+x,1/2+y,z
1/2-x,1/2+y,1/2-z
1/2-x,1/2-y,-z
1/2+x,1/2-y,1/2+z
loop_
_atom_site_type_symbol
_atom_site_label
_atom_site_fract_x
_atom_site_fract_y
_atom_site_fract_z
Si Si1 0.446969 0.158261 0.121975
Si Si2 0.000000 0.883738 0.750000
Si Si3 0.396194 0.592606 0.575104
Si Si4 0.891382 0.199164 0.851201
Si Si5 0.091652 0.313312 0.042730
Si Si6 0.176407 0.062818 0.381711
O O1 0.207888 0.162247 0.196544
O O2 0.533272 0.236100 0.109200
O O3 0.593125 0.102741 0.147134
O O4 0.440893 0.139496 0.030491
O O5 0.937234 0.929471 0.684681
O O6 0.550775 0.625923 0.617296
O O7 0.189037 0.640740 0.596889
O O8 0.523640 0.592420 0.473229
O O9 0.297331 0.518994 0.613598
O O10 0.634962 0.210571 0.885302
O O11 0.000000 0.202672 0.750000
O O12 0.250000 0.250000 0.000000
#
# Coordination Sequence:
#
# PCOD8154174 Si02
#       6
#     8   4   8   8   8   8
#     4  12  25  45  74 103 139 183 238 289 349 416
#     4  12  26  44  74 102 138 182 234 292 342 410
#     4  11  25  46  71 100 142 185 232 285 360 418
#     4  12  27  44  71 106 141 181 241 292 345 419
#     4  12  24  45  75 100 140 188 230 290 357 411
#     4  11  25  46  69 105 138 185 235 289 350 422
#
# _framework density 21.666293
#
# number of rings (size 3 to 8) (size 9 to 14) (size 15 to 20)
#    0.000    0.364    5.455    3.273    3.818    2.909 
#    3.273    0.000    0.000    0.000    0.000    0.000 
#    0.000    0.000    0.000    0.000    0.000    0.000 
#
# Total GULP energy -272840.820674 kJ/mol
# GULP energy per Si atom -12401.855485 kJ/mol
# Density = 2.161698 g / cm^3
# Si number density = 21.666293 Si / 1000 Ang^3
#
#
#
# Elastic Constant Matrix: (Units=GPa)
#
#
# Indices 1 2 3 4 5 6 
#
# 1 143.7015 50.9605 46.1775 0.0000 -20.6024 0.0000
# 2 50.9605 110.5026 13.5630 0.0000 -10.6584 0.0000
# 3 46.1775 13.5630 88.1692 0.0000 -15.8798 0.0000
# 4 0.0000 0.0000 0.0000 17.9587 0.0000 1.2497
# 5 -20.6024 -10.6584 -15.8798 0.0000 50.6264 0.0000
# 6 0.0000 0.0000 0.0000 1.2497 0.0000 33.4636
#
#
#
# Elastic Compliance Matrix: (Units=1/GPa)
#
#
# Indices 1 2 3 4 5 6 
#
# 1 0.009993 -0.003898 -0.004292 0.000000 0.001900 0.000000
# 2 -0.003898 0.010866 0.000526 0.000000 0.000866 0.000000
# 3 -0.004292 0.000526 0.014005 0.000000 0.002757 0.000000
# 4 0.000000 0.000000 0.000000 0.055828 0.000000 -0.002085
# 5 0.001900 0.000866 0.002757 0.000000 0.021573 0.000000
# 6 0.000000 0.000000 0.000000 -0.002085 0.000000 0.029961
#
#
# Mechanical properties :
#
#
# Convention : Reuss Voigt Hill
#
# Bulk Modulus (GPa) = 51.18634 62.64171 56.91402
# Shear Modulus (GPa) = 30.47538 35.85456 33.16497
#
# Velocity S-wave (km/s) = 3.75451 4.07240 3.91668
# Velocity P-wave (km/s) = 6.51700 7.14755 6.83954
#
# Compressibility (1/GPa) = 0.01953646
#
# Stress axis : x y z
#
# Youngs Moduli (GPa) = 100.07165 92.02710 71.40178
#
# Poissons Ratio (x) = 0.35876 0.30644
# Poissons Ratio (y) = 0.39012 -0.03757
# Poissons Ratio (z) = 0.42949 -0.04842
#
# Static dielectric constant tensor:
#      x y z
#    x 4.171700 0.000000 0.067710 
#    y 0.000000 3.810170 0.000000 
#    z 0.067710 0.000000 3.937120 
# 
# 
# High freq. dielectric constant tensor:
#      x y z
#    x 1.868480 0.000000 0.002210 
#    y 0.000000 1.841160 0.000000 
#    z 0.002210 0.000000 1.858120 
# 
# From -- ./inp_files/184819.got.cif
#   From: 2010.06.25/outbox.cif.g09.slc.cpg/sg15_93_cif.got.tgz:184819.got - 2010.06.28 07:06:18.
