data_PCOD8154762
_publ_section_title
;
Structure prediction by ZEFSAII (Michael W. Deem and Ramdas Pophale) SiO2 
 PCOD8154762
Probable space group: C 2/C
;
_chemical_formula_sum "Si O2"
_cell_formula_units_Z 40
_cell_length_a 18.185295
_cell_length_b 17.356077
_cell_length_c 11.588226
_cell_angle_alpha 90.000000
_cell_angle_beta 26.506569
_cell_angle_gamma 90.000000
_cell_volume 1632.360834
_symmetry_space_group_name_H-M "C 2/C"
_symmetry_group_IT_number 15
_symmetry_cell_setting 'monoclinic'
loop_
_space_group_symop_operation_xyz
x,y,z
-x,y,1/2-z
-x,-y,-z
x,-y,1/2+z
1/2+x,1/2+y,z
1/2-x,1/2+y,1/2-z
1/2-x,1/2-y,-z
1/2+x,1/2-y,1/2+z
loop_
_atom_site_type_symbol
_atom_site_label
_atom_site_fract_x
_atom_site_fract_y
_atom_site_fract_z
Si Si1 0.653564 0.684517 0.309501
Si Si2 0.175674 0.557586 0.535339
Si Si3 0.661406 0.589224 0.759526
Si Si4 0.619786 0.143192 0.842464
Si Si5 0.249728 0.325445 0.578554
O O1 0.503898 0.632941 0.465828
O O2 0.670460 0.770019 0.233827
O O3 0.631316 0.689578 0.479272
O O4 0.817277 0.638500 0.043564
O O5 0.324916 0.504130 0.272744
O O6 0.183326 0.579203 0.660932
O O7 0.000000 0.518682 0.750000
O O8 0.804411 0.620498 0.641098
O O9 0.687790 0.606103 0.587683
O O10 0.424617 0.146803 0.128135
O O11 0.250000 0.250000 0.500000
#
# Coordination Sequence:
#
# PCOD8154762 Si02
#       5
#     8   8   8   8   8
#     4  12  25  49  76 108 145 197 251 305 368 442
#     4  12  28  49  72 107 156 195 242 309 388 443
#     4  12  28  44  74 112 143 188 251 309 372 434
#     4  12  25  48  77 107 146 196 251 304 368 451
#     4  12  23  45  77 105 141 187 248 305 358 437
#
# _framework density 24.504386
#
# number of rings (size 3 to 8) (size 9 to 14) (size 15 to 20)
#    0.000    0.000    6.000    3.600    2.800    2.400 
#    3.600    0.000    0.000    0.000    0.000    0.000 
#    0.000    0.000    0.000    0.000    0.000    0.000 
#
# Total GULP energy -247823.544928 kJ/mol
# GULP energy per Si atom -12391.177246 kJ/mol
# Density = 2.444861 g / cm^3
# Si number density = 24.504386 Si / 1000 Ang^3
#
#
#
# Elastic Constant Matrix: (Units=GPa)
#
#
# Indices 1 2 3 4 5 6 
#
# 1 94.2220 18.0429 7.7108 0.0023 -7.2791 -0.0026
# 2 18.0429 125.2121 20.5048 0.0025 -7.4462 -0.0021
# 3 7.7108 20.5048 40.2971 0.0063 5.0207 -0.0029
# 4 0.0023 0.0025 0.0063 54.0785 -0.0026 11.7339
# 5 -7.2791 -7.4462 5.0207 -0.0026 28.9440 0.0023
# 6 -0.0026 -0.0021 -0.0029 11.7339 0.0023 32.4918
#
#
#
# Elastic Compliance Matrix: (Units=1/GPa)
#
#
# Indices 1 2 3 4 5 6 
#
# 1 0.011208 -0.001129 -0.001927 0.000000 0.002862 0.000001
# 2 -0.001129 0.009103 -0.004775 0.000000 0.002886 0.000000
# 3 -0.001927 -0.004775 0.028442 -0.000004 -0.006647 0.000004
# 4 0.000000 0.000000 -0.000004 0.020064 0.000003 -0.007246
# 5 0.002862 0.002886 -0.006647 0.000003 0.037165 -0.000004
# 6 0.000001 0.000000 0.000004 -0.007246 -0.000004 0.033394
#
#
# Mechanical properties :
#
#
# Convention : Reuss Voigt Hill
#
# Bulk Modulus (GPa) = 30.21996 39.13870 34.67933
# Shear Modulus (GPa) = 30.10799 37.33437 33.72118
#
# Velocity S-wave (km/s) = 3.50905 3.90754 3.71364
# Velocity P-wave (km/s) = 5.36444 6.03036 5.70712
#
# Compressibility (1/GPa) = 0.03309071
#
# Stress axis : x y z
#
# Youngs Moduli (GPa) = 89.21956 109.85577 35.15875
#
# Poissons Ratio (x) = 0.12407 0.06774
# Poissons Ratio (y) = 0.10076 0.16790
# Poissons Ratio (z) = 0.17190 0.52460
#
# Static dielectric constant tensor:
#      x y z
#    x 1.572680 0.000190 -0.785650 
#    y 0.000190 4.695030 0.000060 
#    z -0.785650 0.000060 4.080170 
# 
# 
# High freq. dielectric constant tensor:
#      x y z
#    x 1.972360 0.000000 0.001250 
#    y 0.000000 1.986120 0.000000 
#    z 0.001250 0.000000 1.972480 
# 
# From -- ./inp_files/106816.got.cif
#   From: 2010.06.25/outbox.cif.g09.slc.cpg/sg15_54_cif.got.tgz:106816.got - 2010.06.28 07:06:18.
