data_PCOD8154847
_publ_section_title
;
Structure prediction by ZEFSAII (Michael W. Deem and Ramdas Pophale) SiO2 
 PCOD8154847
Probable space group: C 2/C
;
_chemical_formula_sum "Si O2"
_cell_formula_units_Z 48
_cell_length_a 26.558362
_cell_length_b 13.334652
_cell_length_c 8.562152
_cell_angle_alpha 90.000000
_cell_angle_beta 46.135156
_cell_angle_gamma 90.000000
_cell_volume 2186.185343
_symmetry_space_group_name_H-M "C 2/C"
_symmetry_group_IT_number 15
_symmetry_cell_setting 'monoclinic'
loop_
_space_group_symop_operation_xyz
x,y,z
-x,y,1/2-z
-x,-y,-z
x,-y,1/2+z
1/2+x,1/2+y,z
1/2-x,1/2+y,1/2-z
1/2-x,1/2-y,-z
1/2+x,1/2-y,1/2+z
loop_
_atom_site_type_symbol
_atom_site_label
_atom_site_fract_x
_atom_site_fract_y
_atom_site_fract_z
Si Si1 0.823055 0.609433 0.952777
Si Si2 0.566581 0.736624 0.199550
Si Si3 0.309031 0.308236 0.589548
Si Si4 0.434422 0.392481 0.505080
Si Si5 0.789728 0.414188 0.166216
Si Si6 0.649091 0.591030 0.814356
O O1 0.764924 0.669879 0.172900
O O2 0.840170 0.501390 0.993020
O O3 0.895040 0.670867 0.799230
O O4 0.794644 0.595578 0.840248
O O5 0.500000 0.778755 0.250000
O O6 0.542611 0.654138 0.378666
O O7 0.617035 0.687714 0.964163
O O8 0.371944 0.324665 0.574509
O O9 0.308599 0.190855 0.542324
O O10 0.318594 0.378015 0.419879
O O11 0.500000 0.391378 0.250000
O O12 0.409099 0.506006 0.586909
O O13 0.711252 0.450907 0.290252
#
# Coordination Sequence:
#
# PCOD8154847 Si02
#       6
#     8   8   8   8   8   8
#     4  12  26  46  73 106 145 189 246 309 354 435
#     4  12  27  49  71 102 148 198 247 299 364 429
#     4  12  24  44  74 108 151 188 239 299 367 433
#     4  12  26  48  73 108 152 194 238 302 366 439
#     4  12  25  44  73 109 144 187 243 301 364 425
#     4  12  25  41  76 113 147 188 236 298 374 444
#
# _framework density 21.956052
#
# number of rings (size 3 to 8) (size 9 to 14) (size 15 to 20)
#    0.000    0.000    5.000    5.500    2.333    2.000 
#    0.000    1.667    0.000    0.000    0.000    0.000 
#    0.000    0.000    0.000    0.000    0.000    0.000 
#
# Total GULP energy -297802.512879 kJ/mol
# GULP energy per Si atom -12408.438037 kJ/mol
# Density = 2.190608 g / cm^3
# Si number density = 21.956052 Si / 1000 Ang^3
#
#
#
# Elastic Constant Matrix: (Units=GPa)
#
#
# Indices 1 2 3 4 5 6 
#
# 1 123.8215 31.8971 44.7172 0.0000 10.2287 0.0000
# 2 31.8971 123.5409 25.4905 0.0000 -1.1938 0.0000
# 3 44.7172 25.4905 93.5541 0.0000 9.8502 0.0000
# 4 0.0000 0.0000 0.0000 26.0190 0.0000 -8.1903
# 5 10.2287 -1.1938 9.8502 0.0000 30.9819 0.0000
# 6 0.0000 0.0000 0.0000 -8.1903 0.0000 18.5489
#
#
#
# Elastic Compliance Matrix: (Units=1/GPa)
#
#
# Indices 1 2 3 4 5 6 
#
# 1 0.010221 -0.001799 -0.004173 0.000000 -0.002117 0.000000
# 2 -0.001799 0.008930 -0.001730 0.000000 0.001488 0.000000
# 3 -0.004173 -0.001730 0.013468 0.000000 -0.002971 0.000000
# 4 0.000000 0.000000 0.000000 0.044638 0.000000 0.019710
# 5 -0.002117 0.001488 -0.002971 0.000000 0.033978 0.000000
# 6 0.000000 0.000000 0.000000 0.019710 0.000000 0.062614
#
#
# Mechanical properties :
#
#
# Convention : Reuss Voigt Hill
#
# Bulk Modulus (GPa) = 58.08403 60.56959 59.32681
# Shear Modulus (GPa) = 25.64225 31.03072 28.33649
#
# Velocity S-wave (km/s) = 3.42115 3.76348 3.59639
# Velocity P-wave (km/s) = 6.48982 6.82141 6.65768
#
# Compressibility (1/GPa) = 0.01721644
#
# Stress axis : x y z
#
# Youngs Moduli (GPa) = 97.83515 111.97921 74.25193
#
# Poissons Ratio (x) = 0.20140 0.30982
# Poissons Ratio (y) = 0.17596 0.12847
# Poissons Ratio (z) = 0.40823 0.19375
#
# Static dielectric constant tensor:
#      x y z
#    x 4.144990 0.000000 0.041300 
#    y 0.000000 4.126030 0.000000 
#    z 0.041300 0.000000 3.826520 
# 
# 
# High freq. dielectric constant tensor:
#      x y z
#    x 1.875740 0.000000 0.013790 
#    y 0.000000 1.872380 0.000000 
#    z 0.013790 0.000000 1.853650 
# 
# From -- ./inp_files/66427.got.cif
#   From: 2010.06.25/outbox.cif.g09.slc.cpg/sg15_34_cif.got.tgz:66427.got - 2010.06.28 07:06:18.
