data_PCOD8154991
_publ_section_title
;
Structure prediction by ZEFSAII (Michael W. Deem and Ramdas Pophale) SiO2 
 PCOD8154991
Probable space group: C 2/C
;
_chemical_formula_sum "Si O2"
_cell_formula_units_Z 40
_cell_length_a 8.137134
_cell_length_b 16.072537
_cell_length_c 13.787694
_cell_angle_alpha 90.000000
_cell_angle_beta 69.966352
_cell_angle_gamma 90.000000
_cell_volume 1694.105453
_symmetry_space_group_name_H-M "C 2/C"
_symmetry_group_IT_number 15
_symmetry_cell_setting 'monoclinic'
loop_
_space_group_symop_operation_xyz
x,y,z
-x,y,1/2-z
-x,-y,-z
x,-y,1/2+z
1/2+x,1/2+y,z
1/2-x,1/2+y,1/2-z
1/2-x,1/2-y,-z
1/2+x,1/2-y,1/2+z
loop_
_atom_site_type_symbol
_atom_site_label
_atom_site_fract_x
_atom_site_fract_y
_atom_site_fract_z
Si Si1 0.665045 0.425833 0.966282
Si Si2 0.337146 0.476036 0.840991
Si Si3 0.976877 0.645402 0.139408
Si Si4 0.300183 0.057468 0.797362
Si Si5 0.641186 0.300711 0.442974
O O1 0.694845 0.480479 0.864981
O O2 0.846543 0.379642 0.953214
O O3 0.614991 0.491840 0.061041
O O4 0.509500 0.358939 0.979179
O O5 0.500000 0.435198 0.750000
O O6 0.180374 0.409463 0.873200
O O7 0.277931 0.560460 0.795589
O O8 0.943927 0.740905 0.119199
O O9 0.000000 0.637262 0.250000
O O10 0.500000 0.030795 0.750000
O O11 0.281467 0.143198 0.857762
O O12 0.750000 0.250000 0.500000
#
# Coordination Sequence:
#
# PCOD8154991 Si02
#       5
#     8   8   8   8   8
#     4  12  25  50  76 105 151 197 253 302 374 454
#     4  12  25  45  81 107 143 198 254 305 369 449
#     4  12  27  48  74 111 154 193 245 317 383 441
#     4  12  26  49  74 108 146 199 255 302 371 456
#     4  12  30  46  74 111 153 197 247 315 383 439
#
# _framework density 23.611281000000002
#
# number of rings (size 3 to 8) (size 9 to 14) (size 15 to 20)
#    0.000    0.000    6.000    3.000    8.400    2.400 
#    0.000    0.000    0.000    0.000    0.000    0.000 
#    0.000    0.000    0.000    0.000    0.000    0.000 
#
# Total GULP energy -247966.516877 kJ/mol
# GULP energy per Si atom -12398.325844 kJ/mol
# Density = 2.355754 g / cm^3
# Si number density = 23.611281 Si / 1000 Ang^3
#
#
#
# Elastic Constant Matrix: (Units=GPa)
#
#
# Indices 1 2 3 4 5 6 
#
# 1 127.4278 44.6347 25.3431 0.0000 -40.4392 0.0000
# 2 44.6347 136.7435 36.7796 0.0000 -16.4137 0.0000
# 3 25.3431 36.7796 79.6866 0.0000 -30.1577 0.0000
# 4 0.0000 0.0000 0.0000 37.4817 0.0000 11.8109
# 5 -40.4392 -16.4137 -30.1577 0.0000 40.7910 0.0000
# 6 0.0000 0.0000 0.0000 11.8109 0.0000 48.0240
#
#
#
# Elastic Compliance Matrix: (Units=1/GPa)
#
#
# Indices 1 2 3 4 5 6 
#
# 1 0.012612 -0.003198 0.002374 0.000000 0.012972 0.000000
# 2 -0.003198 0.009175 -0.004194 0.000000 -0.002579 0.000000
# 3 0.002374 -0.004194 0.019414 0.000000 0.015019 0.000000
# 4 0.000000 0.000000 0.000000 0.028921 0.000000 -0.007113
# 5 0.012972 -0.002579 0.015019 0.000000 0.047442 0.000000
# 6 0.000000 0.000000 0.000000 -0.007113 0.000000 0.022572
#
#
# Mechanical properties :
#
#
# Convention : Reuss Voigt Hill
#
# Bulk Modulus (GPa) = 32.08650 61.93032 47.00841
# Shear Modulus (GPa) = 31.14082 41.06604 36.10343
#
# Velocity S-wave (km/s) = 3.63560 4.17496 3.91458
# Velocity P-wave (km/s) = 5.58949 7.03751 6.35488
#
# Compressibility (1/GPa) = 0.03116576
#
# Stress axis : x y z
#
# Youngs Moduli (GPa) = 79.28742 108.98746 51.50941
#
# Poissons Ratio (x) = 0.34858 -0.12230
# Poissons Ratio (y) = 0.25359 0.21603
# Poissons Ratio (z) = -0.18826 0.45709
#
# Static dielectric constant tensor:
#      x y z
#    x 5.216550 0.000000 -0.843520 
#    y 0.000000 4.315670 0.000000 
#    z -0.843520 0.000000 5.028000 
# 
# 
# High freq. dielectric constant tensor:
#      x y z
#    x 1.968370 0.000000 -0.005110 
#    y 0.000000 1.928320 0.000000 
#    z -0.005110 0.000000 1.941000 
# 
# From -- ./inp_files/133052.got.cif
#   From: 2010.06.25/outbox.cif.g09.slc.cpg/sg15_67_cif.got.tgz:133052.got - 2010.06.28 07:06:18.
