data_PCOD8154980
_publ_section_title
;
Structure prediction by ZEFSAII (Michael W. Deem and Ramdas Pophale) SiO2 
 PCOD8154980
Probable space group: C 2/C
;
_chemical_formula_sum "Si O2"
_cell_formula_units_Z 56
_cell_length_a 20.729806
_cell_length_b 14.145317
_cell_length_c 17.272304
_cell_angle_alpha 90.000000
_cell_angle_beta 150.405587
_cell_angle_gamma 90.000000
_cell_volume 2501.263688
_symmetry_space_group_name_H-M "C 2/C"
_symmetry_group_IT_number 15
_symmetry_cell_setting 'monoclinic'
loop_
_space_group_symop_operation_xyz
x,y,z
-x,y,1/2-z
-x,-y,-z
x,-y,1/2+z
1/2+x,1/2+y,z
1/2-x,1/2+y,1/2-z
1/2-x,1/2-y,-z
1/2+x,1/2-y,1/2+z
loop_
_atom_site_type_symbol
_atom_site_label
_atom_site_fract_x
_atom_site_fract_y
_atom_site_fract_z
Si Si1 0.044066 0.693356 0.619029
Si Si2 0.002025 0.361044 0.599011
Si Si3 0.543126 0.663911 0.707180
Si Si4 0.713089 0.966888 0.026962
Si Si5 0.818866 0.483356 0.181917
Si Si6 0.754209 0.351470 0.844632
Si Si7 0.614800 0.455057 0.569983
O O1 0.069562 0.668373 0.555459
O O2 0.095503 0.611091 0.729309
O O3 0.128705 0.785109 0.729579
O O4 0.888937 0.708276 0.473247
O O5 0.908635 0.416224 0.560726
O O6 0.069751 0.272451 0.712909
O O7 0.113698 0.435969 0.694940
O O8 0.500000 0.655398 0.750000
O O9 0.666294 0.597462 0.821554
O O10 0.431405 0.630457 0.532206
O O11 0.731148 0.076094 0.069304
O O12 0.696787 0.971323 0.918432
O O13 0.679914 0.466188 0.080727
O O14 0.727401 0.414617 0.742008
O O15 0.500000 0.500000 0.500000
#
# Coordination Sequence:
#
# PCOD8154980 Si02
#       7
#     8   8   8   8   8   8   8
#     4  12  28  46  77 106 142 199 258 305 365 437
#     4  12  26  44  73 107 147 191 239 297 370 447
#     4  12  26  43  71 112 146 187 235 295 371 447
#     4  12  27  47  74 104 153 191 239 305 374 438
#     4  12  26  48  72 105 146 194 242 304 372 440
#     4  12  27  49  72 110 144 197 254 309 367 433
#     4  12  25  44  73 106 148 190 244 306 366 436
#
# _framework density 22.388681999999999
#
# number of rings (size 3 to 8) (size 9 to 14) (size 15 to 20)
#    0.000    0.000    7.143    2.571    6.000    1.714 
#    0.000    0.000    0.000    0.000    0.000    0.000 
#    0.000    0.000    0.000    0.000    0.000    0.000 
#
# Total GULP energy -347186.269186 kJ/mol
# GULP energy per Si atom -12399.509614 kJ/mol
# Density = 2.233772 g / cm^3
# Si number density = 22.388682 Si / 1000 Ang^3
#
#
#
# Elastic Constant Matrix: (Units=GPa)
#
#
# Indices 1 2 3 4 5 6 
#
# 1 80.6464 34.6227 28.8267 -0.0001 21.0040 0.0000
# 2 34.6227 112.1379 34.4026 -0.0001 12.2572 0.0000
# 3 28.8267 34.4026 85.8857 -0.0001 18.4228 -0.0001
# 4 -0.0001 -0.0001 -0.0001 49.4621 -0.0001 2.8548
# 5 21.0040 12.2572 18.4228 -0.0001 35.2212 -0.0001
# 6 0.0000 0.0000 -0.0001 2.8548 -0.0001 26.6391
#
#
#
# Elastic Compliance Matrix: (Units=1/GPa)
#
#
# Indices 1 2 3 4 5 6 
#
# 1 0.016799 -0.003574 -0.002618 0.000000 -0.007404 0.000000
# 2 -0.003574 0.011007 -0.003204 0.000000 -0.000023 0.000000
# 3 -0.002618 -0.003204 0.014904 0.000000 -0.005119 0.000000
# 4 0.000000 0.000000 0.000000 0.020343 0.000000 -0.002180
# 5 -0.007404 -0.000023 -0.005119 0.000000 0.035493 0.000000
# 6 0.000000 0.000000 0.000000 -0.002180 0.000000 0.037772
#
#
# Mechanical properties :
#
#
# Convention : Reuss Voigt Hill
#
# Bulk Modulus (GPa) = 41.81374 52.70824 47.26099
# Shear Modulus (GPa) = 30.65920 34.31900 32.48910
#
# Velocity S-wave (km/s) = 3.70456 3.91944 3.81352
# Velocity P-wave (km/s) = 6.08401 6.63899 6.36755
#
# Compressibility (1/GPa) = 0.02391558
#
# Stress axis : x y z
#
# Youngs Moduli (GPa) = 59.52898 90.85443 67.09693
#
# Poissons Ratio (x) = 0.32471 0.17569
# Poissons Ratio (y) = 0.21275 0.21500
# Poissons Ratio (z) = 0.15587 0.29113
#
# Static dielectric constant tensor:
#      x y z
#    x 4.083770 0.000000 -0.030320 
#    y 0.000000 4.041860 0.000000 
#    z -0.030320 0.000000 4.354320 
# 
# 
# High freq. dielectric constant tensor:
#      x y z
#    x 1.889050 0.000000 0.002150 
#    y 0.000000 1.879270 0.000000 
#    z 0.002150 0.000000 1.892550 
# 
# From -- ./inp_files/215764.got.cif
#   From: 2010.06.25/outbox.cif.g09.slc.cpg/sg15_108_cif.got.tgz:215764.got - 2010.06.28 07:06:18.
