data_PCOD8154238
_publ_section_title
;
Structure prediction by ZEFSAII (Michael W. Deem and Ramdas Pophale) SiO2 
 PCOD8154238
Probable space group: C 2/C
;
_chemical_formula_sum "Si O2"
_cell_formula_units_Z 44
_cell_length_a 25.809497
_cell_length_b 5.172966
_cell_length_c 15.831556
_cell_angle_alpha 90.000000
_cell_angle_beta 61.389115
_cell_angle_gamma 90.000000
_cell_volume 1855.597875
_symmetry_space_group_name_H-M "C 2/C"
_symmetry_group_IT_number 15
_symmetry_cell_setting 'monoclinic'
loop_
_space_group_symop_operation_xyz
x,y,z
-x,y,1/2-z
-x,-y,-z
x,-y,1/2+z
1/2+x,1/2+y,z
1/2-x,1/2+y,1/2-z
1/2-x,1/2-y,-z
1/2+x,1/2-y,1/2+z
loop_
_atom_site_type_symbol
_atom_site_label
_atom_site_fract_x
_atom_site_fract_y
_atom_site_fract_z
Si Si1 0.312203 0.800064 0.409063
Si Si2 0.000000 0.090106 0.750000
Si Si3 0.285408 0.925901 0.240139
Si Si4 0.381309 0.295732 0.406638
Si Si5 0.095733 0.566002 0.945022
Si Si6 0.496488 0.303637 0.926627
O O1 0.250000 0.750000 0.500000
O O2 0.305667 0.819228 0.314155
O O3 0.356299 0.569189 0.396549
O O4 0.335079 0.069219 0.427844
O O5 0.992777 0.916280 0.673267
O O6 0.941378 0.263709 0.806986
O O7 0.253413 0.684988 0.218746
O O8 0.341013 0.013862 0.140764
O O9 0.396874 0.307243 0.495046
O O10 0.051603 0.612027 0.901007
O O11 0.067156 0.336763 0.023355
O O12 0.500000 0.500000 0.000000
#
# Coordination Sequence:
#
# PCOD8154238 Si02
#       6
#     8   4   8   8   8   8
#     4  12  26  47  72 105 142 192 251 300 373 438
#     4  12  26  46  76 110 150 196 252 298 400 430
#     4  12  27  46  75 106 147 196 249 313 376 445
#     4  12  26  44  74 103 147 190 240 314 357 456
#     4  11  26  45  73 107 150 196 251 305 386 433
#     4  11  25  47  73 108 152 199 247 318 363 465
#
# _framework density 23.712033000000002
#
# number of rings (size 3 to 8) (size 9 to 14) (size 15 to 20)
#    0.000    0.364    1.818    6.000    5.091    2.909 
#    0.000    0.000    0.000    0.000    0.000    0.000 
#    0.000    0.000    0.000    0.000    0.000    0.000 
#
# Total GULP energy -272835.440184 kJ/mol
# GULP energy per Si atom -12401.610917 kJ/mol
# Density = 2.365806 g / cm^3
# Si number density = 23.712033 Si / 1000 Ang^3
#
#
#
# Elastic Constant Matrix: (Units=GPa)
#
#
# Indices 1 2 3 4 5 6 
#
# 1 121.1227 36.9944 61.9563 0.0127 -3.1709 -0.0069
# 2 36.9944 93.4114 14.9045 0.0545 -2.1449 0.0655
# 3 61.9563 14.9045 154.9062 0.0194 -8.3340 -0.0005
# 4 0.0127 0.0545 0.0194 40.4708 -0.0050 -4.0292
# 5 -3.1709 -2.1449 -8.3340 -0.0050 59.0773 0.0224
# 6 -0.0069 0.0655 -0.0005 -4.0292 0.0224 37.9082
#
#
#
# Elastic Compliance Matrix: (Units=1/GPa)
#
#
# Indices 1 2 3 4 5 6 
#
# 1 0.011646 -0.003931 -0.004286 0.000005 -0.000122 0.000009
# 2 -0.003931 0.012203 0.000414 -0.000018 0.000290 -0.000024
# 3 -0.004286 0.000414 0.008181 -0.000003 0.000939 -0.000002
# 4 0.000005 -0.000018 -0.000003 0.024973 0.000000 0.002654
# 5 -0.000122 0.000290 0.000939 0.000000 0.017063 -0.000011
# 6 0.000009 -0.000024 -0.000002 0.002654 -0.000011 0.026662
#
#
# Mechanical properties :
#
#
# Convention : Reuss Voigt Hill
#
# Bulk Modulus (GPa) = 60.89311 66.35009 63.62160
# Shear Modulus (GPa) = 41.04765 44.53025 42.78895
#
# Velocity S-wave (km/s) = 4.16515 4.33824 4.25258
# Velocity P-wave (km/s) = 6.99052 7.28946 7.14155
#
# Compressibility (1/GPa) = 0.01642222
#
# Stress axis : x y z
#
# Youngs Moduli (GPa) = 85.86553 81.94774 122.24072
#
# Poissons Ratio (x) = 0.32215 0.52396
# Poissons Ratio (y) = 0.33755 -0.05059
# Poissons Ratio (z) = 0.36805 -0.03391
#
# Static dielectric constant tensor:
#      x y z
#    x 4.927590 0.000230 -0.082720 
#    y 0.000230 4.221370 0.000130 
#    z -0.082720 0.000130 4.150120 
# 
# 
# High freq. dielectric constant tensor:
#      x y z
#    x 1.965880 -0.000010 -0.000930 
#    y -0.000010 1.938850 -0.000010 
#    z -0.000930 -0.000010 1.948960 
# 
# From -- ./inp_files/217686.got.cif
#   From: 2010.06.25/outbox.cif.g09.slc.cpg/sg15_109_cif.got.tgz:217686.got - 2010.06.28 07:06:18.
