data_PCOD8154035
_publ_section_title
;
Structure prediction by ZEFSAII (Michael W. Deem and Ramdas Pophale) SiO2 
 PCOD8154035
Probable space group: C 2/C
;
_chemical_formula_sum "Si O2"
_cell_formula_units_Z 56
_cell_length_a 29.892082
_cell_length_b 8.288600
_cell_length_c 11.027453
_cell_angle_alpha 90.000000
_cell_angle_beta 121.037760
_cell_angle_gamma 90.000000
_cell_volume 2341.025007
_symmetry_space_group_name_H-M "C 2/C"
_symmetry_group_IT_number 15
_symmetry_cell_setting 'monoclinic'
loop_
_space_group_symop_operation_xyz
x,y,z
-x,y,1/2-z
-x,-y,-z
x,-y,1/2+z
1/2+x,1/2+y,z
1/2-x,1/2+y,1/2-z
1/2-x,1/2-y,-z
1/2+x,1/2-y,1/2+z
loop_
_atom_site_type_symbol
_atom_site_label
_atom_site_fract_x
_atom_site_fract_y
_atom_site_fract_z
Si Si1 0.716238 0.708245 0.711910
Si Si2 0.135266 0.593623 0.251426
Si Si3 0.046446 0.619691 0.528309
Si Si4 0.550953 0.337729 0.756379
Si Si5 0.917947 0.187070 0.635920
Si Si6 0.158300 0.288807 0.403971
Si Si7 0.678385 0.356975 0.674238
O O1 0.681299 0.833483 0.736711
O O2 0.705661 0.730441 0.553582
O O3 0.703848 0.529339 0.735532
O O4 0.777383 0.739848 0.819754
O O5 0.100203 0.479284 0.116858
O O6 0.100086 0.728125 0.265803
O O7 0.161673 0.481566 0.391598
O O8 0.046480 0.780377 0.611160
O O9 0.044381 0.691429 0.388304
O O10 0.000000 0.500000 0.500000
O O11 0.500000 0.265296 0.750000
O O12 0.551332 0.530788 0.773186
O O13 0.602794 0.258823 0.889190
O O14 0.868671 0.132723 0.486332
O O15 0.158377 0.199922 0.275546
#
# Coordination Sequence:
#
# PCOD8154035 Si02
#       7
#     8   8   8   8   8   8   8
#     4  12  27  45  74 102 147 189 250 304 368 440
#     4  11  26  44  75 105 144 189 241 301 377 429
#     4  11  28  48  77 107 149 195 250 302 374 444
#     4  11  26  45  74 106 145 191 244 299 377 429
#     4  12  26  49  72 107 153 186 249 306 369 453
#     4  11  24  50  69 104 146 189 243 307 360 445
#     4  12  26  47  72 105 144 198 245 303 378 437
#
# _framework density 23.921146
#
# number of rings (size 3 to 8) (size 9 to 14) (size 15 to 20)
#    0.000    0.571    4.286    3.000   10.000    1.143 
#    0.000    0.000    0.000    0.000    0.000    0.000 
#    0.000    0.000    0.000    0.000    0.000    0.000 
#
# Total GULP energy -347279.817144 kJ/mol
# GULP energy per Si atom -12402.850612 kJ/mol
# Density = 2.386670 g / cm^3
# Si number density = 23.921146 Si / 1000 Ang^3
#
#
#
# Elastic Constant Matrix: (Units=GPa)
#
#
# Indices 1 2 3 4 5 6 
#
# 1 121.7926 44.3683 24.7311 0.0000 -1.4059 0.0000
# 2 44.3683 122.8599 20.6701 0.0000 4.1647 0.0000
# 3 24.7311 20.6701 57.6567 0.0000 -4.6536 0.0000
# 4 0.0000 0.0000 0.0000 37.5143 0.0000 -0.4491
# 5 -1.4059 4.1647 -4.6536 0.0000 29.5024 0.0000
# 6 0.0000 0.0000 0.0000 -0.4491 0.0000 45.8682
#
#
#
# Elastic Compliance Matrix: (Units=1/GPa)
#
#
# Indices 1 2 3 4 5 6 
#
# 1 0.009978 -0.003090 -0.003139 0.000000 0.000417 0.000000
# 2 -0.003090 0.009707 -0.002307 0.000000 -0.001881 0.000000
# 3 -0.003139 -0.002307 0.019783 0.000000 0.003297 0.000000
# 4 0.000000 0.000000 0.000000 0.026660 0.000000 0.000261
# 5 0.000417 -0.001881 0.003297 0.000000 0.034701 0.000000
# 6 0.000000 0.000000 0.000000 0.000261 0.000000 0.021804
#
#
# Mechanical properties :
#
#
# Convention : Reuss Voigt Hill
#
# Bulk Modulus (GPa) = 44.64539 53.53868 49.09204
# Shear Modulus (GPa) = 33.97441 36.74629 35.36035
#
# Velocity S-wave (km/s) = 3.77273 3.92362 3.84891
# Velocity P-wave (km/s) = 6.13857 6.55410 6.34974
#
# Compressibility (1/GPa) = 0.02239873
#
# Stress axis : x y z
#
# Youngs Moduli (GPa) = 100.21695 103.01947 50.54739
#
# Poissons Ratio (x) = 0.31828 0.15866
# Poissons Ratio (y) = 0.30962 0.11659
# Poissons Ratio (z) = 0.31457 0.23762
#
# Static dielectric constant tensor:
#      x y z
#    x 4.445810 0.000000 0.130860 
#    y 0.000000 4.492060 0.000000 
#    z 0.130860 0.000000 4.198790 
# 
# 
# High freq. dielectric constant tensor:
#      x y z
#    x 1.963320 0.000000 0.005450 
#    y 0.000000 1.961800 0.000000 
#    z 0.005450 0.000000 1.934020 
# 
# From -- ./inp_files/125970.got.cif
#   From: 2010.06.25/outbox.cif.g09.slc.cpg/sg15_63_cif.got.tgz:125970.got - 2010.06.28 07:06:18.
