data_PCOD8154738
_publ_section_title
;
Structure prediction by ZEFSAII (Michael W. Deem and Ramdas Pophale) SiO2 
 PCOD8154738
Probable space group: C 2/C
;
_chemical_formula_sum "Si O2"
_cell_formula_units_Z 48
_cell_length_a 11.873683
_cell_length_b 13.332583
_cell_length_c 19.411859
_cell_angle_alpha 90.000000
_cell_angle_beta 47.538607
_cell_angle_gamma 90.000000
_cell_volume 2267.074169
_symmetry_space_group_name_H-M "C 2/C"
_symmetry_group_IT_number 15
_symmetry_cell_setting 'monoclinic'
loop_
_space_group_symop_operation_xyz
x,y,z
-x,y,1/2-z
-x,-y,-z
x,-y,1/2+z
1/2+x,1/2+y,z
1/2-x,1/2+y,1/2-z
1/2-x,1/2-y,-z
1/2+x,1/2-y,1/2+z
loop_
_atom_site_type_symbol
_atom_site_label
_atom_site_fract_x
_atom_site_fract_y
_atom_site_fract_z
Si Si1 0.727762 0.772240 0.332547
Si Si2 0.306645 0.157145 0.434335
Si Si3 0.860702 0.984863 0.262461
Si Si4 0.142028 0.669137 0.350124
Si Si5 0.443813 0.493940 0.947625
Si Si6 0.107723 0.232843 0.011551
O O1 0.783611 0.686754 0.363566
O O2 0.809045 0.877785 0.314208
O O3 0.764405 0.735071 0.241673
O O4 0.546678 0.793276 0.407932
O O5 0.250000 0.250000 0.500000
O O6 0.480507 0.138199 0.383613
O O7 0.208931 0.060482 0.497490
O O8 0.000000 0.026239 0.250000
O O9 0.920601 0.971798 0.159692
O O10 0.724696 0.063622 0.329210
O O11 0.136883 0.741076 0.419376
O O12 0.500000 0.500000 0.000000
O O13 0.413620 0.378609 0.952946
O O14 0.250000 0.250000 0.000000
#
# Coordination Sequence:
#
# PCOD8154738 Si02
#       6
#     8   8   8   8   8   8
#     4  12  25  46  71 103 139 183 235 292 348 419
#     4  12  23  44  73 104 136 182 238 288 346 420
#     4  12  26  44  70 103 139 180 232 291 352 417
#     4  12  26  45  72 104 138 186 237 289 354 421
#     4  12  23  47  71 100 137 186 228 289 353 411
#     4  12  27  45  69 101 144 185 231 290 354 419
#
# _framework density 21.172664000000001
#
# number of rings (size 3 to 8) (size 9 to 14) (size 15 to 20)
#    0.000    0.000    5.000    5.500    2.333    0.667 
#    0.000    0.000    0.000    0.000    0.000    0.000 
#    0.000    0.000    0.000    0.000    0.000    0.000 
#
# Total GULP energy -297435.221097 kJ/mol
# GULP energy per Si atom -12393.134212 kJ/mol
# Density = 2.112447 g / cm^3
# Si number density = 21.172664 Si / 1000 Ang^3
#
#
#
# Elastic Constant Matrix: (Units=GPa)
#
#
# Indices 1 2 3 4 5 6 
#
# 1 129.0547 4.8089 51.1751 0.0000 -25.5082 0.0000
# 2 4.8089 88.5363 30.3951 0.0000 -13.7204 0.0000
# 3 51.1751 30.3951 134.6751 0.0001 -2.4975 0.0000
# 4 0.0000 0.0000 0.0001 43.2322 -0.0001 -6.5045
# 5 -25.5082 -13.7204 -2.4975 -0.0001 39.1179 0.0000
# 6 0.0000 0.0000 0.0000 -6.5045 0.0000 37.3416
#
#
#
# Elastic Compliance Matrix: (Units=1/GPa)
#
#
# Indices 1 2 3 4 5 6 
#
# 1 0.010958 0.002129 -0.004504 0.000000 0.007605 0.000000
# 2 0.002129 0.013359 -0.003716 0.000000 0.005837 0.000000
# 3 -0.004504 -0.003716 0.009908 0.000000 -0.003608 0.000000
# 4 0.000000 0.000000 0.000000 0.023753 0.000000 0.004138
# 5 0.007605 0.005837 -0.003608 0.000000 0.032340 0.000000
# 6 0.000000 0.000000 0.000000 0.004138 0.000000 0.027500
#
#
# Mechanical properties :
#
#
# Convention : Reuss Voigt Hill
#
# Bulk Modulus (GPa) = 45.36012 58.33603 51.84808
# Shear Modulus (GPa) = 36.40359 41.66414 39.03386
#
# Velocity S-wave (km/s) = 4.15102 4.44083 4.29837
# Velocity P-wave (km/s) = 6.66671 7.34214 7.01256
#
# Compressibility (1/GPa) = 0.02204580
#
# Stress axis : x y z
#
# Youngs Moduli (GPa) = 91.25468 74.85334 100.92462
#
# Poissons Ratio (x) = -0.15940 0.45453
# Poissons Ratio (y) = -0.19432 0.37504
# Poissons Ratio (z) = 0.41098 0.27816
#
# Static dielectric constant tensor:
#      x y z
#    x 3.067580 0.000000 0.676340 
#    y 0.000000 4.098560 0.000000 
#    z 0.676340 0.000000 4.096320 
# 
# 
# High freq. dielectric constant tensor:
#      x y z
#    x 1.844550 0.000000 0.001090 
#    y 0.000000 1.835570 0.000000 
#    z 0.001090 0.000000 1.847690 
# 
# From -- ./inp_files/238949.got.cif
#   From: 2010.06.25/outbox.cif.g09.slc.cpg/sg15_120_cif.got.tgz:238949.got - 2010.06.28 07:06:18.
