data_PCOD8154524
_publ_section_title
;
Structure prediction by ZEFSAII (Michael W. Deem and Ramdas Pophale) SiO2 
 PCOD8154524
Probable space group: C 2/C
;
_chemical_formula_sum "Si O2"
_cell_formula_units_Z 44
_cell_length_a 9.349769
_cell_length_b 11.072745
_cell_length_c 24.623667
_cell_angle_alpha 90.000000
_cell_angle_beta 125.978422
_cell_angle_gamma 90.000000
_cell_volume 2062.934023
_symmetry_space_group_name_H-M "C 2/C"
_symmetry_group_IT_number 15
_symmetry_cell_setting 'monoclinic'
loop_
_space_group_symop_operation_xyz
x,y,z
-x,y,1/2-z
-x,-y,-z
x,-y,1/2+z
1/2+x,1/2+y,z
1/2-x,1/2+y,1/2-z
1/2-x,1/2-y,-z
1/2+x,1/2-y,1/2+z
loop_
_atom_site_type_symbol
_atom_site_label
_atom_site_fract_x
_atom_site_fract_y
_atom_site_fract_z
Si Si1 0.058246 0.431985 0.322395
Si Si2 0.083949 0.102885 0.859705
Si Si3 0.862367 0.736124 0.858586
Si Si4 0.345370 0.174440 0.286651
Si Si5 0.950376 0.981217 0.927254
Si Si6 0.000000 0.920352 0.750000
O O1 0.265255 0.456535 0.371606
O O2 0.000000 0.387313 0.250000
O O3 0.009067 0.326162 0.353688
O O4 0.952400 0.551517 0.314215
O O5 0.276109 0.136757 0.879317
O O6 0.962268 0.220053 0.837308
O O7 0.099568 0.045546 0.923212
O O8 0.989746 0.003079 0.801144
O O9 0.706493 0.795568 0.787298
O O10 0.951786 0.838674 0.915110
O O11 0.173078 0.163529 0.286699
O O12 0.000000 0.000000 0.000000
#
# Coordination Sequence:
#
# PCOD8154524 Si02
#       6
#     8   8   8   8   8   4
#     4  12  23  44  72 105 134 179 226 284 342 395
#     4  12  23  42  67  98 136 175 223 283 339 391
#     4  12  24  41  68  99 135 171 227 278 336 400
#     4  12  21  38  70 106 138 165 221 288 343 391
#     4  12  29  48  67  97 142 186 226 275 341 412
#     4  12  22  36  64 112 134 164 218 290 346 380
#
# _framework density 21.328842999999999
#
# number of rings (size 3 to 8) (size 9 to 14) (size 15 to 20)
#    0.000    0.000    9.091    1.091    3.818    1.455 
#    0.000    0.909    0.000    0.000    0.000    0.000 
#    0.000    0.000    0.000    0.000    0.000    0.000 
#
# Total GULP energy -272952.640976 kJ/mol
# GULP energy per Si atom -12406.938226 kJ/mol
# Density = 2.128030 g / cm^3
# Si number density = 21.328843 Si / 1000 Ang^3
#
#
#
# Elastic Constant Matrix: (Units=GPa)
#
#
# Indices 1 2 3 4 5 6 
#
# 1 128.1525 35.5930 33.7450 0.0000 -21.9707 0.0000
# 2 35.5930 64.0168 29.1647 0.0000 -15.3240 0.0000
# 3 33.7450 29.1647 94.4406 0.0000 -32.5417 0.0000
# 4 0.0000 0.0000 0.0000 15.6098 0.0000 -11.3354
# 5 -21.9707 -15.3240 -32.5417 0.0000 33.8802 0.0000
# 6 0.0000 0.0000 0.0000 -11.3354 0.0000 40.1169
#
#
#
# Elastic Compliance Matrix: (Units=1/GPa)
#
#
# Indices 1 2 3 4 5 6 
#
# 1 0.009829 -0.004160 -0.001015 0.000000 0.003517 0.000000
# 2 -0.004160 0.020354 -0.003821 0.000000 0.002838 0.000000
# 3 -0.001015 -0.003821 0.016903 0.000000 0.013849 0.000000
# 4 0.000000 0.000000 0.000000 0.080601 0.000000 0.022774
# 5 0.003517 0.002838 0.013849 0.000000 0.046382 0.000000
# 6 0.000000 0.000000 0.000000 0.022774 0.000000 0.031362
#
#
# Mechanical properties :
#
#
# Convention : Reuss Voigt Hill
#
# Bulk Modulus (GPa) = 34.37299 53.73502 44.05401
# Shear Modulus (GPa) = 21.44789 30.46185 25.95487
#
# Velocity S-wave (km/s) = 3.17453 3.78325 3.49218
# Velocity P-wave (km/s) = 5.43945 6.65825 6.07947
#
# Compressibility (1/GPa) = 0.02909261
#
# Stress axis : x y z
#
# Youngs Moduli (GPa) = 101.73937 49.12967 59.15938
#
# Poissons Ratio (x) = 0.20440 0.06007
# Poissons Ratio (y) = 0.42328 0.22606
# Poissons Ratio (z) = 0.10331 0.18774
#
# Static dielectric constant tensor:
#      x y z
#    x 4.738190 0.000000 0.187120 
#    y 0.000000 4.135210 0.000000 
#    z 0.187120 0.000000 3.577000 
# 
# 
# High freq. dielectric constant tensor:
#      x y z
#    x 1.858670 0.000000 -0.018380 
#    y 0.000000 1.862430 0.000000 
#    z -0.018380 0.000000 1.778870 
# 
# From -- ./inp_files/230113.got.cif
#   From: 2010.06.25/outbox.cif.g09.slc.cpg/sg15_116_cif.got.tgz:230113.got - 2010.06.28 07:06:18.
