data_PCOD8154564
_publ_section_title
;
Structure prediction by ZEFSAII (Michael W. Deem and Ramdas Pophale) SiO2 
 PCOD8154564
Probable space group: C 2/C
;
_chemical_formula_sum "Si O2"
_cell_formula_units_Z 40
_cell_length_a 21.857938
_cell_length_b 17.630881
_cell_length_c 9.659942
_cell_angle_alpha 90.000000
_cell_angle_beta 143.878611
_cell_angle_gamma 90.000000
_cell_volume 2194.522403
_symmetry_space_group_name_H-M "C 2/C"
_symmetry_group_IT_number 15
_symmetry_cell_setting 'monoclinic'
loop_
_space_group_symop_operation_xyz
x,y,z
-x,y,1/2-z
-x,-y,-z
x,-y,1/2+z
1/2+x,1/2+y,z
1/2-x,1/2+y,1/2-z
1/2-x,1/2-y,-z
1/2+x,1/2-y,1/2+z
loop_
_atom_site_type_symbol
_atom_site_label
_atom_site_fract_x
_atom_site_fract_y
_atom_site_fract_z
Si Si1 0.907434 0.312675 0.166228
Si Si2 0.308743 0.379704 0.711862
Si Si3 0.404164 0.225051 0.971473
Si Si4 0.816409 0.157291 0.912887
Si Si5 0.574722 0.478838 0.011919
O O1 0.939421 0.300999 0.383793
O O2 0.000000 0.351430 0.250000
O O3 0.812153 0.369363 0.982843
O O4 0.880327 0.234780 0.037590
O O5 0.373349 0.313165 0.904656
O O6 0.329829 0.383266 0.586020
O O7 0.335151 0.458891 0.831314
O O8 0.304646 0.175675 0.840423
O O9 0.500000 0.213084 0.250000
O O10 0.867637 0.103721 0.887144
O O11 0.500000 0.486800 0.750000
O O12 0.500000 0.500000 0.000000
#
# Coordination Sequence:
#
# PCOD8154564 Si02
#       5
#     8   8   8   8   8
#     4   9  18  35  59  77 107 145 181 221 270 317
#     4   9  19  36  54  80 109 144 181 219 267 326
#     4   9  18  36  58  79 108 141 183 227 264 313
#     4   9  19  36  55  79 111 146 176 219 276 320
#     4  12  22  35  57  81 112 144 177 221 274 322
#
# _framework density 18.2272
#
# number of rings (size 3 to 8) (size 9 to 14) (size 15 to 20)
#    0.000    2.400    2.000    3.600    2.800    0.000 
#    3.600    3.000    0.000    4.800    0.000    0.000 
#    0.000    0.000    0.000    0.000    0.000    0.000 
#
# Total GULP energy -247845.480994 kJ/mol
# GULP energy per Si atom -12392.274050 kJ/mol
# Density = 1.818571 g / cm^3
# Si number density = 18.227200 Si / 1000 Ang^3
#
#
#
# Elastic Constant Matrix: (Units=GPa)
#
#
# Indices 1 2 3 4 5 6 
#
# 1 125.0541 37.7555 40.0521 0.0000 15.6582 0.0000
# 2 37.7555 85.7667 36.7647 0.0000 2.3310 0.0000
# 3 40.0521 36.7647 132.3849 0.0000 9.3404 0.0000
# 4 0.0000 0.0000 0.0000 17.5546 0.0000 0.5168
# 5 15.6582 2.3310 9.3404 0.0000 10.8746 0.0000
# 6 0.0000 0.0000 0.0000 0.5168 0.0000 31.0300
#
#
#
# Elastic Compliance Matrix: (Units=1/GPa)
#
#
# Indices 1 2 3 4 5 6 
#
# 1 0.011469 -0.004093 -0.001309 0.000000 -0.014512 0.000000
# 2 -0.004093 0.014697 -0.003233 0.000000 0.005520 0.000000
# 3 -0.001309 -0.003233 0.009225 0.000000 -0.005345 0.000000
# 4 0.000000 0.000000 0.000000 0.056993 0.000000 -0.000949
# 5 -0.014512 0.005520 -0.005345 0.000000 0.116260 0.000000
# 6 0.000000 0.000000 0.000000 -0.000949 0.000000 0.032243
#
#
# Mechanical properties :
#
#
# Convention : Reuss Voigt Hill
#
# Bulk Modulus (GPa) = 55.18582 63.59448 59.39015
# Shear Modulus (GPa) = 18.92531 27.13407 23.02969
#
# Velocity S-wave (km/s) = 3.22576 3.86250 3.55840
# Velocity P-wave (km/s) = 6.64954 7.40658 7.03825
#
# Compressibility (1/GPa) = 0.01812060
#
# Stress axis : x y z
#
# Youngs Moduli (GPa) = 87.19462 68.04100 108.40465
#
# Poissons Ratio (x) = 0.27849 0.14192
# Poissons Ratio (y) = 0.35689 0.35044
# Poissons Ratio (z) = 0.11416 0.21995
#
# Static dielectric constant tensor:
#      x y z
#    x 3.315530 0.000000 0.173070 
#    y 0.000000 3.457720 0.000000 
#    z 0.173070 0.000000 3.316370 
# 
# 
# High freq. dielectric constant tensor:
#      x y z
#    x 1.707370 0.000000 0.013410 
#    y 0.000000 1.688190 0.000000 
#    z 0.013410 0.000000 1.703990 
# 
# From -- ./inp_files/29217.got.cif
#   From: 2010.06.25/outbox.cif.g09.slc.cpg/sg15_15_cif.got.tgz:29217.got - 2010.06.28 07:06:18.
