data_PCOD8154911
_publ_section_title
;
Structure prediction by ZEFSAII (Michael W. Deem and Ramdas Pophale) SiO2 
 PCOD8154911
Probable space group: C 2/C
;
_chemical_formula_sum "Si O2"
_cell_formula_units_Z 40
_cell_length_a 18.688352
_cell_length_b 8.453273
_cell_length_c 11.782149
_cell_angle_alpha 90.000000
_cell_angle_beta 76.920252
_cell_angle_gamma 90.000000
_cell_volume 1813.027308
_symmetry_space_group_name_H-M "C 2/C"
_symmetry_group_IT_number 15
_symmetry_cell_setting 'monoclinic'
loop_
_space_group_symop_operation_xyz
x,y,z
-x,y,1/2-z
-x,-y,-z
x,-y,1/2+z
1/2+x,1/2+y,z
1/2-x,1/2+y,1/2-z
1/2-x,1/2-y,-z
1/2+x,1/2-y,1/2+z
loop_
_atom_site_type_symbol
_atom_site_label
_atom_site_fract_x
_atom_site_fract_y
_atom_site_fract_z
Si Si1 0.842025 0.135067 0.238202
Si Si2 0.533845 0.325848 0.985066
Si Si3 0.423838 0.883809 0.828489
Si Si4 0.815365 0.226306 0.699724
Si Si5 0.388796 0.797910 0.445335
O O1 0.896749 0.187862 0.120524
O O2 0.767810 0.230619 0.242558
O O3 0.877710 0.176758 0.346045
O O4 0.827937 0.949977 0.237740
O O5 0.470999 0.210115 0.963479
O O6 0.500000 0.500000 0.000000
O O7 0.559552 0.269509 0.100065
O O8 0.500000 0.950835 0.750000
O O9 0.371721 0.838632 0.743812
O O10 0.379691 0.019957 0.911643
O O11 0.828930 0.248977 0.560814
#
# Coordination Sequence:
#
# PCOD8154911 Si02
#       5
#     8   8   8   8   8
#     4  12  27  47  73 105 145 190 236 298 359 420
#     4  12  24  47  76 104 141 191 241 292 353 423
#     4  12  25  45  76 104 145 187 239 297 355 425
#     4  12  28  48  71 106 146 184 242 293 359 430
#     4  12  26  47  75 105 143 187 241 292 358 425
#
# _framework density 22.062546999999999
#
# number of rings (size 3 to 8) (size 9 to 14) (size 15 to 20)
#    0.000    0.000    4.000    5.400    5.600    0.800 
#    0.000    0.000    0.000    0.000    0.000    0.000 
#    0.000    0.000    0.000    0.000    0.000    0.000 
#
# Total GULP energy -248161.612929 kJ/mol
# GULP energy per Si atom -12408.080646 kJ/mol
# Density = 2.201233 g / cm^3
# Si number density = 22.062547 Si / 1000 Ang^3
#
#
#
# Elastic Constant Matrix: (Units=GPa)
#
#
# Indices 1 2 3 4 5 6 
#
# 1 93.9223 -4.4403 47.5466 0.0000 -18.6451 0.0000
# 2 -4.4403 111.3316 42.4311 0.0000 -4.7387 0.0000
# 3 47.5466 42.4311 139.5064 0.0000 -11.1328 0.0000
# 4 0.0000 0.0000 0.0000 10.7742 0.0000 -8.6907
# 5 -18.6451 -4.7387 -11.1328 0.0000 42.1948 0.0000
# 6 0.0000 0.0000 0.0000 -8.6907 0.0000 37.5742
#
#
#
# Elastic Compliance Matrix: (Units=1/GPa)
#
#
# Indices 1 2 3 4 5 6 
#
# 1 0.014586 0.002875 -0.005420 0.000000 0.005338 0.000000
# 2 0.002875 0.010731 -0.004133 0.000000 0.001385 0.000000
# 3 -0.005420 -0.004133 0.010260 0.000000 -0.000152 0.000000
# 4 0.000000 0.000000 0.000000 0.114101 0.000000 0.026391
# 5 0.005338 0.001385 -0.000152 0.000000 0.026174 0.000000
# 6 0.000000 0.000000 0.000000 0.026391 0.000000 0.032718
#
#
# Mechanical properties :
#
#
# Convention : Reuss Voigt Hill
#
# Bulk Modulus (GPa) = 45.00196 57.31502 51.15849
# Shear Modulus (GPa) = 21.80224 35.39018 28.59621
#
# Velocity S-wave (km/s) = 3.14698 4.00945 3.60410
# Velocity P-wave (km/s) = 5.80055 6.88978 6.36849
#
# Compressibility (1/GPa) = 0.02222126
#
# Stress axis : x y z
#
# Youngs Moduli (GPa) = 68.55734 93.18831 97.46416
#
# Poissons Ratio (x) = -0.26787 0.52822
# Poissons Ratio (y) = -0.19707 0.40282
# Poissons Ratio (z) = 0.37155 0.38515
#
# Static dielectric constant tensor:
#      x y z
#    x 4.205630 0.000000 0.024800 
#    y 0.000000 4.298150 0.000000 
#    z 0.024800 0.000000 4.145090 
# 
# 
# High freq. dielectric constant tensor:
#      x y z
#    x 1.880850 0.000000 0.001300 
#    y 0.000000 1.877380 0.000000 
#    z 0.001300 0.000000 1.881360 
# 
# From -- ./inp_files/102669.got.cif
#   From: 2010.06.25/outbox.cif.g09.slc.cpg/sg15_52_cif.got.tgz:102669.got - 2010.06.28 07:06:18.
