data_PCOD8154308
_publ_section_title
;
Structure prediction by ZEFSAII (Michael W. Deem and Ramdas Pophale) SiO2 
 PCOD8154308
Probable space group: C 2/C
;
_chemical_formula_sum "Si O2"
_cell_formula_units_Z 36
_cell_length_a 7.228140
_cell_length_b 17.349035
_cell_length_c 10.937480
_cell_angle_alpha 90.000000
_cell_angle_beta 98.460784
_cell_angle_gamma 90.000000
_cell_volume 1356.646594
_symmetry_space_group_name_H-M "C 2/C"
_symmetry_group_IT_number 15
_symmetry_cell_setting 'monoclinic'
loop_
_space_group_symop_operation_xyz
x,y,z
-x,y,1/2-z
-x,-y,-z
x,-y,1/2+z
1/2+x,1/2+y,z
1/2-x,1/2+y,1/2-z
1/2-x,1/2-y,-z
1/2+x,1/2-y,1/2+z
loop_
_atom_site_type_symbol
_atom_site_label
_atom_site_fract_x
_atom_site_fract_y
_atom_site_fract_z
Si Si1 0.392480 0.242684 0.356712
Si Si2 0.853399 0.046738 0.405181
Si Si3 0.065543 0.375456 0.049383
Si Si4 0.258626 0.602904 0.808818
Si Si5 0.500000 0.675502 0.250000
O O1 0.500000 0.209744 0.250000
O O2 0.490043 0.203714 0.482626
O O3 0.413456 0.336090 0.374929
O O4 0.169942 0.226179 0.321272
O O5 0.665353 0.068303 0.462524
O O6 0.931756 0.124544 0.356607
O O7 0.820971 0.985251 0.290492
O O8 0.000000 0.000000 0.500000
O O9 0.200692 0.355556 0.176488
O O10 0.890263 0.415104 0.098167
#
# Coordination Sequence:
#
# PCOD8154308 Si02
#       5
#     8   8   8   8   4
#     4  12  27  51  79 111 160 206 257 319 390 461
#     4  12  26  46  76 111 157 201 259 319 383 460
#     4  11  25  50  77 112 157 206 251 326 391 457
#     4  11  27  48  78 115 150 203 264 314 387 465
#     4  12  26  50  72 114 150 206 260 310 390 466
#
# _framework density 26.536019
#
# number of rings (size 3 to 8) (size 9 to 14) (size 15 to 20)
#    0.000    0.444    2.222    5.333    4.667    6.222 
#    0.000    0.000    0.000    0.000    0.000    0.000 
#    0.000    0.000    0.000    0.000    0.000    0.000 
#
# Total GULP energy -223017.381321 kJ/mol
# GULP energy per Si atom -12389.854518 kJ/mol
# Density = 2.647562 g / cm^3
# Si number density = 26.536019 Si / 1000 Ang^3
#
#
#
# Elastic Constant Matrix: (Units=GPa)
#
#
# Indices 1 2 3 4 5 6 
#
# 1 116.6645 26.4344 36.4967 0.0000 -13.2548 0.0000
# 2 26.4344 136.8862 33.7450 0.0000 3.1836 0.0000
# 3 36.4967 33.7450 108.6682 0.0000 -15.8451 0.0000
# 4 0.0000 0.0000 0.0000 32.2985 0.0000 -12.8998
# 5 -13.2548 3.1836 -15.8451 0.0000 35.2865 0.0000
# 6 0.0000 0.0000 0.0000 -12.8998 0.0000 9.3198
#
#
#
# Elastic Compliance Matrix: (Units=1/GPa)
#
#
# Indices 1 2 3 4 5 6 
#
# 1 0.009984 -0.001368 -0.002529 0.000000 0.002738 0.000000
# 2 -0.001368 0.008225 -0.002437 0.000000 -0.002351 0.000000
# 3 -0.002529 -0.002437 0.011452 0.000000 0.004412 0.000000
# 4 0.000000 0.000000 0.000000 0.069236 0.000000 0.095832
# 5 0.002738 -0.002351 0.004412 0.000000 0.031561 0.000000
# 6 0.000000 0.000000 0.000000 0.095832 0.000000 0.239943
#
#
# Mechanical properties :
#
#
# Convention : Reuss Voigt Hill
#
# Bulk Modulus (GPa) = 58.85224 61.73011 60.29118
# Shear Modulus (GPa) = 12.86227 33.08380 22.97304
#
# Velocity S-wave (km/s) = 2.20400 3.53477 2.94552
# Velocity P-wave (km/s) = 5.35754 6.32240 5.85986
#
# Compressibility (1/GPa) = 0.01699171
#
# Stress axis : x y z
#
# Youngs Moduli (GPa) = 100.16165 121.57936 87.32137
#
# Poissons Ratio (x) = 0.16635 0.22084
# Poissons Ratio (y) = 0.13705 0.21283
# Poissons Ratio (z) = 0.25331 0.29633
#
# Static dielectric constant tensor:
#      x y z
#    x 5.099100 0.000000 -0.110850 
#    y 0.000000 5.120490 0.000000 
#    z -0.110850 0.000000 4.740070 
# 
# 
# High freq. dielectric constant tensor:
#      x y z
#    x 2.074290 0.000000 -0.018790 
#    y 0.000000 2.074340 0.000000 
#    z -0.018790 0.000000 2.067310 
# 
# From -- ./inp_files/76438.got.cif
#   From: 2010.06.25/outbox.cif.g09.slc.cpg/sg15_39_cif.got.tgz:76438.got - 2010.06.28 07:06:18.
