data_PCOD8154621
_publ_section_title
;
Structure prediction by ZEFSAII (Michael W. Deem and Ramdas Pophale) SiO2 
 PCOD8154621
Probable space group: C 2/C
;
_chemical_formula_sum "Si O2"
_cell_formula_units_Z 44
_cell_length_a 20.844665
_cell_length_b 7.938704
_cell_length_c 19.175638
_cell_angle_alpha 90.000000
_cell_angle_beta 38.352477
_cell_angle_gamma 90.000000
_cell_volume 1968.948784
_symmetry_space_group_name_H-M "C 2/C"
_symmetry_group_IT_number 15
_symmetry_cell_setting 'monoclinic'
loop_
_space_group_symop_operation_xyz
x,y,z
-x,y,1/2-z
-x,-y,-z
x,-y,1/2+z
1/2+x,1/2+y,z
1/2-x,1/2+y,1/2-z
1/2-x,1/2-y,-z
1/2+x,1/2-y,1/2+z
loop_
_atom_site_type_symbol
_atom_site_label
_atom_site_fract_x
_atom_site_fract_y
_atom_site_fract_z
Si Si1 0.000000 0.834258 0.750000
Si Si2 0.211979 0.120020 0.863679
Si Si3 0.288063 0.497572 0.785361
Si Si4 0.821940 0.615625 0.901832
Si Si5 0.323311 0.175812 0.497246
Si Si6 0.966892 0.026052 0.910793
O O1 0.085300 0.717577 0.713967
O O2 0.057498 0.944592 0.643232
O O3 0.242838 0.315238 0.842575
O O4 0.263697 0.023415 0.886504
O O5 0.253119 0.043599 0.756579
O O6 0.089404 0.082548 0.979738
O O7 0.244747 0.630095 0.877446
O O8 0.411462 0.519791 0.678719
O O9 0.750000 0.750000 0.000000
O O10 0.868293 0.490444 0.920738
O O11 0.250000 0.250000 0.500000
O O12 0.419713 0.286130 0.443049
#
# Coordination Sequence:
#
# PCOD8154621 Si02
#       6
#     4   8   8   8   8   8
#     4  12  22  42  72  98 138 184 234 294 358 408
#     4  12  25  47  71 100 146 191 237 290 359 424
#     4  12  27  48  71 101 146 192 233 298 358 422
#     4  12  22  45  70 101 137 184 235 296 350 424
#     4  12  24  44  72 107 140 178 241 295 352 428
#     4  12  24  45  73 105 139 186 238 296 358 424
#
# _framework density 22.346951000000001
#
# number of rings (size 3 to 8) (size 9 to 14) (size 15 to 20)
#    0.000    0.000    7.273    2.727    0.000    2.182 
#    0.000    1.818    0.000    0.000    0.000    0.000 
#    0.000    0.000    0.000    0.000    0.000    0.000 
#
# Total GULP energy -272697.601616 kJ/mol
# GULP energy per Si atom -12395.345528 kJ/mol
# Density = 2.229609 g / cm^3
# Si number density = 22.346951 Si / 1000 Ang^3
#
#
#
# Elastic Constant Matrix: (Units=GPa)
#
#
# Indices 1 2 3 4 5 6 
#
# 1 96.3030 43.0650 54.0582 0.0003 6.9718 -0.0001
# 2 43.0650 112.6378 65.0948 0.0017 -13.0886 -0.0010
# 3 54.0582 65.0948 152.2689 0.0003 16.5307 -0.0002
# 4 0.0003 0.0017 0.0003 45.7873 -0.0002 -0.3084
# 5 6.9718 -13.0886 16.5307 -0.0002 48.7831 0.0001
# 6 -0.0001 -0.0010 -0.0002 -0.3084 0.0001 34.2323
#
#
#
# Elastic Compliance Matrix: (Units=1/GPa)
#
#
# Indices 1 2 3 4 5 6 
#
# 1 0.013965 -0.003746 -0.003147 0.000000 -0.001935 0.000000
# 2 -0.003746 0.014134 -0.005380 0.000000 0.006151 0.000000
# 3 -0.003147 -0.005380 0.010478 0.000000 -0.004544 0.000000
# 4 0.000000 0.000000 0.000000 0.021841 0.000000 0.000197
# 5 -0.001935 0.006151 -0.004544 0.000000 0.023966 0.000000
# 6 0.000000 0.000000 0.000000 0.000197 0.000000 0.029214
#
#
# Mechanical properties :
#
#
# Convention : Reuss Voigt Hill
#
# Bulk Modulus (GPa) = 71.26526 76.18284 73.72405
# Shear Modulus (GPa) = 35.00892 39.02665 37.01779
#
# Velocity S-wave (km/s) = 3.96233 4.18353 4.07443
# Velocity P-wave (km/s) = 7.27276 7.58293 7.42946
#
# Compressibility (1/GPa) = 0.01403208
#
# Stress axis : x y z
#
# Youngs Moduli (GPa) = 71.60625 70.75059 95.43940
#
# Poissons Ratio (x) = 0.26501 0.30031
# Poissons Ratio (y) = 0.26821 0.51349
# Poissons Ratio (z) = 0.22532 0.38066
#
# Static dielectric constant tensor:
#      x y z
#    x 4.352340 0.000000 0.037570 
#    y 0.000000 4.260730 0.000000 
#    z 0.037570 0.000000 4.603020 
# 
# 
# High freq. dielectric constant tensor:
#      x y z
#    x 1.875510 0.000000 0.010340 
#    y 0.000000 1.882480 0.000000 
#    z 0.010340 0.000000 1.895970 
# 
# From -- ./inp_files/218477.got.cif
#   From: 2010.06.25/outbox.cif.g09.slc.cpg/sg15_110_cif.got.tgz:218477.got - 2010.06.28 07:06:18.
