data_PCOD8154588
_publ_section_title
;
Structure prediction by ZEFSAII (Michael W. Deem and Ramdas Pophale) SiO2 
 PCOD8154588
Probable space group: C 2/C
;
_chemical_formula_sum "Si O2"
_cell_formula_units_Z 52
_cell_length_a 18.433477
_cell_length_b 18.146310
_cell_length_c 15.372759
_cell_angle_alpha 90.000000
_cell_angle_beta 152.842049
_cell_angle_gamma 90.000000
_cell_volume 2347.123404
_symmetry_space_group_name_H-M "C 2/C"
_symmetry_group_IT_number 15
_symmetry_cell_setting 'monoclinic'
loop_
_space_group_symop_operation_xyz
x,y,z
-x,y,1/2-z
-x,-y,-z
x,-y,1/2+z
1/2+x,1/2+y,z
1/2-x,1/2+y,1/2-z
1/2-x,1/2-y,-z
1/2+x,1/2-y,1/2+z
loop_
_atom_site_type_symbol
_atom_site_label
_atom_site_fract_x
_atom_site_fract_y
_atom_site_fract_z
Si Si1 0.329826 0.102903 0.991316
Si Si2 0.912985 0.799002 0.336045
Si Si3 0.187326 0.024698 0.452881
Si Si4 0.241245 0.172743 0.251529
Si Si5 0.681267 0.176462 0.968203
Si Si6 0.386969 0.041472 0.313135
Si Si7 0.500000 0.229818 0.250000
O O1 0.197038 0.127624 0.779970
O O2 0.275471 0.029469 0.980804
O O3 0.501748 0.088829 0.132289
O O4 0.348578 0.174944 0.073885
O O5 0.816072 0.729665 0.264809
O O6 0.052756 0.815281 0.553280
O O7 0.979379 0.783065 0.310467
O O8 0.212807 0.108473 0.451184
O O9 0.000000 0.007019 0.250000
O O10 0.268362 0.012604 0.633738
O O11 0.313227 0.183879 0.422835
O O12 0.274273 0.091766 0.251135
O O13 0.500000 0.162601 0.750000
O O14 0.750000 0.250000 0.000000
O O15 0.500000 0.000000 0.500000
#
# Coordination Sequence:
#
# PCOD8154588 Si02
#       7
#     8   8   8   8   8   8   4
#     4  12  23  42  68 100 142 186 229 274 350 436
#     4  12  25  39  68 106 143 183 225 289 354 426
#     4  12  26  46  71 102 136 188 238 288 356 428
#     4  12  24  44  67 105 139 182 234 296 345 416
#     4  12  27  50  75 100 136 188 243 298 356 419
#     4  12  25  44  68  97 138 183 236 293 355 415
#     4  12  22  40  68 100 146 182 222 266 360 428
#
# _framework density 22.154779000000001
#
# number of rings (size 3 to 8) (size 9 to 14) (size 15 to 20)
#    0.000    0.000    4.615    5.538    3.231    2.462 
#    0.000    3.077    0.000    0.000    0.000    0.000 
#    0.000    0.000    0.000    0.000    0.000    0.000 
#
# Total GULP energy -322503.715976 kJ/mol
# GULP energy per Si atom -12403.989076 kJ/mol
# Density = 2.210435 g / cm^3
# Si number density = 22.154779 Si / 1000 Ang^3
#
#
#
# Elastic Constant Matrix: (Units=GPa)
#
#
# Indices 1 2 3 4 5 6 
#
# 1 80.6628 22.8427 28.2847 0.0000 -12.8860 0.0000
# 2 22.8427 104.9465 20.0334 0.0000 -4.7989 0.0000
# 3 28.2847 20.0334 164.7879 0.0000 -3.2351 0.0000
# 4 0.0000 0.0000 0.0000 41.9516 0.0000 -4.8750
# 5 -12.8860 -4.7989 -3.2351 0.0000 40.2999 0.0000
# 6 0.0000 0.0000 0.0000 -4.8750 0.0000 18.2527
#
#
#
# Elastic Compliance Matrix: (Units=1/GPa)
#
#
# Indices 1 2 3 4 5 6 
#
# 1 0.014528 -0.002571 -0.002099 0.000000 0.004171 0.000000
# 2 -0.002571 0.010256 -0.000799 0.000000 0.000335 0.000000
# 3 -0.002099 -0.000799 0.006521 0.000000 -0.000243 0.000000
# 4 0.000000 0.000000 0.000000 0.024601 0.000000 0.006570
# 5 0.004171 0.000335 -0.000243 0.000000 0.026168 0.000000
# 6 0.000000 0.000000 0.000000 0.006570 0.000000 0.056541
#
#
# Mechanical properties :
#
#
# Convention : Reuss Voigt Hill
#
# Bulk Modulus (GPa) = 49.09893 54.74653 51.92273
# Shear Modulus (GPa) = 31.98132 38.71660 35.34896
#
# Velocity S-wave (km/s) = 3.80352 4.18491 3.99876
# Velocity P-wave (km/s) = 6.44196 6.93656 6.69383
#
# Compressibility (1/GPa) = 0.02036704
#
# Stress axis : x y z
#
# Youngs Moduli (GPa) = 68.83442 97.50342 153.34877
#
# Poissons Ratio (x) = 0.25065 0.32190
# Poissons Ratio (y) = 0.17695 0.12253
# Poissons Ratio (z) = 0.14449 0.07791
#
# Static dielectric constant tensor:
#      x y z
#    x 3.939810 0.000000 -0.010800 
#    y 0.000000 3.999240 0.000000 
#    z -0.010800 0.000000 4.055510 
# 
# 
# High freq. dielectric constant tensor:
#      x y z
#    x 1.861860 0.000000 -0.001020 
#    y 0.000000 1.879050 0.000000 
#    z -0.001020 0.000000 1.898570 
# 
# From -- ./inp_files/163641.got.cif
#   From: 2010.06.25/outbox.cif.g09.slc.cpg/sg15_82_cif.got.tgz:163641.got - 2010.06.28 07:06:18.
