data_PCOD8154155
_publ_section_title
;
Structure prediction by ZEFSAII (Michael W. Deem and Ramdas Pophale) SiO2 
 PCOD8154155
Probable space group: C 2/C
;
_chemical_formula_sum "Si O2"
_cell_formula_units_Z 32
_cell_length_a 4.885662
_cell_length_b 14.167425
_cell_length_c 18.236828
_cell_angle_alpha 90.000000
_cell_angle_beta 83.217296
_cell_angle_gamma 90.000000
_cell_volume 1253.468483
_symmetry_space_group_name_H-M "C 2/C"
_symmetry_group_IT_number 15
_symmetry_cell_setting 'monoclinic'
loop_
_space_group_symop_operation_xyz
x,y,z
-x,y,1/2-z
-x,-y,-z
x,-y,1/2+z
1/2+x,1/2+y,z
1/2-x,1/2+y,1/2-z
1/2-x,1/2-y,-z
1/2+x,1/2-y,1/2+z
loop_
_atom_site_type_symbol
_atom_site_label
_atom_site_fract_x
_atom_site_fract_y
_atom_site_fract_z
Si Si1 0.500000 0.481755 0.250000
Si Si2 0.000000 0.388599 0.750000
Si Si3 0.428841 0.402808 0.406383
Si Si4 0.236510 0.304472 0.599746
Si Si5 0.231155 0.596148 0.465642
O O1 0.763292 0.545660 0.224632
O O2 0.547199 0.418712 0.320868
O O3 0.109222 0.321349 0.683128
O O4 0.256297 0.306511 0.415727
O O5 0.226470 0.486629 0.440449
O O6 0.696589 0.396491 0.450468
O O7 0.543385 0.345899 0.588750
O O8 0.064951 0.358073 0.541526
#
# Coordination Sequence:
#
# PCOD8154155 Si02
#       5
#     4   4   8   8   8
#     4  12  25  46  65  98 136 176 225 272 333 392
#     4  12  23  44  65  96 136 178 219 282 319 394
#     4  11  25  45  72  99 134 182 217 276 339 396
#     4  12  24  45  69  99 137 176 223 274 336 393
#     4  11  26  44  70 103 136 168 228 278 328 398
#
# _framework density 25.529160000000001
#
# number of rings (size 3 to 8) (size 9 to 14) (size 15 to 20)
#    0.000    0.500    5.000    2.250    0.000   10.000 
#    0.000    2.500    0.000    0.000    0.000    0.000 
#    0.000    0.000    0.000    0.000    0.000    0.000 
#
# Total GULP energy -198555.335100 kJ/mol
# GULP energy per Si atom -12409.708444 kJ/mol
# Density = 2.547105 g / cm^3
# Si number density = 25.529160 Si / 1000 Ang^3
#
#
#
# Elastic Constant Matrix: (Units=GPa)
#
#
# Indices 1 2 3 4 5 6 
#
# 1 63.5469 23.6542 -16.9431 0.0000 4.2783 0.0000
# 2 23.6542 200.1076 34.2060 0.0000 -1.9626 0.0000
# 3 -16.9431 34.2060 169.5001 0.0000 3.1153 0.0000
# 4 0.0000 0.0000 0.0000 76.4562 0.0000 -6.0505
# 5 4.2783 -1.9626 3.1153 0.0000 28.1183 0.0000
# 6 0.0000 0.0000 0.0000 -6.0505 0.0000 18.0768
#
#
#
# Elastic Compliance Matrix: (Units=1/GPa)
#
#
# Indices 1 2 3 4 5 6 
#
# 1 0.017487 -0.002492 0.002308 0.000000 -0.003090 0.000000
# 2 -0.002492 0.005537 -0.001383 0.000000 0.000919 0.000000
# 3 0.002308 -0.001383 0.006431 0.000000 -0.001160 0.000000
# 4 0.000000 0.000000 0.000000 0.013435 0.000000 0.004497
# 5 -0.003090 0.000919 -0.001160 0.000000 0.036227 0.000000
# 6 0.000000 0.000000 0.000000 0.004497 0.000000 0.056825
#
#
# Mechanical properties :
#
#
# Convention : Reuss Voigt Hill
#
# Bulk Modulus (GPa) = 37.99354 57.22097 47.60726
# Shear Modulus (GPa) = 33.81776 50.67942 42.24859
#
# Velocity S-wave (km/s) = 3.64355 4.46034 4.07248
# Velocity P-wave (km/s) = 5.71099 6.99920 6.38765
#
# Compressibility (1/GPa) = 0.02632026
#
# Stress axis : x y z
#
# Youngs Moduli (GPa) = 57.18426 180.59111 155.49948
#
# Poissons Ratio (x) = 0.45002 -0.35885
# Poissons Ratio (y) = 0.14250 0.21513
# Poissons Ratio (z) = -0.13196 0.24984
#
# Static dielectric constant tensor:
#      x y z
#    x 4.301290 0.000000 0.109320 
#    y 0.000000 4.680420 0.000000 
#    z 0.109320 0.000000 4.834760 
# 
# 
# High freq. dielectric constant tensor:
#      x y z
#    x 2.014250 0.000000 -0.005790 
#    y 0.000000 2.026720 0.000000 
#    z -0.005790 0.000000 2.045480 
# 
# From -- ./inp_files/183749.got.cif
#   From: 2010.06.25/outbox.cif.g09.slc.cpg/sg15_92_cif.got.tgz:183749.got - 2010.06.28 07:06:18.
