data_PCOD8154617
_publ_section_title
;
Structure prediction by ZEFSAII (Michael W. Deem and Ramdas Pophale) SiO2 
 PCOD8154617
Probable space group: C 2/C
;
_chemical_formula_sum "Si O2"
_cell_formula_units_Z 28
_cell_length_a 8.358633
_cell_length_b 28.555048
_cell_length_c 4.839877
_cell_angle_alpha 90.000000
_cell_angle_beta 70.959157
_cell_angle_gamma 90.000000
_cell_volume 1091.982856
_symmetry_space_group_name_H-M "C 2/C"
_symmetry_group_IT_number 15
_symmetry_cell_setting 'monoclinic'
loop_
_space_group_symop_operation_xyz
x,y,z
-x,y,1/2-z
-x,-y,-z
x,-y,1/2+z
1/2+x,1/2+y,z
1/2-x,1/2+y,1/2-z
1/2-x,1/2-y,-z
1/2+x,1/2-y,1/2+z
loop_
_atom_site_type_symbol
_atom_site_label
_atom_site_fract_x
_atom_site_fract_y
_atom_site_fract_z
Si Si1 0.500000 0.195706 0.750000
Si Si2 0.000000 0.465500 0.250000
Si Si3 0.211791 0.844930 0.069752
Si Si4 0.674704 0.404901 0.564904
Si Si5 0.000000 0.758918 0.250000
O O1 0.622292 0.159858 0.834909
O O2 0.575660 0.228008 0.459084
O O3 0.824511 0.436613 0.358273
O O4 0.000000 0.500000 0.500000
O O5 0.095754 0.872133 0.363412
O O6 0.147105 0.792391 0.043613
O O7 0.251657 0.873808 0.771143
O O8 0.500000 0.432422 0.750000
#
# Coordination Sequence:
#
# PCOD8154617 Si02
#       5
#     4   4   8   8   4
#     4  12  25  38  64 104 150 198 252 324 366 396
#     4  12  29  50  79 118 148 178 232 298 375 460
#     4  12  24  44  70 103 146 199 259 299 362 439
#     4  12  25  49  78 107 148 198 240 298 364 445
#     4  12  22  42  63 102 148 196 260 314 365 416
#
# _framework density 25.641431999999998
#
# number of rings (size 3 to 8) (size 9 to 14) (size 15 to 20)
#    0.000    0.000    2.857    7.714    0.000    3.429 
#    0.000    0.000    0.000    0.000    0.000    0.000 
#    0.000    0.000    0.000    0.000    0.000    0.000 
#
# Total GULP energy -173449.898217 kJ/mol
# GULP energy per Si atom -12389.278444 kJ/mol
# Density = 2.558307 g / cm^3
# Si number density = 25.641432 Si / 1000 Ang^3
#
#
#
# Elastic Constant Matrix: (Units=GPa)
#
#
# Indices 1 2 3 4 5 6 
#
# 1 132.9356 39.2076 64.7039 0.0000 7.6482 0.0000
# 2 39.2076 106.1291 73.7991 0.0000 2.6186 0.0000
# 3 64.7039 73.7991 180.6857 0.0000 19.7833 0.0000
# 4 0.0000 0.0000 0.0000 68.2404 0.0000 -13.1504
# 5 7.6482 2.6186 19.7833 0.0000 65.2381 0.0000
# 6 0.0000 0.0000 0.0000 -13.1504 0.0000 54.9706
#
#
#
# Elastic Compliance Matrix: (Units=1/GPa)
#
#
# Indices 1 2 3 4 5 6 
#
# 1 0.009295 -0.001579 -0.002660 0.000000 -0.000220 0.000000
# 2 -0.001579 0.013511 -0.005083 0.000000 0.001184 0.000000
# 3 -0.002660 -0.005083 0.008798 0.000000 -0.002152 0.000000
# 4 0.000000 0.000000 0.000000 0.015362 0.000000 0.003675
# 5 -0.000220 0.001184 -0.002152 0.000000 0.015959 0.000000
# 6 0.000000 0.000000 0.000000 0.003675 0.000000 0.019071
#
#
# Mechanical properties :
#
#
# Convention : Reuss Voigt Hill
#
# Bulk Modulus (GPa) = 77.14809 86.13017 81.63913
# Shear Modulus (GPa) = 47.63699 53.82581 50.73140
#
# Velocity S-wave (km/s) = 4.31491 4.58664 4.45285
# Velocity P-wave (km/s) = 7.41466 7.85576 7.63839
#
# Compressibility (1/GPa) = 0.01296208
#
# Stress axis : x y z
#
# Youngs Moduli (GPa) = 107.58051 74.01425 113.65640
#
# Poissons Ratio (x) = 0.11688 0.30228
# Poissons Ratio (y) = 0.16989 0.57766
# Poissons Ratio (z) = 0.28612 0.37618
#
# Static dielectric constant tensor:
#      x y z
#    x 5.007200 0.000000 0.256530 
#    y 0.000000 5.459100 0.000000 
#    z 0.256530 0.000000 5.436150 
# 
# 
# High freq. dielectric constant tensor:
#      x y z
#    x 2.053480 0.000000 0.005570 
#    y 0.000000 2.001190 0.000000 
#    z 0.005570 0.000000 2.054460 
# 
# From -- ./inp_files/2537.got.cif
#   From: 2010.06.25/outbox.cif.g09.slc.cpg/sg15_2_cif.got.tgz:2537.got - 2010.06.28 07:06:18.
