data_PCOD8154964
_publ_section_title
;
Structure prediction by ZEFSAII (Michael W. Deem and Ramdas Pophale) SiO2 
 PCOD8154964
Probable space group: C 2/C
;
_chemical_formula_sum "Si O2"
_cell_formula_units_Z 32
_cell_length_a 7.093574
_cell_length_b 12.513933
_cell_length_c 14.805790
_cell_angle_alpha 90.000000
_cell_angle_beta 108.373450
_cell_angle_gamma 90.000000
_cell_volume 1247.288377
_symmetry_space_group_name_H-M "C 2/C"
_symmetry_group_IT_number 15
_symmetry_cell_setting 'monoclinic'
loop_
_space_group_symop_operation_xyz
x,y,z
-x,y,1/2-z
-x,-y,-z
x,-y,1/2+z
1/2+x,1/2+y,z
1/2-x,1/2+y,1/2-z
1/2-x,1/2-y,-z
1/2+x,1/2-y,1/2+z
loop_
_atom_site_type_symbol
_atom_site_label
_atom_site_fract_x
_atom_site_fract_y
_atom_site_fract_z
Si Si1 0.446049 0.982148 0.390068
Si Si2 0.618626 0.454699 0.104138
Si Si3 0.175334 0.210511 0.891923
Si Si4 0.306778 0.364439 0.760463
O O1 0.644871 0.948246 0.368546
O O2 0.295935 0.884661 0.363866
O O3 0.500000 0.000000 0.500000
O O4 0.353659 0.092209 0.336516
O O5 0.546263 0.335721 0.122907
O O6 0.574867 0.536212 0.177603
O O7 0.500000 0.500000 0.000000
O O8 0.182130 0.304306 0.819693
O O9 0.250000 0.250000 0.000000
O O10 0.500000 0.299239 0.750000
#
# Coordination Sequence:
#
# PCOD8154964 Si02
#       4
#     8   8   8   8
#     4  12  26  53  83 116 171 223 275 356 420 505
#     4  12  24  53  79 113 171 215 279 349 420 503
#     4  12  27  52  84 124 162 226 284 346 434 506
#     4  12  26  53  82 123 171 218 284 355 423 508
#
# _framework density 25.655653000000001
#
# number of rings (size 3 to 8) (size 9 to 14) (size 15 to 20)
#    0.000    0.000    7.500    0.750    0.000    3.000 
#   27.000    0.000    0.000    0.000    0.000    0.000 
#    0.000    0.000    0.000    0.000    0.000    0.000 
#
# Total GULP energy -198338.205328 kJ/mol
# GULP energy per Si atom -12396.137833 kJ/mol
# Density = 2.559726 g / cm^3
# Si number density = 25.655653 Si / 1000 Ang^3
#
#
#
# Elastic Constant Matrix: (Units=GPa)
#
#
# Indices 1 2 3 4 5 6 
#
# 1 205.4140 48.7318 38.2437 0.0000 -3.9635 0.0000
# 2 48.7318 114.2068 48.2952 0.0000 -7.8179 0.0000
# 3 38.2437 48.2952 163.1277 0.0000 1.6586 0.0000
# 4 0.0000 0.0000 0.0000 43.6853 0.0000 -15.1416
# 5 -3.9635 -7.8179 1.6586 0.0000 39.3662 0.0000
# 6 0.0000 0.0000 0.0000 -15.1416 0.0000 54.6534
#
#
#
# Elastic Compliance Matrix: (Units=1/GPa)
#
#
# Indices 1 2 3 4 5 6 
#
# 1 0.005482 -0.002038 -0.000684 0.000000 0.000176 0.000000
# 2 -0.002038 0.010946 -0.002784 0.000000 0.002086 0.000000
# 3 -0.000684 -0.002784 0.007124 0.000000 -0.000922 0.000000
# 4 0.000000 0.000000 0.000000 0.025323 0.000000 0.007016
# 5 0.000176 0.002086 -0.000922 0.000000 0.025873 0.000000
# 6 0.000000 0.000000 0.000000 0.007016 0.000000 0.020241
#
#
# Mechanical properties :
#
#
# Convention : Reuss Voigt Hill
#
# Bulk Modulus (GPa) = 79.74089 83.69888 81.71988
# Shear Modulus (GPa) = 45.37996 50.70618 48.04307
#
# Velocity S-wave (km/s) = 4.21028 4.45051 4.33206
# Velocity P-wave (km/s) = 7.40162 7.68792 7.54613
#
# Compressibility (1/GPa) = 0.01254062
#
# Stress axis : x y z
#
# Youngs Moduli (GPa) = 182.40084 91.35938 140.36990
#
# Poissons Ratio (x) = 0.18621 0.09597
# Poissons Ratio (y) = 0.37177 0.39078
# Poissons Ratio (z) = 0.12470 0.25434
#
# Static dielectric constant tensor:
#      x y z
#    x 4.786620 0.000000 -0.044900 
#    y 0.000000 3.642540 0.000000 
#    z -0.044900 0.000000 4.731010 
# 
# 
# High freq. dielectric constant tensor:
#      x y z
#    x 2.052140 0.000000 -0.006110 
#    y 0.000000 2.018920 0.000000 
#    z -0.006110 0.000000 2.043480 
# 
# From -- ./inp_files/132077.got.cif
#   From: 2010.06.25/outbox.cif.g09.slc.cpg/sg15_67_cif.got.tgz:132077.got - 2010.06.28 07:06:18.
