data_PCOD8154969
_publ_section_title
;
Structure prediction by ZEFSAII (Michael W. Deem and Ramdas Pophale) SiO2 
 PCOD8154969
Probable space group: C 2/C
;
_chemical_formula_sum "Si O2"
_cell_formula_units_Z 40
_cell_length_a 21.822828
_cell_length_b 14.144782
_cell_length_c 16.196111
_cell_angle_alpha 90.000000
_cell_angle_beta 159.991834
_cell_angle_gamma 90.000000
_cell_volume 1710.565627
_symmetry_space_group_name_H-M "C 2/C"
_symmetry_group_IT_number 15
_symmetry_cell_setting 'monoclinic'
loop_
_space_group_symop_operation_xyz
x,y,z
-x,y,1/2-z
-x,-y,-z
x,-y,1/2+z
1/2+x,1/2+y,z
1/2-x,1/2+y,1/2-z
1/2-x,1/2-y,-z
1/2+x,1/2-y,1/2+z
loop_
_atom_site_type_symbol
_atom_site_label
_atom_site_fract_x
_atom_site_fract_y
_atom_site_fract_z
Si Si1 0.894915 0.479999 0.451771
Si Si2 0.500000 0.504983 0.250000
Si Si3 0.826844 0.158798 0.140180
Si Si4 0.853153 0.810692 0.331075
Si Si5 0.865066 0.877132 0.935838
Si Si6 0.500000 0.951606 0.250000
O O1 0.808316 0.376146 0.341821
O O2 0.731217 0.554351 0.251693
O O3 0.000000 0.500000 0.500000
O O4 0.023437 0.485984 0.695826
O O5 0.366279 0.575050 0.126617
O O6 0.607403 0.436896 0.446823
O O7 0.993358 0.191310 0.405564
O O8 0.750000 0.250000 0.000000
O O9 0.664487 0.114764 0.985896
O O10 0.768086 0.708222 0.210302
O O11 0.943703 0.844640 0.359907
#
# Coordination Sequence:
#
# PCOD8154969 Si02
#       6
#     8   4   8   8   8   4
#     4  12  25  48  73 110 153 206 261 327 396 471
#     4  12  27  47  80 110 158 202 262 330 396 472
#     4  12  26  46  75 112 144 203 263 326 389 466
#     4  12  27  48  76 109 161 205 260 326 399 471
#     4  12  26  48  74 112 156 208 259 330 395 469
#     4  12  25  43  74 104 146 196 260 318 390 458
#
# _framework density 23.384077999999999
#
# number of rings (size 3 to 8) (size 9 to 14) (size 15 to 20)
#    0.000    0.000    4.000    6.000    2.800    1.600 
#    0.000    0.000    0.000    0.000    0.000    0.000 
#    0.000    0.000    0.000    0.000    0.000    0.000 
#
# Total GULP energy -247926.684817 kJ/mol
# GULP energy per Si atom -12396.334241 kJ/mol
# Density = 2.333085 g / cm^3
# Si number density = 23.384078 Si / 1000 Ang^3
#
#
#
# Elastic Constant Matrix: (Units=GPa)
#
#
# Indices 1 2 3 4 5 6 
#
# 1 132.3405 48.0170 56.6646 -0.0022 -17.9615 -0.0019
# 2 48.0170 164.0877 72.5992 0.0004 -21.1893 0.0016
# 3 56.6646 72.5992 126.9488 -0.0024 -18.3863 -0.0039
# 4 -0.0022 0.0004 -0.0024 60.1347 -0.0001 -12.0834
# 5 -17.9615 -21.1893 -18.3863 -0.0001 42.6101 0.0028
# 6 -0.0019 0.0016 -0.0039 -12.0834 0.0028 87.3133
#
#
#
# Elastic Compliance Matrix: (Units=1/GPa)
#
#
# Indices 1 2 3 4 5 6 
#
# 1 0.009685 -0.001052 -0.003419 0.000000 0.002084 0.000000
# 2 -0.001052 0.008467 -0.004082 0.000000 0.002006 0.000000
# 3 -0.003419 -0.004082 0.011984 0.000000 0.001700 0.000001
# 4 0.000000 0.000000 0.000000 0.017105 0.000000 0.002367
# 5 0.002084 0.002006 0.001700 0.000000 0.026078 -0.000001
# 6 0.000000 0.000000 0.000001 0.002367 -0.000001 0.011781
#
#
# Mechanical properties :
#
#
# Convention : Reuss Voigt Hill
#
# Bulk Modulus (GPa) = 76.75212 86.43763 81.59487
# Shear Modulus (GPa) = 46.92617 54.41802 50.67209
#
# Velocity S-wave (km/s) = 4.48454 4.82928 4.66010
# Velocity P-wave (km/s) = 7.72713 8.25472 7.99528
#
# Compressibility (1/GPa) = 0.01302896
#
# Stress axis : x y z
#
# Youngs Moduli (GPa) = 103.25312 118.10140 83.44329
#
# Poissons Ratio (x) = 0.12425 0.28533
# Poissons Ratio (y) = 0.10863 0.34063
# Poissons Ratio (z) = 0.35307 0.48211
#
# Static dielectric constant tensor:
#      x y z
#    x 4.225170 0.000000 0.103690 
#    y 0.000000 4.395400 0.000000 
#    z 0.103690 0.000000 4.354600 
# 
# 
# High freq. dielectric constant tensor:
#      x y z
#    x 1.932580 0.000000 0.003540 
#    y 0.000000 1.935560 0.000000 
#    z 0.003540 0.000000 1.935360 
# 
# From -- ./inp_files/219638.got.cif
#   From: 2010.06.25/outbox.cif.g09.slc.cpg/sg15_110_cif.got.tgz:219638.got - 2010.06.28 07:06:18.
