data_PCOD8154404
_publ_section_title
;
Structure prediction by ZEFSAII (Michael W. Deem and Ramdas Pophale) SiO2 
 PCOD8154404
Probable space group: C 2/C
;
_chemical_formula_sum "Si O2"
_cell_formula_units_Z 56
_cell_length_a 13.819037
_cell_length_b 19.893551
_cell_length_c 16.237017
_cell_angle_alpha 90.000000
_cell_angle_beta 147.753558
_cell_angle_gamma 90.000000
_cell_volume 2381.668021
_symmetry_space_group_name_H-M "C 2/C"
_symmetry_group_IT_number 15
_symmetry_cell_setting 'monoclinic'
loop_
_space_group_symop_operation_xyz
x,y,z
-x,y,1/2-z
-x,-y,-z
x,-y,1/2+z
1/2+x,1/2+y,z
1/2-x,1/2+y,1/2-z
1/2-x,1/2-y,-z
1/2+x,1/2-y,1/2+z
loop_
_atom_site_type_symbol
_atom_site_label
_atom_site_fract_x
_atom_site_fract_y
_atom_site_fract_z
Si Si1 0.894075 0.309012 0.247640
Si Si2 0.830644 0.985132 0.975916
Si Si3 0.849997 0.909444 0.356973
Si Si4 0.661777 0.666861 0.805611
Si Si5 0.451721 0.194491 0.352847
Si Si6 0.500000 0.436221 0.750000
Si Si7 0.718933 0.172978 0.101557
Si Si8 0.000000 0.595955 0.250000
O O1 0.697819 0.342248 0.125350
O O2 0.855134 0.234669 0.186416
O O3 0.000000 0.346996 0.250000
O O4 0.024745 0.313294 0.420100
O O5 0.659905 0.952107 0.899455
O O6 0.760707 0.032336 0.849641
O O7 0.939971 0.926515 0.005827
O O8 0.953602 0.020961 0.134366
O O9 0.777734 0.895053 0.211310
O O10 0.500000 0.643016 0.750000
O O11 0.593570 0.728845 0.700923
O O12 0.832882 0.690984 0.980053
O O13 0.325977 0.167302 0.335014
O O14 0.403714 0.142774 0.246945
O O15 0.679204 0.392852 0.858523
#
# Coordination Sequence:
#
# PCOD8154404 Si02
#       8
#     8   8   8   8   8   4   8   4
#     4  12  25  45  76 110 151 184 238 308 376 434
#     4  11  30  50  75 102 152 211 242 308 349 452
#     4  11  26  48  75 107 146 199 246 293 372 439
#     4  12  25  45  76 110 151 184 238 308 376 434
#     4  12  26  45  74 114 146 189 237 310 375 444
#     4  12  30  50  74 108 148 196 262 294 374 440
#     4  12  26  45  74 114 146 189 237 310 375 444
#     4  12  30  50  74 108 148 196 262 294 374 440
#
# _framework density 23.512933
#
# number of rings (size 3 to 8) (size 9 to 14) (size 15 to 20)
#    0.000    0.286    4.286    2.571   14.000    0.000 
#    0.000    2.143    0.000    0.000    0.000    0.000 
#    0.000    0.000    0.000    0.000    0.000    0.000 
#
# Total GULP energy -346923.101069 kJ/mol
# GULP energy per Si atom -12390.110752 kJ/mol
# Density = 2.345942 g / cm^3
# Si number density = 23.512933 Si / 1000 Ang^3
#
#
#
# Elastic Constant Matrix: (Units=GPa)
#
#
# Indices 1 2 3 4 5 6 
#
# 1 149.1323 52.5415 19.1398 0.0135 -1.5677 0.0084
# 2 52.5415 98.3144 51.7486 0.0172 -1.3475 0.0125
# 3 19.1398 51.7486 90.9423 0.0568 0.7741 0.0365
# 4 0.0135 0.0172 0.0568 26.9215 0.0137 -4.1893
# 5 -1.5677 -1.3475 0.7741 0.0137 37.4677 0.0100
# 6 0.0084 0.0125 0.0365 -4.1893 0.0100 25.0946
#
#
#
# Elastic Compliance Matrix: (Units=1/GPa)
#
#
# Indices 1 2 3 4 5 6 
#
# 1 0.008340 -0.005040 0.001112 -0.000004 0.000145 -0.000003
# 2 -0.005040 0.017585 -0.008950 0.000011 0.000606 0.000008
# 3 0.001112 -0.008950 0.015860 -0.000032 -0.000603 -0.000024
# 4 -0.000004 0.000011 -0.000032 0.038136 -0.000015 0.006366
# 5 0.000145 0.000606 -0.000603 -0.000015 0.026730 -0.000013
# 6 -0.000003 0.000008 -0.000024 0.006366 -0.000013 0.040912
#
#
# Mechanical properties :
#
#
# Convention : Reuss Voigt Hill
#
# Bulk Modulus (GPa) = 62.39643 65.02765 63.71204
# Shear Modulus (GPa) = 27.98563 32.22737 30.10650
#
# Velocity S-wave (km/s) = 3.45370 3.70621 3.58218
# Velocity P-wave (km/s) = 6.51911 6.78460 6.65318
#
# Compressibility (1/GPa) = 0.01602656
#
# Stress axis : x y z
#
# Youngs Moduli (GPa) = 119.90326 56.86818 63.05061
#
# Poissons Ratio (x) = 0.28663 -0.07008
# Poissons Ratio (y) = 0.60434 0.56433
# Poissons Ratio (z) = -0.13328 0.50900
#
# Static dielectric constant tensor:
#      x y z
#    x 4.595760 -0.000010 -0.057440 
#    y -0.000010 4.338340 -0.000010 
#    z -0.057440 -0.000010 4.043000 
# 
# 
# High freq. dielectric constant tensor:
#      x y z
#    x 1.962410 0.000000 0.004170 
#    y 0.000000 1.925580 0.000000 
#    z 0.004170 0.000000 1.914380 
# 
# From -- ./inp_files/207014.got.cif
#   From: 2010.06.25/outbox.cif.g09.slc.cpg/sg15_104_cif.got.tgz:207014.got - 2010.06.28 07:06:18.
