data_PCOD8154846
_publ_section_title
;
Structure prediction by ZEFSAII (Michael W. Deem and Ramdas Pophale) SiO2 
 PCOD8154846
Probable space group: C 2/C
;
_chemical_formula_sum "Si O2"
_cell_formula_units_Z 44
_cell_length_a 12.699137
_cell_length_b 24.649606
_cell_length_c 8.779021
_cell_angle_alpha 90.000000
_cell_angle_beta 44.463318
_cell_angle_gamma 90.000000
_cell_volume 1924.903477
_symmetry_space_group_name_H-M "C 2/C"
_symmetry_group_IT_number 15
_symmetry_cell_setting 'monoclinic'
loop_
_space_group_symop_operation_xyz
x,y,z
-x,y,1/2-z
-x,-y,-z
x,-y,1/2+z
1/2+x,1/2+y,z
1/2-x,1/2+y,1/2-z
1/2-x,1/2-y,-z
1/2+x,1/2-y,1/2+z
loop_
_atom_site_type_symbol
_atom_site_label
_atom_site_fract_x
_atom_site_fract_y
_atom_site_fract_z
Si Si1 0.310979 0.851923 0.687403
Si Si2 0.500000 0.105752 0.250000
Si Si3 0.750002 0.443950 0.204305
Si Si4 0.968763 0.847893 0.113389
Si Si5 0.664984 0.046472 0.544785
Si Si6 0.875359 0.240373 0.491750
O O1 0.368110 0.861382 0.800760
O O2 0.361537 0.898336 0.519166
O O3 0.398719 0.797214 0.552334
O O4 0.130539 0.849172 0.864286
O O5 0.412673 0.073262 0.471441
O O6 0.610712 0.406680 0.294227
O O7 0.748173 0.442569 0.388171
O O8 0.730994 0.505341 0.161175
O O9 0.000000 0.825366 0.250000
O O10 0.856923 0.806795 0.138322
O O11 0.500000 0.021208 0.750000
O O12 0.750000 0.250000 0.500000
O O13 0.000000 0.219864 0.250000
#
# Coordination Sequence:
#
# PCOD8154846 Si02
#       6
#     8   4   8   8   8   8
#     4  12  27  47  75 108 148 191 248 307 374 437
#     4  12  24  44  74 108 144 196 246 300 368 446
#     4  12  26  45  74 107 148 196 250 301 371 435
#     4  12  29  49  71 110 157 190 245 312 372 441
#     4  12  24  45  76 108 147 194 251 308 356 444
#     4  12  27  49  76 107 145 193 248 303 368 439
#
# _framework density 22.858288999999999
#
# number of rings (size 3 to 8) (size 9 to 14) (size 15 to 20)
#    0.000    0.000    6.364    3.273    3.818    1.455 
#    0.000    0.000    0.000    0.000    0.000    0.000 
#    0.000    0.000    0.000    0.000    0.000    0.000 
#
# Total GULP energy -272694.588851 kJ/mol
# GULP energy per Si atom -12395.208584 kJ/mol
# Density = 2.280626 g / cm^3
# Si number density = 22.858289 Si / 1000 Ang^3
#
#
#
# Elastic Constant Matrix: (Units=GPa)
#
#
# Indices 1 2 3 4 5 6 
#
# 1 152.2654 37.6481 31.2871 0.0000 25.0589 0.0000
# 2 37.6481 126.0637 25.8095 0.0000 19.9191 0.0000
# 3 31.2871 25.8095 71.3182 0.0000 14.4801 0.0000
# 4 0.0000 0.0000 0.0000 32.2469 0.0000 1.1027
# 5 25.0589 19.9191 14.4801 0.0000 43.6202 0.0000
# 6 0.0000 0.0000 0.0000 1.1027 0.0000 31.1415
#
#
#
# Elastic Compliance Matrix: (Units=1/GPa)
#
#
# Indices 1 2 3 4 5 6 
#
# 1 0.007905 -0.001389 -0.002329 0.000000 -0.003134 0.000000
# 2 -0.001389 0.009218 -0.002181 0.000000 -0.002688 0.000000
# 3 -0.002329 -0.002181 0.016469 0.000000 -0.003133 0.000000
# 4 0.000000 0.000000 0.000000 0.031048 0.000000 -0.001099
# 5 -0.003134 -0.002688 -0.003133 0.000000 0.026993 0.000000
# 6 0.000000 0.000000 0.000000 -0.001099 0.000000 0.032150
#
#
# Mechanical properties :
#
#
# Convention : Reuss Voigt Hill
#
# Bulk Modulus (GPa) = 45.88301 59.90406 52.89353
# Shear Modulus (GPa) = 35.00244 38.39522 36.69883
#
# Velocity S-wave (km/s) = 3.91740 4.10287 4.01121
# Velocity P-wave (km/s) = 6.37007 6.97913 6.68155
#
# Compressibility (1/GPa) = 0.02179456
#
# Stress axis : x y z
#
# Youngs Moduli (GPa) = 126.49869 108.47768 60.72060
#
# Poissons Ratio (x) = 0.15065 0.14142
# Poissons Ratio (y) = 0.17568 0.13244
# Poissons Ratio (z) = 0.29463 0.23660
#
# Static dielectric constant tensor:
#      x y z
#    x 6.644000 0.000000 3.407910 
#    y 0.000000 -2.867190 0.000000 
#    z 3.407910 0.000000 8.101430 
# 
# 
# High freq. dielectric constant tensor:
#      x y z
#    x 1.915240 0.000000 0.015620 
#    y 0.000000 1.898910 0.000000 
#    z 0.015620 0.000000 1.905300 
# 
# From -- ./inp_files/34021.got.cif
#   From: 2010.06.25/outbox.cif.g09.slc.cpg/sg15_18_cif.got.tgz:34021.got - 2010.06.28 07:06:18.
