data_PCOD8154723
_publ_section_title
;
Structure prediction by ZEFSAII (Michael W. Deem and Ramdas Pophale) SiO2 
 PCOD8154723
Probable space group: C 2/C
;
_chemical_formula_sum "Si O2"
_cell_formula_units_Z 56
_cell_length_a 19.366803
_cell_length_b 15.412144
_cell_length_c 8.946468
_cell_angle_alpha 90.000000
_cell_angle_beta 56.869046
_cell_angle_gamma 90.000000
_cell_volume 2236.236762
_symmetry_space_group_name_H-M "C 2/C"
_symmetry_group_IT_number 15
_symmetry_cell_setting 'monoclinic'
loop_
_space_group_symop_operation_xyz
x,y,z
-x,y,1/2-z
-x,-y,-z
x,-y,1/2+z
1/2+x,1/2+y,z
1/2-x,1/2+y,1/2-z
1/2-x,1/2-y,-z
1/2+x,1/2-y,1/2+z
loop_
_atom_site_type_symbol
_atom_site_label
_atom_site_fract_x
_atom_site_fract_y
_atom_site_fract_z
Si Si1 0.270819 0.829883 0.864752
Si Si2 0.442988 0.570662 0.499537
Si Si3 0.095661 0.439559 0.656799
Si Si4 0.659146 0.473677 0.122281
Si Si5 0.136270 0.392968 0.291305
Si Si6 0.054278 0.767268 0.811670
Si Si7 0.726483 0.646402 0.093028
O O1 0.362224 0.866782 0.787892
O O2 0.263699 0.806464 0.697194
O O3 0.250000 0.750000 0.000000
O O4 0.204727 0.908043 0.958334
O O5 0.500000 0.500000 0.500000
O O6 0.410478 0.532273 0.380187
O O7 0.370745 0.585219 0.704802
O O8 0.493003 0.659347 0.442735
O O9 0.147994 0.437314 0.438947
O O10 0.101107 0.535554 0.719150
O O11 0.000000 0.415768 0.750000
O O12 0.721065 0.542881 0.123348
O O13 0.073571 0.312577 0.399825
O O14 0.214899 0.344022 0.122662
O O15 0.138392 0.812171 0.652623
O O16 0.000000 0.720020 0.750000
#
# Coordination Sequence:
#
# PCOD8154723 Si02
#       7
#     8   8   8   8   8   8   8
#     4  12  28  50  78 115 156 207 265 328 397 478
#     4  12  23  43  74 114 156 202 250 316 400 472
#     4  12  28  51  77 107 151 204 265 333 401 463
#     4  12  24  44  77 109 158 202 252 315 402 474
#     4  12  28  49  79 109 153 210 269 326 400 483
#     4  12  25  45  76 117 155 200 261 321 387 476
#     4  12  25  49  76 114 155 208 262 323 402 482
#
# _framework density 25.042071
#
# number of rings (size 3 to 8) (size 9 to 14) (size 15 to 20)
#    0.000    0.000    5.714    3.429    2.000    3.429 
#    0.000    0.000    0.000    0.000    0.000    0.000 
#    0.000    0.000    0.000    0.000    0.000    0.000 
#
# Total GULP energy -346875.401594 kJ/mol
# GULP energy per Si atom -12388.407200 kJ/mol
# Density = 2.498507 g / cm^3
# Si number density = 25.042071 Si / 1000 Ang^3
#
#
#
# Elastic Constant Matrix: (Units=GPa)
#
#
# Indices 1 2 3 4 5 6 
#
# 1 117.0770 46.2257 34.7796 0.0000 2.8942 0.0000
# 2 46.2257 140.7520 22.2310 0.0000 -5.8157 0.0000
# 3 34.7796 22.2310 124.5544 0.0000 10.2247 0.0000
# 4 0.0000 0.0000 0.0000 33.5788 0.0000 5.5411
# 5 2.8942 -5.8157 10.2247 0.0000 34.1925 0.0000
# 6 0.0000 0.0000 0.0000 5.5411 0.0000 35.7018
#
#
#
# Elastic Compliance Matrix: (Units=1/GPa)
#
#
# Indices 1 2 3 4 5 6 
#
# 1 0.010471 -0.003104 -0.002311 0.000000 -0.000723 0.000000
# 2 -0.003104 0.008326 -0.000776 0.000000 0.001911 0.000000
# 3 -0.002311 -0.000776 0.009029 0.000000 -0.002636 0.000000
# 4 0.000000 0.000000 0.000000 0.030563 0.000000 -0.004744
# 5 -0.000723 0.001911 -0.002636 0.000000 0.030421 0.000000
# 6 0.000000 0.000000 0.000000 -0.004744 0.000000 0.028746
#
#
# Mechanical properties :
#
#
# Convention : Reuss Voigt Hill
#
# Bulk Modulus (GPa) = 64.74835 65.42845 65.08840
# Shear Modulus (GPa) = 37.01371 39.30441 38.15906
#
# Velocity S-wave (km/s) = 3.84873 3.96603 3.90782
# Velocity P-wave (km/s) = 6.75738 6.86707 6.81245
#
# Compressibility (1/GPa) = 0.01544441
#
# Stress axis : x y z
#
# Youngs Moduli (GPa) = 95.50037 120.11115 110.75745
#
# Poissons Ratio (x) = 0.37281 0.25591
# Poissons Ratio (y) = 0.29642 0.08596
# Poissons Ratio (z) = 0.22065 0.09322
#
# Static dielectric constant tensor:
#      x y z
#    x 4.694360 0.000000 -0.329640 
#    y 0.000000 5.264430 0.000000 
#    z -0.329640 0.000000 2.851280 
# 
# 
# High freq. dielectric constant tensor:
#      x y z
#    x 2.006140 0.000000 -0.002290 
#    y 0.000000 2.015380 0.000000 
#    z -0.002290 0.000000 1.990820 
# 
# From -- ./inp_files/56482.got.cif
#   From: 2010.06.25/outbox.cif.g09.slc.cpg/sg15_29_cif.got.tgz:56482.got - 2010.06.28 07:06:18.
