data_PCOD8154002
_publ_section_title
;
Structure prediction by ZEFSAII (Michael W. Deem and Ramdas Pophale) SiO2 
 PCOD8154002
Probable space group: C 2/C
;
_chemical_formula_sum "Si O2"
_cell_formula_units_Z 44
_cell_length_a 16.698796
_cell_length_b 6.439370
_cell_length_c 18.199871
_cell_angle_alpha 90.000000
_cell_angle_beta 96.058817
_cell_angle_gamma 90.000000
_cell_volume 1946.095321
_symmetry_space_group_name_H-M "C 2/C"
_symmetry_group_IT_number 15
_symmetry_cell_setting 'monoclinic'
loop_
_space_group_symop_operation_xyz
x,y,z
-x,y,1/2-z
-x,-y,-z
x,-y,1/2+z
1/2+x,1/2+y,z
1/2-x,1/2+y,1/2-z
1/2-x,1/2-y,-z
1/2+x,1/2-y,1/2+z
loop_
_atom_site_type_symbol
_atom_site_label
_atom_site_fract_x
_atom_site_fract_y
_atom_site_fract_z
Si Si1 0.760632 0.749442 0.882872
Si Si2 0.914711 0.219650 0.310142
Si Si3 0.500000 0.919928 0.750000
Si Si4 0.046227 0.861961 0.944596
Si Si5 0.105262 0.909815 0.322182
Si Si6 0.311858 0.935561 0.010622
O O1 0.830116 0.838511 0.838006
O O2 0.698245 0.649332 0.818966
O O3 0.712072 0.931499 0.919950
O O4 0.804963 0.583951 0.939693
O O5 0.926962 0.450561 0.279616
O O6 0.982918 0.200667 0.377305
O O7 0.074344 0.067837 0.257662
O O8 0.456522 0.782430 0.683750
O O9 0.096853 0.661822 0.979247
O O10 0.109017 0.005932 0.906592
O O11 0.000000 0.000000 0.000000
O O12 0.250000 0.750000 0.000000
#
# Coordination Sequence:
#
# PCOD8154002 Si02
#       6
#     8   8   4   8   8   8
#     4  11  28  43  75 108 140 199 235 297 376 423
#     4  12  27  48  69 109 141 192 246 294 364 431
#     4  12  24  46  74  98 144 194 238 300 364 434
#     4  12  25  47  76 103 149 189 238 305 362 428
#     4  12  26  48  68 106 149 184 246 301 355 444
#     4  11  24  48  72 107 153 181 244 300 355 446
#
# _framework density 22.609375
#
# number of rings (size 3 to 8) (size 9 to 14) (size 15 to 20)
#    0.000    0.364    5.455    2.182    7.636    2.182 
#    0.000    0.000    0.000    0.000    0.000    0.000 
#    0.000    0.000    0.000    0.000    0.000    0.000 
#
# Total GULP energy -272663.304943 kJ/mol
# GULP energy per Si atom -12393.786588 kJ/mol
# Density = 2.255791 g / cm^3
# Si number density = 22.609375 Si / 1000 Ang^3
#
#
#
# Elastic Constant Matrix: (Units=GPa)
#
#
# Indices 1 2 3 4 5 6 
#
# 1 131.5407 48.1640 56.7512 0.0000 2.3514 0.0000
# 2 48.1640 124.1551 57.8628 0.0000 2.6329 0.0000
# 3 56.7512 57.8628 100.9380 0.0000 6.5733 0.0000
# 4 0.0000 0.0000 0.0000 15.4546 0.0000 7.4927
# 5 2.3514 2.6329 6.5733 0.0000 44.3542 0.0000
# 6 0.0000 0.0000 0.0000 7.4927 0.0000 46.0019
#
#
#
# Elastic Compliance Matrix: (Units=1/GPa)
#
#
# Indices 1 2 3 4 5 6 
#
# 1 0.010318 -0.001769 -0.004805 0.000000 0.000270 0.000000
# 2 -0.001769 0.011298 -0.005497 0.000000 0.000238 0.000000
# 3 -0.004805 -0.005497 0.015875 0.000000 -0.001772 0.000000
# 4 0.000000 0.000000 0.000000 0.070253 0.000000 -0.011443
# 5 0.000270 0.000238 -0.001772 0.000000 0.022780 0.000000
# 6 0.000000 0.000000 0.000000 -0.011443 0.000000 0.023602
#
#
# Mechanical properties :
#
#
# Convention : Reuss Voigt Hill
#
# Bulk Modulus (GPa) = 74.91312 75.79887 75.35599
# Shear Modulus (GPa) = 27.36465 34.08585 30.72525
#
# Velocity S-wave (km/s) = 3.48274 3.88699 3.69041
# Velocity P-wave (km/s) = 7.02697 7.33097 7.18058
#
# Compressibility (1/GPa) = 0.01334880
#
# Stress axis : x y z
#
# Youngs Moduli (GPa) = 96.91748 88.51338 62.99211
#
# Poissons Ratio (x) = 0.15661 0.30265
# Poissons Ratio (y) = 0.17147 0.34628
# Poissons Ratio (z) = 0.46564 0.48657
#
# Static dielectric constant tensor:
#      x y z
#    x 4.452830 0.000000 -0.075000 
#    y 0.000000 4.433990 0.000000 
#    z -0.075000 0.000000 4.317320 
# 
# 
# High freq. dielectric constant tensor:
#      x y z
#    x 1.907400 0.000000 0.014190 
#    y 0.000000 1.896780 0.000000 
#    z 0.014190 0.000000 1.893790 
# 
# From -- ./inp_files/246513.got.cif
#   From: 2010.06.25/outbox.cif.g09.slc.cpg/sg15_124_cif.got.tgz:246513.got - 2010.06.28 07:06:18.
