data_PCOD8154030
_publ_section_title
;
Structure prediction by ZEFSAII (Michael W. Deem and Ramdas Pophale) SiO2 
 PCOD8154030
Probable space group: C 2/C
;
_chemical_formula_sum "Si O2"
_cell_formula_units_Z 40
_cell_length_a 13.049769
_cell_length_b 24.246633
_cell_length_c 7.868403
_cell_angle_alpha 90.000000
_cell_angle_beta 139.801981
_cell_angle_gamma 90.000000
_cell_volume 1606.907460
_symmetry_space_group_name_H-M "C 2/C"
_symmetry_group_IT_number 15
_symmetry_cell_setting 'monoclinic'
loop_
_space_group_symop_operation_xyz
x,y,z
-x,y,1/2-z
-x,-y,-z
x,-y,1/2+z
1/2+x,1/2+y,z
1/2-x,1/2+y,1/2-z
1/2-x,1/2-y,-z
1/2+x,1/2-y,1/2+z
loop_
_atom_site_type_symbol
_atom_site_label
_atom_site_fract_x
_atom_site_fract_y
_atom_site_fract_z
Si Si1 0.186164 0.003093 0.696397
Si Si2 0.686993 0.307799 0.491899
Si Si3 0.317412 0.806298 0.025196
Si Si4 0.619577 0.914817 0.243278
Si Si5 0.324881 0.080193 0.149061
O O1 0.237864 0.040782 0.596239
O O2 0.241702 0.940516 0.722216
O O3 0.287485 0.030503 0.974060
O O4 0.000000 0.000000 0.500000
O O5 0.500000 0.305117 0.250000
O O6 0.750000 0.250000 0.500000
O O7 0.751481 0.362773 0.478655
O O8 0.747102 0.320828 0.755180
O O9 0.500000 0.794608 0.250000
O O10 0.289311 0.856594 0.119406
O O11 0.250000 0.750000 0.000000
O O12 0.500000 0.926584 0.250000
O O13 0.513008 0.913172 0.932354
#
# Coordination Sequence:
#
# PCOD8154030 Si02
#       5
#     8   8   8   8   8
#     4  12  27  48  78 115 157 203 265 336 405 478
#     4  12  27  47  76 114 160 202 271 335 406 482
#     4  11  24  49  76 110 157 207 270 329 408 479
#     4  11  24  50  80 111 155 213 267 327 403 489
#     4  12  26  50  76 113 156 207 267 328 404 488
#
# _framework density 24.892536
#
# number of rings (size 3 to 8) (size 9 to 14) (size 15 to 20)
#    0.000    0.400    4.000    5.400    2.800    0.000 
#    7.200    0.000    0.000    0.000    0.000    0.000 
#    0.000    0.000    0.000    0.000    0.000    0.000 
#
# Total GULP energy -247779.681089 kJ/mol
# GULP energy per Si atom -12388.984054 kJ/mol
# Density = 2.483588 g / cm^3
# Si number density = 24.892536 Si / 1000 Ang^3
#
#
#
# Elastic Constant Matrix: (Units=GPa)
#
#
# Indices 1 2 3 4 5 6 
#
# 1 83.8683 69.4723 40.0009 0.0000 27.5287 0.0000
# 2 69.4723 218.3290 60.0260 0.0000 16.5490 0.0000
# 3 40.0009 60.0260 160.0226 0.0000 16.5799 0.0000
# 4 0.0000 0.0000 0.0000 51.8779 0.0000 2.2435
# 5 27.5287 16.5490 16.5799 0.0000 51.8561 0.0000
# 6 0.0000 0.0000 0.0000 2.2435 0.0000 58.6607
#
#
#
# Elastic Compliance Matrix: (Units=1/GPa)
#
#
# Indices 1 2 3 4 5 6 
#
# 1 0.019906 -0.005103 -0.002209 0.000000 -0.008233 0.000000
# 2 -0.005103 0.006471 -0.001260 0.000000 0.001047 0.000000
# 3 -0.002209 -0.001260 0.007354 0.000000 -0.000777 0.000000
# 4 0.000000 0.000000 0.000000 0.019308 0.000000 -0.000738
# 5 -0.008233 0.001047 -0.000777 0.000000 0.023569 0.000000
# 6 0.000000 0.000000 0.000000 -0.000738 0.000000 0.017075
#
#
# Mechanical properties :
#
#
# Convention : Reuss Voigt Hill
#
# Bulk Modulus (GPa) = 60.28488 89.02427 74.65458
# Shear Modulus (GPa) = 42.97106 51.99365 47.48236
#
# Velocity S-wave (km/s) = 4.15934 4.57521 4.37222
# Velocity P-wave (km/s) = 6.88022 7.98443 7.45281
#
# Compressibility (1/GPa) = 0.01658791
#
# Stress axis : x y z
#
# Youngs Moduli (GPa) = 50.23554 154.53280 135.97173
#
# Poissons Ratio (x) = 0.78856 0.30034
# Poissons Ratio (y) = 0.25634 0.17136
# Poissons Ratio (z) = 0.11096 0.19475
#
# Static dielectric constant tensor:
#      x y z
#    x 4.901290 0.000000 -0.245100 
#    y 0.000000 4.473480 0.000000 
#    z -0.245100 0.000000 4.434520 
# 
# 
# High freq. dielectric constant tensor:
#      x y z
#    x 1.996320 0.000000 -0.013950 
#    y 0.000000 2.017120 0.000000 
#    z -0.013950 0.000000 2.003060 
# 
# From -- ./inp_files/42409.got.cif
#   From: 2010.06.25/outbox.cif.g09.slc.cpg/sg15_22_cif.got.tgz:42409.got - 2010.06.28 07:06:18.
