data_PCOD8154022
_publ_section_title
;
Structure prediction by ZEFSAII (Michael W. Deem and Ramdas Pophale) SiO2 
 PCOD8154022
Probable space group: C 2/C
;
_chemical_formula_sum "Si O2"
_cell_formula_units_Z 40
_cell_length_a 24.088179
_cell_length_b 12.107704
_cell_length_c 8.704059
_cell_angle_alpha 90.000000
_cell_angle_beta 45.947794
_cell_angle_gamma 90.000000
_cell_volume 1824.480371
_symmetry_space_group_name_H-M "C 2/C"
_symmetry_group_IT_number 15
_symmetry_cell_setting 'monoclinic'
loop_
_space_group_symop_operation_xyz
x,y,z
-x,y,1/2-z
-x,-y,-z
x,-y,1/2+z
1/2+x,1/2+y,z
1/2-x,1/2+y,1/2-z
1/2-x,1/2-y,-z
1/2+x,1/2-y,1/2+z
loop_
_atom_site_type_symbol
_atom_site_label
_atom_site_fract_x
_atom_site_fract_y
_atom_site_fract_z
Si Si1 0.655876 0.739723 0.824978
Si Si2 0.582757 0.076620 0.667515
Si Si3 0.509853 0.618426 0.049841
Si Si4 0.064218 0.300115 0.498179
Si Si5 0.811042 0.636687 0.536740
O O1 0.721445 0.653497 0.759413
O O2 0.687205 0.830257 0.645121
O O3 0.615904 0.807545 0.039225
O O4 0.594109 0.666295 0.851664
O O5 0.500000 0.046989 0.750000
O O6 0.648771 0.983108 0.517820
O O7 0.567484 0.093495 0.878699
O O8 0.500000 0.616885 0.250000
O O9 0.500000 0.500000 0.000000
O O10 0.447757 0.692652 0.081859
O O11 0.143797 0.280898 0.436190
O O12 0.000000 0.324069 0.750000
#
# Coordination Sequence:
#
# PCOD8154022 Si02
#       5
#     8   8   8   8   8
#     4  11  24  49  64 105 148 179 234 300 349 429
#     4  12  23  45  74 105 141 184 245 293 352 427
#     4  12  25  47  72  97 136 189 237 293 350 433
#     4  12  22  43  72 106 132 186 244 298 342 428
#     4  11  26  40  71 102 146 185 225 298 366 410
#
# _framework density 21.924050999999999
#
# number of rings (size 3 to 8) (size 9 to 14) (size 15 to 20)
#    0.000    0.400    6.000    2.400    0.000    4.800 
#    7.200    0.000    0.000    0.000    0.000    0.000 
#    0.000    0.000    0.000    0.000    0.000    0.000 
#
# Total GULP energy -247882.740532 kJ/mol
# GULP energy per Si atom -12394.137027 kJ/mol
# Density = 2.187415 g / cm^3
# Si number density = 21.924051 Si / 1000 Ang^3
#
#
#
# Elastic Constant Matrix: (Units=GPa)
#
#
# Indices 1 2 3 4 5 6 
#
# 1 105.2218 56.3539 26.7915 0.0000 6.5431 0.0000
# 2 56.3539 137.5342 48.2838 0.0000 -11.2178 0.0000
# 3 26.7915 48.2838 82.7345 0.0000 18.6632 0.0000
# 4 0.0000 0.0000 0.0000 38.8742 0.0000 -3.4771
# 5 6.5431 -11.2178 18.6632 0.0000 38.3185 0.0000
# 6 0.0000 0.0000 0.0000 -3.4771 0.0000 47.7996
#
#
#
# Elastic Compliance Matrix: (Units=1/GPa)
#
#
# Indices 1 2 3 4 5 6 
#
# 1 0.012688 -0.005480 -0.000067 0.000000 -0.003738 0.000000
# 2 -0.005480 0.012891 -0.007651 0.000000 0.008436 0.000000
# 3 -0.000067 -0.007651 0.019184 0.000000 -0.011572 0.000000
# 4 0.000000 0.000000 0.000000 0.025892 0.000000 0.001884
# 5 -0.003738 0.008436 -0.011572 0.000000 0.034841 0.000000
# 6 0.000000 0.000000 0.000000 0.001884 0.000000 0.021058
#
#
# Mechanical properties :
#
#
# Convention : Reuss Voigt Hill
#
# Bulk Modulus (GPa) = 54.44935 65.37209 59.91072
# Shear Modulus (GPa) = 31.43178 37.93589 34.68384
#
# Velocity S-wave (km/s) = 3.79049 4.16424 3.98175
# Velocity P-wave (km/s) = 6.63675 7.28035 6.96598
#
# Compressibility (1/GPa) = 0.01836569
#
# Stress axis : x y z
#
# Youngs Moduli (GPa) = 78.81209 77.57561 52.12564
#
# Poissons Ratio (x) = 0.42514 0.00351
# Poissons Ratio (y) = 0.43191 0.39883
# Poissons Ratio (z) = 0.00530 0.59356
#
# Static dielectric constant tensor:
#      x y z
#    x 4.524090 0.000000 0.321800 
#    y 0.000000 3.885450 0.000000 
#    z 0.321800 0.000000 4.753640 
# 
# 
# High freq. dielectric constant tensor:
#      x y z
#    x 1.874400 0.000000 0.011840 
#    y 0.000000 1.853610 0.000000 
#    z 0.011840 0.000000 1.864560 
# 
# From -- ./inp_files/65015.got.cif
#   From: 2010.06.25/outbox.cif.g09.slc.cpg/sg15_33_cif.got.tgz:65015.got - 2010.06.28 07:06:18.
