data_PCOD8154752
_publ_section_title
;
Structure prediction by ZEFSAII (Michael W. Deem and Ramdas Pophale) SiO2 
 PCOD8154752
Probable space group: C 2/C
;
_chemical_formula_sum "Si O2"
_cell_formula_units_Z 40
_cell_length_a 15.001877
_cell_length_b 11.779914
_cell_length_c 10.222284
_cell_angle_alpha 90.000000
_cell_angle_beta 84.530955
_cell_angle_gamma 90.000000
_cell_volume 1798.266978
_symmetry_space_group_name_H-M "C 2/C"
_symmetry_group_IT_number 15
_symmetry_cell_setting 'monoclinic'
loop_
_space_group_symop_operation_xyz
x,y,z
-x,y,1/2-z
-x,-y,-z
x,-y,1/2+z
1/2+x,1/2+y,z
1/2-x,1/2+y,1/2-z
1/2-x,1/2-y,-z
1/2+x,1/2-y,1/2+z
loop_
_atom_site_type_symbol
_atom_site_label
_atom_site_fract_x
_atom_site_fract_y
_atom_site_fract_z
Si Si1 0.146783 0.290509 0.013287
Si Si2 0.450470 0.572342 0.394670
Si Si3 0.899155 0.271657 0.760282
Si Si4 0.716053 0.449589 0.175778
Si Si5 0.320904 0.026149 0.405604
O O1 0.068632 0.201534 0.061323
O O2 0.133802 0.401478 0.105428
O O3 0.250000 0.250000 0.000000
O O4 0.123915 0.331565 0.871872
O O5 0.500000 0.565604 0.250000
O O6 0.500000 0.500000 0.500000
O O7 0.352548 0.525309 0.393193
O O8 0.827063 0.172255 0.789088
O O9 0.890271 0.373109 0.865399
O O10 0.000000 0.220886 0.750000
O O11 0.743035 0.515846 0.305484
O O12 0.792900 0.438610 0.056397
#
# Coordination Sequence:
#
# PCOD8154752 Si02
#       5
#     8   8   8   8   8
#     4  12  23  47  71  98 144 187 229 288 349 420
#     4  12  25  44  73 108 140 179 236 296 352 403
#     4  12  26  45  69 104 142 176 234 297 349 407
#     4  12  23  45  73 100 135 187 236 282 342 426
#     4  12  25  45  74  99 139 186 238 278 352 425
#
# _framework density 22.243639000000002
#
# number of rings (size 3 to 8) (size 9 to 14) (size 15 to 20)
#    0.000    0.000    6.000    4.800    0.000    1.600 
#    7.200    0.000    0.000    0.000    0.000    0.000 
#    0.000    0.000    0.000    0.000    0.000    0.000 
#
# Total GULP energy -247867.031600 kJ/mol
# GULP energy per Si atom -12393.351580 kJ/mol
# Density = 2.219301 g / cm^3
# Si number density = 22.243639 Si / 1000 Ang^3
#
#
#
# Elastic Constant Matrix: (Units=GPa)
#
#
# Indices 1 2 3 4 5 6 
#
# 1 64.3855 19.7641 28.2223 0.0000 1.6685 0.0000
# 2 19.7641 114.8352 15.0551 0.0000 -15.1426 0.0000
# 3 28.2223 15.0551 119.3094 0.0000 -6.1471 0.0000
# 4 0.0000 0.0000 0.0000 42.9379 0.0000 -1.7251
# 5 1.6685 -15.1426 -6.1471 0.0000 35.5049 0.0000
# 6 0.0000 0.0000 0.0000 -1.7251 0.0000 35.5987
#
#
#
# Elastic Compliance Matrix: (Units=1/GPa)
#
#
# Indices 1 2 3 4 5 6 
#
# 1 0.018322 -0.002991 -0.004103 0.000000 -0.002847 0.000000
# 2 -0.002991 0.009828 -0.000312 0.000000 0.004278 0.000000
# 3 -0.004103 -0.000312 0.009479 0.000000 0.001701 0.000000
# 4 0.000000 0.000000 0.000000 0.023335 0.000000 0.001131
# 5 -0.002847 0.004278 0.001701 0.000000 0.030418 0.000000
# 6 0.000000 0.000000 0.000000 0.001131 0.000000 0.028146
#
#
# Mechanical properties :
#
#
# Convention : Reuss Voigt Hill
#
# Bulk Modulus (GPa) = 43.82823 47.17923 45.50373
# Shear Modulus (GPa) = 35.22472 38.50754 36.86613
#
# Velocity S-wave (km/s) = 3.98375 4.16525 4.07551
# Velocity P-wave (km/s) = 6.39584 6.66248 6.53052
#
# Compressibility (1/GPa) = 0.02281634
#
# Stress axis : x y z
#
# Youngs Moduli (GPa) = 54.57941 101.75079 105.49386
#
# Poissons Ratio (x) = 0.30432 0.43287
# Poissons Ratio (y) = 0.16324 0.03294
# Poissons Ratio (z) = 0.22395 0.03177
#
# Static dielectric constant tensor:
#      x y z
#    x 4.031700 0.000000 0.067870 
#    y 0.000000 4.686130 0.000000 
#    z 0.067870 0.000000 4.369250 
# 
# 
# High freq. dielectric constant tensor:
#      x y z
#    x 1.860790 0.000000 0.010250 
#    y 0.000000 1.888100 0.000000 
#    z 0.010250 0.000000 1.893230 
# 
# From -- ./inp_files/46048.got.cif
#   From: 2010.06.25/outbox.cif.g09.slc.cpg/sg15_24_cif.got.tgz:46048.got - 2010.06.28 07:06:18.
