data_PCOD8154041
_publ_section_title
;
Structure prediction by ZEFSAII (Michael W. Deem and Ramdas Pophale) SiO2 
 PCOD8154041
Probable space group: C 2/C
;
_chemical_formula_sum "Si O2"
_cell_formula_units_Z 40
_cell_length_a 8.413579
_cell_length_b 11.776332
_cell_length_c 30.537128
_cell_angle_alpha 90.000000
_cell_angle_beta 32.978896
_cell_angle_gamma 90.000000
_cell_volume 1646.953537
_symmetry_space_group_name_H-M "C 2/C"
_symmetry_group_IT_number 15
_symmetry_cell_setting 'monoclinic'
loop_
_space_group_symop_operation_xyz
x,y,z
-x,y,1/2-z
-x,-y,-z
x,-y,1/2+z
1/2+x,1/2+y,z
1/2-x,1/2+y,1/2-z
1/2-x,1/2-y,-z
1/2+x,1/2-y,1/2+z
loop_
_atom_site_type_symbol
_atom_site_label
_atom_site_fract_x
_atom_site_fract_y
_atom_site_fract_z
Si Si1 0.077570 0.577154 0.592012
Si Si2 0.738558 0.584385 0.226298
Si Si3 0.380785 0.376904 0.474065
Si Si4 0.665260 0.444283 0.318424
Si Si5 0.402285 0.266112 0.321468
O O1 0.149762 0.469471 0.544599
O O2 0.352633 0.629922 0.553438
O O3 0.827942 0.534672 0.683039
O O4 0.923535 0.679943 0.599917
O O5 0.500000 0.647822 0.250000
O O6 0.574925 0.556406 0.310555
O O7 0.050455 0.648445 0.162343
O O8 0.250000 0.250000 0.500000
O O9 0.474942 0.426980 0.405529
O O10 0.639733 0.340199 0.291514
O O11 0.000000 0.460941 0.250000
O O12 0.500000 0.241601 0.250000
#
# Coordination Sequence:
#
# PCOD8154041 Si02
#       5
#     8   8   8   8   8
#     4  11  24  51  71 107 157 188 253 313 369 449
#     4  12  24  47  77 107 149 195 253 314 366 449
#     4  11  26  48  77 109 151 204 248 313 384 445
#     4  12  22  46  75 109 144 192 256 306 367 449
#     4  12  24  43  75 111 146 196 247 311 376 436
#
# _framework density 24.287267
#
# number of rings (size 3 to 8) (size 9 to 14) (size 15 to 20)
#    0.000    0.400    6.000    2.400    0.000    2.400 
#    3.600    9.000    0.000    0.000    0.000    0.000 
#    0.000    0.000    0.000    0.000    0.000    0.000 
#
# Total GULP energy -247762.348425 kJ/mol
# GULP energy per Si atom -12388.117421 kJ/mol
# Density = 2.423199 g / cm^3
# Si number density = 24.287267 Si / 1000 Ang^3
#
#
#
# Elastic Constant Matrix: (Units=GPa)
#
#
# Indices 1 2 3 4 5 6 
#
# 1 162.0250 76.9062 57.6983 0.0477 6.6369 -0.0251
# 2 76.9062 114.7647 47.7962 0.0034 -0.7396 -0.0015
# 3 57.6983 47.7962 113.6467 0.0330 8.4706 -0.0268
# 4 0.0477 0.0034 0.0330 8.1580 -0.0171 5.9159
# 5 6.6369 -0.7396 8.4706 -0.0171 29.4781 0.0134
# 6 -0.0251 -0.0015 -0.0268 5.9159 0.0134 46.7584
#
#
#
# Elastic Compliance Matrix: (Units=1/GPa)
#
#
# Indices 1 2 3 4 5 6 
#
# 1 0.009739 -0.005489 -0.002516 -0.000056 -0.001607 0.000011
# 2 -0.005489 0.013729 -0.003173 0.000053 0.002492 -0.000012
# 3 -0.002516 -0.003173 0.011624 -0.000046 -0.002853 0.000012
# 4 -0.000056 0.000053 -0.000046 0.134962 0.000113 -0.017076
# 5 -0.001607 0.002492 -0.002853 0.000113 0.035168 -0.000027
# 6 0.000011 -0.000012 0.000012 -0.017076 -0.000027 0.023547
#
#
# Mechanical properties :
#
#
# Convention : Reuss Voigt Hill
#
# Bulk Modulus (GPa) = 78.51916 83.91530 81.21723
# Shear Modulus (GPa) = 19.57938 30.74794 25.16366
#
# Velocity S-wave (km/s) = 2.84237 3.56196 3.22232
# Velocity P-wave (km/s) = 6.57051 7.17934 6.88166
#
# Compressibility (1/GPa) = 0.01273575
#
# Stress axis : x y z
#
# Youngs Moduli (GPa) = 102.67892 72.83732 86.02921
#
# Poissons Ratio (x) = 0.39979 0.21648
# Poissons Ratio (y) = 0.56358 0.27299
# Poissons Ratio (z) = 0.25837 0.23113
#
# Static dielectric constant tensor:
#      x y z
#    x 5.146890 -0.000040 0.355610 
#    y -0.000040 4.553820 0.000020 
#    z 0.355610 0.000020 4.204030 
# 
# 
# High freq. dielectric constant tensor:
#      x y z
#    x 1.994610 0.000000 0.011630 
#    y 0.000000 1.966170 0.000000 
#    z 0.011630 0.000000 1.939670 
# 
# From -- ./inp_files/306992.got.cif
#   From: 2010.06.25/outbox.cif.g09.slc.cpg/sg15_154_cif.got.tgz:306992.got - 2010.06.28 07:06:18.
