data_PCOD8154376
_publ_section_title
;
Structure prediction by ZEFSAII (Michael W. Deem and Ramdas Pophale) SiO2 
 PCOD8154376
Probable space group: C 2/C
;
_chemical_formula_sum "Si O2"
_cell_formula_units_Z 52
_cell_length_a 13.875888
_cell_length_b 12.140465
_cell_length_c 22.938876
_cell_angle_alpha 90.000000
_cell_angle_beta 38.032666
_cell_angle_gamma 90.000000
_cell_volume 2380.822137
_symmetry_space_group_name_H-M "C 2/C"
_symmetry_group_IT_number 15
_symmetry_cell_setting 'monoclinic'
loop_
_space_group_symop_operation_xyz
x,y,z
-x,y,1/2-z
-x,-y,-z
x,-y,1/2+z
1/2+x,1/2+y,z
1/2-x,1/2+y,1/2-z
1/2-x,1/2-y,-z
1/2+x,1/2-y,1/2+z
loop_
_atom_site_type_symbol
_atom_site_label
_atom_site_fract_x
_atom_site_fract_y
_atom_site_fract_z
Si Si1 0.919502 0.739582 0.988946
Si Si2 0.765463 0.701512 0.301584
Si Si3 0.845902 0.372055 0.643625
Si Si4 0.833583 0.079173 0.812729
Si Si5 0.680690 0.920186 0.062282
Si Si6 0.000000 0.467365 0.750000
Si Si7 0.300473 0.135694 0.502968
O O1 0.912566 0.638949 0.946243
O O2 0.096460 0.781446 0.911858
O O3 0.849805 0.701872 0.084202
O O4 0.816784 0.841834 0.018917
O O5 0.736532 0.675891 0.246961
O O6 0.862232 0.817059 0.256297
O O7 0.859257 0.607567 0.291964
O O8 0.782534 0.492195 0.659290
O O9 0.014804 0.381865 0.592445
O O10 0.000000 0.024043 0.750000
O O11 0.748276 0.135160 0.907500
O O12 0.562129 0.951313 0.170330
O O13 0.770594 0.030184 0.996787
O O14 0.250000 0.250000 0.500000
#
# Coordination Sequence:
#
# PCOD8154376 Si02
#       7
#     8   8   8   8   8   4   8
#     4  11  27  49  71 105 143 187 240 288 356 425
#     4  12  26  45  71 108 139 183 240 294 351 421
#     4  12  26  45  73 103 140 190 235 295 354 420
#     4  12  25  44  71 102 142 181 242 291 352 428
#     4  11  26  47  71 103 146 186 229 294 358 421
#     4  12  26  48  68 104 144 184 230 296 358 418
#     4  12  23  46  72 100 141 187 233 293 358 416
#
# _framework density 21.841194000000002
#
# number of rings (size 3 to 8) (size 9 to 14) (size 15 to 20)
#    0.000    0.308    5.385    3.231    4.308    0.615 
#    0.000    0.000    0.000    0.000    0.000    0.000 
#    0.000    0.000    0.000    0.000    0.000    0.000 
#
# Total GULP energy -322458.076126 kJ/mol
# GULP energy per Si atom -12402.233697 kJ/mol
# Density = 2.179148 g / cm^3
# Si number density = 21.841194 Si / 1000 Ang^3
#
#
#
# Elastic Constant Matrix: (Units=GPa)
#
#
# Indices 1 2 3 4 5 6 
#
# 1 91.7066 65.6244 31.6992 0.0000 9.6942 0.0000
# 2 65.6244 166.8377 49.3951 0.0000 10.2032 0.0000
# 3 31.6992 49.3951 77.9724 -0.0002 15.5708 0.0000
# 4 0.0000 0.0000 -0.0002 36.9403 0.0000 -0.2317
# 5 9.6942 10.2032 15.5708 0.0000 48.5671 0.0000
# 6 0.0000 0.0000 0.0000 -0.2317 0.0000 34.4878
#
#
#
# Elastic Compliance Matrix: (Units=1/GPa)
#
#
# Indices 1 2 3 4 5 6 
#
# 1 0.015802 -0.005306 -0.002837 0.000000 -0.001130 0.000000
# 2 -0.005306 0.009160 -0.003710 0.000000 0.000324 0.000000
# 3 -0.002837 -0.003710 0.017158 0.000000 -0.004155 0.000000
# 4 0.000000 0.000000 0.000000 0.027072 0.000000 0.000182
# 5 -0.001130 0.000324 -0.004155 0.000000 0.022080 0.000000
# 6 0.000000 0.000000 0.000000 0.000182 0.000000 0.028997
#
#
# Mechanical properties :
#
#
# Convention : Reuss Voigt Hill
#
# Bulk Modulus (GPa) = 54.30929 69.99488 62.15208
# Shear Modulus (GPa) = 33.30832 36.65225 34.98029
#
# Velocity S-wave (km/s) = 3.90939 4.10094 4.00631
# Velocity P-wave (km/s) = 6.73033 7.38514 7.06532
#
# Compressibility (1/GPa) = 0.01841306
#
# Stress axis : x y z
#
# Youngs Moduli (GPa) = 63.28474 109.17374 58.28021
#
# Poissons Ratio (x) = 0.57933 0.16533
# Poissons Ratio (y) = 0.33582 0.21623
# Poissons Ratio (z) = 0.17953 0.40504
#
# Static dielectric constant tensor:
#      x y z
#    x 3.825360 0.000000 -0.084940 
#    y 0.000000 4.086380 0.000000 
#    z -0.084940 0.000000 3.818510 
# 
# 
# High freq. dielectric constant tensor:
#      x y z
#    x 1.866600 0.000000 0.009850 
#    y 0.000000 1.871240 0.000000 
#    z 0.009850 0.000000 1.863000 
# 
# From -- ./inp_files/273795.got.cif
#   From: 2010.06.25/outbox.cif.g09.slc.cpg/sg15_137_cif.got.tgz:273795.got - 2010.06.28 07:06:18.
