data_PCOD8154814
_publ_section_title
;
Structure prediction by ZEFSAII (Michael W. Deem and Ramdas Pophale) SiO2 
 PCOD8154814
Probable space group: C 2/C
;
_chemical_formula_sum "Si O2"
_cell_formula_units_Z 44
_cell_length_a 20.924879
_cell_length_b 11.039167
_cell_length_c 9.646517
_cell_angle_alpha 90.000000
_cell_angle_beta 62.775158
_cell_angle_gamma 90.000000
_cell_volume 1981.427055
_symmetry_space_group_name_H-M "C 2/C"
_symmetry_group_IT_number 15
_symmetry_cell_setting 'monoclinic'
loop_
_space_group_symop_operation_xyz
x,y,z
-x,y,1/2-z
-x,-y,-z
x,-y,1/2+z
1/2+x,1/2+y,z
1/2-x,1/2+y,1/2-z
1/2-x,1/2-y,-z
1/2+x,1/2-y,1/2+z
loop_
_atom_site_type_symbol
_atom_site_label
_atom_site_fract_x
_atom_site_fract_y
_atom_site_fract_z
Si Si1 0.500000 0.671430 0.250000
Si Si2 0.119043 0.358863 0.805324
Si Si3 0.685466 0.394781 0.213401
Si Si4 0.150001 0.558744 0.982569
Si Si5 0.532537 0.757247 0.507445
Si Si6 0.603423 0.475173 0.033407
O O1 0.523599 0.758439 0.350984
O O2 0.567609 0.591749 0.136994
O O3 0.171251 0.244125 0.768846
O O4 0.121878 0.432961 0.945955
O O5 0.143762 0.446405 0.655396
O O6 0.038238 0.314086 0.852154
O O7 0.769234 0.418818 0.145247
O O8 0.660358 0.415725 0.081111
O O9 0.644417 0.487053 0.353933
O O10 0.103414 0.669475 0.972691
O O11 0.540953 0.620088 0.554917
#
# Coordination Sequence:
#
# PCOD8154814 Si02
#       6
#     4   8   8   8   8   8
#     4  12  24  42  72 116 134 186 248 306 360 416
#     4  12  27  49  71 107 147 193 243 294 358 433
#     4  12  26  48  75 109 145 191 241 302 363 427
#     4  12  29  46  75 103 151 194 239 293 367 435
#     4  12  26  45  74 105 147 191 241 302 360 423
#     4  12  24  45  77 107 145 185 246 304 361 419
#
# _framework density 22.206219000000001
#
# number of rings (size 3 to 8) (size 9 to 14) (size 15 to 20)
#    0.000    0.000    5.455    4.364    5.091    0.000 
#    0.000    2.727    0.000    0.000    0.000    0.000 
#    0.000    0.000    0.000    0.000    0.000    0.000 
#
# Total GULP energy -273021.030456 kJ/mol
# GULP energy per Si atom -12410.046839 kJ/mol
# Density = 2.215568 g / cm^3
# Si number density = 22.206219 Si / 1000 Ang^3
#
#
#
# Elastic Constant Matrix: (Units=GPa)
#
#
# Indices 1 2 3 4 5 6 
#
# 1 100.2217 23.8315 30.1260 0.0000 -23.5557 0.0000
# 2 23.8315 88.4172 45.3956 0.0000 1.7083 0.0000
# 3 30.1260 45.3956 104.3303 0.0000 -6.4373 0.0000
# 4 0.0000 0.0000 0.0000 39.6047 0.0000 5.9285
# 5 -23.5557 1.7083 -6.4373 0.0000 41.3303 0.0000
# 6 0.0000 0.0000 0.0000 5.9285 0.0000 35.7549
#
#
#
# Elastic Compliance Matrix: (Units=1/GPa)
#
#
# Indices 1 2 3 4 5 6 
#
# 1 0.012903 -0.002482 -0.002207 0.000000 0.007113 0.000000
# 2 -0.002482 0.015147 -0.006058 0.000000 -0.002984 0.000000
# 3 -0.002207 -0.006058 0.012920 0.000000 0.001005 0.000000
# 4 0.000000 0.000000 0.000000 0.025892 0.000000 -0.004293
# 5 0.007113 -0.002984 0.001005 0.000000 0.028529 0.000000
# 6 0.000000 0.000000 0.000000 -0.004293 0.000000 0.028680
#
#
# Mechanical properties :
#
#
# Convention : Reuss Voigt Hill
#
# Bulk Modulus (GPa) = 51.34520 54.63061 52.98790
# Shear Modulus (GPa) = 32.88207 36.24571 34.56389
#
# Velocity S-wave (km/s) = 3.85224 4.04447 3.94953
# Velocity P-wave (km/s) = 6.55427 6.81654 6.68669
#
# Compressibility (1/GPa) = 0.01947602
#
# Stress axis : x y z
#
# Youngs Moduli (GPa) = 77.49948 66.01929 77.39818
#
# Poissons Ratio (x) = 0.16387 0.17082
# Poissons Ratio (y) = 0.19237 0.46889
# Poissons Ratio (z) = 0.17104 0.39995
#
# Static dielectric constant tensor:
#      x y z
#    x 4.003150 0.000000 0.121140 
#    y 0.000000 3.998070 0.000000 
#    z 0.121140 0.000000 4.250270 
# 
# 
# High freq. dielectric constant tensor:
#      x y z
#    x 1.881960 0.000000 0.003300 
#    y 0.000000 1.873330 0.000000 
#    z 0.003300 0.000000 1.888260 
# 
# From -- ./inp_files/54366.got.cif
#   From: 2010.06.25/outbox.cif.g09.slc.cpg/sg15_28_cif.got.tgz:54366.got - 2010.06.28 07:06:18.
