data_PCOD8154247
_publ_section_title
;
Structure prediction by ZEFSAII (Michael W. Deem and Ramdas Pophale) SiO2 
 PCOD8154247
Probable space group: C 2/C
;
_chemical_formula_sum "Si O2"
_cell_formula_units_Z 60
_cell_length_a 26.718459
_cell_length_b 21.429932
_cell_length_c 14.676030
_cell_angle_alpha 90.000000
_cell_angle_beta 18.866608
_cell_angle_gamma 90.000000
_cell_volume 2717.284576
_symmetry_space_group_name_H-M "C 2/C"
_symmetry_group_IT_number 15
_symmetry_cell_setting 'monoclinic'
loop_
_space_group_symop_operation_xyz
x,y,z
-x,y,1/2-z
-x,-y,-z
x,-y,1/2+z
1/2+x,1/2+y,z
1/2-x,1/2+y,1/2-z
1/2-x,1/2-y,-z
1/2+x,1/2-y,1/2+z
loop_
_atom_site_type_symbol
_atom_site_label
_atom_site_fract_x
_atom_site_fract_y
_atom_site_fract_z
Si Si1 0.677104 0.982695 0.701784
Si Si2 0.844929 0.359778 0.850435
Si Si3 0.044595 0.305126 0.029090
Si Si4 0.000000 0.414893 0.750000
Si Si5 0.766740 0.347964 0.628529
Si Si6 0.469927 0.322953 0.033146
Si Si7 0.967404 0.957720 0.642992
Si Si8 0.247532 0.016699 0.229499
O O1 0.723431 0.927990 0.553198
O O2 0.701768 0.957433 0.760599
O O3 0.789012 0.040228 0.483740
O O4 0.500000 0.000000 0.000000
O O5 0.929172 0.333082 0.616412
O O6 0.970261 0.368647 0.715627
O O7 0.699635 0.316993 0.128780
O O8 0.890304 0.334067 0.337243
O O9 0.186320 0.318470 0.854650
O O10 0.017304 0.231477 0.063645
O O11 0.146241 0.459796 0.486371
O O12 0.755546 0.423472 0.648962
O O13 0.601486 0.318500 0.884897
O O14 0.487554 0.386403 0.947332
O O15 0.000000 0.000000 0.500000
O O16 0.075717 0.988509 0.533684
#
# Coordination Sequence:
#
# PCOD8154247 Si02
#       8
#     8   8   8   4   8   8   8   8
#     4  12  25  41  70 107 144 187 237 294 367 434
#     4  12  25  45  70 106 146 193 239 297 362 432
#     4  11  27  48  71 107 140 195 250 293 359 431
#     4  12  24  40  70 110 148 186 234 300 368 428
#     4  11  25  47  77 102 139 192 248 296 355 437
#     4  12  26  47  72 100 151 189 242 304 355 433
#     4  12  24  44  70 105 145 185 235 298 368 424
#     4  12  23  43  71 105 147 185 236 298 363 431
#
# _framework density 22.080867999999999
#
# number of rings (size 3 to 8) (size 9 to 14) (size 15 to 20)
#    0.000    0.267    6.667    2.000    1.867    1.600 
#    4.800    0.000    0.000    0.000    0.000    0.000 
#    0.000    0.000    0.000    0.000    0.000    0.000 
#
# Total GULP energy -372033.670488 kJ/mol
# GULP energy per Si atom -12401.122350 kJ/mol
# Density = 2.203061 g / cm^3
# Si number density = 22.080868 Si / 1000 Ang^3
#
#
#
# Elastic Constant Matrix: (Units=GPa)
#
#
# Indices 1 2 3 4 5 6 
#
# 1 137.2019 60.9327 53.2640 0.0066 -8.9267 -0.0020
# 2 60.9327 126.3058 56.5282 -0.0302 -5.4068 0.0034
# 3 53.2640 56.5282 130.6945 -0.0379 -2.2606 0.0008
# 4 0.0066 -0.0302 -0.0379 25.3743 -0.0049 4.5484
# 5 -8.9267 -5.4068 -2.2606 -0.0049 41.2574 0.0031
# 6 -0.0020 0.0034 0.0008 4.5484 0.0031 38.9126
#
#
#
# Elastic Compliance Matrix: (Units=1/GPa)
#
#
# Indices 1 2 3 4 5 6 
#
# 1 0.009959 -0.003638 -0.002459 -0.000011 0.001543 0.000002
# 2 -0.003638 0.011193 -0.003350 0.000010 0.000496 -0.000002
# 3 -0.002459 -0.003350 0.010095 0.000012 -0.000418 -0.000001
# 4 -0.000011 0.000010 0.000012 0.040253 0.000005 -0.004705
# 5 0.001543 0.000496 -0.000418 0.000005 0.024614 -0.000002
# 6 0.000002 -0.000002 -0.000001 -0.004705 -0.000002 0.026249
#
#
# Mechanical properties :
#
#
# Convention : Reuss Voigt Hill
#
# Bulk Modulus (GPa) = 80.94549 81.73912 81.34230
# Shear Modulus (GPa) = 34.39398 36.00733 35.20066
#
# Velocity S-wave (km/s) = 3.95097 4.04258 3.99704
# Velocity P-wave (km/s) = 7.58629 7.67387 7.63021
#
# Compressibility (1/GPa) = 0.01235399
#
# Stress axis : x y z
#
# Youngs Moduli (GPa) = 100.41061 89.34252 99.05821
#
# Poissons Ratio (x) = 0.32504 0.24354
# Poissons Ratio (y) = 0.36531 0.33183
# Poissons Ratio (z) = 0.24686 0.29929
#
# Static dielectric constant tensor:
#      x y z
#    x 4.236010 0.000000 -0.220960 
#    y 0.000000 4.100300 0.000070 
#    z -0.220960 0.000070 4.081490 
# 
# 
# High freq. dielectric constant tensor:
#      x y z
#    x 1.882610 0.000000 -0.007750 
#    y 0.000000 1.862520 0.000000 
#    z -0.007750 0.000000 1.873650 
# 
# From -- ./inp_files/179102.got.cif
#   From: 2010.06.25/outbox.cif.g09.slc.cpg/sg15_90_cif.got.tgz:179102.got - 2010.06.28 07:06:18.
