data_PCOD8154275
_publ_section_title
;
Structure prediction by ZEFSAII (Michael W. Deem and Ramdas Pophale) SiO2 
 PCOD8154275
Probable space group: C 2/C
;
_chemical_formula_sum "Si O2"
_cell_formula_units_Z 48
_cell_length_a 21.598818
_cell_length_b 8.702375
_cell_length_c 11.731947
_cell_angle_alpha 90.000000
_cell_angle_beta 83.464696
_cell_angle_gamma 90.000000
_cell_volume 2190.819407
_symmetry_space_group_name_H-M "C 2/C"
_symmetry_group_IT_number 15
_symmetry_cell_setting 'monoclinic'
loop_
_space_group_symop_operation_xyz
x,y,z
-x,y,1/2-z
-x,-y,-z
x,-y,1/2+z
1/2+x,1/2+y,z
1/2-x,1/2+y,1/2-z
1/2-x,1/2-y,-z
1/2+x,1/2-y,1/2+z
loop_
_atom_site_type_symbol
_atom_site_label
_atom_site_fract_x
_atom_site_fract_y
_atom_site_fract_z
Si Si1 0.354476 0.375462 0.718444
Si Si2 0.686896 0.184498 0.562248
Si Si3 0.266531 0.139191 0.393793
Si Si4 0.936380 0.701482 0.526244
Si Si5 0.926490 0.344342 0.564113
Si Si6 0.618737 0.294286 0.204536
O O1 0.329116 0.248930 0.810556
O O2 0.296195 0.422122 0.651455
O O3 0.410804 0.306839 0.632958
O O4 0.381213 0.523117 0.777661
O O5 0.750000 0.250000 0.500000
O O6 0.631118 0.232313 0.489716
O O7 0.693058 0.001660 0.567549
O O8 0.250000 0.250000 0.500000
O O9 0.310411 0.232330 0.296636
O O10 0.920141 0.526688 0.558365
O O11 0.906029 0.755362 0.415110
O O12 0.010785 0.719622 0.506429
O O13 0.925353 0.290358 0.695296
#
# Coordination Sequence:
#
# PCOD8154275 Si02
#       6
#     8   8   8   8   8   8
#     4  12  26  43  71 106 148 188 228 296 363 422
#     4  12  25  44  71 105 141 184 238 290 358 421
#     4  12  22  43  71 102 142 184 239 294 345 421
#     4  11  26  49  72 103 140 184 245 287 351 431
#     4  11  25  48  75 100 136 189 238 294 352 420
#     4  12  25  46  71 104 146 184 237 297 356 420
#
# _framework density 21.909611000000002
#
# number of rings (size 3 to 8) (size 9 to 14) (size 15 to 20)
#    0.000    0.333    3.333    5.500    2.333    1.333 
#    3.000    0.000    0.000    0.000    0.000    0.000 
#    0.000    0.000    0.000    0.000    0.000    0.000 
#
# Total GULP energy -297761.444018 kJ/mol
# GULP energy per Si atom -12406.726834 kJ/mol
# Density = 2.185974 g / cm^3
# Si number density = 21.909611 Si / 1000 Ang^3
#
#
#
# Elastic Constant Matrix: (Units=GPa)
#
#
# Indices 1 2 3 4 5 6 
#
# 1 122.3567 51.6047 43.9570 0.0000 -22.4226 0.0000
# 2 51.6047 140.5170 71.0113 0.0000 -11.8850 0.0000
# 3 43.9570 71.0113 138.2939 0.0000 -22.2748 0.0000
# 4 0.0000 0.0000 0.0000 43.2855 0.0000 -8.3698
# 5 -22.4226 -11.8850 -22.2748 0.0000 40.4620 0.0000
# 6 0.0000 0.0000 0.0000 -8.3698 0.0000 29.4887
#
#
#
# Elastic Compliance Matrix: (Units=1/GPa)
#
#
# Indices 1 2 3 4 5 6 
#
# 1 0.010638 -0.002949 -0.001160 0.000000 0.004390 0.000000
# 2 -0.002949 0.010429 -0.004595 0.000000 -0.001101 0.000000
# 3 -0.001160 -0.004595 0.010576 0.000000 0.003830 0.000000
# 4 0.000000 0.000000 0.000000 0.024444 0.000000 0.006938
# 5 0.004390 -0.001101 0.003830 0.000000 0.028933 0.000000
# 6 0.000000 0.000000 0.000000 0.006938 0.000000 0.035881
#
#
# Mechanical properties :
#
#
# Convention : Reuss Voigt Hill
#
# Bulk Modulus (GPa) = 70.25064 81.59040 75.92052
# Shear Modulus (GPa) = 34.95238 38.28688 36.61963
#
# Velocity S-wave (km/s) = 3.99845 4.18484 4.09271
# Velocity P-wave (km/s) = 7.31097 7.78915 7.55385
#
# Compressibility (1/GPa) = 0.01423475
#
# Stress axis : x y z
#
# Youngs Moduli (GPa) = 94.00319 95.89012 94.55611
#
# Poissons Ratio (x) = 0.28282 0.10966
# Poissons Ratio (y) = 0.27725 0.43446
# Poissons Ratio (z) = 0.10901 0.44059
#
# Static dielectric constant tensor:
#      x y z
#    x 4.152860 0.000000 -0.195270 
#    y 0.000000 3.509610 0.000000 
#    z -0.195270 0.000000 4.002340 
# 
# 
# High freq. dielectric constant tensor:
#      x y z
#    x 1.872330 0.000000 -0.011050 
#    y 0.000000 1.867550 0.000000 
#    z -0.011050 0.000000 1.872810 
# 
# From -- ./inp_files/116729.got.cif
#   From: 2010.06.25/outbox.cif.g09.slc.cpg/sg15_59_cif.got.tgz:116729.got - 2010.06.28 07:06:18.
