data_PCOD8154860
_publ_section_title
;
Structure prediction by ZEFSAII (Michael W. Deem and Ramdas Pophale) SiO2 
 PCOD8154860
Probable space group: C 2/C
;
_chemical_formula_sum "Si O2"
_cell_formula_units_Z 44
_cell_length_a 24.561642
_cell_length_b 4.931092
_cell_length_c 14.413038
_cell_angle_alpha 90.000000
_cell_angle_beta 94.178414
_cell_angle_gamma 90.000000
_cell_volume 1741.005495
_symmetry_space_group_name_H-M "C 2/C"
_symmetry_group_IT_number 15
_symmetry_cell_setting 'monoclinic'
loop_
_space_group_symop_operation_xyz
x,y,z
-x,y,1/2-z
-x,-y,-z
x,-y,1/2+z
1/2+x,1/2+y,z
1/2-x,1/2+y,1/2-z
1/2-x,1/2-y,-z
1/2+x,1/2-y,1/2+z
loop_
_atom_site_type_symbol
_atom_site_label
_atom_site_fract_x
_atom_site_fract_y
_atom_site_fract_z
Si Si1 0.597273 0.133342 0.502888
Si Si2 0.713811 0.000845 0.471042
Si Si3 0.214400 0.587755 0.264060
Si Si4 0.500000 0.669576 0.750000
Si Si5 0.930986 0.855888 0.617788
Si Si6 0.402168 0.058940 0.790969
O O1 0.657331 0.004456 0.518897
O O2 0.599960 0.418310 0.448173
O O3 0.577974 0.176879 0.606780
O O4 0.559431 0.915028 0.442754
O O5 0.750000 0.250000 0.500000
O O6 0.697673 0.988012 0.362660
O O7 0.750000 0.750000 0.500000
O O8 0.260509 0.388700 0.228040
O O9 0.157300 0.579832 0.201093
O O10 0.489308 0.477788 0.658371
O O11 0.446243 0.843645 0.761007
O O12 0.898608 0.791895 0.710662
#
# Coordination Sequence:
#
# PCOD8154860 Si02
#       6
#     8   8   8   4   8   8
#     4  12  28  48  81 112 158 212 259 330 398 470
#     4  12  24  45  70 111 154 197 264 313 377 469
#     4  12  27  47  77 113 155 205 254 321 389 462
#     4  12  28  54  82 116 160 212 258 342 392 476
#     4  12  27  52  76 116 156 199 268 326 386 480
#     4  12  29  54  81 114 164 207 267 327 403 469
#
# _framework density 25.272755
#
# number of rings (size 3 to 8) (size 9 to 14) (size 15 to 20)
#    0.000    0.000    3.636    4.909    7.636    1.455 
#    0.000    0.000    0.000    0.000    0.000    0.000 
#    0.000    0.000    0.000    0.000    0.000    0.000 
#
# Total GULP energy -272761.454585 kJ/mol
# GULP energy per Si atom -12398.247936 kJ/mol
# Density = 2.521523 g / cm^3
# Si number density = 25.272755 Si / 1000 Ang^3
#
#
#
# Elastic Constant Matrix: (Units=GPa)
#
#
# Indices 1 2 3 4 5 6 
#
# 1 108.4757 39.1056 25.6334 0.0000 15.2095 0.0000
# 2 39.1056 144.6752 48.1004 0.0000 4.9325 0.0000
# 3 25.6334 48.1004 188.3282 0.0000 -4.5895 0.0000
# 4 0.0000 0.0000 0.0000 48.1678 0.0000 8.5872
# 5 15.2095 4.9325 -4.5895 0.0000 33.8091 0.0000
# 6 0.0000 0.0000 0.0000 8.5872 0.0000 30.3915
#
#
#
# Elastic Compliance Matrix: (Units=1/GPa)
#
#
# Indices 1 2 3 4 5 6 
#
# 1 0.011009 -0.002490 -0.000978 0.000000 -0.004722 0.000000
# 2 -0.002490 0.008180 -0.001758 0.000000 -0.000312 0.000000
# 3 -0.000978 -0.001758 0.005929 0.000000 0.001501 0.000000
# 4 0.000000 0.000000 0.000000 0.021862 0.000000 -0.006177
# 5 -0.004722 -0.000312 0.001501 0.000000 0.031951 0.000000
# 6 0.000000 0.000000 0.000000 -0.006177 0.000000 0.034649
#
#
# Mechanical properties :
#
#
# Convention : Reuss Voigt Hill
#
# Bulk Modulus (GPa) = 68.17946 74.12866 71.15406
# Shear Modulus (GPa) = 38.78353 44.38299 41.58326
#
# Velocity S-wave (km/s) = 3.92165 4.19520 4.06073
# Velocity P-wave (km/s) = 6.89505 7.27059 7.08531
#
# Compressibility (1/GPa) = 0.01466717
#
# Stress axis : x y z
#
# Youngs Moduli (GPa) = 90.83195 122.24737 168.67584
#
# Poissons Ratio (x) = 0.30437 0.16491
# Poissons Ratio (y) = 0.22615 0.29653
# Poissons Ratio (z) = 0.08880 0.21491
#
# Static dielectric constant tensor:
#      x y z
#    x 4.337740 0.000000 0.123300 
#    y 0.000000 3.614370 0.000000 
#    z 0.123300 0.000000 4.694880 
# 
# 
# High freq. dielectric constant tensor:
#      x y z
#    x 2.001850 0.000000 0.015020 
#    y 0.000000 2.012760 0.000000 
#    z 0.015020 0.000000 2.028360 
# 
# From -- ./inp_files/170871.got.cif
#   From: 2010.06.25/outbox.cif.g09.slc.cpg/sg15_86_cif.got.tgz:170871.got - 2010.06.28 07:06:18.
