data_PCOD8154852
_publ_section_title
;
Structure prediction by ZEFSAII (Michael W. Deem and Ramdas Pophale) SiO2 
 PCOD8154852
Probable space group: C 2/C
;
_chemical_formula_sum "Si O2"
_cell_formula_units_Z 28
_cell_length_a 7.556791
_cell_length_b 16.215638
_cell_length_c 17.043422
_cell_angle_alpha 90.000000
_cell_angle_beta 36.989541
_cell_angle_gamma 90.000000
_cell_volume 1256.568153
_symmetry_space_group_name_H-M "C 2/C"
_symmetry_group_IT_number 15
_symmetry_cell_setting 'monoclinic'
loop_
_space_group_symop_operation_xyz
x,y,z
-x,y,1/2-z
-x,-y,-z
x,-y,1/2+z
1/2+x,1/2+y,z
1/2-x,1/2+y,1/2-z
1/2-x,1/2-y,-z
1/2+x,1/2-y,1/2+z
loop_
_atom_site_type_symbol
_atom_site_label
_atom_site_fract_x
_atom_site_fract_y
_atom_site_fract_z
Si Si1 0.500000 0.202906 0.750000
Si Si2 0.246452 0.337184 0.728250
Si Si3 0.178243 0.919258 0.460140
Si Si4 0.336263 0.011222 0.139168
O O1 0.366866 0.254851 0.725317
O O2 0.782699 0.149860 0.620517
O O3 0.525909 0.382285 0.591082
O O4 0.118888 0.396658 0.841557
O O5 0.000000 0.317200 0.750000
O O6 0.515222 0.945838 0.355367
O O7 0.000000 0.000000 0.500000
O O8 0.000000 0.986420 0.250000
O O9 0.500000 0.000000 0.000000
#
# Coordination Sequence:
#
# PCOD8154852 Si02
#       4
#     4   8   8   8
#     4  12  28  46  70 110 154 192 252 322 384 446
#     4  12  25  47  74 109 155 196 250 317 379 451
#     4  12  25  47  75 105 146 201 256 307 374 454
#     4  12  24  44  77 110 151 198 254 314 376 450
#
# _framework density 22.282914999999999
#
# number of rings (size 3 to 8) (size 9 to 14) (size 15 to 20)
#    0.000    0.000    7.143    2.571    0.000    2.286 
#    0.000    0.000    0.000    0.000    0.000    0.000 
#    0.000    0.000    0.000    0.000    0.000    0.000 
#
# Total GULP energy -173609.625719 kJ/mol
# GULP energy per Si atom -12400.687551 kJ/mol
# Density = 2.223220 g / cm^3
# Si number density = 22.282915 Si / 1000 Ang^3
#
#
#
# Elastic Constant Matrix: (Units=GPa)
#
#
# Indices 1 2 3 4 5 6 
#
# 1 150.3141 76.3449 68.1695 -0.0201 -20.7265 0.0375
# 2 76.3449 159.6393 80.1795 0.1780 8.3056 -0.0143
# 3 68.1695 80.1795 149.3782 0.2309 3.9788 0.0295
# 4 -0.0201 0.1780 0.2309 53.0398 -0.0160 6.9939
# 5 -20.7265 8.3056 3.9788 -0.0160 54.1797 -0.0325
# 6 0.0375 -0.0143 0.0295 6.9939 -0.0325 44.3213
#
#
#
# Elastic Compliance Matrix: (Units=1/GPa)
#
#
# Indices 1 2 3 4 5 6 
#
# 1 0.010599 -0.003871 -0.002889 0.000032 0.004860 -0.000010
# 2 -0.003871 0.010042 -0.003550 -0.000022 -0.002759 0.000010
# 3 -0.002889 -0.003550 0.009953 -0.000033 -0.001292 -0.000001
# 4 0.000032 -0.000022 -0.000033 0.019255 0.000022 -0.003038
# 5 0.004860 -0.002759 -0.001292 0.000022 0.020834 0.000008
# 6 -0.000010 0.000010 -0.000001 -0.003038 0.000008 0.023042
#
#
# Mechanical properties :
#
#
# Convention : Reuss Voigt Hill
#
# Bulk Modulus (GPa) = 100.25685 100.96882 100.61284
# Shear Modulus (GPa) = 42.49231 45.95068 44.22149
#
# Velocity S-wave (km/s) = 4.37160 4.54601 4.45966
# Velocity P-wave (km/s) = 8.40069 8.54199 8.47163
#
# Compressibility (1/GPa) = 0.00997438
#
# Stress axis : x y z
#
# Youngs Moduli (GPa) = 94.34874 99.58287 100.47570
#
# Poissons Ratio (x) = 0.38547 0.29025
# Poissons Ratio (y) = 0.36521 0.35669
# Poissons Ratio (z) = 0.27255 0.35352
#
# Static dielectric constant tensor:
#      x y z
#    x 4.350280 -0.000580 0.086700 
#    y -0.000580 4.218840 0.001020 
#    z 0.086700 0.001020 3.947160 
# 
# 
# High freq. dielectric constant tensor:
#      x y z
#    x 1.889350 0.000000 0.005770 
#    y 0.000000 1.879060 0.000010 
#    z 0.005770 0.000010 1.889730 
# 
# From -- ./inp_files/75237.got.cif
#   From: 2010.06.25/outbox.cif.g09.slc.cpg/sg15_38_cif.got.tgz:75237.got - 2010.06.28 07:06:18.
