data_PCOD8154613
_publ_section_title
;
Structure prediction by ZEFSAII (Michael W. Deem and Ramdas Pophale) SiO2 
 PCOD8154613
Probable space group: C 2/C
;
_chemical_formula_sum "Si O2"
_cell_formula_units_Z 48
_cell_length_a 18.827787
_cell_length_b 6.256716
_cell_length_c 29.938379
_cell_angle_alpha 90.000000
_cell_angle_beta 144.714773
_cell_angle_gamma 90.000000
_cell_volume 2037.214009
_symmetry_space_group_name_H-M "C 2/C"
_symmetry_group_IT_number 15
_symmetry_cell_setting 'monoclinic'
loop_
_space_group_symop_operation_xyz
x,y,z
-x,y,1/2-z
-x,-y,-z
x,-y,1/2+z
1/2+x,1/2+y,z
1/2-x,1/2+y,1/2-z
1/2-x,1/2-y,-z
1/2+x,1/2-y,1/2+z
loop_
_atom_site_type_symbol
_atom_site_label
_atom_site_fract_x
_atom_site_fract_y
_atom_site_fract_z
Si Si1 0.227239 0.710558 0.297996
Si Si2 0.581608 0.759234 0.955897
Si Si3 0.607568 0.372672 0.078514
Si Si4 0.859494 0.884818 0.578261
Si Si5 0.064820 0.594346 0.659643
Si Si6 0.240060 0.481163 0.104422
O O1 0.274837 0.515577 0.352284
O O2 0.111678 0.607258 0.213237
O O3 0.327371 0.811030 0.315676
O O4 0.191262 0.894607 0.315470
O O5 0.445491 0.681000 0.899758
O O6 0.641262 0.607870 0.949307
O O7 0.556604 0.001665 0.927236
O O8 0.668388 0.782732 0.044112
O O9 0.642694 0.163973 0.068304
O O10 0.500000 0.500000 0.000000
O O11 0.750000 0.750000 0.500000
O O12 0.836423 0.925335 0.618713
O O13 0.998035 0.788194 0.650983
#
# Coordination Sequence:
#
# PCOD8154613 Si02
#       6
#     8   8   8   8   8   8
#     4  12  27  47  76 107 149 197 257 316 373 456
#     4  12  23  45  76 107 146 195 252 307 370 447
#     4  12  22  41  74 110 142 189 255 306 361 443
#     4  12  27  47  77 113 153 197 251 312 385 461
#     4  12  27  48  77 107 149 203 250 312 388 452
#     4  12  26  43  76 115 146 191 255 317 374 452
#
# _framework density 23.561589000000001
#
# number of rings (size 3 to 8) (size 9 to 14) (size 15 to 20)
#    0.000    0.000    6.667    4.000    0.000    0.000 
#    0.000    5.000    0.000    0.000    0.000    0.000 
#    0.000    0.000    0.000    0.000    0.000    0.000 
#
# Total GULP energy -297404.649742 kJ/mol
# GULP energy per Si atom -12391.860406 kJ/mol
# Density = 2.350796 g / cm^3
# Si number density = 23.561589 Si / 1000 Ang^3
#
#
#
# Elastic Constant Matrix: (Units=GPa)
#
#
# Indices 1 2 3 4 5 6 
#
# 1 151.5549 50.5714 37.5777 -0.0030 -16.5075 -0.0002
# 2 50.5714 105.3054 36.8429 -0.0038 -5.7953 -0.0034
# 3 37.5777 36.8429 80.5631 -0.0016 -9.4349 0.0013
# 4 -0.0030 -0.0038 -0.0016 47.2463 0.0027 10.4667
# 5 -16.5075 -5.7953 -9.4349 0.0027 25.7210 -0.0013
# 6 -0.0002 -0.0034 0.0013 10.4667 -0.0013 47.6137
#
#
#
# Elastic Compliance Matrix: (Units=1/GPa)
#
#
# Indices 1 2 3 4 5 6 
#
# 1 0.008620 -0.003186 -0.002090 0.000000 0.004048 0.000000
# 2 -0.003186 0.012494 -0.004323 0.000001 -0.000815 0.000001
# 3 -0.002090 -0.004323 0.015771 0.000000 0.003470 -0.000001
# 4 0.000000 0.000001 0.000000 0.022249 -0.000003 -0.004891
# 5 0.004048 -0.000815 0.003470 -0.000003 0.042566 0.000002
# 6 0.000000 0.000001 -0.000001 -0.004891 0.000002 0.022078
#
#
# Mechanical properties :
#
#
# Convention : Reuss Voigt Hill
#
# Bulk Modulus (GPa) = 56.53767 65.26749 60.90258
# Shear Modulus (GPa) = 33.58613 38.27830 35.93222
#
# Velocity S-wave (km/s) = 3.77962 4.03501 3.90940
# Velocity P-wave (km/s) = 6.56469 7.03345 6.80311
#
# Compressibility (1/GPa) = 0.01768732
#
# Stress axis : x y z
#
# Youngs Moduli (GPa) = 116.00327 80.03971 63.40833
#
# Poissons Ratio (x) = 0.25500 0.13252
# Poissons Ratio (y) = 0.36957 0.27412
# Poissons Ratio (z) = 0.24243 0.34602
#
# Static dielectric constant tensor:
#      x y z
#    x 3.423040 0.000000 0.370860 
#    y 0.000000 3.268390 -0.000070 
#    z 0.370860 -0.000070 4.090020 
# 
# 
# High freq. dielectric constant tensor:
#      x y z
#    x 1.935890 0.000000 -0.007720 
#    y 0.000000 1.952750 0.000000 
#    z -0.007720 0.000000 1.918870 
# 
# From -- ./inp_files/317106.got.cif
#   From: 2010.06.25/outbox.cif.g09.slc.cpg/sg15_159_cif.got.tgz:317106.got - 2010.06.28 07:06:18.
