data_PCOD8154510
_publ_section_title
;
Structure prediction by ZEFSAII (Michael W. Deem and Ramdas Pophale) SiO2 
 PCOD8154510
Probable space group: C 2/C
;
_chemical_formula_sum "Si O2"
_cell_formula_units_Z 52
_cell_length_a 14.383412
_cell_length_b 17.823607
_cell_length_c 15.161743
_cell_angle_alpha 90.000000
_cell_angle_beta 39.613836
_cell_angle_gamma 90.000000
_cell_volume 2478.345182
_symmetry_space_group_name_H-M "C 2/C"
_symmetry_group_IT_number 15
_symmetry_cell_setting 'monoclinic'
loop_
_space_group_symop_operation_xyz
x,y,z
-x,y,1/2-z
-x,-y,-z
x,-y,1/2+z
1/2+x,1/2+y,z
1/2-x,1/2+y,1/2-z
1/2-x,1/2-y,-z
1/2+x,1/2-y,1/2+z
loop_
_atom_site_type_symbol
_atom_site_label
_atom_site_fract_x
_atom_site_fract_y
_atom_site_fract_z
Si Si1 0.000000 0.877803 0.750000
Si Si2 0.877593 0.689183 0.900372
Si Si3 0.831846 0.014464 0.141914
Si Si4 0.363110 0.047926 0.569472
Si Si5 0.676981 0.321419 0.782046
Si Si6 0.490957 0.198336 0.003378
Si Si7 0.251929 0.535395 0.517780
O O1 0.896568 0.826528 0.761976
O O2 0.088724 0.933996 0.623159
O O3 0.945207 0.664773 0.943367
O O4 0.833173 0.610297 0.891767
O O5 0.000000 0.726665 0.750000
O O6 0.750000 0.750000 0.000000
O O7 0.800075 0.095812 0.201223
O O8 0.765450 0.956789 0.262948
O O9 0.749903 0.012252 0.108334
O O10 0.000000 0.000000 0.000000
O O11 0.410064 0.135069 0.521334
O O12 0.500000 0.000000 0.500000
O O13 0.311343 0.015894 0.513530
O O14 0.579087 0.275373 0.923203
O O15 0.837573 0.283011 0.663890
#
# Coordination Sequence:
#
# PCOD8154510 Si02
#       7
#     4   8   8   8   8   8   8
#     4  12  20  46  66 102 142 170 220 286 348 418
#     4  12  24  35  58  96 131 166 212 270 346 409
#     4  12  25  43  71 100 135 182 233 280 344 410
#     4  12  23  47  66  98 139 176 231 288 334 410
#     4  12  26  44  66 100 142 179 226 284 345 415
#     4  12  26  42  65  95 141 180 221 284 348 402
#     4  12  24  41  71  98 133 179 227 282 339 404
#
# _framework density 20.981742000000001
#
# number of rings (size 3 to 8) (size 9 to 14) (size 15 to 20)
#    0.000    0.000    7.692    2.769    4.308    0.000 
#    0.000    0.769    0.000    0.000    0.000    0.000 
#    0.000    0.000    0.000    0.000    0.000    0.000 
#
# Total GULP energy -322279.172734 kJ/mol
# GULP energy per Si atom -12395.352797 kJ/mol
# Density = 2.093399 g / cm^3
# Si number density = 20.981742 Si / 1000 Ang^3
#
#
#
# Elastic Constant Matrix: (Units=GPa)
#
#
# Indices 1 2 3 4 5 6 
#
# 1 107.4301 39.8837 41.3341 0.0016 10.9584 -0.0008
# 2 39.8837 76.1617 22.9529 0.0006 -2.3079 -0.0004
# 3 41.3341 22.9529 134.4406 0.0019 -19.3640 -0.0011
# 4 0.0016 0.0006 0.0019 38.8441 -0.0021 3.1221
# 5 10.9584 -2.3079 -19.3640 -0.0021 37.0518 0.0013
# 6 -0.0008 -0.0004 -0.0011 3.1221 0.0013 28.4236
#
#
#
# Elastic Compliance Matrix: (Units=1/GPa)
#
#
# Indices 1 2 3 4 5 6 
#
# 1 0.013909 -0.006228 -0.004176 -0.000001 -0.006684 0.000001
# 2 -0.006228 0.016636 -0.000553 0.000000 0.002589 0.000000
# 3 -0.004176 -0.000553 0.009721 0.000000 0.006281 0.000000
# 4 -0.000001 0.000000 0.000000 0.025973 0.000002 -0.002853
# 5 -0.006684 0.002589 0.006281 0.000002 0.032410 -0.000002
# 6 0.000001 0.000000 0.000000 -0.002853 -0.000002 0.035495
#
#
# Mechanical properties :
#
#
# Convention : Reuss Voigt Hill
#
# Bulk Modulus (GPa) = 54.48407 58.48596 56.48501
# Shear Modulus (GPa) = 30.83087 35.12135 32.97611
#
# Velocity S-wave (km/s) = 3.83745 4.09577 3.96871
# Velocity P-wave (km/s) = 6.75710 7.09241 6.92679
#
# Compressibility (1/GPa) = 0.01835399
#
# Stress axis : x y z
#
# Youngs Moduli (GPa) = 71.89643 60.10966 102.86889
#
# Poissons Ratio (x) = 0.37435 0.42956
# Poissons Ratio (y) = 0.44775 0.05685
# Poissons Ratio (z) = 0.30022 0.03322
#
# Static dielectric constant tensor:
#      x y z
#    x 3.872040 0.000000 -0.231620 
#    y 0.000000 4.268160 0.000020 
#    z -0.231620 0.000020 3.966250 
# 
# 
# High freq. dielectric constant tensor:
#      x y z
#    x 1.802920 0.000000 -0.015650 
#    y 0.000000 1.820800 0.000000 
#    z -0.015650 0.000000 1.843450 
# 
# From -- ./inp_files/155429.got.cif
#   From: 2010.06.25/outbox.cif.g09.slc.cpg/sg15_78_cif.got.tgz:155429.got - 2010.06.28 07:06:18.
