data_PCOD8154979
_publ_section_title
;
Structure prediction by ZEFSAII (Michael W. Deem and Ramdas Pophale) SiO2 
 PCOD8154979
Probable space group: C 2/C
;
_chemical_formula_sum "Si O2"
_cell_formula_units_Z 40
_cell_length_a 12.228880
_cell_length_b 17.259410
_cell_length_c 12.111030
_cell_angle_alpha 90.000000
_cell_angle_beta 138.660820
_cell_angle_gamma 90.000000
_cell_volume 1688.404704
_symmetry_space_group_name_H-M "C 2/C"
_symmetry_group_IT_number 15
_symmetry_cell_setting 'monoclinic'
loop_
_space_group_symop_operation_xyz
x,y,z
-x,y,1/2-z
-x,-y,-z
x,-y,1/2+z
1/2+x,1/2+y,z
1/2-x,1/2+y,1/2-z
1/2-x,1/2-y,-z
1/2+x,1/2-y,1/2+z
loop_
_atom_site_type_symbol
_atom_site_label
_atom_site_fract_x
_atom_site_fract_y
_atom_site_fract_z
Si Si1 0.639675 0.070110 0.282592
Si Si2 0.307752 0.332985 0.580472
Si Si3 0.541650 0.661700 0.908976
Si Si4 0.256066 0.589173 0.815930
Si Si5 0.482076 0.176795 0.481750
O O1 0.500000 0.027666 0.250000
O O2 0.512984 0.125786 0.122668
O O3 0.776409 0.123976 0.447073
O O4 0.716004 0.001235 0.267411
O O5 0.500000 0.332264 0.750000
O O6 0.250000 0.250000 0.500000
O O7 0.280676 0.396975 0.465131
O O8 0.200116 0.345532 0.608830
O O9 0.500000 0.683504 0.750000
O O10 0.416665 0.598204 0.861434
O O11 0.519863 0.734857 0.975207
O O12 0.118738 0.650691 0.673128
#
# Coordination Sequence:
#
# PCOD8154979 Si02
#       5
#     8   8   8   8   8
#     4  12  27  48  71 106 147 189 239 300 367 426
#     4  12  25  44  72 108 142 185 241 296 354 425
#     4  12  27  47  74 105 142 190 244 297 361 438
#     4  12  26  47  75 105 146 189 240 301 361 427
#     4  12  25  46  75 106 145 189 243 295 362 433
#
# _framework density 23.691002000000001
#
# number of rings (size 3 to 8) (size 9 to 14) (size 15 to 20)
#    0.000    0.000    2.000    8.400    0.000    4.800 
#    0.000    0.000    0.000    0.000    0.000    0.000 
#    0.000    0.000    0.000    0.000    0.000    0.000 
#
# Total GULP energy -247920.719943 kJ/mol
# GULP energy per Si atom -12396.035997 kJ/mol
# Density = 2.363708 g / cm^3
# Si number density = 23.691002 Si / 1000 Ang^3
#
#
#
# Elastic Constant Matrix: (Units=GPa)
#
#
# Indices 1 2 3 4 5 6 
#
# 1 133.9780 29.7268 52.2630 0.0000 22.1647 0.0000
# 2 29.7268 103.1306 46.8596 0.0000 10.0968 0.0000
# 3 52.2630 46.8596 143.3666 0.0000 15.7579 0.0000
# 4 0.0000 0.0000 0.0000 28.7159 0.0000 3.8590
# 5 22.1647 10.0968 15.7579 0.0000 39.8842 0.0000
# 6 0.0000 0.0000 0.0000 3.8590 0.0000 34.1581
#
#
#
# Elastic Compliance Matrix: (Units=1/GPa)
#
#
# Indices 1 2 3 4 5 6 
#
# 1 0.009382 -0.001132 -0.002622 0.000000 -0.003891 0.000000
# 2 -0.001132 0.011608 -0.003270 0.000000 -0.001018 0.000000
# 3 -0.002622 -0.003270 0.009146 0.000000 -0.001328 0.000000
# 4 0.000000 0.000000 0.000000 0.035361 0.000000 -0.003995
# 5 -0.003891 -0.001018 -0.001328 0.000000 0.028017 0.000000
# 6 0.000000 0.000000 0.000000 -0.003995 0.000000 0.029727
#
#
# Mechanical properties :
#
#
# Convention : Reuss Voigt Hill
#
# Bulk Modulus (GPa) = 62.15869 70.90824 66.53347
# Shear Modulus (GPa) = 35.05062 37.32669 36.18865
#
# Velocity S-wave (km/s) = 3.85059 3.97364 3.91260
# Velocity P-wave (km/s) = 6.78702 7.14483 6.96822
#
# Compressibility (1/GPa) = 0.01608786
#
# Stress axis : x y z
#
# Youngs Moduli (GPa) = 106.59043 86.14798 109.33979
#
# Poissons Ratio (x) = 0.09750 0.28674
# Poissons Ratio (y) = 0.12063 0.35750
# Poissons Ratio (z) = 0.27953 0.28167
#
# Static dielectric constant tensor:
#      x y z
#    x 4.007250 0.000000 -0.076910 
#    y 0.000000 4.069800 0.000000 
#    z -0.076910 0.000000 4.339170 
# 
# 
# High freq. dielectric constant tensor:
#      x y z
#    x 1.958730 0.000000 0.007110 
#    y 0.000000 1.941580 0.000000 
#    z 0.007110 0.000000 1.946390 
# 
# From -- ./inp_files/89877.got.cif
#   From: 2010.06.25/outbox.cif.g09.slc.cpg/sg15_45_cif.got.tgz:89877.got - 2010.06.28 07:06:18.
