data_PCOD8154996
_publ_section_title
;
Structure prediction by ZEFSAII (Michael W. Deem and Ramdas Pophale) SiO2 
 PCOD8154996
Probable space group: C 2/C
;
_chemical_formula_sum "Si O2"
_cell_formula_units_Z 36
_cell_length_a 26.721633
_cell_length_b 7.910930
_cell_length_c 13.607509
_cell_angle_alpha 90.000000
_cell_angle_beta 147.568818
_cell_angle_gamma 90.000000
_cell_volume 1542.644330
_symmetry_space_group_name_H-M "C 2/C"
_symmetry_group_IT_number 15
_symmetry_cell_setting 'monoclinic'
loop_
_space_group_symop_operation_xyz
x,y,z
-x,y,1/2-z
-x,-y,-z
x,-y,1/2+z
1/2+x,1/2+y,z
1/2-x,1/2+y,1/2-z
1/2-x,1/2-y,-z
1/2+x,1/2-y,1/2+z
loop_
_atom_site_type_symbol
_atom_site_label
_atom_site_fract_x
_atom_site_fract_y
_atom_site_fract_z
Si Si1 0.000000 0.771316 0.750000
Si Si2 0.173035 0.874837 0.330600
Si Si3 0.003994 0.311829 0.042083
Si Si4 0.168965 0.981386 0.024028
Si Si5 0.816219 0.809832 0.768779
O O1 0.030516 0.670081 0.702459
O O2 0.914031 0.877796 0.564059
O O3 0.250000 0.750000 0.500000
O O4 0.095506 0.777547 0.139356
O O5 0.127715 0.962161 0.350861
O O6 0.223942 0.020540 0.349964
O O7 0.000000 0.500000 0.000000
O O8 0.080641 0.212328 0.105125
O O9 0.258891 0.861439 0.156303
O O10 0.188557 0.147282 0.122764
#
# Coordination Sequence:
#
# PCOD8154996 Si02
#       5
#     4   8   8   8   8
#     4  12  26  48  74 102 146 192 248 294 372 422
#     4  12  25  46  73 110 148 192 246 307 371 438
#     4  12  28  49  77 108 148 196 249 308 368 442
#     4  12  26  44  76 106 151 199 239 305 369 445
#     4  12  26  48  72 111 152 194 247 301 375 443
#
# _framework density 23.336549999999999
#
# number of rings (size 3 to 8) (size 9 to 14) (size 15 to 20)
#    0.000    0.000    4.444    5.333    6.222    1.778 
#    0.000    0.000    0.000    0.000    0.000    0.000 
#    0.000    0.000    0.000    0.000    0.000    0.000 
#
# Total GULP energy -223158.907339 kJ/mol
# GULP energy per Si atom -12397.717074 kJ/mol
# Density = 2.328344 g / cm^3
# Si number density = 23.336550 Si / 1000 Ang^3
#
#
#
# Elastic Constant Matrix: (Units=GPa)
#
#
# Indices 1 2 3 4 5 6 
#
# 1 109.8460 39.4881 38.9204 0.0000 -21.7419 0.0000
# 2 39.4881 109.0900 30.8954 0.0000 -13.6360 0.0000
# 3 38.9204 30.8954 102.3812 0.0000 -2.7269 0.0000
# 4 0.0000 0.0000 0.0000 39.2222 0.0000 -6.2886
# 5 -21.7419 -13.6360 -2.7269 0.0000 46.9625 0.0000
# 6 0.0000 0.0000 0.0000 -6.2886 0.0000 23.8003
#
#
#
# Elastic Compliance Matrix: (Units=1/GPa)
#
#
# Indices 1 2 3 4 5 6 
#
# 1 0.012370 -0.002838 -0.003721 0.000000 0.004687 0.000000
# 2 -0.002838 0.011039 -0.002205 0.000000 0.001763 0.000000
# 3 -0.003721 -0.002205 0.011803 0.000000 -0.001678 0.000000
# 4 0.000000 0.000000 0.000000 0.026624 0.000000 0.007035
# 5 0.004687 0.001763 -0.001678 0.000000 0.023878 0.000000
# 6 0.000000 0.000000 0.000000 0.007035 0.000000 0.043875
#
#
# Mechanical properties :
#
#
# Convention : Reuss Voigt Hill
#
# Bulk Modulus (GPa) = 56.55234 59.99164 58.27199
# Shear Modulus (GPa) = 32.67719 36.13122 34.40420
#
# Velocity S-wave (km/s) = 3.74606 3.93907 3.84378
# Velocity P-wave (km/s) = 6.55718 6.81552 6.68760
#
# Compressibility (1/GPa) = 0.01768273
#
# Stress axis : x y z
#
# Youngs Moduli (GPa) = 80.84075 90.58776 84.72496
#
# Poissons Ratio (x) = 0.25708 0.31528
# Poissons Ratio (y) = 0.22942 0.18685
# Poissons Ratio (z) = 0.30083 0.19978
#
# Static dielectric constant tensor:
#      x y z
#    x 4.835550 0.000000 -0.168750 
#    y 0.000000 4.451620 0.000000 
#    z -0.168750 0.000000 4.131380 
# 
# 
# High freq. dielectric constant tensor:
#      x y z
#    x 1.945220 0.000000 -0.013620 
#    y 0.000000 1.927560 0.000000 
#    z -0.013620 0.000000 1.918090 
# 
# From -- ./inp_files/177055.got.cif
#   From: 2010.06.25/outbox.cif.g09.slc.cpg/sg15_89_cif.got.tgz:177055.got - 2010.06.28 07:06:18.
