data_PCOD8154500
_publ_section_title
;
Structure prediction by ZEFSAII (Michael W. Deem and Ramdas Pophale) SiO2 
 PCOD8154500
Probable space group: C 2/C
;
_chemical_formula_sum "Si O2"
_cell_formula_units_Z 48
_cell_length_a 8.753050
_cell_length_b 24.791555
_cell_length_c 16.456019
_cell_angle_alpha 90.000000
_cell_angle_beta 37.763504
_cell_angle_gamma 90.000000
_cell_volume 2186.883795
_symmetry_space_group_name_H-M "C 2/C"
_symmetry_group_IT_number 15
_symmetry_cell_setting 'monoclinic'
loop_
_space_group_symop_operation_xyz
x,y,z
-x,y,1/2-z
-x,-y,-z
x,-y,1/2+z
1/2+x,1/2+y,z
1/2-x,1/2+y,1/2-z
1/2-x,1/2-y,-z
1/2+x,1/2-y,1/2+z
loop_
_atom_site_type_symbol
_atom_site_label
_atom_site_fract_x
_atom_site_fract_y
_atom_site_fract_z
Si Si1 0.599077 0.777178 0.990380
Si Si2 0.000000 0.537811 0.250000
Si Si3 0.206657 0.170929 0.881281
Si Si4 0.260567 0.633704 0.801681
Si Si5 0.500000 0.353594 0.750000
Si Si6 0.553368 0.027237 0.564721
Si Si7 0.513243 0.411823 0.904938
O O1 0.541366 0.725851 0.956579
O O2 0.763019 0.818958 0.872504
O O3 0.750000 0.750000 0.000000
O O4 0.351250 0.808172 0.123879
O O5 0.953464 0.504241 0.186276
O O6 0.752056 0.574466 0.360804
O O7 0.500000 0.185411 0.750000
O O8 0.127552 0.138309 0.835460
O O9 0.157773 0.133330 0.979669
O O10 0.500000 0.615805 0.750000
O O11 0.058694 0.586907 0.892877
O O12 0.601467 0.389859 0.780982
O O13 0.848798 0.034675 0.456440
O O14 0.500000 0.000000 0.500000
#
# Coordination Sequence:
#
# PCOD8154500 Si02
#       7
#     8   4   8   8   4   8   8
#     4  12  21  43  74 105 135 191 231 281 351 430
#     4  12  30  46  73 108 142 185 244 304 360 428
#     4  12  22  45  75  99 141 194 230 276 355 428
#     4  12  28  45  71 107 141 180 239 297 347 423
#     4  12  20  40  73 100 146 179 240 278 356 418
#     4  12  26  48  73 100 140 190 238 292 364 423
#     4  12  26  45  71 106 142 184 235 297 354 424
#
# _framework density 21.949038999999999
#
# number of rings (size 3 to 8) (size 9 to 14) (size 15 to 20)
#    0.000    0.000    7.500    2.500    4.667    0.667 
#    1.500    0.000    0.000    0.000    0.000    0.000 
#    0.000    0.000    0.000    0.000    0.000    0.000 
#
# Total GULP energy -297561.366314 kJ/mol
# GULP energy per Si atom -12398.390263 kJ/mol
# Density = 2.189908 g / cm^3
# Si number density = 21.949039 Si / 1000 Ang^3
#
#
#
# Elastic Constant Matrix: (Units=GPa)
#
#
# Indices 1 2 3 4 5 6 
#
# 1 107.2060 37.2569 37.8619 -0.0003 5.3189 0.0000
# 2 37.2569 109.5353 42.4211 0.0000 6.4287 0.0000
# 3 37.8619 42.4211 101.7897 -0.0003 17.9119 -0.0001
# 4 -0.0003 0.0000 -0.0003 -3.8836 0.0002 1.9326
# 5 5.3189 6.4287 17.9119 0.0002 47.1131 0.0000
# 6 0.0000 0.0000 -0.0001 1.9326 0.0000 23.8079
#
#
#
# Elastic Compliance Matrix: (Units=1/GPa)
#
#
# Indices 1 2 3 4 5 6 
#
# 1 0.011354 -0.002652 -0.003168 0.000000 0.000285 0.000000
# 2 -0.002652 0.011509 -0.003843 0.000000 0.000190 0.000000
# 3 -0.003168 -0.003843 0.013342 -0.000001 -0.004190 0.000000
# 4 0.000000 0.000000 -0.000001 -0.247492 0.000002 0.020090
# 5 0.000285 0.000190 -0.004190 0.000002 0.022761 0.000000
# 6 0.000000 0.000000 0.000000 0.020090 0.000000 0.040372
#
#
# Mechanical properties :
#
#
# Convention : Reuss Voigt Hill
#
# Bulk Modulus (GPa) = 59.24907 61.51229 60.38068
# Shear Modulus (GPa) = -40.58362 26.80688 -6.88837
#
# Velocity S-wave (km/s) = -4.30466 3.49854 -1.77346
# Velocity P-wave (km/s) = 1.53159 6.66375 4.83484
#
# Compressibility (1/GPa) = 0.01687790
#
# Stress axis : x y z
#
# Youngs Moduli (GPa) = 88.07325 86.89055 74.95241
#
# Poissons Ratio (x) = 0.23040 0.23747
# Poissons Ratio (y) = 0.23354 0.28808
# Poissons Ratio (z) = 0.27904 0.33396
#
# Static dielectric constant tensor:
#      x y z
#    x 3.959410 0.000000 0.384500 
#    y 0.000000 4.271640 0.000000 
#    z 0.384500 0.000000 4.390930 
# 
# 
# High freq. dielectric constant tensor:
#      x y z
#    x 1.851700 0.000000 0.018760 
#    y 0.000000 1.872560 0.000000 
#    z 0.018760 0.000000 1.874050 
# 
# From -- ./inp_files/79907.got.cif
#   From: 2010.06.25/outbox.cif.g09.slc.cpg/sg15_40_cif.got.tgz:79907.got - 2010.06.28 07:06:18.
