data_PCOD8154088
_publ_section_title
;
Structure prediction by ZEFSAII (Michael W. Deem and Ramdas Pophale) SiO2 
 PCOD8154088
Probable space group: C 2/C
;
_chemical_formula_sum "Si O2"
_cell_formula_units_Z 52
_cell_length_a 29.005931
_cell_length_b 6.629815
_cell_length_c 13.737598
_cell_angle_alpha 90.000000
_cell_angle_beta 70.720057
_cell_angle_gamma 90.000000
_cell_volume 2493.633616
_symmetry_space_group_name_H-M "C 2/C"
_symmetry_group_IT_number 15
_symmetry_cell_setting 'monoclinic'
loop_
_space_group_symop_operation_xyz
x,y,z
-x,y,1/2-z
-x,-y,-z
x,-y,1/2+z
1/2+x,1/2+y,z
1/2-x,1/2+y,1/2-z
1/2-x,1/2-y,-z
1/2+x,1/2-y,1/2+z
loop_
_atom_site_type_symbol
_atom_site_label
_atom_site_fract_x
_atom_site_fract_y
_atom_site_fract_z
Si Si1 0.000000 0.299252 0.250000
Si Si2 0.355176 0.053188 0.591496
Si Si3 0.729118 0.215072 0.407772
Si Si4 0.886255 0.243636 0.723306
Si Si5 0.431494 0.861894 0.880551
Si Si6 0.487225 0.448098 0.117514
Si Si7 0.806479 0.948095 0.705322
O O1 0.956994 0.434954 0.324414
O O2 0.977905 0.156702 0.181231
O O3 0.405785 0.097201 0.501072
O O4 0.327052 0.254013 0.637923
O O5 0.320728 0.913191 0.548375
O O6 0.367721 0.943255 0.683085
O O7 0.750000 0.250000 0.500000
O O8 0.766859 0.093835 0.315166
O O9 0.718313 0.427080 0.364063
O O10 0.889260 0.291716 0.835701
O O11 0.939537 0.188973 0.646770
O O12 0.849781 0.061040 0.730550
O O13 0.469844 0.679470 0.861661
O O14 0.500000 0.500000 0.000000
#
# Coordination Sequence:
#
# PCOD8154088 Si02
#       7
#     4   8   8   8   8   8   8
#     4  12  24  44  70  96 144 186 228 290 328 412
#     4  11  27  44  69 103 137 181 228 292 343 417
#     4  11  26  46  72 102 135 183 227 285 363 414
#     4  11  25  44  66 104 135 177 233 279 341 417
#     4  12  26  44  68 106 138 185 240 274 358 408
#     4  12  25  45  70  99 140 186 231 285 346 408
#     4  11  25  47  70 100 140 174 231 291 344 421
#
# _framework density 20.853104999999999
#
# number of rings (size 3 to 8) (size 9 to 14) (size 15 to 20)
#    0.000    0.615    4.615    1.846    8.615    3.077 
#    0.000    0.000    0.000    0.000    0.000    0.000 
#    0.000    0.000    0.000    0.000    0.000    0.000 
#
# Total GULP energy -322564.789211 kJ/mol
# GULP energy per Si atom -12406.338047 kJ/mol
# Density = 2.080564 g / cm^3
# Si number density = 20.853105 Si / 1000 Ang^3
#
#
#
# Elastic Constant Matrix: (Units=GPa)
#
#
# Indices 1 2 3 4 5 6 
#
# 1 118.0580 49.1074 31.8481 0.0000 17.7973 0.0000
# 2 49.1074 115.8558 49.1715 0.0000 18.7855 0.0000
# 3 31.8481 49.1715 84.1634 0.0000 0.4970 0.0000
# 4 0.0000 0.0000 0.0000 34.5955 0.0000 -11.5347
# 5 17.7973 18.7855 0.4970 0.0000 41.4801 0.0000
# 6 0.0000 0.0000 0.0000 -11.5347 0.0000 29.8189
#
#
#
# Elastic Compliance Matrix: (Units=1/GPa)
#
#
# Indices 1 2 3 4 5 6 
#
# 1 0.010866 -0.003120 -0.002270 0.000000 -0.003222 0.000000
# 2 -0.003120 0.013573 -0.006721 0.000000 -0.004728 0.000000
# 3 -0.002270 -0.006721 0.016645 0.000000 0.003819 0.000000
# 4 0.000000 0.000000 0.000000 0.033186 0.000000 0.012837
# 5 -0.003222 -0.004728 0.003819 0.000000 0.027586 0.000000
# 6 0.000000 0.000000 0.000000 0.012837 0.000000 0.038502
#
#
# Mechanical properties :
#
#
# Convention : Reuss Voigt Hill
#
# Bulk Modulus (GPa) = 59.30638 64.25902 61.78270
# Shear Modulus (GPa) = 29.37704 33.70891 31.54297
#
# Velocity S-wave (km/s) = 3.75742 4.02493 3.89347
# Velocity P-wave (km/s) = 6.87939 7.24445 7.06428
#
# Compressibility (1/GPa) = 0.01686159
#
# Stress axis : x y z
#
# Youngs Moduli (GPa) = 92.02758 73.67477 60.07798
#
# Poissons Ratio (x) = 0.22986 0.13638
# Poissons Ratio (y) = 0.28712 0.40381
# Poissons Ratio (z) = 0.20891 0.49520
#
# Static dielectric constant tensor:
#      x y z
#    x 3.960810 0.000000 -0.013950 
#    y 0.000000 4.226290 0.000000 
#    z -0.013950 0.000000 3.734110 
# 
# 
# High freq. dielectric constant tensor:
#      x y z
#    x 1.828080 0.000000 0.001400 
#    y 0.000000 1.833340 0.000000 
#    z 0.001400 0.000000 1.822230 
# 
# From -- ./inp_files/180068.got.cif
#   From: 2010.06.25/outbox.cif.g09.slc.cpg/sg15_91_cif.got.tgz:180068.got - 2010.06.28 07:06:18.
