data_PCOD8154382
_publ_section_title
;
Structure prediction by ZEFSAII (Michael W. Deem and Ramdas Pophale) SiO2 
 PCOD8154382
Probable space group: C 2/C
;
_chemical_formula_sum "Si O2"
_cell_formula_units_Z 36
_cell_length_a 20.358720
_cell_length_b 5.302620
_cell_length_c 20.784396
_cell_angle_alpha 90.000000
_cell_angle_beta 137.329166
_cell_angle_gamma 90.000000
_cell_volume 1520.794886
_symmetry_space_group_name_H-M "C 2/C"
_symmetry_group_IT_number 15
_symmetry_cell_setting 'monoclinic'
loop_
_space_group_symop_operation_xyz
x,y,z
-x,y,1/2-z
-x,-y,-z
x,-y,1/2+z
1/2+x,1/2+y,z
1/2-x,1/2+y,1/2-z
1/2-x,1/2-y,-z
1/2+x,1/2-y,1/2+z
loop_
_atom_site_type_symbol
_atom_site_label
_atom_site_fract_x
_atom_site_fract_y
_atom_site_fract_z
Si Si1 0.496487 0.250074 0.454935
Si Si2 0.292515 0.827691 0.753090
Si Si3 0.618674 0.579655 0.930604
Si Si4 0.500000 0.719336 0.250000
Si Si5 0.188721 0.539624 0.375584
O O1 0.500000 0.500000 0.500000
O O2 0.399251 0.261872 0.345021
O O3 0.582389 0.250726 0.464165
O O4 0.500000 0.000000 0.500000
O O5 0.222427 0.607034 0.728283
O O6 0.277888 0.836358 0.666584
O O7 0.529280 0.421056 0.837176
O O8 0.653711 0.744126 0.896965
O O9 0.712215 0.415350 0.022894
O O10 0.597498 0.859882 0.298194
#
# Coordination Sequence:
#
# PCOD8154382 Si02
#       5
#     8   8   8   4   8
#     4  12  27  48  74 109 150 196 249 310 372 445
#     4  12  27  48  74 109 149 198 248 308 377 445
#     4  11  26  47  73 108 145 195 251 306 374 451
#     4  12  24  44  76 106 144 192 246 314 370 440
#     4  11  26  47  73 105 147 195 248 308 371 450
#
# _framework density 23.671831999999998
#
# number of rings (size 3 to 8) (size 9 to 14) (size 15 to 20)
#    0.000    0.444    0.000    8.000   12.444    0.000 
#    0.000    0.000    0.000    0.000    0.000    0.000 
#    0.000    0.000    0.000    0.000    0.000    0.000 
#
# Total GULP energy -223072.346713 kJ/mol
# GULP energy per Si atom -12392.908151 kJ/mol
# Density = 2.361795 g / cm^3
# Si number density = 23.671832 Si / 1000 Ang^3
#
#
#
# Elastic Constant Matrix: (Units=GPa)
#
#
# Indices 1 2 3 4 5 6 
#
# 1 166.6125 59.1173 64.3630 -0.0005 -30.2595 0.0021
# 2 59.1173 128.6177 58.6140 -0.0066 -13.5378 0.0001
# 3 64.3630 58.6140 215.4550 -0.0024 18.2837 0.0000
# 4 -0.0005 -0.0066 -0.0024 42.4218 -0.0020 3.1430
# 5 -30.2595 -13.5378 18.2837 -0.0020 51.9061 -0.0010
# 6 0.0021 0.0001 0.0000 3.1430 -0.0010 39.4154
#
#
#
# Elastic Compliance Matrix: (Units=1/GPa)
#
#
# Indices 1 2 3 4 5 6 
#
# 1 0.008742 -0.002351 -0.002425 0.000000 0.005337 0.000000
# 2 -0.002351 0.010078 -0.002212 0.000002 0.002037 0.000000
# 3 -0.002425 -0.002212 0.006326 0.000000 -0.004219 0.000000
# 4 0.000000 0.000002 0.000000 0.023713 0.000001 -0.001891
# 5 0.005337 0.002037 -0.004219 0.000001 0.024394 0.000000
# 6 0.000000 0.000000 0.000000 -0.001891 0.000000 0.025522
#
#
# Mechanical properties :
#
#
# Convention : Reuss Voigt Hill
#
# Bulk Modulus (GPa) = 89.53138 97.20820 93.36979
# Shear Modulus (GPa) = 42.92760 48.65471 45.79115
#
# Velocity S-wave (km/s) = 4.26308 4.53855 4.40297
# Velocity P-wave (km/s) = 7.88263 8.28364 8.08562
#
# Compressibility (1/GPa) = 0.01116927
#
# Stress axis : x y z
#
# Youngs Moduli (GPa) = 114.38551 99.22259 158.08926
#
# Poissons Ratio (x) = 0.23332 0.38334
# Poissons Ratio (y) = 0.26897 0.34973
# Poissons Ratio (z) = 0.27737 0.21950
#
# Static dielectric constant tensor:
#      x y z
#    x 4.469530 -0.000040 0.200070 
#    y -0.000040 4.399000 -0.000020 
#    z 0.200070 -0.000020 5.159390 
# 
# 
# High freq. dielectric constant tensor:
#      x y z
#    x 1.954710 0.000000 0.002440 
#    y 0.000000 1.918140 0.000000 
#    z 0.002440 0.000000 1.977940 
# 
# From -- ./inp_files/179938.got.cif
#   From: 2010.06.25/outbox.cif.g09.slc.cpg/sg15_90_cif.got.tgz:179938.got - 2010.06.28 07:06:18.
