data_PCOD8154369
_publ_section_title
;
Structure prediction by ZEFSAII (Michael W. Deem and Ramdas Pophale) SiO2 
 PCOD8154369
Probable space group: C 2/C
;
_chemical_formula_sum "Si O2"
_cell_formula_units_Z 32
_cell_length_a 22.196679
_cell_length_b 5.038736
_cell_length_c 12.545656
_cell_angle_alpha 90.000000
_cell_angle_beta 60.352110
_cell_angle_gamma 90.000000
_cell_volume 1219.448942
_symmetry_space_group_name_H-M "C 2/C"
_symmetry_group_IT_number 15
_symmetry_cell_setting 'monoclinic'
loop_
_space_group_symop_operation_xyz
x,y,z
-x,y,1/2-z
-x,-y,-z
x,-y,1/2+z
1/2+x,1/2+y,z
1/2-x,1/2+y,1/2-z
1/2-x,1/2-y,-z
1/2+x,1/2-y,1/2+z
loop_
_atom_site_type_symbol
_atom_site_label
_atom_site_fract_x
_atom_site_fract_y
_atom_site_fract_z
Si Si1 0.054772 0.012198 0.057118
Si Si2 0.094306 0.875471 0.758255
Si Si3 0.123257 0.496696 0.407634
Si Si4 0.258448 0.504277 0.917259
O O1 0.072158 0.143741 0.155710
O O2 0.970786 0.007729 0.115614
O O3 0.091722 0.210862 0.942537
O O4 0.083961 0.715389 0.019527
O O5 0.112187 0.587635 0.793763
O O6 0.166176 0.037113 0.704359
O O7 0.203796 0.498972 0.368769
O O8 0.250000 0.250000 0.000000
O O9 0.250000 0.750000 0.000000
#
# Coordination Sequence:
#
# PCOD8154369 Si02
#       4
#     8   8   8   8
#     4  11  26  47  72 112 146 184 244 307 352 444
#     4  11  26  46  77 105 147 195 238 298 377 417
#     4  12  25  47  74 106 146 190 245 296 363 440
#     4  12  25  47  68 103 148 189 241 300 354 432
#
# _framework density 26.24136
#
# number of rings (size 3 to 8) (size 9 to 14) (size 15 to 20)
#    0.000    0.500    5.000    1.500    0.000   14.000 
#    0.000    0.000    0.000    0.000    0.000    0.000 
#    0.000    0.000    0.000    0.000    0.000    0.000 
#
# Total GULP energy -198390.055731 kJ/mol
# GULP energy per Si atom -12399.378483 kJ/mol
# Density = 2.618163 g / cm^3
# Si number density = 26.241360 Si / 1000 Ang^3
#
#
#
# Elastic Constant Matrix: (Units=GPa)
#
#
# Indices 1 2 3 4 5 6 
#
# 1 216.3456 27.9993 46.0084 0.0003 -32.6734 -0.0004
# 2 27.9993 83.7349 13.4524 -0.0038 -13.5138 -0.0052
# 3 46.0084 13.4524 105.9965 0.0001 -40.6682 -0.0002
# 4 0.0003 -0.0038 0.0001 23.0355 0.0001 3.9133
# 5 -32.6734 -13.5138 -40.6682 0.0001 64.8644 -0.0001
# 6 -0.0004 -0.0052 -0.0002 3.9133 -0.0001 46.6063
#
#
#
# Elastic Compliance Matrix: (Units=1/GPa)
#
#
# Indices 1 2 3 4 5 6 
#
# 1 0.005347 -0.001301 -0.001615 0.000000 0.001410 0.000000
# 2 -0.001301 0.012722 -0.000374 0.000002 0.001760 0.000001
# 3 -0.001615 -0.000374 0.012958 0.000000 0.007233 0.000000
# 4 0.000000 0.000002 0.000000 0.044039 0.000000 -0.003698
# 5 0.001410 0.001760 0.007233 0.000000 0.021028 0.000000
# 6 0.000000 0.000001 0.000000 -0.003698 0.000000 0.021767
#
#
# Mechanical properties :
#
#
# Convention : Reuss Voigt Hill
#
# Bulk Modulus (GPa) = 40.90664 64.55524 52.73094
# Shear Modulus (GPa) = 37.71017 48.14237 42.92627
#
# Velocity S-wave (km/s) = 3.79496 4.28787 4.04892
# Velocity P-wave (km/s) = 5.90125 7.01202 6.48048
#
# Compressibility (1/GPa) = 0.02444591
#
# Stress axis : x y z
#
# Youngs Moduli (GPa) = 187.02295 78.60566 77.17391
#
# Poissons Ratio (x) = 0.10226 0.12462
# Poissons Ratio (y) = 0.24331 0.02890
# Poissons Ratio (z) = 0.30201 0.02944
#
# Static dielectric constant tensor:
#      x y z
#    x 5.405670 0.000000 -0.375840 
#    y 0.000000 4.370970 -0.000040 
#    z -0.375840 -0.000040 5.774490 
# 
# 
# High freq. dielectric constant tensor:
#      x y z
#    x 2.092650 0.000000 0.004830 
#    y 0.000000 2.043450 0.000000 
#    z 0.004830 0.000000 2.067820 
# 
# From -- ./inp_files/170214.got.cif
#   From: 2010.06.25/outbox.cif.g09.slc.cpg/sg15_86_cif.got.tgz:170214.got - 2010.06.28 07:06:18.
