data_PCOD8154546
_publ_section_title
;
Structure prediction by ZEFSAII (Michael W. Deem and Ramdas Pophale) SiO2 
 PCOD8154546
Probable space group: C 2/C
;
_chemical_formula_sum "Si O2"
_cell_formula_units_Z 48
_cell_length_a 8.685984
_cell_length_b 16.704008
_cell_length_c 32.575391
_cell_angle_alpha 90.000000
_cell_angle_beta 30.630123
_cell_angle_gamma 90.000000
_cell_volume 2408.065637
_symmetry_space_group_name_H-M "C 2/C"
_symmetry_group_IT_number 15
_symmetry_cell_setting 'monoclinic'
loop_
_space_group_symop_operation_xyz
x,y,z
-x,y,1/2-z
-x,-y,-z
x,-y,1/2+z
1/2+x,1/2+y,z
1/2-x,1/2+y,1/2-z
1/2-x,1/2-y,-z
1/2+x,1/2-y,1/2+z
loop_
_atom_site_type_symbol
_atom_site_label
_atom_site_fract_x
_atom_site_fract_y
_atom_site_fract_z
Si Si1 0.708649 0.215519 0.554613
Si Si2 0.713567 0.740911 0.793895
Si Si3 0.844793 0.890335 0.327711
Si Si4 0.686222 0.820503 0.545486
Si Si5 0.844827 0.158406 0.187284
Si Si6 0.156453 0.537996 0.423650
O O1 0.750000 0.250000 0.500000
O O2 0.451517 0.152362 0.618435
O O3 0.600708 0.289494 0.606390
O O4 0.996682 0.165394 0.504334
O O5 0.536544 0.669791 0.812159
O O6 0.533696 0.789305 0.869150
O O7 0.826985 0.810081 0.737426
O O8 0.000000 0.699403 0.750000
O O9 0.000000 0.916626 0.250000
O O10 0.730192 0.966996 0.376857
O O11 0.750000 0.750000 0.500000
O O12 0.563546 0.898250 0.548959
O O13 0.500000 0.158874 0.250000
O O14 0.005023 0.072343 0.145914
O O15 0.000000 0.500000 0.500000
#
# Coordination Sequence:
#
# PCOD8154546 Si02
#       6
#     8   8   8   8   8   8
#     4  12  21  43  73 102 133 182 238 282 343 425
#     4  12  22  42  74 101 130 185 243 283 339 429
#     4  12  26  45  67 104 147 176 226 303 358 403
#     4  12  24  42  75 102 131 186 239 283 344 430
#     4  12  23  45  72 102 134 190 235 277 345 428
#     4  12  28  47  69 106 149 180 234 308 360 407
#
# _framework density 19.933012000000002
#
# number of rings (size 3 to 8) (size 9 to 14) (size 15 to 20)
#    0.000    0.000    8.333    2.000    2.333    1.333 
#    3.000    0.000    0.000    0.000    0.000    0.000 
#    0.000    0.000    0.000    0.000    0.000    0.000 
#
# Total GULP energy -297341.793945 kJ/mol
# GULP energy per Si atom -12389.241414 kJ/mol
# Density = 1.988764 g / cm^3
# Si number density = 19.933012 Si / 1000 Ang^3
#
#
#
# Elastic Constant Matrix: (Units=GPa)
#
#
# Indices 1 2 3 4 5 6 
#
# 1 143.8937 60.3462 77.7859 -0.0430 -14.1089 -0.0251
# 2 60.3462 146.5357 83.5180 -0.0820 8.2251 -0.0396
# 3 77.7859 83.5180 181.0219 -0.1400 18.9126 -0.0685
# 4 -0.0430 -0.0820 -0.1400 46.2943 0.0323 -1.2940
# 5 -14.1089 8.2251 18.9126 0.0323 59.2474 0.0259
# 6 -0.0251 -0.0396 -0.0685 -1.2940 0.0259 54.9826
#
#
#
# Elastic Compliance Matrix: (Units=1/GPa)
#
#
# Indices 1 2 3 4 5 6 
#
# 1 0.010375 -0.002331 -0.003802 -0.000009 0.004008 -0.000004
# 2 -0.002331 0.009783 -0.003426 0.000005 -0.000819 0.000002
# 3 -0.003802 -0.003426 0.009086 0.000020 -0.003330 0.000009
# 4 -0.000009 0.000005 0.000020 0.021615 -0.000021 0.000509
# 5 0.004008 -0.000819 -0.003330 -0.000021 0.019010 -0.000012
# 6 -0.000004 0.000002 0.000009 0.000509 -0.000012 0.018200
#
#
# Mechanical properties :
#
#
# Convention : Reuss Voigt Hill
#
# Bulk Modulus (GPa) = 98.74617 101.63906 100.19262
# Shear Modulus (GPa) = 45.22331 48.75827 46.99079
#
# Velocity S-wave (km/s) = 4.76832 4.95118 4.86061
# Velocity P-wave (km/s) = 8.94217 9.15350 9.04845
#
# Compressibility (1/GPa) = 0.01012697
#
# Stress axis : x y z
#
# Youngs Moduli (GPa) = 96.38440 102.21744 110.05347
#
# Poissons Ratio (x) = 0.23826 0.41837
# Poissons Ratio (y) = 0.22467 0.37708
# Poissons Ratio (z) = 0.36641 0.35023
#
# Static dielectric constant tensor:
#      x y z
#    x 4.167030 0.001080 -0.073660 
#    y 0.001080 3.567250 -0.003070 
#    z -0.073660 -0.003070 3.259990 
# 
# 
# High freq. dielectric constant tensor:
#      x y z
#    x 1.796520 -0.000010 0.000150 
#    y -0.000010 1.768090 0.000000 
#    z 0.000150 0.000000 1.810360 
# 
# From -- ./inp_files/308711.got.cif
#   From: 2010.06.25/outbox.cif.g09.slc.cpg/sg15_155_cif.got.tgz:308711.got - 2010.06.28 07:06:18.
