data_PCOD8154457
_publ_section_title
;
Structure prediction by ZEFSAII (Michael W. Deem and Ramdas Pophale) SiO2 
 PCOD8154457
Probable space group: C 2/C
;
_chemical_formula_sum "Si O2"
_cell_formula_units_Z 32
_cell_length_a 8.778987
_cell_length_b 16.407825
_cell_length_c 11.539219
_cell_angle_alpha 90.000000
_cell_angle_beta 125.929830
_cell_angle_gamma 90.000000
_cell_volume 1345.908133
_symmetry_space_group_name_H-M "C 2/C"
_symmetry_group_IT_number 15
_symmetry_cell_setting 'monoclinic'
loop_
_space_group_symop_operation_xyz
x,y,z
-x,y,1/2-z
-x,-y,-z
x,-y,1/2+z
1/2+x,1/2+y,z
1/2-x,1/2+y,1/2-z
1/2-x,1/2-y,-z
1/2+x,1/2-y,1/2+z
loop_
_atom_site_type_symbol
_atom_site_label
_atom_site_fract_x
_atom_site_fract_y
_atom_site_fract_z
Si Si1 0.291605 0.828434 0.657759
Si Si2 0.208188 0.079371 0.884505
Si Si3 0.474738 0.813299 0.374416
Si Si4 0.214059 0.104872 0.354205
O O1 0.500000 0.787832 0.750000
O O2 0.245061 0.870078 0.516405
O O3 0.133156 0.761732 0.614039
O O4 0.295287 0.897207 0.759785
O O5 0.353497 0.105762 0.849032
O O6 0.000000 0.098025 0.750000
O O7 0.235474 0.983575 0.921696
O O8 0.500000 0.800939 0.250000
O O9 0.680750 0.826129 0.523073
O O10 0.000000 0.134135 0.250000
#
# Coordination Sequence:
#
# PCOD8154457 Si02
#       4
#     8   8   8   8
#     4  12  27  49  77 108 151 191 251 300 367 443
#     4  11  27  48  77 109 148 196 246 301 371 436
#     4  12  28  47  75 109 152 191 248 303 372 428
#     4  11  28  48  75 111 147 197 245 306 363 440
#
# _framework density 23.775767999999999
#
# number of rings (size 3 to 8) (size 9 to 14) (size 15 to 20)
#    0.000    0.500    2.500    3.000   10.500    4.000 
#    0.000    0.000    0.000    0.000    0.000    0.000 
#    0.000    0.000    0.000    0.000    0.000    0.000 
#
# Total GULP energy -198444.016106 kJ/mol
# GULP energy per Si atom -12402.751007 kJ/mol
# Density = 2.372165 g / cm^3
# Si number density = 23.775768 Si / 1000 Ang^3
#
#
#
# Elastic Constant Matrix: (Units=GPa)
#
#
# Indices 1 2 3 4 5 6 
#
# 1 147.2666 69.0760 82.7392 0.0000 7.2624 0.0000
# 2 69.0760 130.7367 92.1395 0.0000 6.4454 0.0000
# 3 82.7392 92.1395 168.5738 0.0000 12.0540 0.0000
# 4 0.0000 0.0000 0.0000 26.2944 0.0000 18.7635
# 5 7.2624 6.4454 12.0540 0.0000 48.7602 0.0000
# 6 0.0000 0.0000 0.0000 18.7635 0.0000 80.4844
#
#
#
# Elastic Compliance Matrix: (Units=1/GPa)
#
#
# Indices 1 2 3 4 5 6 
#
# 1 0.010046 -0.002982 -0.003280 0.000000 -0.000291 0.000000
# 2 -0.002982 0.013327 -0.005829 0.000000 0.000124 0.000000
# 3 -0.003280 -0.005829 0.010830 0.000000 -0.001418 0.000000
# 4 0.000000 0.000000 0.000000 0.045620 0.000000 -0.010636
# 5 -0.000291 0.000124 -0.001418 0.000000 0.020886 0.000000
# 6 0.000000 0.000000 0.000000 -0.010636 0.000000 0.014904
#
#
# Mechanical properties :
#
#
# Convention : Reuss Voigt Hill
#
# Bulk Modulus (GPa) = 99.80295 103.83184 101.81739
# Shear Modulus (GPa) = 34.93153 44.61596 39.77375
#
# Velocity S-wave (km/s) = 3.83718 4.33659 4.09451
# Velocity P-wave (km/s) = 7.85492 8.29704 8.07901
#
# Compressibility (1/GPa) = 0.01001974
#
# Stress axis : x y z
#
# Youngs Moduli (GPa) = 99.53796 75.03650 92.33742
#
# Poissons Ratio (x) = 0.22375 0.30289
# Poissons Ratio (y) = 0.29681 0.53828
# Poissons Ratio (z) = 0.32651 0.43742
#
# Static dielectric constant tensor:
#      x y z
#    x 4.907850 0.000000 0.161560 
#    y 0.000000 4.289780 0.000000 
#    z 0.161560 0.000000 4.432700 
# 
# 
# High freq. dielectric constant tensor:
#      x y z
#    x 1.962640 0.000000 0.011660 
#    y 0.000000 1.945600 0.000000 
#    z 0.011660 0.000000 1.953130 
# 
# From -- ./inp_files/78031.got.cif
#   From: 2010.06.25/outbox.cif.g09.slc.cpg/sg15_40_cif.got.tgz:78031.got - 2010.06.28 07:06:18.
