data_PCOD8154727
_publ_section_title
;
Structure prediction by ZEFSAII (Michael W. Deem and Ramdas Pophale) SiO2 
 PCOD8154727
Probable space group: C 2/C
;
_chemical_formula_sum "Si O2"
_cell_formula_units_Z 36
_cell_length_a 13.301796
_cell_length_b 6.648567
_cell_length_c 23.027274
_cell_angle_alpha 90.000000
_cell_angle_beta 130.354761
_cell_angle_gamma 90.000000
_cell_volume 1551.901733
_symmetry_space_group_name_H-M "C 2/C"
_symmetry_group_IT_number 15
_symmetry_cell_setting 'monoclinic'
loop_
_space_group_symop_operation_xyz
x,y,z
-x,y,1/2-z
-x,-y,-z
x,-y,1/2+z
1/2+x,1/2+y,z
1/2-x,1/2+y,1/2-z
1/2-x,1/2-y,-z
1/2+x,1/2-y,1/2+z
loop_
_atom_site_type_symbol
_atom_site_label
_atom_site_fract_x
_atom_site_fract_y
_atom_site_fract_z
Si Si1 0.587260 0.678498 0.504289
Si Si2 0.290094 0.140565 0.072110
Si Si3 0.000000 0.184180 0.250000
Si Si4 0.036761 0.590998 0.649408
Si Si5 0.728280 0.008731 0.629379
O O1 0.500000 0.500000 0.500000
O O2 0.730816 0.583370 0.547709
O O3 0.525701 0.755509 0.421065
O O4 0.617714 0.869910 0.556775
O O5 0.230209 0.267053 0.103160
O O6 0.447348 0.105555 0.129769
O O7 0.250000 0.250000 0.000000
O O8 0.062972 0.310321 0.221384
O O9 0.121047 0.057979 0.320535
O O10 0.179018 0.522317 0.677617
#
# Coordination Sequence:
#
# PCOD8154727 Si02
#       5
#     8   8   4   8   8
#     4  12  23  46  79 111 142 186 249 314 362 424
#     4  12  23  43  78 109 145 185 244 310 368 426
#     4  12  30  48  70 108 154 198 240 288 368 464
#     4  12  26  48  76 108 149 192 247 304 372 432
#     4  12  27  49  74 109 146 197 246 301 369 439
#
# _framework density 23.197344000000001
#
# number of rings (size 3 to 8) (size 9 to 14) (size 15 to 20)
#    0.000    0.000    6.667    4.000    0.000    6.222 
#    0.000    0.000    0.000    0.000    0.000    0.000 
#    0.000    0.000    0.000    0.000    0.000    0.000 
#
# Total GULP energy -223128.826541 kJ/mol
# GULP energy per Si atom -12396.045919 kJ/mol
# Density = 2.314455 g / cm^3
# Si number density = 23.197344 Si / 1000 Ang^3
#
#
#
# Elastic Constant Matrix: (Units=GPa)
#
#
# Indices 1 2 3 4 5 6 
#
# 1 135.4461 33.5867 14.3260 0.0000 -11.7983 0.0000
# 2 33.5867 95.3091 20.3448 0.0000 -2.9238 0.0000
# 3 14.3260 20.3448 70.1940 0.0000 -11.1796 0.0000
# 4 0.0000 0.0000 0.0000 22.6792 0.0000 1.1548
# 5 -11.7983 -2.9238 -11.1796 0.0000 45.4950 0.0000
# 6 0.0000 0.0000 0.0000 1.1548 0.0000 52.0481
#
#
#
# Elastic Compliance Matrix: (Units=1/GPa)
#
#
# Indices 1 2 3 4 5 6 
#
# 1 0.008284 -0.002734 -0.000608 0.000000 0.001823 0.000000
# 2 -0.002734 0.012086 -0.003054 0.000000 -0.000683 0.000000
# 3 -0.000608 -0.003054 0.015818 0.000000 0.003533 0.000000
# 4 0.000000 0.000000 0.000000 0.044143 0.000000 -0.000979
# 5 0.001823 -0.000683 0.003533 0.000000 0.023278 0.000000
# 6 0.000000 0.000000 0.000000 -0.000979 0.000000 0.019235
#
#
# Mechanical properties :
#
#
# Convention : Reuss Voigt Hill
#
# Bulk Modulus (GPa) = 42.73942 48.60713 45.67328
# Shear Modulus (GPa) = 34.85919 39.55724 37.20822
#
# Velocity S-wave (km/s) = 3.88070 4.13395 4.00932
# Velocity P-wave (km/s) = 6.20839 6.61704 6.41597
#
# Compressibility (1/GPa) = 0.02339760
#
# Stress axis : x y z
#
# Youngs Moduli (GPa) = 120.71501 82.73748 63.21845
#
# Poissons Ratio (x) = 0.22617 0.03844
# Poissons Ratio (y) = 0.32998 0.19306
# Poissons Ratio (z) = 0.07340 0.25267
#
# Static dielectric constant tensor:
#      x y z
#    x 4.400080 0.000000 0.142230 
#    y 0.000000 11.060520 0.000000 
#    z 0.142230 0.000000 3.876800 
# 
# 
# High freq. dielectric constant tensor:
#      x y z
#    x 1.945220 0.000000 0.003030 
#    y 0.000000 1.921370 0.000000 
#    z 0.003030 0.000000 1.899070 
# 
# From -- ./inp_files/241529.got.cif
#   From: 2010.06.25/outbox.cif.g09.slc.cpg/sg15_121_cif.got.tgz:241529.got - 2010.06.28 07:06:18.
