data_PCOD8154319
_publ_section_title
;
Structure prediction by ZEFSAII (Michael W. Deem and Ramdas Pophale) SiO2 
 PCOD8154319
Probable space group: C 2/C
;
_chemical_formula_sum "Si O2"
_cell_formula_units_Z 44
_cell_length_a 13.257075
_cell_length_b 5.122725
_cell_length_c 27.959255
_cell_angle_alpha 90.000000
_cell_angle_beta 106.766628
_cell_angle_gamma 90.000000
_cell_volume 1818.057214
_symmetry_space_group_name_H-M "C 2/C"
_symmetry_group_IT_number 15
_symmetry_cell_setting 'monoclinic'
loop_
_space_group_symop_operation_xyz
x,y,z
-x,y,1/2-z
-x,-y,-z
x,-y,1/2+z
1/2+x,1/2+y,z
1/2-x,1/2+y,1/2-z
1/2-x,1/2-y,-z
1/2+x,1/2-y,1/2+z
loop_
_atom_site_type_symbol
_atom_site_label
_atom_site_fract_x
_atom_site_fract_y
_atom_site_fract_z
Si Si1 0.500000 0.626654 0.250000
Si Si2 0.775564 0.036471 0.725104
Si Si3 0.850320 0.474931 0.386220
Si Si4 0.994573 0.750730 0.032186
Si Si5 0.461814 0.232519 0.643893
Si Si6 0.347891 0.737531 0.596391
O O1 0.601013 0.441464 0.268775
O O2 0.491928 0.808340 0.296297
O O3 0.759946 0.823503 0.764458
O O4 0.715865 0.938952 0.669290
O O5 0.776554 0.323282 0.414576
O O6 0.904699 0.729643 0.417912
O O7 0.946366 0.288573 0.383083
O O8 0.883794 0.760657 0.045909
O O9 0.000000 0.500000 0.000000
O O10 0.000000 0.000000 0.000000
O O11 0.413828 0.519149 0.633457
O O12 0.371043 0.018119 0.623073
#
# Coordination Sequence:
#
# PCOD8154319 Si02
#       6
#     4   8   8   8   8   8
#     4  12  26  44  72 102 152 188 242 282 346 410
#     4  12  29  44  70 107 146 192 237 282 345 425
#     4  11  26  47  75 103 145 189 237 291 359 423
#     4  11  26  48  73 105 139 178 240 305 358 426
#     4  11  26  42  68 106 144 186 235 290 332 424
#     4  11  26  46  72 103 140 185 231 292 366 412
#
# _framework density 24.201656
#
# number of rings (size 3 to 8) (size 9 to 14) (size 15 to 20)
#    0.000    0.727    3.636    2.182    7.636    8.727 
#    0.000    0.000    0.000    0.000    0.000    0.000 
#    0.000    0.000    0.000    0.000    0.000    0.000 
#
# Total GULP energy -272816.735288 kJ/mol
# GULP energy per Si atom -12400.760695 kJ/mol
# Density = 2.414657 g / cm^3
# Si number density = 24.201656 Si / 1000 Ang^3
#
#
#
# Elastic Constant Matrix: (Units=GPa)
#
#
# Indices 1 2 3 4 5 6 
#
# 1 174.4560 25.9095 21.0475 0.0000 -12.0068 0.0000
# 2 25.9095 98.0115 25.5156 0.0000 -13.5031 0.0000
# 3 21.0475 25.5156 84.9461 0.0000 -19.2770 0.0000
# 4 0.0000 0.0000 0.0000 28.8476 0.0000 3.3594
# 5 -12.0068 -13.5031 -19.2770 0.0000 49.1928 0.0000
# 6 0.0000 0.0000 0.0000 3.3594 0.0000 24.8043
#
#
#
# Elastic Compliance Matrix: (Units=1/GPa)
#
#
# Indices 1 2 3 4 5 6 
#
# 1 0.006087 -0.001254 -0.000958 0.000000 0.000766 0.000000
# 2 -0.001254 0.011492 -0.002738 0.000000 0.001775 0.000000
# 3 -0.000958 -0.002738 0.013839 0.000000 0.004438 0.000000
# 4 0.000000 0.000000 0.000000 0.035220 0.000000 -0.004770
# 5 0.000766 0.001775 0.004438 0.000000 0.022741 0.000000
# 6 0.000000 0.000000 0.000000 -0.004770 0.000000 0.040962
#
#
# Mechanical properties :
#
#
# Convention : Reuss Voigt Hill
#
# Bulk Modulus (GPa) = 46.47364 55.81765 51.14564
# Shear Modulus (GPa) = 33.91820 39.56500 36.74160
#
# Velocity S-wave (km/s) = 3.74770 4.04766 3.90056
# Velocity P-wave (km/s) = 6.16209 6.70510 6.43932
#
# Compressibility (1/GPa) = 0.02151757
#
# Stress axis : x y z
#
# Youngs Moduli (GPa) = 164.29479 87.01805 72.25973
#
# Poissons Ratio (x) = 0.10914 0.06919
# Poissons Ratio (y) = 0.20606 0.19786
# Poissons Ratio (z) = 0.15732 0.23828
#
# Static dielectric constant tensor:
#      x y z
#    x 4.831770 0.000000 -0.217160 
#    y 0.000000 3.900700 0.000000 
#    z -0.217160 0.000000 4.615920 
# 
# 
# High freq. dielectric constant tensor:
#      x y z
#    x 1.979980 0.000000 -0.012880 
#    y 0.000000 1.944680 0.000000 
#    z -0.012880 0.000000 1.964920 
# 
# From -- ./inp_files/312181.got.cif
#   From: 2010.06.25/outbox.cif.g09.slc.cpg/sg15_157_cif.got.tgz:312181.got - 2010.06.28 07:06:18.
