data_PCOD8154734
_publ_section_title
;
Structure prediction by ZEFSAII (Michael W. Deem and Ramdas Pophale) SiO2 
 PCOD8154734
Probable space group: C 2/C
;
_chemical_formula_sum "Si O2"
_cell_formula_units_Z 60
_cell_length_a 11.397431
_cell_length_b 26.348145
_cell_length_c 9.310430
_cell_angle_alpha 90.000000
_cell_angle_beta 92.821420
_cell_angle_gamma 90.000000
_cell_volume 2792.543756
_symmetry_space_group_name_H-M "C 2/C"
_symmetry_group_IT_number 15
_symmetry_cell_setting 'monoclinic'
loop_
_space_group_symop_operation_xyz
x,y,z
-x,y,1/2-z
-x,-y,-z
x,-y,1/2+z
1/2+x,1/2+y,z
1/2-x,1/2+y,1/2-z
1/2-x,1/2-y,-z
1/2+x,1/2-y,1/2+z
loop_
_atom_site_type_symbol
_atom_site_label
_atom_site_fract_x
_atom_site_fract_y
_atom_site_fract_z
Si Si1 0.055168 0.184146 0.905250
Si Si2 0.596777 0.628421 0.377951
Si Si3 0.550367 0.200531 0.486071
Si Si4 0.000000 0.370559 0.750000
Si Si5 0.364002 0.961595 0.214320
Si Si6 0.192781 0.443498 0.616125
Si Si7 0.719648 0.807047 0.506258
Si Si8 0.786004 0.353127 0.297582
O O1 0.073629 0.239148 0.981494
O O2 0.179610 0.156042 0.901396
O O3 0.000000 0.197483 0.750000
O O4 0.971673 0.144581 0.981883
O O5 0.500000 0.626834 0.250000
O O6 0.672726 0.576961 0.389682
O O7 0.698579 0.670830 0.361001
O O8 0.587495 0.165685 0.352045
O O9 0.414819 0.185494 0.472582
O O10 0.605457 0.180384 0.637571
O O11 0.907742 0.404873 0.834467
O O12 0.500000 0.969475 0.250000
O O13 0.319389 0.911877 0.294914
O O14 0.295263 0.009136 0.276728
O O15 0.344215 0.960735 0.043985
O O16 0.750000 0.750000 0.500000
O O17 0.753338 0.835399 0.361557
#
# Coordination Sequence:
#
# PCOD8154734 Si02
#       8
#     8   8   8   4   8   8   8   8
#     4  12  24  47  66 103 152 200 238 284 351 437
#     4  12  28  48  71 101 146 196 246 296 364 430
#     4  12  25  39  70 108 146 191 234 299 359 430
#     4  12  24  42  70 106 150 176 242 292 364 424
#     4  12  25  48  78 112 142 183 239 310 385 420
#     4  12  27  48  74 109 141 186 239 309 370 437
#     4  12  23  44  70  99 148 190 245 292 362 428
#     4  12  26  43  72 107 146 190 241 296 366 436
#
# _framework density 21.485786000000001
#
# number of rings (size 3 to 8) (size 9 to 14) (size 15 to 20)
#    0.000    0.000    6.667    2.800    5.600    0.000 
#    0.000    3.333    0.000    0.000    0.000    0.000 
#    0.000    0.000    0.000    0.000    0.000    0.000 
#
# Total GULP energy -371821.196449 kJ/mol
# GULP energy per Si atom -12394.039882 kJ/mol
# Density = 2.143688 g / cm^3
# Si number density = 21.485786 Si / 1000 Ang^3
#
#
#
# Elastic Constant Matrix: (Units=GPa)
#
#
# Indices 1 2 3 4 5 6 
#
# 1 61.5915 50.7746 22.9756 0.0000 6.5288 0.0000
# 2 50.7746 155.2272 53.6619 0.0000 -11.9855 0.0000
# 3 22.9756 53.6619 95.5040 0.0000 9.1746 0.0000
# 4 0.0000 0.0000 0.0000 30.4908 0.0000 -10.6066
# 5 6.5288 -11.9855 9.1746 0.0000 44.0000 0.0000
# 6 0.0000 0.0000 0.0000 -10.6066 0.0000 28.7476
#
#
#
# Elastic Compliance Matrix: (Units=1/GPa)
#
#
# Indices 1 2 3 4 5 6 
#
# 1 0.023595 -0.007897 -0.000710 0.000000 -0.005504 0.000000
# 2 -0.007897 0.011099 -0.004836 0.000000 0.005204 0.000000
# 3 -0.000710 -0.004836 0.013751 0.000000 -0.004079 0.000000
# 4 0.000000 0.000000 0.000000 0.037626 0.000000 0.013882
# 5 -0.005504 0.005204 -0.004079 0.000000 0.025812 0.000000
# 6 0.000000 0.000000 0.000000 0.013882 0.000000 0.039908
#
#
# Mechanical properties :
#
#
# Convention : Reuss Voigt Hill
#
# Bulk Modulus (GPa) = 46.38836 63.01631 54.70234
# Shear Modulus (GPa) = 26.90146 32.97505 29.93826
#
# Velocity S-wave (km/s) = 3.54228 3.92182 3.73687
# Velocity P-wave (km/s) = 6.19415 7.06403 6.64334
#
# Compressibility (1/GPa) = 0.02155713
#
# Stress axis : x y z
#
# Youngs Moduli (GPa) = 42.38237 90.09751 72.72222
#
# Poissons Ratio (x) = 0.71153 0.05164
# Poissons Ratio (y) = 0.33471 0.35171
# Poissons Ratio (z) = 0.03010 0.43575
#
# Static dielectric constant tensor:
#      x y z
#    x 4.090710 0.000000 -0.072080 
#    y 0.000000 4.022590 0.000000 
#    z -0.072080 0.000000 4.098130 
# 
# 
# High freq. dielectric constant tensor:
#      x y z
#    x 1.855300 0.000000 0.000560 
#    y 0.000000 1.847580 0.000000 
#    z 0.000560 0.000000 1.847520 
# 
# From -- ./inp_files/34277.got.cif
#   From: 2010.06.25/outbox.cif.g09.slc.cpg/sg15_18_cif.got.tgz:34277.got - 2010.06.28 07:06:18.
