data_PCOD8154810
_publ_section_title
;
Structure prediction by ZEFSAII (Michael W. Deem and Ramdas Pophale) SiO2 
 PCOD8154810
Probable space group: C 2/C
;
_chemical_formula_sum "Si O2"
_cell_formula_units_Z 56
_cell_length_a 17.514925
_cell_length_b 16.393044
_cell_length_c 9.161440
_cell_angle_alpha 90.000000
_cell_angle_beta 106.837948
_cell_angle_gamma 90.000000
_cell_volume 2517.686114
_symmetry_space_group_name_H-M "C 2/C"
_symmetry_group_IT_number 15
_symmetry_cell_setting 'monoclinic'
loop_
_space_group_symop_operation_xyz
x,y,z
-x,y,1/2-z
-x,-y,-z
x,-y,1/2+z
1/2+x,1/2+y,z
1/2-x,1/2+y,1/2-z
1/2-x,1/2-y,-z
1/2+x,1/2-y,1/2+z
loop_
_atom_site_type_symbol
_atom_site_label
_atom_site_fract_x
_atom_site_fract_y
_atom_site_fract_z
Si Si1 0.557751 0.499170 0.665126
Si Si2 0.193556 0.407690 0.760037
Si Si3 0.318138 0.080454 0.900585
Si Si4 0.847673 0.156290 0.194139
Si Si5 0.172177 0.136866 0.657535
Si Si6 0.560524 0.779039 0.653861
Si Si7 0.445870 0.809169 0.345948
O O1 0.500000 0.542385 0.750000
O O2 0.500000 0.500000 0.500000
O O3 0.583893 0.409898 0.734704
O O4 0.637799 0.547377 0.671834
O O5 0.189225 0.491066 0.669223
O O6 0.271182 0.356877 0.754626
O O7 0.114304 0.359490 0.671890
O O8 0.198771 0.423245 0.936378
O O9 0.257293 0.140632 0.783415
O O10 0.404739 0.118498 0.915187
O O11 0.882625 0.245296 0.245958
O O12 0.819752 0.152703 0.010318
O O13 0.116982 0.201726 0.708987
O O14 0.500000 0.790158 0.750000
O O15 0.508650 0.761769 0.481860
O O16 0.500000 0.850082 0.250000
#
# Coordination Sequence:
#
# PCOD8154810 Si02
#       7
#     8   8   8   8   8   8   8
#     4  12  24  41  67 104 146 188 231 292 355 424
#     4  12  29  49  75 106 147 193 248 296 363 438
#     4  12  29  49  75 107 145 196 244 298 365 433
#     4  12  26  47  71 108 148 189 243 290 363 441
#     4  12  26  46  73 106 147 192 238 295 365 433
#     4  12  27  50  74 108 146 189 246 308 361 425
#     4  12  27  49  77 107 145 191 245 305 362 426
#
# _framework density 22.242646000000001
#
# number of rings (size 3 to 8) (size 9 to 14) (size 15 to 20)
#    0.000    0.000    5.714    3.429    8.000    3.429 
#    0.000    0.000    0.000    0.000    0.000    0.000 
#    0.000    0.000    0.000    0.000    0.000    0.000 
#
# Total GULP energy -347279.754954 kJ/mol
# GULP energy per Si atom -12402.848391 kJ/mol
# Density = 2.219202 g / cm^3
# Si number density = 22.242646 Si / 1000 Ang^3
#
#
#
# Elastic Constant Matrix: (Units=GPa)
#
#
# Indices 1 2 3 4 5 6 
#
# 1 141.5302 44.5323 45.6147 0.0000 -23.5034 0.0000
# 2 44.5323 63.8503 19.5768 0.0000 -0.1547 0.0000
# 3 45.6147 19.5768 122.5369 0.0000 -15.3075 0.0000
# 4 0.0000 0.0000 0.0000 29.9914 0.0000 -0.9683
# 5 -23.5034 -0.1547 -15.3075 0.0000 42.8111 0.0000
# 6 0.0000 0.0000 0.0000 -0.9683 0.0000 53.1282
#
#
#
# Elastic Compliance Matrix: (Units=1/GPa)
#
#
# Indices 1 2 3 4 5 6 
#
# 1 0.010792 -0.006811 -0.002295 0.000000 0.005080 0.000000
# 2 -0.006811 0.020802 -0.001304 0.000000 -0.004130 0.000000
# 3 -0.002295 -0.001304 0.009489 0.000000 0.002128 0.000000
# 4 0.000000 0.000000 0.000000 0.033363 0.000000 0.000608
# 5 0.005080 -0.004130 0.002128 0.000000 0.026893 0.000000
# 6 0.000000 0.000000 0.000000 0.000608 0.000000 0.018833
#
#
# Mechanical properties :
#
#
# Convention : Reuss Voigt Hill
#
# Bulk Modulus (GPa) = 49.34894 60.81834 55.08364
# Shear Modulus (GPa) = 33.84205 39.73238 36.78722
#
# Velocity S-wave (km/s) = 3.90486 4.23107 4.07123
# Velocity P-wave (km/s) = 6.52422 7.16043 6.84971
#
# Compressibility (1/GPa) = 0.02026386
#
# Stress axis : x y z
#
# Youngs Moduli (GPa) = 92.66347 48.07313 105.38318
#
# Poissons Ratio (x) = 0.32742 0.24181
# Poissons Ratio (y) = 0.63112 0.13741
# Poissons Ratio (z) = 0.21262 0.06268
#
# Static dielectric constant tensor:
#      x y z
#    x 4.276150 0.000000 0.862040 
#    y 0.000000 3.917940 0.000000 
#    z 0.862040 0.000000 11.932300 
# 
# 
# High freq. dielectric constant tensor:
#      x y z
#    x 1.900510 0.000000 -0.002900 
#    y 0.000000 1.871250 0.000000 
#    z -0.002900 0.000000 1.888680 
# 
# From -- ./inp_files/49171.got.cif
#   From: 2010.06.25/outbox.cif.g09.slc.cpg/sg15_25_cif.got.tgz:49171.got - 2010.06.28 07:06:18.
