data_PCOD8154656
_publ_section_title
;
Structure prediction by ZEFSAII (Michael W. Deem and Ramdas Pophale) SiO2 
 PCOD8154656
Probable space group: C 2/C
;
_chemical_formula_sum "Si O2"
_cell_formula_units_Z 48
_cell_length_a 16.360527
_cell_length_b 15.441277
_cell_length_c 16.968109
_cell_angle_alpha 90.000000
_cell_angle_beta 149.570966
_cell_angle_gamma 90.000000
_cell_volume 2171.042537
_symmetry_space_group_name_H-M "C 2/C"
_symmetry_group_IT_number 15
_symmetry_cell_setting 'monoclinic'
loop_
_space_group_symop_operation_xyz
x,y,z
-x,y,1/2-z
-x,-y,-z
x,-y,1/2+z
1/2+x,1/2+y,z
1/2-x,1/2+y,1/2-z
1/2-x,1/2-y,-z
1/2+x,1/2-y,1/2+z
loop_
_atom_site_type_symbol
_atom_site_label
_atom_site_fract_x
_atom_site_fract_y
_atom_site_fract_z
Si Si1 0.307529 0.797595 0.732477
Si Si2 0.393241 0.565510 0.362753
Si Si3 0.355903 0.195172 0.024924
Si Si4 0.494194 0.152270 0.653835
Si Si5 0.349681 0.709759 0.928802
Si Si6 0.868486 0.506586 0.962394
O O1 0.246947 0.895162 0.698021
O O2 0.165286 0.742736 0.576417
O O3 0.379270 0.756319 0.870958
O O4 0.456490 0.799512 0.794194
O O5 0.500000 0.500000 0.500000
O O6 0.509634 0.642517 0.431387
O O7 0.307532 0.520284 0.217345
O O8 0.250000 0.250000 0.000000
O O9 0.327568 0.094814 0.976757
O O10 0.500000 0.168906 0.750000
O O11 0.363690 0.217760 0.507748
O O12 0.676591 0.164642 0.775465
O O13 0.432474 0.056666 0.583245
O O14 0.000000 0.500000 0.000000
#
# Coordination Sequence:
#
# PCOD8154656 Si02
#       6
#     8   8   8   8   8   8
#     4  12  22  45  74 101 140 201 253 306 381 468
#     4  12  24  41  75 108 137 188 265 319 362 444
#     4  12  27  45  70 105 153 196 245 319 396 454
#     4  12  25  43  70 106 145 191 240 324 397 454
#     4  12  22  45  71 104 142 191 257 314 384 465
#     4  12  24  48  73 107 143 197 262 313 368 475
#
# _framework density 22.109195
#
# number of rings (size 3 to 8) (size 9 to 14) (size 15 to 20)
#    0.000    0.000    6.667    4.000    0.000    1.333 
#    0.000    0.000    0.000    0.000    0.000    0.000 
#    0.000    0.000    0.000    0.000    0.000    0.000 
#
# Total GULP energy -297316.065062 kJ/mol
# GULP energy per Si atom -12388.169378 kJ/mol
# Density = 2.205887 g / cm^3
# Si number density = 22.109195 Si / 1000 Ang^3
#
#
#
# Elastic Constant Matrix: (Units=GPa)
#
#
# Indices 1 2 3 4 5 6 
#
# 1 88.1535 50.6676 34.8742 0.0044 7.1323 0.0005
# 2 50.6676 153.4229 49.8459 0.0025 3.7653 0.0002
# 3 34.8742 49.8459 124.5545 0.0094 12.7428 0.0022
# 4 0.0044 0.0025 0.0094 57.1411 0.0034 -2.3976
# 5 7.1323 3.7653 12.7428 0.0034 37.8485 -0.0002
# 6 0.0005 0.0002 0.0022 -2.3976 -0.0002 36.6918
#
#
#
# Elastic Compliance Matrix: (Units=1/GPa)
#
#
# Indices 1 2 3 4 5 6 
#
# 1 0.014734 -0.004068 -0.002335 0.000000 -0.001586 0.000000
# 2 -0.004068 0.008618 -0.002383 0.000000 0.000711 0.000000
# 3 -0.002335 -0.002383 0.009908 -0.000001 -0.002659 -0.000001
# 4 0.000000 0.000000 -0.000001 0.017549 -0.000001 0.001147
# 5 -0.001586 0.000711 -0.002659 -0.000001 0.027544 0.000000
# 6 0.000000 0.000000 -0.000001 0.001147 0.000000 0.027329
#
#
# Mechanical properties :
#
#
# Convention : Reuss Voigt Hill
#
# Bulk Modulus (GPa) = 63.74230 70.76737 67.25484
# Shear Modulus (GPa) = 38.91538 41.71915 40.31726
#
# Velocity S-wave (km/s) = 4.19996 4.34863 4.27494
# Velocity P-wave (km/s) = 7.23967 7.56913 7.40623
#
# Compressibility (1/GPa) = 0.01568817
#
# Stress axis : x y z
#
# Youngs Moduli (GPa) = 67.86886 116.03431 100.92920
#
# Poissons Ratio (x) = 0.47207 0.23568
# Poissons Ratio (y) = 0.27612 0.24047
# Poissons Ratio (z) = 0.15848 0.27646
#
# Static dielectric constant tensor:
#      x y z
#    x 3.811420 0.000000 0.191210 
#    y 0.000000 4.311030 0.000030 
#    z 0.191210 0.000030 4.670070 
# 
# 
# High freq. dielectric constant tensor:
#      x y z
#    x 1.844660 0.000000 0.004350 
#    y 0.000000 1.879930 0.000000 
#    z 0.004350 0.000000 1.906000 
# 
# From -- ./inp_files/211453.got.cif
#   From: 2010.06.25/outbox.cif.g09.slc.cpg/sg15_106_cif.got.tgz:211453.got - 2010.06.28 07:06:18.
