data_PCOD8154212
_publ_section_title
;
Structure prediction by ZEFSAII (Michael W. Deem and Ramdas Pophale) SiO2 
 PCOD8154212
Probable space group: C 2/C
;
_chemical_formula_sum "Si O2"
_cell_formula_units_Z 32
_cell_length_a 11.790698
_cell_length_b 19.572094
_cell_length_c 5.026965
_cell_angle_alpha 90.000000
_cell_angle_beta 100.847227
_cell_angle_gamma 90.000000
_cell_volume 1139.338406
_symmetry_space_group_name_H-M "C 2/C"
_symmetry_group_IT_number 15
_symmetry_cell_setting 'monoclinic'
loop_
_space_group_symop_operation_xyz
x,y,z
-x,y,1/2-z
-x,-y,-z
x,-y,1/2+z
1/2+x,1/2+y,z
1/2-x,1/2+y,1/2-z
1/2-x,1/2-y,-z
1/2+x,1/2-y,1/2+z
loop_
_atom_site_type_symbol
_atom_site_label
_atom_site_fract_x
_atom_site_fract_y
_atom_site_fract_z
Si Si1 0.320959 0.202492 0.223855
Si Si2 0.426572 0.921921 0.479127
Si Si3 0.388652 0.331524 0.529713
Si Si4 0.827542 0.959618 0.201091
O O1 0.400116 0.253320 0.435352
O O2 0.230967 0.158461 0.360794
O O3 0.250000 0.250000 0.000000
O O4 0.400262 0.151336 0.097512
O O5 0.500000 0.905558 0.250000
O O6 0.311442 0.961902 0.353673
O O7 0.500000 0.962662 0.750000
O O8 0.500000 0.349917 0.750000
O O9 0.378719 0.384210 0.277272
O O10 0.873317 0.014094 0.438585
#
# Coordination Sequence:
#
# PCOD8154212 Si02
#       4
#     8   8   8   8
#     4  11  25  46  76 113 158 191 245 321 383 462
#     4  12  27  47  80 115 153 199 253 316 393 457
#     4  11  27  48  77 114 154 204 253 311 389 455
#     4  12  27  51  75 107 155 204 264 319 363 446
#
# _framework density 28.086475
#
# number of rings (size 3 to 8) (size 9 to 14) (size 15 to 20)
#    0.000    0.500    2.500    4.500    7.000    4.000 
#    0.000    0.000    0.000    0.000    0.000    0.000 
#    0.000    0.000    0.000    0.000    0.000    0.000 
#
# Total GULP energy -198490.962900 kJ/mol
# GULP energy per Si atom -12405.685181 kJ/mol
# Density = 2.802255 g / cm^3
# Si number density = 28.086475 Si / 1000 Ang^3
#
#
#
# Elastic Constant Matrix: (Units=GPa)
#
#
# Indices 1 2 3 4 5 6 
#
# 1 92.6239 38.5544 36.6624 0.0000 12.9780 0.0000
# 2 38.5544 117.1492 25.0605 0.0000 11.9519 0.0000
# 3 36.6624 25.0605 156.4075 0.0000 10.7026 0.0000
# 4 0.0000 0.0000 0.0000 27.7346 0.0000 41.8442
# 5 12.9780 11.9519 10.7026 0.0000 47.5147 0.0000
# 6 0.0000 0.0000 0.0000 41.8442 0.0000 -17.2756
#
#
#
# Elastic Compliance Matrix: (Units=1/GPa)
#
#
# Indices 1 2 3 4 5 6 
#
# 1 0.013632 -0.003736 -0.002444 0.000000 -0.002233 0.000000
# 2 -0.003736 0.010041 -0.000640 0.000000 -0.001361 0.000000
# 3 -0.002444 -0.000640 0.007122 0.000000 -0.000776 0.000000
# 4 0.000000 0.000000 0.000000 0.007747 0.000000 0.018764
# 5 -0.002233 -0.001361 -0.000776 0.000000 0.022173 0.000000
# 6 0.000000 0.000000 0.000000 0.018764 0.000000 -0.012437
#
#
# Mechanical properties :
#
#
# Convention : Reuss Voigt Hill
#
# Bulk Modulus (GPa) = 58.28961 62.97057 60.63009
# Shear Modulus (GPa) = 73.92522 29.32162 51.62342
#
# Velocity S-wave (km/s) = 5.13592 3.23457 4.29186
# Velocity P-wave (km/s) = 7.48124 6.03480 6.79661
#
# Compressibility (1/GPa) = 0.01715572
#
# Stress axis : x y z
#
# Youngs Moduli (GPa) = 73.35937 99.58834 140.40888
#
# Poissons Ratio (x) = 0.37202 0.34315
# Poissons Ratio (y) = 0.27404 0.08988
# Poissons Ratio (z) = 0.17929 0.06375
#
# Static dielectric constant tensor:
#      x y z
#    x 3.675980 0.000000 -0.033470 
#    y 0.000000 5.746560 0.000000 
#    z -0.033470 0.000000 5.607800 
# 
# 
# High freq. dielectric constant tensor:
#      x y z
#    x 2.136670 0.000000 0.009500 
#    y 0.000000 2.150050 0.000000 
#    z 0.009500 0.000000 2.153920 
# 
# From -- ./inp_files/4120.got.cif
#   From: 2010.06.25/outbox.cif.g09.slc.cpg/sg15_3_cif.got.tgz:4120.got - 2010.06.28 07:06:18.
