data_PCOD8154201
_publ_section_title
;
Structure prediction by ZEFSAII (Michael W. Deem and Ramdas Pophale) SiO2 
 PCOD8154201
Probable space group: C 2/C
;
_chemical_formula_sum "Si O2"
_cell_formula_units_Z 40
_cell_length_a 17.595326
_cell_length_b 20.036942
_cell_length_c 13.084390
_cell_angle_alpha 90.000000
_cell_angle_beta 22.809891
_cell_angle_gamma 90.000000
_cell_volume 1788.338490
_symmetry_space_group_name_H-M "C 2/C"
_symmetry_group_IT_number 15
_symmetry_cell_setting 'monoclinic'
loop_
_space_group_symop_operation_xyz
x,y,z
-x,y,1/2-z
-x,-y,-z
x,-y,1/2+z
1/2+x,1/2+y,z
1/2-x,1/2+y,1/2-z
1/2-x,1/2-y,-z
1/2+x,1/2-y,1/2+z
loop_
_atom_site_type_symbol
_atom_site_label
_atom_site_fract_x
_atom_site_fract_y
_atom_site_fract_z
Si Si1 0.000000 0.626266 0.250000
Si Si2 0.720064 0.326372 0.262627
Si Si3 0.790773 0.934057 0.054387
Si Si4 0.709234 0.416423 0.948533
Si Si5 0.000000 0.609032 0.750000
Si Si6 0.278535 0.677029 0.250779
O O1 0.138119 0.579809 0.147540
O O2 0.867664 0.673763 0.484519
O O3 0.776180 0.384145 0.273429
O O4 0.503447 0.340140 0.491201
O O5 0.739946 0.255109 0.289907
O O6 0.624179 0.936057 0.173925
O O7 0.807649 0.009197 0.078523
O O8 0.000000 0.910747 0.750000
O O9 0.787336 0.363848 0.768095
O O10 0.500000 0.392177 0.250000
O O11 0.152098 0.656119 0.503920
#
# Coordination Sequence:
#
# PCOD8154201 Si02
#       6
#     4   8   8   8   4   8
#     4  12  25  46  74 102 141 188 230 290 351 412
#     4  12  27  46  72 105 143 186 236 290 347 419
#     4  11  25  46  73 106 143 185 234 287 348 419
#     4  11  25  46  73 106 143 185 234 287 348 419
#     4  12  25  46  74 102 141 188 230 290 351 412
#     4  12  27  46  72 105 143 186 236 290 347 419
#
# _framework density 22.367131000000001
#
# number of rings (size 3 to 8) (size 9 to 14) (size 15 to 20)
#    0.000    0.400    4.000    4.200    2.800    8.800 
#    0.000    0.000    0.000    0.000    0.000    0.000 
#    0.000    0.000    0.000    0.000    0.000    0.000 
#
# Total GULP energy -248138.210176 kJ/mol
# GULP energy per Si atom -12406.910509 kJ/mol
# Density = 2.231622 g / cm^3
# Si number density = 22.367131 Si / 1000 Ang^3
#
#
#
# Elastic Constant Matrix: (Units=GPa)
#
#
# Indices 1 2 3 4 5 6 
#
# 1 113.6504 12.3253 27.1887 -0.0923 -20.2814 -0.0027
# 2 12.3253 92.2248 5.4480 -0.2322 7.5052 0.0191
# 3 27.1887 5.4480 133.5039 -0.0529 -2.9560 -0.0545
# 4 -0.0923 -0.2322 -0.0529 10.6144 -0.0991 3.8988
# 5 -20.2814 7.5052 -2.9560 -0.0991 43.5191 0.0227
# 6 -0.0027 0.0191 -0.0545 3.8988 0.0227 27.2869
#
#
#
# Elastic Compliance Matrix: (Units=1/GPa)
#
#
# Indices 1 2 3 4 5 6 
#
# 1 0.010328 -0.001671 -0.001925 0.000097 0.004971 -0.000020
# 2 -0.001671 0.011301 -0.000181 0.000220 -0.002739 -0.000038
# 3 -0.001925 -0.000181 0.007883 0.000010 -0.000330 0.000015
# 4 0.000097 0.000220 0.000010 0.099438 0.000242 -0.014208
# 5 0.004971 -0.002739 -0.000330 0.000242 0.025745 -0.000054
# 6 -0.000020 -0.000038 0.000015 -0.014208 -0.000054 0.038678
#
#
# Mechanical properties :
#
#
# Convention : Reuss Voigt Hill
#
# Bulk Modulus (GPa) = 45.54498 47.70035 46.62266
# Shear Modulus (GPa) = 24.01010 35.91190 29.96100
#
# Velocity S-wave (km/s) = 3.27992 4.01130 3.66390
# Velocity P-wave (km/s) = 5.89495 6.54419 6.22804
#
# Compressibility (1/GPa) = 0.02195632
#
# Stress axis : x y z
#
# Youngs Moduli (GPa) = 96.82647 88.49111 126.86238
#
# Poissons Ratio (x) = 0.14785 0.24421
# Poissons Ratio (y) = 0.16178 0.02302
# Poissons Ratio (z) = 0.18639 0.01606
#
# Static dielectric constant tensor:
#      x y z
#    x 4.124270 -0.000220 -0.130910 
#    y -0.000220 3.741520 0.000180 
#    z -0.130910 0.000180 4.234540 
# 
# 
# High freq. dielectric constant tensor:
#      x y z
#    x 1.887090 -0.000010 -0.010880 
#    y -0.000010 1.876420 0.000020 
#    z -0.010880 0.000020 1.903850 
# 
# From -- ./inp_files/169080.got.cif
#   From: 2010.06.25/outbox.cif.g09.slc.cpg/sg15_85_cif.got.tgz:169080.got - 2010.06.28 07:06:18.
