data_PCOD8154724
_publ_section_title
;
Structure prediction by ZEFSAII (Michael W. Deem and Ramdas Pophale) SiO2 
 PCOD8154724
Probable space group: C 2/C
;
_chemical_formula_sum "Si O2"
_cell_formula_units_Z 52
_cell_length_a 21.892794
_cell_length_b 14.786999
_cell_length_c 11.574305
_cell_angle_alpha 90.000000
_cell_angle_beta 38.797076
_cell_angle_gamma 90.000000
_cell_volume 2347.694710
_symmetry_space_group_name_H-M "C 2/C"
_symmetry_group_IT_number 15
_symmetry_cell_setting 'monoclinic'
loop_
_space_group_symop_operation_xyz
x,y,z
-x,y,1/2-z
-x,-y,-z
x,-y,1/2+z
1/2+x,1/2+y,z
1/2-x,1/2+y,1/2-z
1/2-x,1/2-y,-z
1/2+x,1/2-y,1/2+z
loop_
_atom_site_type_symbol
_atom_site_label
_atom_site_fract_x
_atom_site_fract_y
_atom_site_fract_z
Si Si1 0.842106 0.626550 0.362566
Si Si2 0.134986 0.371497 0.936816
Si Si3 0.500000 0.983538 0.750000
Si Si4 0.896422 0.191458 0.882047
Si Si5 0.340855 0.364842 0.713299
Si Si6 0.983061 0.190246 0.401261
Si Si7 0.643888 0.568763 0.753072
O O1 0.821393 0.613114 0.256672
O O2 0.944213 0.580586 0.241998
O O3 0.836712 0.733645 0.398817
O O4 0.759283 0.580756 0.564129
O O5 0.223058 0.355421 0.901537
O O6 0.057955 0.290877 0.049099
O O7 0.076090 0.459279 0.063031
O O8 0.909081 0.100526 0.786667
O O9 0.000000 0.236676 0.750000
O O10 0.848141 0.165264 0.071630
O O11 0.412061 0.303236 0.686937
O O12 0.379188 0.465609 0.682414
O O13 0.899554 0.129320 0.580791
O O14 0.000000 0.148950 0.250000
#
# Coordination Sequence:
#
# PCOD8154724 Si02
#       7
#     8   8   4   8   8   8   8
#     4  12  24  47  77 107 140 192 250 303 358 424
#     4  12  25  51  71 108 146 186 249 303 361 438
#     4  12  26  48  74 106 146 194 240 308 368 426
#     4  12  23  43  75 104 142 185 245 297 354 429
#     4  12  27  44  76 108 142 193 243 300 368 427
#     4  12  28  47  70 104 155 189 233 298 372 440
#     4  12  25  44  73 107 143 186 241 301 354 430
#
# _framework density 22.149387000000001
#
# number of rings (size 3 to 8) (size 9 to 14) (size 15 to 20)
#    0.000    0.000    7.692    2.308    2.154    0.615 
#    0.000    0.000    0.000    0.000    0.000    0.000 
#    0.000    0.000    0.000    0.000    0.000    0.000 
#
# Total GULP energy -322265.960784 kJ/mol
# GULP energy per Si atom -12394.844646 kJ/mol
# Density = 2.209897 g / cm^3
# Si number density = 22.149387 Si / 1000 Ang^3
#
#
#
# Elastic Constant Matrix: (Units=GPa)
#
#
# Indices 1 2 3 4 5 6 
#
# 1 139.5438 49.1683 59.6765 0.0000 -15.5524 0.0000
# 2 49.1683 92.1224 16.6463 0.0000 -5.2010 0.0000
# 3 59.6765 16.6463 111.1512 0.0000 4.3275 0.0000
# 4 0.0000 0.0000 0.0000 38.8264 0.0000 -2.8813
# 5 -15.5524 -5.2010 4.3275 0.0000 48.2555 0.0000
# 6 0.0000 0.0000 0.0000 -2.8813 0.0000 24.0322
#
#
#
# Elastic Compliance Matrix: (Units=1/GPa)
#
#
# Indices 1 2 3 4 5 6 
#
# 1 0.011824 -0.005061 -0.005738 0.000000 0.003780 0.000000
# 2 -0.005061 0.013412 0.000718 0.000000 -0.000250 0.000000
# 3 -0.005738 0.000718 0.012081 0.000000 -0.002855 0.000000
# 4 0.000000 0.000000 0.000000 0.025987 0.000000 0.003116
# 5 0.003780 -0.000250 -0.002855 0.000000 0.022170 0.000000
# 6 0.000000 0.000000 0.000000 0.003116 0.000000 0.041984
#
#
# Mechanical properties :
#
#
# Convention : Reuss Voigt Hill
#
# Bulk Modulus (GPa) = 58.28532 65.97773 62.13153
# Shear Modulus (GPa) = 32.60744 36.71124 34.65934
#
# Velocity S-wave (km/s) = 3.84104 4.07558 3.96005
# Velocity P-wave (km/s) = 6.78551 7.21106 7.00152
#
# Compressibility (1/GPa) = 0.01715698
#
# Stress axis : x y z
#
# Youngs Moduli (GPa) = 84.57052 74.55823 82.77512
#
# Poissons Ratio (x) = 0.37733 0.47494
# Poissons Ratio (y) = 0.42800 -0.05945
# Poissons Ratio (z) = 0.48524 -0.05355
#
# Static dielectric constant tensor:
#      x y z
#    x 4.243730 0.000000 -0.148270 
#    y 0.000000 3.879940 0.000000 
#    z -0.148270 0.000000 4.160050 
# 
# 
# High freq. dielectric constant tensor:
#      x y z
#    x 1.885460 0.000000 -0.015370 
#    y 0.000000 1.866840 0.000000 
#    z -0.015370 0.000000 1.883410 
# 
# From -- ./inp_files/118722.got.cif
#   From: 2010.06.25/outbox.cif.g09.slc.cpg/sg15_60_cif.got.tgz:118722.got - 2010.06.28 07:06:18.
