data_PCOD8154216
_publ_section_title
;
Structure prediction by ZEFSAII (Michael W. Deem and Ramdas Pophale) SiO2 
 PCOD8154216
Probable space group: C 2/C
;
_chemical_formula_sum "Si O2"
_cell_formula_units_Z 24
_cell_length_a 13.675578
_cell_length_b 6.655996
_cell_length_c 14.465172
_cell_angle_alpha 90.000000
_cell_angle_beta 141.556319
_cell_angle_gamma 90.000000
_cell_volume 818.643269
_symmetry_space_group_name_H-M "C 2/C"
_symmetry_group_IT_number 15
_symmetry_cell_setting 'monoclinic'
loop_
_space_group_symop_operation_xyz
x,y,z
-x,y,1/2-z
-x,-y,-z
x,-y,1/2+z
1/2+x,1/2+y,z
1/2-x,1/2+y,1/2-z
1/2-x,1/2-y,-z
1/2+x,1/2-y,1/2+z
loop_
_atom_site_type_symbol
_atom_site_label
_atom_site_fract_x
_atom_site_fract_y
_atom_site_fract_z
Si Si1 0.552710 0.698130 0.655669
Si Si2 0.789467 0.515525 0.086767
Si Si3 0.202015 0.392486 0.604002
O O1 0.388030 0.591236 0.550641
O O2 0.598342 0.838679 0.774572
O O3 0.316719 0.478960 0.254667
O O4 0.556599 0.814085 0.559414
O O5 0.802472 0.292853 0.137136
O O6 0.857523 0.519224 0.030091
#
# Coordination Sequence:
#
# PCOD8154216 Si02
#       3
#     8   8   8
#     4  12  25  50  82 117 161 210 270 331 408 482
#     4  11  27  50  78 121 160 209 272 333 401 485
#     4  11  25  46  79 117 159 210 264 331 402 479
#
# _framework density 29.316801000000002
#
# number of rings (size 3 to 8) (size 9 to 14) (size 15 to 20)
#    0.000    0.667    3.333    3.000    0.000    4.000 
#    0.000    6.667    0.000    0.000    0.000    0.000 
#    0.000    0.000    0.000    0.000    0.000    0.000 
#
# Total GULP energy -148899.781492 kJ/mol
# GULP energy per Si atom -12408.315124 kJ/mol
# Density = 2.925007 g / cm^3
# Si number density = 29.316801 Si / 1000 Ang^3
#
#
#
# Elastic Constant Matrix: (Units=GPa)
#
#
# Indices 1 2 3 4 5 6 
#
# 1 229.1276 20.7437 61.2673 0.0000 -31.7516 0.0000
# 2 20.7437 132.0161 60.0907 0.0000 -16.4164 0.0000
# 3 61.2673 60.0907 148.8635 0.0000 3.4739 0.0000
# 4 0.0000 0.0000 0.0000 -93.1139 0.0000 146.9597
# 5 -31.7516 -16.4164 3.4739 0.0000 48.7311 0.0000
# 6 0.0000 0.0000 0.0000 146.9597 0.0000 -163.2266
#
#
#
# Elastic Compliance Matrix: (Units=1/GPa)
#
#
# Indices 1 2 3 4 5 6 
#
# 1 0.005596 0.000892 -0.002760 0.000000 0.004143 0.000000
# 2 0.000892 0.010020 -0.004512 0.000000 0.004279 0.000000
# 3 -0.002760 -0.004512 0.009768 0.000000 -0.004015 0.000000
# 4 0.000000 0.000000 0.000000 0.025510 0.000000 0.022968
# 5 0.004143 0.004279 -0.004015 0.000000 0.024948 0.000000
# 6 0.000000 0.000000 0.000000 0.022968 0.000000 0.014552
#
#
# Mechanical properties :
#
#
# Convention : Reuss Voigt Hill
#
# Bulk Modulus (GPa) = 79.20536 88.24561 83.72548
# Shear Modulus (GPa) = 46.57103 -16.99485 14.78809
#
# Velocity S-wave (km/s) = 3.98998 -2.41030 2.24837
# Velocity P-wave (km/s) = 6.94998 4.73497 5.94652
#
# Compressibility (1/GPa) = 0.01262541
#
# Stress axis : x y z
#
# Youngs Moduli (GPa) = 178.70741 99.79618 102.37081
#
# Poissons Ratio (x) = -0.08904 0.28253
# Poissons Ratio (y) = -0.15944 0.46189
# Poissons Ratio (z) = 0.49321 0.45027
#
# Static dielectric constant tensor:
#      x y z
#    x 5.648620 0.000000 -0.319710 
#    y 0.000000 6.591100 0.000000 
#    z -0.319710 0.000000 5.401410 
# 
# 
# High freq. dielectric constant tensor:
#      x y z
#    x 2.223370 0.000000 -0.007140 
#    y 0.000000 2.234560 0.000000 
#    z -0.007140 0.000000 2.192590 
# 
# From -- ./inp_files/159619.got.cif
#   From: 2010.06.25/outbox.cif.g09.slc.cpg/sg15_80_cif.got.tgz:159619.got - 2010.06.28 07:06:18.
