data_PCOD8154299
_publ_section_title
;
Structure prediction by ZEFSAII (Michael W. Deem and Ramdas Pophale) SiO2 
 PCOD8154299
Probable space group: C 2/C
;
_chemical_formula_sum "Si O2"
_cell_formula_units_Z 40
_cell_length_a 13.505216
_cell_length_b 9.801048
_cell_length_c 14.202070
_cell_angle_alpha 90.000000
_cell_angle_beta 119.213548
_cell_angle_gamma 90.000000
_cell_volume 1640.755121
_symmetry_space_group_name_H-M "C 2/C"
_symmetry_group_IT_number 15
_symmetry_cell_setting 'monoclinic'
loop_
_space_group_symop_operation_xyz
x,y,z
-x,y,1/2-z
-x,-y,-z
x,-y,1/2+z
1/2+x,1/2+y,z
1/2-x,1/2+y,1/2-z
1/2-x,1/2-y,-z
1/2+x,1/2-y,1/2+z
loop_
_atom_site_type_symbol
_atom_site_label
_atom_site_fract_x
_atom_site_fract_y
_atom_site_fract_z
Si Si1 0.623376 0.933364 0.352026
Si Si2 0.876226 0.866170 0.654115
Si Si3 0.158967 0.334755 0.013629
Si Si4 0.516793 0.413774 0.416340
Si Si5 0.729492 0.544053 0.760199
O O1 0.500000 0.949253 0.250000
O O2 0.632563 0.023536 0.449509
O O3 0.655692 0.781215 0.404573
O O4 0.714993 0.978195 0.315616
O O5 0.000000 0.838545 0.750000
O O6 0.881939 0.001909 0.590711
O O7 0.784742 0.897175 0.694299
O O8 0.193803 0.357792 0.138623
O O9 0.250000 0.250000 0.000000
O O10 0.048033 0.239678 0.960004
O O11 0.500000 0.500000 0.500000
O O12 0.399946 0.399327 0.304094
#
# Coordination Sequence:
#
# PCOD8154299 Si02
#       5
#     8   8   8   8   8
#     4  11  28  47  74 109 153 192 251 313 371 438
#     4   9  22  45  70 102 146 189 243 296 368 434
#     4  12  27  46  74 114 148 195 254 301 375 445
#     4  11  25  49  80 107 148 201 250 300 380 448
#     4  11  26  47  78 106 152 196 246 308 374 449
#
# _framework density 24.379020000000001
#
# number of rings (size 3 to 8) (size 9 to 14) (size 15 to 20)
#    0.000    1.200    2.000    1.200   14.000    1.600 
#    0.000    0.000    0.000    0.000    0.000    0.000 
#    0.000    0.000    0.000    0.000    0.000    0.000 
#
# Total GULP energy -247901.874768 kJ/mol
# GULP energy per Si atom -12395.093738 kJ/mol
# Density = 2.432353 g / cm^3
# Si number density = 24.379020 Si / 1000 Ang^3
#
#
#
# Elastic Constant Matrix: (Units=GPa)
#
#
# Indices 1 2 3 4 5 6 
#
# 1 97.9540 37.0190 16.9041 0.0000 -6.1904 0.0000
# 2 37.0190 178.7082 62.3582 0.0000 0.7577 0.0000
# 3 16.9041 62.3582 125.8287 0.0000 -3.9595 0.0000
# 4 0.0000 0.0000 0.0000 25.6164 0.0000 -7.6745
# 5 -6.1904 0.7577 -3.9595 0.0000 35.3256 0.0000
# 6 0.0000 0.0000 0.0000 -7.6745 0.0000 26.9589
#
#
#
# Elastic Compliance Matrix: (Units=1/GPa)
#
#
# Indices 1 2 3 4 5 6 
#
# 1 0.011230 -0.002213 -0.000350 0.000000 0.001976 0.000000
# 2 -0.002213 0.007211 -0.003305 0.000000 -0.000913 0.000000
# 3 -0.000350 -0.003305 0.009667 0.000000 0.001093 0.000000
# 4 0.000000 0.000000 0.000000 0.042677 0.000000 0.012149
# 5 0.001976 -0.000913 0.001093 0.000000 0.028796 0.000000
# 6 0.000000 0.000000 0.000000 0.012149 0.000000 0.040552
#
#
# Mechanical properties :
#
#
# Convention : Reuss Voigt Hill
#
# Bulk Modulus (GPa) = 61.07737 70.56149 65.81943
# Shear Modulus (GPa) = 31.78085 36.66083 34.22084
#
# Velocity S-wave (km/s) = 3.61448 3.88207 3.75066
# Velocity P-wave (km/s) = 6.52127 7.00717 6.76858
#
# Compressibility (1/GPa) = 0.01637268
#
# Stress axis : x y z
#
# Youngs Moduli (GPa) = 89.04445 138.67240 103.44753
#
# Poissons Ratio (x) = 0.30683 0.03621
# Poissons Ratio (y) = 0.19702 0.34192
# Poissons Ratio (z) = 0.03117 0.45834
#
# Static dielectric constant tensor:
#      x y z
#    x 4.638350 0.000000 0.576320 
#    y 0.000000 6.401830 0.000000 
#    z 0.576320 0.000000 7.054010 
# 
# 
# High freq. dielectric constant tensor:
#      x y z
#    x 1.967130 0.000000 0.007060 
#    y 0.000000 1.974490 0.000000 
#    z 0.007060 0.000000 1.975290 
# 
# From -- ./inp_files/152297.got.cif
#   From: 2010.06.25/outbox.cif.g09.slc.cpg/sg15_77_cif.got.tgz:152297.got - 2010.06.28 07:06:18.
