data_PCOD8154438
_publ_section_title
;
Structure prediction by ZEFSAII (Michael W. Deem and Ramdas Pophale) SiO2 
 PCOD8154438
Probable space group: C 2/C
;
_chemical_formula_sum "Si O2"
_cell_formula_units_Z 36
_cell_length_a 8.833006
_cell_length_b 25.011004
_cell_length_c 11.586050
_cell_angle_alpha 90.000000
_cell_angle_beta 142.779053
_cell_angle_gamma 90.000000
_cell_volume 1548.287673
_symmetry_space_group_name_H-M "C 2/C"
_symmetry_group_IT_number 15
_symmetry_cell_setting 'monoclinic'
loop_
_space_group_symop_operation_xyz
x,y,z
-x,y,1/2-z
-x,-y,-z
x,-y,1/2+z
1/2+x,1/2+y,z
1/2-x,1/2+y,1/2-z
1/2-x,1/2-y,-z
1/2+x,1/2-y,1/2+z
loop_
_atom_site_type_symbol
_atom_site_label
_atom_site_fract_x
_atom_site_fract_y
_atom_site_fract_z
Si Si1 0.910888 0.284866 0.008140
Si Si2 0.483334 0.414902 0.488503
Si Si3 0.500000 0.134948 0.750000
Si Si4 0.251064 0.692202 0.333348
Si Si5 0.790210 0.001571 0.214573
O O1 0.057661 0.328978 0.172085
O O2 0.091630 0.245586 0.047021
O O3 0.750000 0.250000 0.000000
O O4 0.760900 0.314389 0.814245
O O5 0.244073 0.400936 0.424487
O O6 0.620356 0.360476 0.536421
O O7 0.367243 0.442743 0.304864
O O8 0.684541 0.454402 0.669189
O O9 0.000000 0.700152 0.250000
O O10 0.000000 0.018781 0.250000
O O11 0.500000 0.000000 0.000000
#
# Coordination Sequence:
#
# PCOD8154438 Si02
#       5
#     8   8   4   8   8
#     4  12  23  44  70 104 148 192 246 299 361 447
#     4  11  27  44  72 111 140 190 251 300 371 443
#     4  12  24  44  76 108 140 192 252 300 366 444
#     4  12  26  43  71 106 153 193 242 307 373 437
#     4  11  27  49  75 102 148 191 244 313 372 441
#
# _framework density 23.251493
#
# number of rings (size 3 to 8) (size 9 to 14) (size 15 to 20)
#    0.000    0.444    4.444    2.000    9.333    1.778 
#    0.000    1.111    0.000    0.000    0.000    0.000 
#    0.000    0.000    0.000    0.000    0.000    0.000 
#
# Total GULP energy -223146.327984 kJ/mol
# GULP energy per Si atom -12397.018221 kJ/mol
# Density = 2.319857 g / cm^3
# Si number density = 23.251493 Si / 1000 Ang^3
#
#
#
# Elastic Constant Matrix: (Units=GPa)
#
#
# Indices 1 2 3 4 5 6 
#
# 1 99.8555 14.4928 25.2954 0.0000 23.0712 0.0000
# 2 14.4928 114.1217 47.1868 0.0000 6.5717 0.0000
# 3 25.2954 47.1868 140.0870 0.0000 10.8538 0.0000
# 4 0.0000 0.0000 0.0000 41.0346 0.0000 0.8772
# 5 23.0712 6.5717 10.8538 0.0000 47.3637 0.0000
# 6 0.0000 0.0000 0.0000 0.8772 0.0000 19.2582
#
#
#
# Elastic Compliance Matrix: (Units=1/GPa)
#
#
# Indices 1 2 3 4 5 6 
#
# 1 0.011698 -0.000555 -0.001517 0.000000 -0.005273 0.000000
# 2 -0.000555 0.010226 -0.003314 0.000000 -0.000389 0.000000
# 3 -0.001517 -0.003314 0.008588 0.000000 -0.000769 0.000000
# 4 0.000000 0.000000 0.000000 0.024393 0.000000 -0.001111
# 5 -0.005273 -0.000389 -0.000769 0.000000 0.023912 0.000000
# 6 0.000000 0.000000 0.000000 -0.001111 0.000000 0.051977
#
#
# Mechanical properties :
#
#
# Convention : Reuss Voigt Hill
#
# Bulk Modulus (GPa) = 50.65760 58.66824 54.66292
# Shear Modulus (GPa) = 33.75065 39.33724 36.54395
#
# Velocity S-wave (km/s) = 3.81405 4.11763 3.96874
# Velocity P-wave (km/s) = 6.42107 6.92050 6.67546
#
# Compressibility (1/GPa) = 0.01974037
#
# Stress axis : x y z
#
# Youngs Moduli (GPa) = 85.48748 97.79243 116.43822
#
# Poissons Ratio (x) = 0.05425 0.17661
# Poissons Ratio (y) = 0.04742 0.38589
# Poissons Ratio (z) = 0.12967 0.32410
#
# Static dielectric constant tensor:
#      x y z
#    x 3.947160 0.000000 0.039620 
#    y 0.000000 4.389960 0.000000 
#    z 0.039620 0.000000 4.368680 
# 
# 
# High freq. dielectric constant tensor:
#      x y z
#    x 1.903690 0.000000 0.009540 
#    y 0.000000 1.930680 0.000000 
#    z 0.009540 0.000000 1.930140 
# 
# From -- ./inp_files/80421.got.cif
#   From: 2010.06.25/outbox.cif.g09.slc.cpg/sg15_41_cif.got.tgz:80421.got - 2010.06.28 07:06:18.
