data_PCOD8154691
_publ_section_title
;
Structure prediction by ZEFSAII (Michael W. Deem and Ramdas Pophale) SiO2 
 PCOD8154691
Probable space group: C 2/C
;
_chemical_formula_sum "Si O2"
_cell_formula_units_Z 40
_cell_length_a 4.936739
_cell_length_b 18.674607
_cell_length_c 19.438902
_cell_angle_alpha 90.000000
_cell_angle_beta 98.398892
_cell_angle_gamma 90.000000
_cell_volume 1772.884618
_symmetry_space_group_name_H-M "C 2/C"
_symmetry_group_IT_number 15
_symmetry_cell_setting 'monoclinic'
loop_
_space_group_symop_operation_xyz
x,y,z
-x,y,1/2-z
-x,-y,-z
x,-y,1/2+z
1/2+x,1/2+y,z
1/2-x,1/2+y,1/2-z
1/2-x,1/2-y,-z
1/2+x,1/2-y,1/2+z
loop_
_atom_site_type_symbol
_atom_site_label
_atom_site_fract_x
_atom_site_fract_y
_atom_site_fract_z
Si Si1 0.787305 0.735574 0.798226
Si Si2 0.426032 0.629723 0.383805
Si Si3 0.155179 0.591966 0.621759
Si Si4 0.589171 0.941779 0.676494
Si Si5 0.902698 0.922621 0.471511
O O1 0.500000 0.726717 0.750000
O O2 0.787415 0.794794 0.858522
O O3 0.890337 0.661100 0.833525
O O4 0.000000 0.761995 0.750000
O O5 0.657279 0.607093 0.337413
O O6 0.554111 0.633908 0.464782
O O7 0.181270 0.571435 0.379314
O O8 0.177338 0.524313 0.673689
O O9 0.436174 0.601399 0.590470
O O10 0.917061 0.579534 0.557532
O O11 0.500000 0.920079 0.750000
O O12 0.000000 0.000000 0.500000
#
# Coordination Sequence:
#
# PCOD8154691 Si02
#       5
#     8   8   8   8   8
#     4  12  27  48  66  98 141 178 223 283 337 402
#     4  12  25  42  70  96 137 178 221 278 337 393
#     4  12  25  43  71  98 136 179 221 281 340 391
#     4  12  23  40  66  99 128 176 230 272 329 401
#     4  12  23  44  70 104 137 172 227 286 328 400
#
# _framework density 22.562100000000001
#
# number of rings (size 3 to 8) (size 9 to 14) (size 15 to 20)
#    0.000    0.000    4.000    7.200    0.000    3.200 
#    0.000    0.000    0.000    0.000    0.000    0.000 
#    0.000    0.000    0.000    0.000    0.000    0.000 
#
# Total GULP energy -248134.840463 kJ/mol
# GULP energy per Si atom -12406.742023 kJ/mol
# Density = 2.251075 g / cm^3
# Si number density = 22.562100 Si / 1000 Ang^3
#
#
#
# Elastic Constant Matrix: (Units=GPa)
#
#
# Indices 1 2 3 4 5 6 
#
# 1 104.1525 24.9173 17.0634 0.0000 2.4752 0.0000
# 2 24.9173 84.9593 29.2555 0.0000 2.3468 0.0000
# 3 17.0634 29.2555 64.6217 0.0000 6.9541 0.0000
# 4 0.0000 0.0000 0.0000 45.2668 0.0000 2.5844
# 5 2.4752 2.3468 6.9541 0.0000 46.2035 0.0000
# 6 0.0000 0.0000 0.0000 2.5844 0.0000 28.5749
#
#
#
# Elastic Compliance Matrix: (Units=1/GPa)
#
#
# Indices 1 2 3 4 5 6 
#
# 1 0.010470 -0.002512 -0.001607 0.000000 -0.000191 0.000000
# 2 -0.002512 0.014550 -0.005955 0.000000 0.000292 0.000000
# 3 -0.001607 -0.005955 0.018858 0.000000 -0.002450 0.000000
# 4 0.000000 0.000000 0.000000 0.022206 0.000000 -0.002008
# 5 -0.000191 0.000292 -0.002450 0.000000 0.022008 0.000000
# 6 0.000000 0.000000 0.000000 -0.002008 0.000000 0.035177
#
#
# Mechanical properties :
#
#
# Convention : Reuss Voigt Hill
#
# Bulk Modulus (GPa) = 42.13983 44.02286 43.08135
# Shear Modulus (GPa) = 33.04104 36.17552 34.60828
#
# Velocity S-wave (km/s) = 3.83096 4.00856 3.92077
# Velocity P-wave (km/s) = 6.18758 6.40148 6.29544
#
# Compressibility (1/GPa) = 0.02373052
#
# Stress axis : x y z
#
# Youngs Moduli (GPa) = 95.51015 68.73023 53.02651
#
# Poissons Ratio (x) = 0.17266 0.08520
# Poissons Ratio (y) = 0.23994 0.31577
# Poissons Ratio (z) = 0.15346 0.40929
#
# Static dielectric constant tensor:
#      x y z
#    x 4.125900 0.000000 -0.021300 
#    y 0.000000 3.876140 0.000000 
#    z -0.021300 0.000000 4.415010 
# 
# 
# High freq. dielectric constant tensor:
#      x y z
#    x 1.906830 0.000000 0.003480 
#    y 0.000000 1.882890 0.000000 
#    z 0.003480 0.000000 1.895330 
# 
# From -- ./inp_files/184400.got.cif
#   From: 2010.06.25/outbox.cif.g09.slc.cpg/sg15_93_cif.got.tgz:184400.got - 2010.06.28 07:06:18.
