data_PCOD8154935
_publ_section_title
;
Structure prediction by ZEFSAII (Michael W. Deem and Ramdas Pophale) SiO2 
 PCOD8154935
Probable space group: C 2/C
;
_chemical_formula_sum "Si O2"
_cell_formula_units_Z 36
_cell_length_a 25.874333
_cell_length_b 6.731982
_cell_length_c 13.888185
_cell_angle_alpha 90.000000
_cell_angle_beta 140.460827
_cell_angle_gamma 90.000000
_cell_volume 1540.026085
_symmetry_space_group_name_H-M "C 2/C"
_symmetry_group_IT_number 15
_symmetry_cell_setting 'monoclinic'
loop_
_space_group_symop_operation_xyz
x,y,z
-x,y,1/2-z
-x,-y,-z
x,-y,1/2+z
1/2+x,1/2+y,z
1/2-x,1/2+y,1/2-z
1/2-x,1/2-y,-z
1/2+x,1/2-y,1/2+z
loop_
_atom_site_type_symbol
_atom_site_label
_atom_site_fract_x
_atom_site_fract_y
_atom_site_fract_z
Si Si1 0.856796 0.940356 0.485830
Si Si2 0.175040 0.878416 0.361240
Si Si3 0.500000 0.805895 0.250000
Si Si4 0.805898 0.783751 0.756482
Si Si5 0.574734 0.009806 0.177905
O O1 0.782499 0.801132 0.344038
O O2 0.942000 0.824668 0.596132
O O3 0.854067 0.981774 0.594966
O O4 0.854056 0.148476 0.422596
O O5 0.250000 0.750000 0.500000
O O6 0.101904 0.738618 0.221278
O O7 0.205262 0.015255 0.318701
O O8 0.553932 0.940273 0.256203
O O9 0.853389 0.620909 0.763473
O O10 0.500000 0.000000 0.000000
#
# Coordination Sequence:
#
# PCOD8154935 Si02
#       5
#     8   8   4   8   8
#     4  12  27  46  79 107 148 196 243 305 366 441
#     4  12  24  48  76 103 142 195 243 298 363 431
#     4  12  28  48  74 114 148 192 252 302 370 432
#     4  12  27  51  73 110 149 192 249 297 370 442
#     4  12  29  47  75 109 151 193 243 309 365 435
#
# _framework density 23.376228000000001
#
# number of rings (size 3 to 8) (size 9 to 14) (size 15 to 20)
#    0.000    0.000    4.444    4.667    9.333    1.778 
#    0.000    0.000    0.000    0.000    0.000    0.000 
#    0.000    0.000    0.000    0.000    0.000    0.000 
#
# Total GULP energy -223318.049986 kJ/mol
# GULP energy per Si atom -12406.558333 kJ/mol
# Density = 2.332302 g / cm^3
# Si number density = 23.376228 Si / 1000 Ang^3
#
#
#
# Elastic Constant Matrix: (Units=GPa)
#
#
# Indices 1 2 3 4 5 6 
#
# 1 77.7605 17.3487 6.4188 0.0000 -2.8774 0.0000
# 2 17.3487 93.5973 19.6949 0.0000 1.2665 0.0000
# 3 6.4188 19.6949 95.3134 0.0000 1.8619 0.0000
# 4 0.0000 0.0000 0.0000 59.0375 0.0000 -9.8092
# 5 -2.8774 1.2665 1.8619 0.0000 37.8438 0.0000
# 6 0.0000 0.0000 0.0000 -9.8092 0.0000 25.0849
#
#
#
# Elastic Compliance Matrix: (Units=1/GPa)
#
#
# Indices 1 2 3 4 5 6 
#
# 1 0.013478 -0.002423 -0.000429 0.000000 0.001127 0.000000
# 2 -0.002423 0.011608 -0.002226 0.000000 -0.000463 0.000000
# 3 -0.000429 -0.002226 0.010990 0.000000 -0.000499 0.000000
# 4 0.000000 0.000000 0.000000 0.018115 0.000000 0.007084
# 5 0.001127 -0.000463 -0.000499 0.000000 0.026550 0.000000
# 6 0.000000 0.000000 0.000000 0.007084 0.000000 0.042635
#
#
# Mechanical properties :
#
#
# Convention : Reuss Voigt Hill
#
# Bulk Modulus (GPa) = 38.58156 39.28846 38.93501
# Shear Modulus (GPa) = 35.16846 39.27384 37.22115
#
# Velocity S-wave (km/s) = 3.88294 4.10332 3.99465
# Velocity P-wave (km/s) = 6.05338 6.26842 6.16184
#
# Compressibility (1/GPa) = 0.02591912
#
# Stress axis : x y z
#
# Youngs Moduli (GPa) = 74.19651 86.14788 90.98876
#
# Poissons Ratio (x) = 0.20875 0.03903
# Poissons Ratio (y) = 0.17979 0.20257
# Poissons Ratio (z) = 0.03183 0.19179
#
# Static dielectric constant tensor:
#      x y z
#    x 6.447090 0.000000 -1.332040 
#    y 0.000000 3.525190 0.000000 
#    z -1.332040 0.000000 5.133480 
# 
# 
# High freq. dielectric constant tensor:
#      x y z
#    x 1.931190 0.000000 -0.006110 
#    y 0.000000 1.934780 0.000000 
#    z -0.006110 0.000000 1.934310 
# 
# From -- ./inp_files/179926.got.cif
#   From: 2010.06.25/outbox.cif.g09.slc.cpg/sg15_90_cif.got.tgz:179926.got - 2010.06.28 07:06:18.
