data_PCOD8154224
_publ_section_title
;
Structure prediction by ZEFSAII (Michael W. Deem and Ramdas Pophale) SiO2 
 PCOD8154224
Probable space group: C 2/C
;
_chemical_formula_sum "Si O2"
_cell_formula_units_Z 64
_cell_length_a 27.616376
_cell_length_b 11.062575
_cell_length_c 14.694807
_cell_angle_alpha 90.000000
_cell_angle_beta 39.185371
_cell_angle_gamma 90.000000
_cell_volume 2836.534176
_symmetry_space_group_name_H-M "C 2/C"
_symmetry_group_IT_number 15
_symmetry_cell_setting 'monoclinic'
loop_
_space_group_symop_operation_xyz
x,y,z
-x,y,1/2-z
-x,-y,-z
x,-y,1/2+z
1/2+x,1/2+y,z
1/2-x,1/2+y,1/2-z
1/2-x,1/2-y,-z
1/2+x,1/2-y,1/2+z
loop_
_atom_site_type_symbol
_atom_site_label
_atom_site_fract_x
_atom_site_fract_y
_atom_site_fract_z
Si Si1 0.320149 0.206065 0.513025
Si Si2 0.682821 0.803104 0.279118
Si Si3 0.578883 0.296948 0.443436
Si Si4 0.095300 0.153345 0.273373
Si Si5 0.329092 0.403021 0.350828
Si Si6 0.655711 0.241107 0.510539
Si Si7 0.086440 0.494976 0.149579
Si Si8 0.412240 0.026453 0.140733
O O1 0.292138 0.238114 0.655578
O O2 0.341072 0.325256 0.425217
O O3 0.258334 0.120061 0.552224
O O4 0.397469 0.128206 0.414242
O O5 0.623319 0.704845 0.328915
O O6 0.645635 0.937221 0.329285
O O7 0.757503 0.788042 0.106438
O O8 0.495134 0.353572 0.579698
O O9 0.614894 0.377525 0.313556
O O10 0.618906 0.316135 0.481854
O O11 0.596021 0.161486 0.383887
O O12 0.108235 0.246968 0.173122
O O13 0.145499 0.039372 0.164930
O O14 0.644927 0.096627 0.513009
O O15 0.106056 0.508103 0.227237
O O16 0.000000 0.456763 0.250000
O O17 0.500000 0.000000 0.000000
#
# Coordination Sequence:
#
# PCOD8154224 Si02
#       8
#     8   8   8   8   8   8   8   8
#     4  11  25  47  70 101 147 185 239 300 356 430
#     4  12  25  43  73 108 140 185 244 294 358 428
#     4  12  24  48  71  99 144 189 233 295 365 425
#     4  12  26  43  73 101 143 186 242 290 355 438
#     4  11  26  47  68 101 142 193 235 290 363 432
#     4  12  25  45  68 105 145 182 233 298 365 426
#     4  12  24  43  73 106 142 183 239 306 361 421
#     4  12  23  43  73 107 140 181 236 302 357 422
#
# _framework density 22.562746000000001
#
# number of rings (size 3 to 8) (size 9 to 14) (size 15 to 20)
#    0.000    0.250    5.000    4.875    1.750    1.000 
#    2.250    2.500    0.000    0.000    0.000    0.000 
#    0.000    0.000    0.000    0.000    0.000    0.000 
#
# Total GULP energy -396608.126323 kJ/mol
# GULP energy per Si atom -12394.003948 kJ/mol
# Density = 2.251139 g / cm^3
# Si number density = 22.562746 Si / 1000 Ang^3
#
#
#
# Elastic Constant Matrix: (Units=GPa)
#
#
# Indices 1 2 3 4 5 6 
#
# 1 86.5542 20.0347 18.8168 -0.0002 7.6289 -0.0001
# 2 20.0347 91.3662 10.8996 0.0022 -6.1570 0.0013
# 3 18.8168 10.8996 95.8770 0.0004 -1.5265 0.0002
# 4 -0.0002 0.0022 0.0004 1171.9692 -0.0002 633.2953
# 5 7.6289 -6.1570 -1.5265 -0.0002 47.8371 -0.0001
# 6 -0.0001 0.0013 0.0002 633.2953 -0.0001 388.9956
#
#
#
# Elastic Compliance Matrix: (Units=1/GPa)
#
#
# Indices 1 2 3 4 5 6 
#
# 1 0.012894 -0.002725 -0.002260 0.000000 -0.002479 0.000000
# 2 -0.002725 0.011764 -0.000772 0.000000 0.001924 0.000000
# 3 -0.002260 -0.000772 0.010971 0.000000 0.000611 0.000000
# 4 0.000000 0.000000 0.000000 0.007095 0.000000 -0.011551
# 5 -0.002479 0.001924 0.000611 0.000000 0.021567 0.000000
# 6 0.000000 0.000000 0.000000 -0.011551 0.000000 0.021375
#
#
# Mechanical properties :
#
#
# Convention : Reuss Voigt Hill
#
# Bulk Modulus (GPa) = 41.46759 41.47772 41.47265
# Shear Modulus (GPa) = 47.51991 336.69680 192.10835
#
# Velocity S-wave (km/s) = 4.59423 12.22910 9.23736
# Velocity P-wave (km/s) = 6.82358 14.75887 11.49751
#
# Compressibility (1/GPa) = 0.02411522
#
# Stress axis : x y z
#
# Youngs Moduli (GPa) = 77.55503 85.00351 91.14836
#
# Poissons Ratio (x) = 0.23162 0.20602
# Poissons Ratio (y) = 0.21132 0.07036
# Poissons Ratio (z) = 0.17530 0.06562
#
# Static dielectric constant tensor:
#      x y z
#    x 4.216510 0.000000 0.181640 
#    y 0.000000 3.967570 0.000000 
#    z 0.181640 0.000000 4.387390 
# 
# 
# High freq. dielectric constant tensor:
#      x y z
#    x 1.896820 0.000000 0.007490 
#    y 0.000000 1.883720 0.000000 
#    z 0.007490 0.000000 1.906070 
# 
# From -- ./inp_files/177832.got.cif
#   From: 2010.06.25/outbox.cif.g09.slc.cpg/sg15_89_cif.got.tgz:177832.got - 2010.06.28 07:06:18.
