data_PCOD8154444
_publ_section_title
;
Structure prediction by ZEFSAII (Michael W. Deem and Ramdas Pophale) SiO2 
 PCOD8154444
Probable space group: C 2/C
;
_chemical_formula_sum "Si O2"
_cell_formula_units_Z 36
_cell_length_a 5.289210
_cell_length_b 21.315613
_cell_length_c 14.105463
_cell_angle_alpha 90.000000
_cell_angle_beta 107.615054
_cell_angle_gamma 90.000000
_cell_volume 1515.721990
_symmetry_space_group_name_H-M "C 2/C"
_symmetry_group_IT_number 15
_symmetry_cell_setting 'monoclinic'
loop_
_space_group_symop_operation_xyz
x,y,z
-x,y,1/2-z
-x,-y,-z
x,-y,1/2+z
1/2+x,1/2+y,z
1/2-x,1/2+y,1/2-z
1/2-x,1/2-y,-z
1/2+x,1/2-y,1/2+z
loop_
_atom_site_type_symbol
_atom_site_label
_atom_site_fract_x
_atom_site_fract_y
_atom_site_fract_z
Si Si1 0.500000 0.646837 0.750000
Si Si2 0.608429 0.038441 0.662925
Si Si3 0.489608 0.670041 0.144491
Si Si4 0.329695 0.548186 0.037911
Si Si5 0.049973 0.743212 0.391146
O O1 0.251773 0.601844 0.709291
O O2 0.536315 0.689586 0.660783
O O3 0.500000 0.010109 0.750000
O O4 0.418789 0.061643 0.557111
O O5 0.774843 0.981643 0.635373
O O6 0.500000 0.641371 0.250000
O O7 0.484222 0.613403 0.068806
O O8 0.768159 0.707335 0.165996
O O9 0.219405 0.710460 0.103059
O O10 0.500000 0.500000 0.000000
O O11 0.250000 0.750000 0.500000
#
# Coordination Sequence:
#
# PCOD8154444 Si02
#       5
#     4   8   8   8   8
#     4  12  26  48  72 112 148 200 258 310 390 456
#     4  11  27  46  78 109 152 202 254 328 383 481
#     4  12  27  50  76 113 150 203 250 322 387 462
#     4  11  28  49  75 116 151 199 262 322 402 460
#     4  12  28  49  79 109 153 202 256 316 377 463
#
# _framework density 23.751056999999999
#
# number of rings (size 3 to 8) (size 9 to 14) (size 15 to 20)
#    0.000    0.444    2.222    3.333   20.222    0.000 
#    0.000    0.000    0.000    0.000    0.000    0.000 
#    0.000    0.000    0.000    0.000    0.000    0.000 
#
# Total GULP energy -223102.927129 kJ/mol
# GULP energy per Si atom -12394.607063 kJ/mol
# Density = 2.369700 g / cm^3
# Si number density = 23.751057 Si / 1000 Ang^3
#
#
#
# Elastic Constant Matrix: (Units=GPa)
#
#
# Indices 1 2 3 4 5 6 
#
# 1 135.4111 61.5008 28.7284 0.0000 -0.0573 0.0000
# 2 61.5008 115.7842 61.1028 0.0000 4.3066 0.0000
# 3 28.7284 61.1028 125.9145 0.0000 -13.2746 0.0000
# 4 0.0000 0.0000 0.0000 112.5482 0.0000 2.9845
# 5 -0.0573 4.3066 -13.2746 0.0000 48.8161 0.0000
# 6 0.0000 0.0000 0.0000 2.9845 0.0000 33.3551
#
#
#
# Elastic Compliance Matrix: (Units=1/GPa)
#
#
# Indices 1 2 3 4 5 6 
#
# 1 0.009765 -0.005470 0.000493 0.000000 0.000628 0.000000
# 2 -0.005470 0.015012 -0.006360 0.000000 -0.003060 0.000000
# 3 0.000493 -0.006360 0.011299 0.000000 0.003634 0.000000
# 4 0.000000 0.000000 0.000000 0.008906 0.000000 -0.000797
# 5 0.000628 -0.003060 0.003634 0.000000 0.021744 0.000000
# 6 0.000000 0.000000 0.000000 -0.000797 0.000000 0.030052
#
#
# Mechanical properties :
#
#
# Convention : Reuss Voigt Hill
#
# Bulk Modulus (GPa) = 74.61583 75.53042 75.07312
# Shear Modulus (GPa) = 40.34863 53.99573 47.17218
#
# Velocity S-wave (km/s) = 4.12614 4.77319 4.46141
# Velocity P-wave (km/s) = 7.36098 7.88972 7.62993
#
# Compressibility (1/GPa) = 0.01340198
#
# Stress axis : x y z
#
# Youngs Moduli (GPa) = 102.40486 66.61140 88.50553
#
# Poissons Ratio (x) = 0.36439 -0.04362
# Poissons Ratio (y) = 0.56019 0.56286
# Poissons Ratio (z) = -0.05047 0.42362
#
# Static dielectric constant tensor:
#      x y z
#    x 4.497360 0.000000 -0.064240 
#    y 0.000000 4.170170 0.000000 
#    z -0.064240 0.000000 4.401530 
# 
# 
# High freq. dielectric constant tensor:
#      x y z
#    x 1.941470 0.000000 0.006120 
#    y 0.000000 1.940120 0.000000 
#    z 0.006120 0.000000 1.973710 
# 
# From -- ./inp_files/129218.got.cif
#   From: 2010.06.25/outbox.cif.g09.slc.cpg/sg15_65_cif.got.tgz:129218.got - 2010.06.28 07:06:18.
