data_PCOD8154574
_publ_section_title
;
Structure prediction by ZEFSAII (Michael W. Deem and Ramdas Pophale) SiO2 
 PCOD8154574
Probable space group: C 2/C
;
_chemical_formula_sum "Si O2"
_cell_formula_units_Z 32
_cell_length_a 11.690631
_cell_length_b 18.037953
_cell_length_c 9.449273
_cell_angle_alpha 90.000000
_cell_angle_beta 140.665081
_cell_angle_gamma 90.000000
_cell_volume 1263.024342
_symmetry_space_group_name_H-M "C 2/C"
_symmetry_group_IT_number 15
_symmetry_cell_setting 'monoclinic'
loop_
_space_group_symop_operation_xyz
x,y,z
-x,y,1/2-z
-x,-y,-z
x,-y,1/2+z
1/2+x,1/2+y,z
1/2-x,1/2+y,1/2-z
1/2-x,1/2-y,-z
1/2+x,1/2-y,1/2+z
loop_
_atom_site_type_symbol
_atom_site_label
_atom_site_fract_x
_atom_site_fract_y
_atom_site_fract_z
Si Si1 0.966435 0.192472 0.875626
Si Si2 0.785759 0.021244 0.549250
Si Si3 0.340034 0.145826 0.275034
Si Si4 0.676071 0.913487 0.219041
O O1 0.942723 0.279442 0.827985
O O2 0.794556 0.157721 0.788936
O O3 0.000000 0.158442 0.750000
O O4 0.140451 0.169689 0.138189
O O5 0.725006 0.944029 0.420114
O O6 0.000000 0.028001 0.750000
O O7 0.680595 0.090402 0.377500
O O8 0.721096 0.020087 0.650636
O O9 0.464363 0.108167 0.514521
#
# Coordination Sequence:
#
# PCOD8154574 Si02
#       4
#     8   8   8   8
#     4  12  22  38  68  99 135 167 222 284 331 377
#     4  12  25  43  68  98 139 174 218 269 334 393
#     4  12  23  40  69 101 132 171 222 283 331 379
#     4  12  25  44  66 101 134 178 216 272 332 394
#
# _framework density 25.336012
#
# number of rings (size 3 to 8) (size 9 to 14) (size 15 to 20)
#    0.000    0.000    7.500    4.500    0.000    0.000 
#    0.000    0.000    0.000    6.000    0.000    0.000 
#    0.000    0.000    0.000    0.000    0.000    0.000 
#
# Total GULP energy -198315.536993 kJ/mol
# GULP energy per Si atom -12394.721062 kJ/mol
# Density = 2.527835 g / cm^3
# Si number density = 25.336012 Si / 1000 Ang^3
#
#
#
# Elastic Constant Matrix: (Units=GPa)
#
#
# Indices 1 2 3 4 5 6 
#
# 1 44.3003 20.6223 33.0895 0.0000 5.9623 0.0000
# 2 20.6223 90.7299 49.5086 0.0000 6.2906 0.0000
# 3 33.0895 49.5086 182.6907 0.0000 44.2628 0.0000
# 4 0.0000 0.0000 0.0000 14.9035 0.0000 10.8418
# 5 5.9623 6.2906 44.2628 0.0000 36.8775 0.0000
# 6 0.0000 0.0000 0.0000 10.8418 0.0000 21.0515
#
#
#
# Elastic Compliance Matrix: (Units=1/GPa)
#
#
# Indices 1 2 3 4 5 6 
#
# 1 0.027401 -0.004037 -0.004177 0.000000 0.001272 0.000000
# 2 -0.004037 0.013741 -0.003642 0.000000 0.002680 0.000000
# 3 -0.004177 -0.003642 0.009734 0.000000 -0.010386 0.000000
# 4 0.000000 0.000000 0.000000 0.107298 0.000000 -0.055260
# 5 0.001272 0.002680 -0.010386 0.000000 0.038920 0.000000
# 6 0.000000 0.000000 0.000000 -0.055260 0.000000 0.075962
#
#
# Mechanical properties :
#
#
# Convention : Reuss Voigt Hill
#
# Bulk Modulus (GPa) = 36.81378 58.24019 47.52699
# Shear Modulus (GPa) = 16.34934 28.86652 22.60793
#
# Velocity S-wave (km/s) = 2.54303 3.37908 2.99042
# Velocity P-wave (km/s) = 4.81502 6.18557 5.54282
#
# Compressibility (1/GPa) = 0.02716374
#
# Stress axis : x y z
#
# Youngs Moduli (GPa) = 36.49452 72.77643 102.73588
#
# Poissons Ratio (x) = 0.29379 0.42916
# Poissons Ratio (y) = 0.14733 0.37414
# Poissons Ratio (z) = 0.15245 0.26504
#
# Static dielectric constant tensor:
#      x y z
#    x 3.912120 0.000000 0.368790 
#    y 0.000000 4.587040 0.000000 
#    z 0.368790 0.000000 5.017760 
# 
# 
# High freq. dielectric constant tensor:
#      x y z
#    x 1.962510 0.000000 0.039580 
#    y 0.000000 2.026170 0.000000 
#    z 0.039580 0.000000 2.029960 
# 
# From -- ./inp_files/98618.got.cif
#   From: 2010.06.25/outbox.cif.g09.slc.cpg/sg15_50_cif.got.tgz:98618.got - 2010.06.28 07:06:18.
