data_PCOD8154059
_publ_section_title
;
Structure prediction by ZEFSAII (Michael W. Deem and Ramdas Pophale) SiO2 
 PCOD8154059
Probable space group: C 2/C
;
_chemical_formula_sum "Si O2"
_cell_formula_units_Z 48
_cell_length_a 14.668137
_cell_length_b 11.011600
_cell_length_c 14.260011
_cell_angle_alpha 90.000000
_cell_angle_beta 70.230901
_cell_angle_gamma 90.000000
_cell_volume 2167.524885
_symmetry_space_group_name_H-M "C 2/C"
_symmetry_group_IT_number 15
_symmetry_cell_setting 'monoclinic'
loop_
_space_group_symop_operation_xyz
x,y,z
-x,y,1/2-z
-x,-y,-z
x,-y,1/2+z
1/2+x,1/2+y,z
1/2-x,1/2+y,1/2-z
1/2-x,1/2-y,-z
1/2+x,1/2-y,1/2+z
loop_
_atom_site_type_symbol
_atom_site_label
_atom_site_fract_x
_atom_site_fract_y
_atom_site_fract_z
Si Si1 0.606368 0.590484 0.861353
Si Si2 0.285082 0.771477 0.384521
Si Si3 0.883881 0.383517 0.050255
Si Si4 0.101291 0.878773 0.003314
Si Si5 0.811995 0.999145 0.348861
Si Si6 0.043620 0.547861 0.637860
O O1 0.696338 0.674180 0.857275
O O2 0.506080 0.656770 0.922237
O O3 0.614992 0.566733 0.747615
O O4 0.602200 0.458358 0.909723
O O5 0.250000 0.750000 0.500000
O O6 0.319233 0.643320 0.329925
O O7 0.374888 0.861262 0.353809
O O8 0.798896 0.459825 0.128843
O O9 0.969017 0.378832 0.097649
O O10 0.847061 0.247685 0.040252
O O11 0.913922 0.439761 0.939656
O O12 0.160090 0.958902 0.056749
O O13 0.000000 0.493402 0.750000
#
# Coordination Sequence:
#
# PCOD8154059 Si02
#       6
#     8   8   8   8   8   8
#     4  11  26  43  70 104 133 180 223 277 335 396
#     4  12  23  48  69  98 138 179 223 278 331 405
#     4  11  25  45  67 103 138 173 225 284 332 394
#     4  11  25  46  67 101 140 173 224 281 334 394
#     4  12  26  44  72 101 135 180 225 273 340 398
#     4  11  25  42  70 101 133 182 226 274 338 397
#
# _framework density 22.145074000000001
#
# number of rings (size 3 to 8) (size 9 to 14) (size 15 to 20)
#    0.000    0.667    3.333    3.000    9.333    1.333 
#    0.000    0.000    0.000    0.000    0.000    0.000 
#    0.000    0.000    0.000    0.000    0.000    0.000 
#
# Total GULP energy -297672.195115 kJ/mol
# GULP energy per Si atom -12403.008130 kJ/mol
# Density = 2.209467 g / cm^3
# Si number density = 22.145074 Si / 1000 Ang^3
#
#
#
# Elastic Constant Matrix: (Units=GPa)
#
#
# Indices 1 2 3 4 5 6 
#
# 1 84.1870 13.4533 -15.3855 0.0000 -8.0451 0.0000
# 2 13.4533 99.7886 1.7203 0.0000 4.4373 0.0000
# 3 -15.3855 1.7203 104.5085 0.0000 4.0087 0.0000
# 4 0.0000 0.0000 0.0000 21.3632 0.0000 2.6255
# 5 -8.0451 4.4373 4.0087 0.0000 15.4077 0.0000
# 6 0.0000 0.0000 0.0000 2.6255 0.0000 25.7167
#
#
#
# Elastic Compliance Matrix: (Units=1/GPa)
#
#
# Indices 1 2 3 4 5 6 
#
# 1 0.013205 -0.002124 0.001708 0.000000 0.007062 0.000000
# 2 -0.002124 0.010493 -0.000330 0.000000 -0.004045 0.000000
# 3 0.001708 -0.000330 0.009886 0.000000 -0.001585 0.000000
# 4 0.000000 0.000000 0.000000 0.047404 0.000000 -0.004840
# 5 0.007062 -0.004045 -0.001585 0.000000 0.070167 0.000000
# 6 0.000000 0.000000 0.000000 -0.004840 0.000000 0.039379
#
#
# Mechanical properties :
#
#
# Convention : Reuss Voigt Hill
#
# Bulk Modulus (GPa) = 31.16013 32.00670 31.58342
# Shear Modulus (GPa) = 24.66407 31.74393 28.20400
#
# Velocity S-wave (km/s) = 3.34091 3.79020 3.57263
# Velocity P-wave (km/s) = 5.38365 5.79989 5.59564
#
# Compressibility (1/GPa) = 0.03209229
#
# Stress axis : x y z
#
# Youngs Moduli (GPa) = 75.73054 95.30108 101.15015
#
# Poissons Ratio (x) = 0.20239 -0.17277
# Poissons Ratio (y) = 0.16083 0.03340
# Poissons Ratio (z) = -0.12935 0.03147
#
# Static dielectric constant tensor:
#      x y z
#    x 4.025820 0.000000 -0.171140 
#    y 0.000000 13.630300 0.000000 
#    z -0.171140 0.000000 2.103600 
# 
# 
# High freq. dielectric constant tensor:
#      x y z
#    x 1.877560 0.000000 -0.001390 
#    y 0.000000 1.870540 0.000000 
#    z -0.001390 0.000000 1.881860 
# 
# From -- ./inp_files/152479.got.cif
#   From: 2010.06.25/outbox.cif.g09.slc.cpg/sg15_77_cif.got.tgz:152479.got - 2010.06.28 07:06:18.
