data_PCOD8154731
_publ_section_title
;
Structure prediction by ZEFSAII (Michael W. Deem and Ramdas Pophale) SiO2 
 PCOD8154731
Probable space group: C 2/C
;
_chemical_formula_sum "Si O2"
_cell_formula_units_Z 48
_cell_length_a 16.072956
_cell_length_b 8.304425
_cell_length_c 30.685353
_cell_angle_alpha 90.000000
_cell_angle_beta 34.784305
_cell_angle_gamma 90.000000
_cell_volume 2336.594899
_symmetry_space_group_name_H-M "C 2/C"
_symmetry_group_IT_number 15
_symmetry_cell_setting 'monoclinic'
loop_
_space_group_symop_operation_xyz
x,y,z
-x,y,1/2-z
-x,-y,-z
x,-y,1/2+z
1/2+x,1/2+y,z
1/2-x,1/2+y,1/2-z
1/2-x,1/2-y,-z
1/2+x,1/2-y,1/2+z
loop_
_atom_site_type_symbol
_atom_site_label
_atom_site_fract_x
_atom_site_fract_y
_atom_site_fract_z
Si Si1 0.405402 0.392022 0.172302
Si Si2 0.816661 0.674420 0.928222
Si Si3 0.900845 0.965232 0.834436
Si Si4 0.886137 0.586442 0.579906
Si Si5 0.517349 0.434126 0.539493
Si Si6 0.102023 0.479983 0.831017
O O1 0.504675 0.466041 0.166978
O O2 0.453214 0.451313 0.104235
O O3 0.238805 0.443865 0.247844
O O4 0.421354 0.202913 0.172525
O O5 0.834581 0.799389 0.880836
O O6 0.964941 0.584052 0.874942
O O7 0.750000 0.750000 0.000000
O O8 0.691467 0.553402 0.968002
O O9 0.000000 0.928718 0.750000
O O10 0.770965 0.089183 0.876837
O O11 0.941143 0.759165 0.573503
O O12 0.871065 0.477473 0.629069
O O13 0.000000 0.500000 0.500000
O O14 0.500000 0.500000 0.500000
#
# Coordination Sequence:
#
# PCOD8154731 Si02
#       6
#     8   8   8   8   8   8
#     4  12  27  47  70 101 144 185 237 294 351 420
#     4  12  24  47  71 102 142 186 231 289 353 422
#     4  12  25  43  72 105 142 187 232 286 359 421
#     4  12  23  44  70 102 144 185 233 285 350 420
#     4  12  27  45  71 104 142 184 238 288 348 421
#     4  12  26  46  71 100 141 190 232 291 355 414
#
# _framework density 20.542712999999999
#
# number of rings (size 3 to 8) (size 9 to 14) (size 15 to 20)
#    0.000    0.000    6.667    3.000    2.333    0.667 
#    0.000    0.833    0.000    0.000    0.000    0.000 
#    0.000    0.000    0.000    0.000    0.000    0.000 
#
# Total GULP energy -297563.071160 kJ/mol
# GULP energy per Si atom -12398.461298 kJ/mol
# Density = 2.049596 g / cm^3
# Si number density = 20.542713 Si / 1000 Ang^3
#
#
#
# Elastic Constant Matrix: (Units=GPa)
#
#
# Indices 1 2 3 4 5 6 
#
# 1 136.9596 16.4644 71.5049 -0.0066 -13.5465 -0.0337
# 2 16.4644 71.0398 30.1147 0.0096 -8.8697 0.0254
# 3 71.5049 30.1147 142.7959 -0.0162 -5.9529 -0.0410
# 4 -0.0066 0.0096 -0.0162 40.3966 -0.0011 20.4690
# 5 -13.5465 -8.8697 -5.9529 -0.0011 53.7339 -0.0014
# 6 -0.0337 0.0254 -0.0410 20.4690 -0.0014 133.5290
#
#
#
# Elastic Compliance Matrix: (Units=1/GPa)
#
#
# Indices 1 2 3 4 5 6 
#
# 1 0.010094 0.000019 -0.004975 -0.000001 0.001997 0.000001
# 2 0.000019 0.015722 -0.003232 -0.000003 0.002242 -0.000003
# 3 -0.004975 -0.003232 0.010148 0.000003 -0.000664 0.000002
# 4 -0.000001 -0.000003 0.000003 0.026839 0.000000 -0.004114
# 5 0.001997 0.002242 -0.000664 0.000000 0.019410 0.000000
# 6 0.000001 -0.000003 0.000002 -0.004114 0.000000 0.008120
#
#
# Mechanical properties :
#
#
# Convention : Reuss Voigt Hill
#
# Bulk Modulus (GPa) = 51.05083 65.21813 58.13448
# Shear Modulus (GPa) = 44.15414 61.04599 52.60007
#
# Velocity S-wave (km/s) = 4.64117 5.45721 5.06565
# Velocity P-wave (km/s) = 7.32295 8.45723 7.91045
#
# Compressibility (1/GPa) = 0.01958832
#
# Stress axis : x y z
#
# Youngs Moduli (GPa) = 99.06618 63.60470 98.53821
#
# Poissons Ratio (x) = -0.00121 0.49027
# Poissons Ratio (y) = -0.00188 0.31845
# Poissons Ratio (z) = 0.49290 0.20555
#
# Static dielectric constant tensor:
#      x y z
#    x 4.162010 -0.001840 0.053330 
#    y -0.001840 3.534970 -0.000600 
#    z 0.053330 -0.000600 4.018170 
# 
# 
# High freq. dielectric constant tensor:
#      x y z
#    x 1.828580 0.000000 -0.001630 
#    y 0.000000 1.798450 0.000000 
#    z -0.001630 0.000000 1.826970 
# 
# From -- ./inp_files/209291.got.cif
#   From: 2010.06.25/outbox.cif.g09.slc.cpg/sg15_105_cif.got.tgz:209291.got - 2010.06.28 07:06:18.
