data_PCOD8154277
_publ_section_title
;
Structure prediction by ZEFSAII (Michael W. Deem and Ramdas Pophale) SiO2 
 PCOD8154277
Probable space group: C 2/C
;
_chemical_formula_sum "Si O2"
_cell_formula_units_Z 64
_cell_length_a 25.195473
_cell_length_b 9.510766
_cell_length_c 14.109598
_cell_angle_alpha 90.000000
_cell_angle_beta 127.023477
_cell_angle_gamma 90.000000
_cell_volume 2699.399202
_symmetry_space_group_name_H-M "C 2/C"
_symmetry_group_IT_number 15
_symmetry_cell_setting 'monoclinic'
loop_
_space_group_symop_operation_xyz
x,y,z
-x,y,1/2-z
-x,-y,-z
x,-y,1/2+z
1/2+x,1/2+y,z
1/2-x,1/2+y,1/2-z
1/2-x,1/2-y,-z
1/2+x,1/2-y,1/2+z
loop_
_atom_site_type_symbol
_atom_site_label
_atom_site_fract_x
_atom_site_fract_y
_atom_site_fract_z
Si Si1 0.349826 0.052325 0.129806
Si Si2 0.931143 0.833873 0.957152
Si Si3 0.709592 0.711495 0.710979
Si Si4 0.578920 0.384929 0.158796
Si Si5 0.071112 0.536780 0.618947
Si Si6 0.688387 0.992187 0.617345
Si Si7 0.368099 0.635919 0.596662
Si Si8 0.770429 0.891419 0.463076
O O1 0.336507 0.215816 0.095745
O O2 0.419474 0.017717 0.260945
O O3 0.294683 0.980893 0.138628
O O4 0.338634 0.970527 0.018581
O O5 0.896626 0.842721 0.022529
O O6 0.010789 0.819403 0.048875
O O7 0.910241 0.700883 0.872234
O O8 0.907357 0.965464 0.872282
O O9 0.642794 0.712941 0.702929
O O10 0.735837 0.865934 0.706400
O O11 0.771692 0.638520 0.830821
O O12 0.690423 0.639174 0.591061
O O13 0.572272 0.396814 0.265596
O O14 0.123367 0.461578 0.608324
O O15 0.000000 0.500000 0.500000
O O16 0.317242 0.507244 0.564732
O O17 0.750000 0.750000 0.500000
#
# Coordination Sequence:
#
# PCOD8154277 Si02
#       8
#     8   8   8   8   8   8   8   8
#     4  12  26  46  73 111 144 197 256 306 377 454
#     4  11  25  48  76 105 150 198 252 309 386 448
#     4  12  26  45  72 109 157 192 249 310 383 445
#     4  11  26  45  75 111 145 197 251 311 374 465
#     4  12  27  49  76 106 151 200 254 314 380 451
#     4  12  27  44  76 108 152 197 248 311 379 450
#     4  12  25  47  77 106 154 196 252 307 386 452
#     4  12  26  45  72 109 152 196 254 309 377 445
#
# _framework density 23.70898
#
# number of rings (size 3 to 8) (size 9 to 14) (size 15 to 20)
#    0.000    0.250    5.000    3.750    5.250    0.500 
#    0.000    0.000    2.750    0.000    0.000    0.000 
#    0.000    0.000    0.000    0.000    0.000    0.000 
#
# Total GULP energy -396423.556685 kJ/mol
# GULP energy per Si atom -12388.236146 kJ/mol
# Density = 2.365502 g / cm^3
# Si number density = 23.708980 Si / 1000 Ang^3
#
#
#
# Elastic Constant Matrix: (Units=GPa)
#
#
# Indices 1 2 3 4 5 6 
#
# 1 88.0534 37.4411 29.5637 0.0000 -2.5231 0.0000
# 2 37.4411 143.2051 46.5968 0.0000 -12.2501 0.0000
# 3 29.5637 46.5968 118.1640 0.0000 -12.7907 0.0000
# 4 0.0000 0.0000 0.0000 36.3339 0.0000 -6.3553
# 5 -2.5231 -12.2501 -12.7907 0.0000 29.1204 0.0000
# 6 0.0000 0.0000 0.0000 -6.3553 0.0000 26.3519
#
#
#
# Elastic Compliance Matrix: (Units=1/GPa)
#
#
# Indices 1 2 3 4 5 6 
#
# 1 0.013305 -0.002809 -0.002335 0.000000 -0.001055 0.000000
# 2 -0.002809 0.008726 -0.002485 0.000000 0.002336 0.000000
# 3 -0.002335 -0.002485 0.010386 0.000000 0.003314 0.000000
# 4 0.000000 0.000000 0.000000 0.028735 0.000000 0.006930
# 5 -0.001055 0.002336 0.003314 0.000000 0.036687 0.000000
# 6 0.000000 0.000000 0.000000 0.006930 0.000000 0.039619
#
#
# Mechanical properties :
#
#
# Convention : Reuss Voigt Hill
#
# Bulk Modulus (GPa) = 58.28327 64.06953 61.17640
# Shear Modulus (GPa) = 31.55850 34.08263 32.82057
#
# Velocity S-wave (km/s) = 3.65235 3.79561 3.72467
# Velocity P-wave (km/s) = 6.51325 6.80373 6.66007
#
# Compressibility (1/GPa) = 0.01715758
#
# Stress axis : x y z
#
# Youngs Moduli (GPa) = 75.15979 114.60143 96.28457
#
# Poissons Ratio (x) = 0.32191 0.22485
# Poissons Ratio (y) = 0.21112 0.23930
# Poissons Ratio (z) = 0.17552 0.28483
#
# Static dielectric constant tensor:
#      x y z
#    x 4.153110 0.000000 -0.184760 
#    y 0.000000 4.601460 0.000000 
#    z -0.184760 0.000000 4.499010 
# 
# 
# High freq. dielectric constant tensor:
#      x y z
#    x 1.925980 0.000000 -0.012880 
#    y 0.000000 1.960500 0.000000 
#    z -0.012880 0.000000 1.951250 
# 
# From -- ./inp_files/181174.got.cif
#   From: 2010.06.25/outbox.cif.g09.slc.cpg/sg15_91_cif.got.tgz:181174.got - 2010.06.28 07:06:18.
