data_PCOD8154808
_publ_section_title
;
Structure prediction by ZEFSAII (Michael W. Deem and Ramdas Pophale) SiO2 
 PCOD8154808
Probable space group: C 2/C
;
_chemical_formula_sum "Si O2"
_cell_formula_units_Z 40
_cell_length_a 8.781295
_cell_length_b 27.130976
_cell_length_c 15.086991
_cell_angle_alpha 90.000000
_cell_angle_beta 149.710660
_cell_angle_gamma 90.000000
_cell_volume 1812.897544
_symmetry_space_group_name_H-M "C 2/C"
_symmetry_group_IT_number 15
_symmetry_cell_setting 'monoclinic'
loop_
_space_group_symop_operation_xyz
x,y,z
-x,y,1/2-z
-x,-y,-z
x,-y,1/2+z
1/2+x,1/2+y,z
1/2-x,1/2+y,1/2-z
1/2-x,1/2-y,-z
1/2+x,1/2-y,1/2+z
loop_
_atom_site_type_symbol
_atom_site_label
_atom_site_fract_x
_atom_site_fract_y
_atom_site_fract_z
Si Si1 0.847231 0.394722 0.586198
Si Si2 0.639521 0.946295 0.565623
Si Si3 0.479551 0.213642 0.359363
Si Si4 0.357627 0.118351 0.775120
Si Si5 0.481246 0.778748 0.056037
O O1 0.922648 0.337711 0.630749
O O2 0.486331 0.401072 0.401826
O O3 0.000000 0.420090 0.750000
O O4 0.001511 0.416398 0.577334
O O5 0.547321 0.920194 0.428098
O O6 0.000000 0.948624 0.750000
O O7 0.500000 0.000000 0.500000
O O8 0.750000 0.250000 0.500000
O O9 0.343925 0.207097 0.391396
O O10 0.240869 0.237895 0.172576
O O11 0.500000 0.119222 0.750000
O O12 0.380758 0.172890 0.827815
O O13 0.250000 0.750000 0.000000
#
# Coordination Sequence:
#
# PCOD8154808 Si02
#       5
#     8   8   8   8   8
#     4  12  26  46  74 108 149 193 247 303 366 436
#     4  12  28  52  82 111 144 189 244 307 375 438
#     4  12  24  41  65  99 145 194 244 293 363 426
#     4  12  26  47  72 108 151 193 245 306 364 436
#     4  12  26  41  63 101 145 194 246 299 357 436
#
# _framework density 22.064125000000001
#
# number of rings (size 3 to 8) (size 9 to 14) (size 15 to 20)
#    0.000    0.000    4.000    6.600    5.600    0.800 
#    0.000    4.000    0.000    0.000    0.000    0.000 
#    0.000    0.000    0.000    0.000    0.000    0.000 
#
# Total GULP energy -247996.870059 kJ/mol
# GULP energy per Si atom -12399.843503 kJ/mol
# Density = 2.201391 g / cm^3
# Si number density = 22.064125 Si / 1000 Ang^3
#
#
#
# Elastic Constant Matrix: (Units=GPa)
#
#
# Indices 1 2 3 4 5 6 
#
# 1 112.6995 18.3894 37.6564 0.0000 -9.2400 0.0000
# 2 18.3894 107.6728 39.9805 0.0000 6.3970 0.0000
# 3 37.6564 39.9805 138.7965 0.0000 5.4782 0.0000
# 4 0.0000 0.0000 0.0000 27.0586 0.0000 8.4767
# 5 -9.2400 6.3970 5.4782 0.0000 59.6518 0.0000
# 6 0.0000 0.0000 0.0000 8.4767 0.0000 30.6424
#
#
#
# Elastic Compliance Matrix: (Units=1/GPa)
#
#
# Indices 1 2 3 4 5 6 
#
# 1 0.010019 -0.000880 -0.002539 0.000000 0.001880 0.000000
# 2 -0.000880 0.010519 -0.002751 0.000000 -0.001012 0.000000
# 3 -0.002539 -0.002751 0.008722 0.000000 -0.000899 0.000000
# 4 0.000000 0.000000 0.000000 0.040463 0.000000 -0.011193
# 5 0.001880 -0.001012 -0.000899 0.000000 0.017246 0.000000
# 6 0.000000 0.000000 0.000000 -0.011193 0.000000 0.035731
#
#
# Mechanical properties :
#
#
# Convention : Reuss Voigt Hill
#
# Bulk Modulus (GPa) = 59.10382 61.24683 60.17533
# Shear Modulus (GPa) = 35.54124 41.01339 38.27731
#
# Velocity S-wave (km/s) = 4.01785 4.31609 4.16964
# Velocity P-wave (km/s) = 6.95483 7.25651 7.10727
#
# Compressibility (1/GPa) = 0.01691938
#
# Stress axis : x y z
#
# Youngs Moduli (GPa) = 99.80833 95.06185 114.65691
#
# Poissons Ratio (x) = 0.08366 0.29111
# Poissons Ratio (y) = 0.08784 0.31547
# Poissons Ratio (z) = 0.25341 0.26156
#
# Static dielectric constant tensor:
#      x y z
#    x 4.363090 0.000000 -0.341070 
#    y 0.000000 3.988410 0.000000 
#    z -0.341070 0.000000 4.785690 
# 
# 
# High freq. dielectric constant tensor:
#      x y z
#    x 1.896570 0.000000 -0.007730 
#    y 0.000000 1.862630 0.000000 
#    z -0.007730 0.000000 1.886160 
# 
# From -- ./inp_files/139684.got.cif
#   From: 2010.06.25/outbox.cif.g09.slc.cpg/sg15_70_cif.got.tgz:139684.got - 2010.06.28 07:06:18.
