data_PCOD8154660
_publ_section_title
;
Structure prediction by ZEFSAII (Michael W. Deem and Ramdas Pophale) SiO2 
 PCOD8154660
Probable space group: C 2/C
;
_chemical_formula_sum "Si O2"
_cell_formula_units_Z 36
_cell_length_a 11.502086
_cell_length_b 14.113195
_cell_length_c 20.565937
_cell_angle_alpha 90.000000
_cell_angle_beta 27.301490
_cell_angle_gamma 90.000000
_cell_volume 1531.275418
_symmetry_space_group_name_H-M "C 2/C"
_symmetry_group_IT_number 15
_symmetry_cell_setting 'monoclinic'
loop_
_space_group_symop_operation_xyz
x,y,z
-x,y,1/2-z
-x,-y,-z
x,-y,1/2+z
1/2+x,1/2+y,z
1/2-x,1/2+y,1/2-z
1/2-x,1/2-y,-z
1/2+x,1/2-y,1/2+z
loop_
_atom_site_type_symbol
_atom_site_label
_atom_site_fract_x
_atom_site_fract_y
_atom_site_fract_z
Si Si1 0.000000 0.101821 0.750000
Si Si2 0.843246 0.031492 0.215064
Si Si3 0.984808 0.320704 0.553162
Si Si4 0.287864 0.873203 0.299717
Si Si5 0.816877 0.651539 0.996938
O O1 0.212924 0.166690 0.607262
O O2 0.151304 0.038166 0.725855
O O3 0.622552 0.111383 0.335792
O O4 0.824212 0.979352 0.153112
O O5 0.114973 0.077862 0.071450
O O6 0.925031 0.208935 0.593585
O O7 0.819692 0.350168 0.572926
O O8 0.500000 0.861571 0.250000
O O9 0.410635 0.872733 0.166688
O O10 0.750000 0.750000 0.000000
#
# Coordination Sequence:
#
# PCOD8154660 Si02
#       5
#     4   8   8   8   8
#     4  12  24  40  74 110 138 182 250 300 334 416
#     4  12  24  44  78 108 138 184 245 296 349 425
#     4  12  24  47  74 105 143 191 242 289 355 423
#     4  12  26  45  74 108 144 188 236 293 362 421
#     4  12  22  45  76 101 137 189 240 288 348 426
#
# _framework density 23.509813000000001
#
# number of rings (size 3 to 8) (size 9 to 14) (size 15 to 20)
#    0.000    0.000    8.889    2.000    0.000    1.778 
#    0.000    0.000    2.444    0.000    0.000    0.000 
#    0.000    0.000    0.000    0.000    0.000    0.000 
#
# Total GULP energy -223010.533636 kJ/mol
# GULP energy per Si atom -12389.474091 kJ/mol
# Density = 2.345630 g / cm^3
# Si number density = 23.509813 Si / 1000 Ang^3
#
#
#
# Elastic Constant Matrix: (Units=GPa)
#
#
# Indices 1 2 3 4 5 6 
#
# 1 57.5013 50.6860 4.5452 -0.0050 -2.4209 0.0193
# 2 50.6860 132.7732 36.4215 0.0848 -1.8790 0.0300
# 3 4.5452 36.4215 107.6039 0.1360 -9.7939 0.0388
# 4 -0.0050 0.0848 0.1360 41.9903 0.0251 -0.3814
# 5 -2.4209 -1.8790 -9.7939 0.0251 25.2630 -0.0250
# 6 0.0193 0.0300 0.0388 -0.3814 -0.0250 41.8231
#
#
#
# Elastic Compliance Matrix: (Units=1/GPa)
#
#
# Indices 1 2 3 4 5 6 
#
# 1 0.027043 -0.011069 0.002866 0.000014 0.002879 -0.000005
# 2 -0.011069 0.012839 -0.004030 -0.000013 -0.001668 -0.000001
# 3 0.002866 -0.004030 0.010919 -0.000029 0.004208 -0.000006
# 4 0.000014 -0.000013 -0.000029 0.023817 -0.000034 0.000217
# 5 0.002879 -0.001668 0.004208 -0.000034 0.041367 0.000020
# 6 -0.000005 -0.000001 -0.000006 0.000217 0.000020 0.023912
#
#
# Mechanical properties :
#
#
# Convention : Reuss Voigt Hill
#
# Bulk Modulus (GPa) = 37.97108 53.46484 45.71796
# Shear Modulus (GPa) = 28.87816 35.56366 32.22091
#
# Velocity S-wave (km/s) = 3.50858 3.89358 3.70608
# Velocity P-wave (km/s) = 5.70962 6.55776 6.14833
#
# Compressibility (1/GPa) = 0.02633583
#
# Stress axis : x y z
#
# Youngs Moduli (GPa) = 36.97869 77.88703 91.58025
#
# Poissons Ratio (x) = 0.86213 -0.26250
# Poissons Ratio (y) = 0.40932 0.36907
# Poissons Ratio (z) = -0.10600 0.31388
#
# Static dielectric constant tensor:
#      x y z
#    x 4.162360 0.000010 0.123690 
#    y 0.000010 4.365870 0.000080 
#    z 0.123690 0.000080 4.034830 
# 
# 
# High freq. dielectric constant tensor:
#      x y z
#    x 1.919280 0.000000 -0.005740 
#    y 0.000000 1.940990 0.000010 
#    z -0.005740 0.000010 1.935360 
# 
# From -- ./inp_files/85345.got.cif
#   From: 2010.06.25/outbox.cif.g09.slc.cpg/sg15_43_cif.got.tgz:85345.got - 2010.06.28 07:06:18.
