data_PCOD8154282
_publ_section_title
;
Structure prediction by ZEFSAII (Michael W. Deem and Ramdas Pophale) SiO2 
 PCOD8154282
Probable space group: C 2/C
;
_chemical_formula_sum "Si O2"
_cell_formula_units_Z 64
_cell_length_a 11.868659
_cell_length_b 29.297921
_cell_length_c 7.760252
_cell_angle_alpha 90.000000
_cell_angle_beta 89.133642
_cell_angle_gamma 90.000000
_cell_volume 2698.140930
_symmetry_space_group_name_H-M "C 2/C"
_symmetry_group_IT_number 15
_symmetry_cell_setting 'monoclinic'
loop_
_space_group_symop_operation_xyz
x,y,z
-x,y,1/2-z
-x,-y,-z
x,-y,1/2+z
1/2+x,1/2+y,z
1/2-x,1/2+y,1/2-z
1/2-x,1/2-y,-z
1/2+x,1/2-y,1/2+z
loop_
_atom_site_type_symbol
_atom_site_label
_atom_site_fract_x
_atom_site_fract_y
_atom_site_fract_z
Si Si1 0.676294 0.194220 0.458204
Si Si2 0.375439 0.044339 0.822948
Si Si3 0.286579 0.044396 0.172627
Si Si4 0.889166 0.624918 0.324236
Si Si5 0.425745 0.280129 0.903039
Si Si6 0.552802 0.641148 0.576882
Si Si7 0.041045 0.049018 0.060286
Si Si8 0.195754 0.639642 0.816285
O O1 0.616910 0.163198 0.321400
O O2 0.599701 0.239965 0.458626
O O3 0.799826 0.201204 0.370684
O O4 0.681305 0.174636 0.656437
O O5 0.500000 0.037798 0.750000
O O6 0.315691 0.089189 0.754693
O O7 0.293264 0.002570 0.775783
O O8 0.386642 0.046832 0.029213
O O9 0.291420 0.086409 0.308788
O O10 0.175505 0.049252 0.058255
O O11 0.893589 0.644947 0.520950
O O12 0.000000 0.598978 0.250000
O O13 0.500000 0.256706 0.750000
O O14 0.506283 0.323187 0.940191
O O15 0.500000 0.660859 0.750000
O O16 0.509123 0.589349 0.555016
O O17 0.686511 0.645246 0.588095
O O18 0.000000 0.059805 0.250000
O O19 0.000000 0.000000 0.000000
#
# Coordination Sequence:
#
# PCOD8154282 Si02
#       8
#     8   8   8   8   8   8   8   8
#     4  11  26  50  71 111 145 188 245 308 361 448
#     4  12  24  41  68  98 146 194 245 303 364 427
#     4  12  23  43  64 103 148 189 248 301 355 446
#     4  12  26  44  71 103 145 190 247 298 371 432
#     4  11  25  48  77 103 147 189 239 301 375 429
#     4  12  23  44  71 104 140 187 238 293 365 436
#     4  12  24  41  68 102 143 186 235 295 358 425
#     4  12  25  46  73 105 143 192 244 304 368 441
#
# _framework density 23.720037000000001
#
# number of rings (size 3 to 8) (size 9 to 14) (size 15 to 20)
#    0.000    0.250    2.500    7.500    1.750    0.500 
#    0.000    1.875    0.000    0.000    0.000    0.000 
#    0.000    0.000    0.000    0.000    0.000    0.000 
#
# Total GULP energy -396516.010135 kJ/mol
# GULP energy per Si atom -12391.125317 kJ/mol
# Density = 2.366605 g / cm^3
# Si number density = 23.720037 Si / 1000 Ang^3
#
#
#
# Elastic Constant Matrix: (Units=GPa)
#
#
# Indices 1 2 3 4 5 6 
#
# 1 60.9072 14.2548 16.1309 0.0000 -13.0911 0.0000
# 2 14.2548 129.0607 18.3312 0.0000 14.2553 0.0000
# 3 16.1309 18.3312 109.2283 0.0000 -19.4795 0.0000
# 4 0.0000 0.0000 0.0000 25.5848 0.0000 -6.5938
# 5 -13.0911 14.2553 -19.4795 0.0000 41.2724 0.0000
# 6 0.0000 0.0000 0.0000 -6.5938 0.0000 49.6055
#
#
#
# Elastic Compliance Matrix: (Units=1/GPa)
#
#
# Indices 1 2 3 4 5 6 
#
# 1 0.018686 -0.002582 -0.001212 0.000000 0.006247 0.000000
# 2 -0.002582 0.008841 -0.001958 0.000000 -0.004797 0.000000
# 3 -0.001212 -0.001958 0.010608 0.000000 0.005298 0.000000
# 4 0.000000 0.000000 0.000000 0.040472 0.000000 0.005380
# 5 0.006247 -0.004797 0.005298 0.000000 0.030368 0.000000
# 6 0.000000 0.000000 0.000000 0.005380 0.000000 0.020874
#
#
# Mechanical properties :
#
#
# Convention : Reuss Voigt Hill
#
# Bulk Modulus (GPa) = 37.54972 44.07000 40.80986
# Shear Modulus (GPa) = 33.28212 39.99117 36.63664
#
# Velocity S-wave (km/s) = 3.74989 4.11051 3.93433
# Velocity P-wave (km/s) = 5.88334 6.41466 6.15474
#
# Compressibility (1/GPa) = 0.02663135
#
# Stress axis : x y z
#
# Youngs Moduli (GPa) = 53.51503 113.10470 94.27166
#
# Poissons Ratio (x) = 0.29200 0.11429
# Poissons Ratio (y) = 0.13816 0.18458
# Poissons Ratio (z) = 0.06488 0.22146
#
# Static dielectric constant tensor:
#      x y z
#    x 4.446980 0.000000 -0.258490 
#    y 0.000000 4.267920 0.000000 
#    z -0.258490 0.000000 4.384820 
# 
# 
# High freq. dielectric constant tensor:
#      x y z
#    x 1.949710 0.000000 -0.012520 
#    y 0.000000 1.947080 0.000000 
#    z -0.012520 0.000000 1.947330 
# 
# From -- ./inp_files/35671.got.cif
#   From: 2010.06.25/outbox.cif.g09.slc.cpg/sg15_18_cif.got.tgz:35671.got - 2010.06.28 07:06:18.
