data_PCOD8154816
_publ_section_title
;
Structure prediction by ZEFSAII (Michael W. Deem and Ramdas Pophale) SiO2 
 PCOD8154816
Probable space group: C 2/C
;
_chemical_formula_sum "Si O2"
_cell_formula_units_Z 36
_cell_length_a 11.722722
_cell_length_b 9.168502
_cell_length_c 18.343195
_cell_angle_alpha 90.000000
_cell_angle_beta 130.040975
_cell_angle_gamma 90.000000
_cell_volume 1509.367513
_symmetry_space_group_name_H-M "C 2/C"
_symmetry_group_IT_number 15
_symmetry_cell_setting 'monoclinic'
loop_
_space_group_symop_operation_xyz
x,y,z
-x,y,1/2-z
-x,-y,-z
x,-y,1/2+z
1/2+x,1/2+y,z
1/2-x,1/2+y,1/2-z
1/2-x,1/2-y,-z
1/2+x,1/2-y,1/2+z
loop_
_atom_site_type_symbol
_atom_site_label
_atom_site_fract_x
_atom_site_fract_y
_atom_site_fract_z
Si Si1 0.664839 0.758335 0.712042
Si Si2 0.000000 0.469956 0.750000
Si Si3 0.354003 0.092054 0.447201
Si Si4 0.510052 0.795968 0.140439
Si Si5 0.450513 0.525337 0.652863
O O1 0.622869 0.870370 0.760054
O O2 0.700265 0.841944 0.651252
O O3 0.813119 0.669137 0.799176
O O4 0.532103 0.644179 0.634545
O O5 0.065795 0.581148 0.838430
O O6 0.403616 0.215001 0.525882
O O7 0.227573 0.984653 0.428607
O O8 0.500000 0.000000 0.500000
O O9 0.516339 0.635964 0.176148
O O10 0.500000 0.593526 0.750000
#
# Coordination Sequence:
#
# PCOD8154816 Si02
#       5
#     8   4   8   8   8
#     4  12  26  46  74 106 145 190 235 296 354 422
#     4  12  24  42  74 102 140 194 230 282 362 414
#     4  12  26  45  71 108 144 185 241 297 348 426
#     4  12  25  47  73 105 145 189 240 292 358 421
#     4  12  24  45  73 102 146 189 237 292 356 417
#
# _framework density 23.851050000000001
#
# number of rings (size 3 to 8) (size 9 to 14) (size 15 to 20)
#    0.000    0.000    6.667    3.333    0.000    3.556 
#    0.000    0.000    0.000    0.000    0.000    0.000 
#    0.000    0.000    0.000    0.000    0.000    0.000 
#
# Total GULP energy -223003.443181 kJ/mol
# GULP energy per Si atom -12389.080177 kJ/mol
# Density = 2.379676 g / cm^3
# Si number density = 23.851050 Si / 1000 Ang^3
#
#
#
# Elastic Constant Matrix: (Units=GPa)
#
#
# Indices 1 2 3 4 5 6 
#
# 1 118.4743 47.9102 49.2000 0.0000 20.1387 0.0000
# 2 47.9102 117.0417 11.4900 0.0000 7.4988 0.0000
# 3 49.2000 11.4900 103.7708 0.0000 8.1123 0.0000
# 4 0.0000 0.0000 0.0000 29.4085 0.0000 6.9781
# 5 20.1387 7.4988 8.1123 0.0000 51.0689 0.0000
# 6 0.0000 0.0000 0.0000 6.9781 0.0000 44.6393
#
#
#
# Elastic Compliance Matrix: (Units=1/GPa)
#
#
# Indices 1 2 3 4 5 6 
#
# 1 0.013205 -0.004635 -0.005462 0.000000 -0.003659 0.000000
# 2 -0.004635 0.010330 0.001042 0.000000 0.000145 0.000000
# 3 -0.005462 0.001042 0.012105 0.000000 0.000078 0.000000
# 4 0.000000 0.000000 0.000000 0.035314 0.000000 -0.005520
# 5 -0.003659 0.000145 0.000078 0.000000 0.020991 0.000000
# 6 0.000000 0.000000 0.000000 -0.005520 0.000000 0.023265
#
#
# Mechanical properties :
#
#
# Convention : Reuss Voigt Hill
#
# Bulk Modulus (GPa) = 57.04126 61.83190 59.43658
# Shear Modulus (GPa) = 35.92992 40.40244 38.16618
#
# Velocity S-wave (km/s) = 3.88549 4.12023 4.00458
# Velocity P-wave (km/s) = 6.64055 6.97248 6.80854
#
# Compressibility (1/GPa) = 0.01753117
#
# Stress axis : x y z
#
# Youngs Moduli (GPa) = 75.72896 96.80977 82.61352
#
# Poissons Ratio (x) = 0.44869 0.45120
# Poissons Ratio (y) = 0.35099 -0.08611
# Poissons Ratio (z) = 0.41360 -0.10091
#
# Static dielectric constant tensor:
#      x y z
#    x 4.641290 0.000000 0.507010 
#    y 0.000000 4.189050 0.000000 
#    z 0.507010 0.000000 2.712200 
# 
# 
# High freq. dielectric constant tensor:
#      x y z
#    x 1.960720 0.000000 0.006680 
#    y 0.000000 1.953930 0.000000 
#    z 0.006680 0.000000 1.927070 
# 
# From -- ./inp_files/242867.got.cif
#   From: 2010.06.25/outbox.cif.g09.slc.cpg/sg15_122_cif.got.tgz:242867.got - 2010.06.28 07:06:18.
