data_PCOD8154648
_publ_section_title
;
Structure prediction by ZEFSAII (Michael W. Deem and Ramdas Pophale) SiO2 
 PCOD8154648
Probable space group: C 2/C
;
_chemical_formula_sum "Si O2"
_cell_formula_units_Z 56
_cell_length_a 9.234395
_cell_length_b 16.739053
_cell_length_c 28.105877
_cell_angle_alpha 90.000000
_cell_angle_beta 36.592561
_cell_angle_gamma 90.000000
_cell_volume 2589.826256
_symmetry_space_group_name_H-M "C 2/C"
_symmetry_group_IT_number 15
_symmetry_cell_setting 'monoclinic'
loop_
_space_group_symop_operation_xyz
x,y,z
-x,y,1/2-z
-x,-y,-z
x,-y,1/2+z
1/2+x,1/2+y,z
1/2-x,1/2+y,1/2-z
1/2-x,1/2-y,-z
1/2+x,1/2-y,1/2+z
loop_
_atom_site_type_symbol
_atom_site_label
_atom_site_fract_x
_atom_site_fract_y
_atom_site_fract_z
Si Si1 0.855436 0.953032 0.077146
Si Si2 0.128959 0.061208 0.334746
Si Si3 0.315725 0.970077 0.198641
Si Si4 0.195970 0.161743 0.530657
Si Si5 0.000000 0.693090 0.250000
Si Si6 0.598555 0.319018 0.299398
Si Si7 0.500000 0.730660 0.250000
Si Si8 0.711953 0.093445 0.377542
O O1 0.589796 0.938157 0.126339
O O2 0.983872 0.868093 0.051328
O O3 0.865676 0.997718 0.124809
O O4 0.000000 0.000000 0.000000
O O5 0.251846 0.143083 0.318950
O O6 0.854510 0.075521 0.388908
O O7 0.294949 0.031919 0.247380
O O8 0.141443 0.894167 0.253015
O O9 0.249586 0.017323 0.167607
O O10 0.250000 0.250000 0.500000
O O11 0.430251 0.104820 0.463951
O O12 0.103674 0.156495 0.608962
O O13 0.013046 0.745796 0.199597
O O14 0.851407 0.290586 0.255674
O O15 0.313290 0.674983 0.327949
#
# Coordination Sequence:
#
# PCOD8154648 Si02
#       8
#     8   8   8   8   4   8   4   8
#     4  12  26  46  73 106 141 194 243 296 363 438
#     4  12  25  46  74 103 140 194 245 296 358 436
#     4  12  24  46  77 104 142 188 252 295 351 438
#     4  12  27  46  73 106 152 189 235 300 372 427
#     4  12  26  46  74 108 144 182 248 304 358 416
#     4  12  27  45  72 111 144 189 243 305 358 434
#     4  12  22  44  74 104 140 196 244 282 370 444
#     4  12  25  46  74 105 144 197 237 299 369 437
#
# _framework density 21.623070999999999
#
# number of rings (size 3 to 8) (size 9 to 14) (size 15 to 20)
#    0.000    0.000    8.571    0.857    4.000    0.571 
#    2.571    0.714    0.000    0.000    0.000    0.000 
#    0.000    0.000    0.000    0.000    0.000    0.000 
#
# Total GULP energy -347334.452496 kJ/mol
# GULP energy per Si atom -12404.801875 kJ/mol
# Density = 2.157386 g / cm^3
# Si number density = 21.623071 Si / 1000 Ang^3
#
#
#
# Elastic Constant Matrix: (Units=GPa)
#
#
# Indices 1 2 3 4 5 6 
#
# 1 112.7399 44.9409 30.5777 0.0349 -1.8703 -0.0391
# 2 44.9409 132.3712 37.1468 0.0088 -1.1188 -0.0070
# 3 30.5777 37.1468 102.0793 -0.0267 -12.0245 -0.0150
# 4 0.0349 0.0088 -0.0267 35.9511 -0.0312 3.0364
# 5 -1.8703 -1.1188 -12.0245 -0.0312 29.3710 0.0469
# 6 -0.0391 -0.0070 -0.0150 3.0364 0.0469 34.3135
#
#
#
# Elastic Compliance Matrix: (Units=1/GPa)
#
#
# Indices 1 2 3 4 5 6 
#
# 1 0.010645 -0.003020 -0.002126 -0.000012 -0.000308 0.000012
# 2 -0.003020 0.009298 -0.002584 -0.000002 -0.000896 -0.000001
# 3 -0.002126 -0.002584 0.011921 0.000016 0.004647 -0.000005
# 4 -0.000012 -0.000002 0.000016 0.028025 0.000039 -0.002480
# 5 -0.000308 -0.000896 0.004647 0.000039 0.035896 -0.000051
# 6 0.000012 -0.000001 -0.000005 -0.002480 -0.000051 0.029363
#
#
# Mechanical properties :
#
#
# Convention : Reuss Voigt Hill
#
# Bulk Modulus (GPa) = 60.96452 63.61347 62.28900
# Shear Modulus (GPa) = 34.22875 35.56210 34.89543
#
# Velocity S-wave (km/s) = 3.98298 4.05981 4.02158
# Velocity P-wave (km/s) = 7.02905 7.17351 7.10165
#
# Compressibility (1/GPa) = 0.01640298
#
# Stress axis : x y z
#
# Youngs Moduli (GPa) = 93.93714 107.55563 83.88609
#
# Poissons Ratio (x) = 0.32484 0.17834
# Poissons Ratio (y) = 0.28371 0.21678
# Poissons Ratio (z) = 0.19971 0.27795
#
# Static dielectric constant tensor:
#      x y z
#    x 4.123950 -0.000180 -0.098020 
#    y -0.000180 4.066140 0.000110 
#    z -0.098020 0.000110 3.957030 
# 
# 
# High freq. dielectric constant tensor:
#      x y z
#    x 1.860330 0.000000 -0.008740 
#    y 0.000000 1.861400 0.000000 
#    z -0.008740 0.000000 1.847230 
# 
# From -- ./inp_files/289739.got.cif
#   From: 2010.06.25/outbox.cif.g09.slc.cpg/sg15_145_cif.got.tgz:289739.got - 2010.06.28 07:06:18.
