data_PCOD8154172
_publ_section_title
;
Structure prediction by ZEFSAII (Michael W. Deem and Ramdas Pophale) SiO2 
 PCOD8154172
Probable space group: C 2/C
;
_chemical_formula_sum "Si O2"
_cell_formula_units_Z 48
_cell_length_a 6.634232
_cell_length_b 18.802253
_cell_length_c 25.828463
_cell_angle_alpha 90.000000
_cell_angle_beta 45.441066
_cell_angle_gamma 90.000000
_cell_volume 2295.629141
_symmetry_space_group_name_H-M "C 2/C"
_symmetry_group_IT_number 15
_symmetry_cell_setting 'monoclinic'
loop_
_space_group_symop_operation_xyz
x,y,z
-x,y,1/2-z
-x,-y,-z
x,-y,1/2+z
1/2+x,1/2+y,z
1/2-x,1/2+y,1/2-z
1/2-x,1/2-y,-z
1/2+x,1/2-y,1/2+z
loop_
_atom_site_type_symbol
_atom_site_label
_atom_site_fract_x
_atom_site_fract_y
_atom_site_fract_z
Si Si1 0.278917 0.732581 0.433926
Si Si2 0.735865 0.615270 0.927766
Si Si3 0.900260 0.643859 0.429985
Si Si4 0.605559 0.993999 0.422728
Si Si5 0.765068 0.017256 0.668903
Si Si6 0.175297 0.354734 0.668409
O O1 0.250000 0.750000 0.500000
O O2 0.366851 0.807250 0.391234
O O3 0.512942 0.674701 0.379773
O O4 0.998278 0.698789 0.457299
O O5 0.686262 0.571232 0.885821
O O6 0.937374 0.572618 0.930052
O O7 0.435231 0.631919 0.008049
O O8 0.962808 0.674200 0.360499
O O9 0.048705 0.567783 0.404968
O O10 0.939194 0.980692 0.353707
O O11 0.500000 0.000000 0.500000
O O12 0.500000 0.045110 0.750000
O O13 0.694347 0.939610 0.660281
O O14 0.000000 0.330262 0.750000
#
# Coordination Sequence:
#
# PCOD8154172 Si02
#       6
#     8   8   8   8   8   8
#     4  12  26  44  69 105 138 183 231 292 352 419
#     4  12  25  41  70 106 133 176 236 291 350 405
#     4  12  23  43  74  99 137 186 235 285 344 424
#     4  12  22  40  74 100 132 179 239 287 339 412
#     4  11  25  46  68 101 140 181 234 294 352 419
#     4  11  25  47  69  99 138 184 238 284 353 432
#
# _framework density 20.909300000000002
#
# number of rings (size 3 to 8) (size 9 to 14) (size 15 to 20)
#    0.000    0.333    6.667    3.000    0.000    1.333 
#    6.000    0.000    0.000    0.000    0.000    0.000 
#    0.000    0.000    0.000    0.000    0.000    0.000 
#
# Total GULP energy -297538.673800 kJ/mol
# GULP energy per Si atom -12397.444742 kJ/mol
# Density = 2.086171 g / cm^3
# Si number density = 20.909300 Si / 1000 Ang^3
#
#
#
# Elastic Constant Matrix: (Units=GPa)
#
#
# Indices 1 2 3 4 5 6 
#
# 1 133.6892 27.1581 49.9642 0.0098 -0.7948 -0.0017
# 2 27.1581 79.5892 15.9707 0.0058 2.2020 -0.0003
# 3 49.9642 15.9707 110.5369 0.0027 3.2342 -0.0047
# 4 0.0098 0.0058 0.0027 8.6724 -0.0061 -1.7967
# 5 -0.7948 2.2020 3.2342 -0.0061 31.5778 0.0022
# 6 -0.0017 -0.0003 -0.0047 -1.7967 0.0022 49.2485
#
#
#
# Elastic Compliance Matrix: (Units=1/GPa)
#
#
# Indices 1 2 3 4 5 6 
#
# 1 0.009458 -0.002459 -0.003944 -0.000007 0.000813 0.000000
# 2 -0.002459 0.013595 -0.000826 -0.000007 -0.000925 0.000000
# 3 -0.003944 -0.000826 0.010983 0.000001 -0.001167 0.000001
# 4 -0.000007 -0.000007 0.000001 0.116187 0.000022 0.004239
# 5 0.000813 -0.000925 -0.001167 0.000022 0.031872 -0.000001
# 6 0.000000 0.000000 0.000001 0.004239 -0.000001 0.020460
#
#
# Mechanical properties :
#
#
# Convention : Reuss Voigt Hill
#
# Bulk Modulus (GPa) = 51.07401 56.66681 53.87041
# Shear Modulus (GPa) = 22.36759 33.28123 27.82441
#
# Velocity S-wave (km/s) = 3.27424 3.99393 3.65186
# Velocity P-wave (km/s) = 6.22685 6.95908 6.60312
#
# Compressibility (1/GPa) = 0.01957943
#
# Stress axis : x y z
#
# Youngs Moduli (GPa) = 105.72773 73.55778 91.05081
#
# Poissons Ratio (x) = 0.18084 0.35909
# Poissons Ratio (y) = 0.25994 0.07519
# Poissons Ratio (z) = 0.41697 0.06075
#
# Static dielectric constant tensor:
#      x y z
#    x 4.167400 -0.000030 0.195870 
#    y -0.000030 4.169300 -0.000100 
#    z 0.195870 -0.000100 5.000830 
# 
# 
# High freq. dielectric constant tensor:
#      x y z
#    x 1.837260 0.000000 0.001440 
#    y 0.000000 1.827540 0.000000 
#    z 0.001440 0.000000 1.800710 
# 
# From -- ./inp_files/261303.got.cif
#   From: 2010.06.25/outbox.cif.g09.slc.cpg/sg15_131_cif.got.tgz:261303.got - 2010.06.28 07:06:18.
