data_PCOD8154915
_publ_section_title
;
Structure prediction by ZEFSAII (Michael W. Deem and Ramdas Pophale) SiO2 
 PCOD8154915
Probable space group: C 2/C
;
_chemical_formula_sum "Si O2"
_cell_formula_units_Z 48
_cell_length_a 10.730374
_cell_length_b 16.688499
_cell_length_c 12.327845
_cell_angle_alpha 90.000000
_cell_angle_beta 82.607236
_cell_angle_gamma 90.000000
_cell_volume 2189.243686
_symmetry_space_group_name_H-M "C 2/C"
_symmetry_group_IT_number 15
_symmetry_cell_setting 'monoclinic'
loop_
_space_group_symop_operation_xyz
x,y,z
-x,y,1/2-z
-x,-y,-z
x,-y,1/2+z
1/2+x,1/2+y,z
1/2-x,1/2+y,1/2-z
1/2-x,1/2-y,-z
1/2+x,1/2-y,1/2+z
loop_
_atom_site_type_symbol
_atom_site_label
_atom_site_fract_x
_atom_site_fract_y
_atom_site_fract_z
Si Si1 0.257179 0.238114 0.270985
Si Si2 0.000000 0.010220 0.750000
Si Si3 0.373799 0.773026 0.422073
Si Si4 0.000000 0.347248 0.750000
Si Si5 0.456999 0.911259 0.986984
Si Si6 0.437310 0.628151 0.100755
Si Si7 0.185878 0.114038 0.606318
O O1 0.175710 0.290612 0.194769
O O2 0.388773 0.205554 0.208400
O O3 0.184244 0.161114 0.323801
O O4 0.294951 0.293399 0.366968
O O5 0.124081 0.064262 0.712729
O O6 0.022206 0.955364 0.851876
O O7 0.250000 0.750000 0.500000
O O8 0.452574 0.847244 0.461606
O O9 0.454209 0.693210 0.403503
O O10 0.947747 0.397169 0.858409
O O11 0.320705 0.916607 0.055330
O O12 0.500000 0.000000 0.000000
O O13 0.413749 0.609593 0.978647
#
# Coordination Sequence:
#
# PCOD8154915 Si02
#       7
#     8   4   8   4   8   8   8
#     4  12  24  47  77 104 146 189 251 303 366 440
#     4  12  29  46  73 110 154 198 242 312 371 436
#     4  12  26  45  76 105 142 194 249 302 368 442
#     4  12  25  48  75 108 140 200 242 310 369 442
#     4  12  29  47  73 110 153 192 241 311 378 439
#     4  12  25  50  72 106 146 197 247 305 365 436
#     4  12  28  47  74 109 147 193 248 305 369 440
#
# _framework density 21.925381000000002
#
# number of rings (size 3 to 8) (size 9 to 14) (size 15 to 20)
#    0.000    0.000    6.667    2.500    7.000    2.667 
#    0.000    0.000    0.000    0.000    0.000    0.000 
#    0.000    0.000    0.000    0.000    0.000    0.000 
#
# Total GULP energy -297568.074247 kJ/mol
# GULP energy per Si atom -12398.669760 kJ/mol
# Density = 2.187548 g / cm^3
# Si number density = 21.925381 Si / 1000 Ang^3
#
#
#
# Elastic Constant Matrix: (Units=GPa)
#
#
# Indices 1 2 3 4 5 6 
#
# 1 138.4849 48.9997 52.9919 0.0000 -14.3210 0.0000
# 2 48.9997 89.5979 38.8085 0.0000 -5.0248 0.0000
# 3 52.9919 38.8085 96.9397 0.0000 -4.4443 0.0000
# 4 0.0000 0.0000 0.0000 25.6325 0.0000 3.9447
# 5 -14.3210 -5.0248 -4.4443 0.0000 55.9014 0.0000
# 6 0.0000 0.0000 0.0000 3.9447 0.0000 25.4830
#
#
#
# Elastic Compliance Matrix: (Units=1/GPa)
#
#
# Indices 1 2 3 4 5 6 
#
# 1 0.010305 -0.003779 -0.004029 0.000000 0.001980 0.000000
# 2 -0.003779 0.014923 -0.003905 0.000000 0.000063 0.000000
# 3 -0.004029 -0.003905 0.014070 0.000000 -0.000265 0.000000
# 4 0.000000 0.000000 0.000000 0.039965 0.000000 -0.006186
# 5 0.001980 0.000063 -0.000265 0.000000 0.018380 0.000000
# 6 0.000000 0.000000 0.000000 -0.006186 0.000000 0.040200
#
#
# Mechanical properties :
#
#
# Convention : Reuss Voigt Hill
#
# Bulk Modulus (GPa) = 63.01442 67.40251 65.20846
# Shear Modulus (GPa) = 30.01921 33.68488 31.85205
#
# Velocity S-wave (km/s) = 3.70422 3.92387 3.81563
# Velocity P-wave (km/s) = 6.86278 7.16502 7.01553
#
# Compressibility (1/GPa) = 0.01586938
#
# Stress axis : x y z
#
# Youngs Moduli (GPa) = 97.04228 67.01119 71.07485
#
# Poissons Ratio (x) = 0.25325 0.28639
# Poissons Ratio (y) = 0.36674 0.27758
# Poissons Ratio (z) = 0.39102 0.26171
#
# Static dielectric constant tensor:
#      x y z
#    x 4.268490 0.000000 0.077580 
#    y 0.000000 3.904620 0.000000 
#    z 0.077580 0.000000 4.117030 
# 
# 
# High freq. dielectric constant tensor:
#      x y z
#    x 1.882970 0.000000 -0.004450 
#    y 0.000000 1.855900 0.000000 
#    z -0.004450 0.000000 1.877350 
# 
# From -- ./inp_files/87831.got.cif
#   From: 2010.06.25/outbox.cif.g09.slc.cpg/sg15_44_cif.got.tgz:87831.got - 2010.06.28 07:06:18.
