data_PCOD8154598
_publ_section_title
;
Structure prediction by ZEFSAII (Michael W. Deem and Ramdas Pophale) SiO2 
 PCOD8154598
Probable space group: C 2/C
;
_chemical_formula_sum "Si O2"
_cell_formula_units_Z 48
_cell_length_a 29.504332
_cell_length_b 12.625299
_cell_length_c 8.810768
_cell_angle_alpha 90.000000
_cell_angle_beta 142.725540
_cell_angle_gamma 90.000000
_cell_volume 1987.702092
_symmetry_space_group_name_H-M "C 2/C"
_symmetry_group_IT_number 15
_symmetry_cell_setting 'monoclinic'
loop_
_space_group_symop_operation_xyz
x,y,z
-x,y,1/2-z
-x,-y,-z
x,-y,1/2+z
1/2+x,1/2+y,z
1/2-x,1/2+y,1/2-z
1/2-x,1/2-y,-z
1/2+x,1/2-y,1/2+z
loop_
_atom_site_type_symbol
_atom_site_label
_atom_site_fract_x
_atom_site_fract_y
_atom_site_fract_z
Si Si1 0.957280 0.273904 0.992485
Si Si2 0.298417 0.145327 0.086168
Si Si3 0.563580 0.819923 0.038300
Si Si4 0.357303 0.607348 0.259364
Si Si5 0.295957 0.070404 0.727498
Si Si6 0.424638 0.558174 0.751234
O O1 0.000000 0.225321 0.250000
O O2 0.885686 0.339307 0.851147
O O3 0.925294 0.178706 0.806430
O O4 0.016005 0.352810 0.061261
O O5 0.278903 0.054065 0.155784
O O6 0.250000 0.250000 0.000000
O O7 0.288853 0.107182 0.884645
O O8 0.500000 0.790774 0.750000
O O9 0.605712 0.713938 0.202351
O O10 0.622677 0.903649 0.128686
O O11 0.407050 0.562286 0.527869
O O12 0.357585 0.512900 0.137346
O O13 0.268546 0.629892 0.044658
O O14 0.500000 0.500000 0.000000
#
# Coordination Sequence:
#
# PCOD8154598 Si02
#       6
#     8   8   8   8   8   8
#     4  12  27  46  74 108 154 204 266 336 395 476
#     4  12  30  55  79 117 162 206 271 331 402 484
#     4  12  24  49  73 110 153 205 269 327 396 478
#     4  12  24  42  71 109 154 202 264 327 402 470
#     4  12  29  49  81 111 156 213 260 334 405 477
#     4  12  22  41  70 109 151 203 263 329 397 468
#
# _framework density 24.148486999999999
#
# number of rings (size 3 to 8) (size 9 to 14) (size 15 to 20)
#    0.000    0.000    5.000    4.000    4.667    2.667 
#    0.000    0.000    0.000    0.000    0.000    0.000 
#    0.000    0.000    0.000    0.000    0.000    0.000 
#
# Total GULP energy -297340.991127 kJ/mol
# GULP energy per Si atom -12389.207964 kJ/mol
# Density = 2.409352 g / cm^3
# Si number density = 24.148487 Si / 1000 Ang^3
#
#
#
# Elastic Constant Matrix: (Units=GPa)
#
#
# Indices 1 2 3 4 5 6 
#
# 1 119.8306 48.6472 35.2245 0.0000 15.9118 0.0000
# 2 48.6472 110.4991 35.6359 0.0000 6.1222 0.0000
# 3 35.2245 35.6359 123.4612 0.0000 26.8556 0.0000
# 4 0.0000 0.0000 0.0000 25.4434 0.0000 -1.7712
# 5 15.9118 6.1222 26.8556 0.0000 42.7879 0.0000
# 6 0.0000 0.0000 0.0000 -1.7712 0.0000 37.7495
#
#
#
# Elastic Compliance Matrix: (Units=1/GPa)
#
#
# Indices 1 2 3 4 5 6 
#
# 1 0.010768 -0.004177 -0.001303 0.000000 -0.002588 0.000000
# 2 -0.004177 0.011606 -0.002473 0.000000 0.001444 0.000000
# 3 -0.001303 -0.002473 0.010426 0.000000 -0.005706 0.000000
# 4 0.000000 0.000000 0.000000 0.039432 0.000000 0.001850
# 5 -0.002588 0.001444 -0.005706 0.000000 0.027708 0.000000
# 6 0.000000 0.000000 0.000000 0.001850 0.000000 0.026577
#
#
# Mechanical properties :
#
#
# Convention : Reuss Voigt Hill
#
# Bulk Modulus (GPa) = 59.19044 65.86733 62.52889
# Shear Modulus (GPa) = 33.77153 36.81504 35.29329
#
# Velocity S-wave (km/s) = 3.74370 3.90876 3.82712
# Velocity P-wave (km/s) = 6.57657 6.90698 6.74380
#
# Compressibility (1/GPa) = 0.01689462
#
# Stress axis : x y z
#
# Youngs Moduli (GPa) = 92.87153 86.16263 95.91077
#
# Poissons Ratio (x) = 0.35987 0.12502
# Poissons Ratio (y) = 0.38789 0.23714
# Poissons Ratio (z) = 0.12106 0.21304
#
# Static dielectric constant tensor:
#      x y z
#    x 4.814690 0.000000 0.253800 
#    y 0.000000 4.448500 0.000000 
#    z 0.253800 0.000000 4.634850 
# 
# 
# High freq. dielectric constant tensor:
#      x y z
#    x 1.966500 0.000000 0.016320 
#    y 0.000000 1.948710 0.000000 
#    z 0.016320 0.000000 1.980370 
# 
# From -- ./inp_files/66495.got.cif
#   From: 2010.06.25/outbox.cif.g09.slc.cpg/sg15_34_cif.got.tgz:66495.got - 2010.06.28 07:06:18.
