data_PCOD8154251
_publ_section_title
;
Structure prediction by ZEFSAII (Michael W. Deem and Ramdas Pophale) SiO2 
 PCOD8154251
Probable space group: C 2/C
;
_chemical_formula_sum "Si O2"
_cell_formula_units_Z 48
_cell_length_a 22.183636
_cell_length_b 11.526352
_cell_length_c 25.998594
_cell_angle_alpha 90.000000
_cell_angle_beta 160.479043
_cell_angle_gamma 90.000000
_cell_volume 2221.355406
_symmetry_space_group_name_H-M "C 2/C"
_symmetry_group_IT_number 15
_symmetry_cell_setting 'monoclinic'
loop_
_space_group_symop_operation_xyz
x,y,z
-x,y,1/2-z
-x,-y,-z
x,-y,1/2+z
1/2+x,1/2+y,z
1/2-x,1/2+y,1/2-z
1/2-x,1/2-y,-z
1/2+x,1/2-y,1/2+z
loop_
_atom_site_type_symbol
_atom_site_label
_atom_site_fract_x
_atom_site_fract_y
_atom_site_fract_z
Si Si1 0.299494 0.250153 0.598063
Si Si2 0.720031 0.579359 0.626244
Si Si3 0.936891 0.312229 0.644429
Si Si4 0.001660 0.860166 0.047701
Si Si5 0.761023 0.157095 0.665749
Si Si6 0.389441 0.021709 0.529030
O O1 0.500000 0.213489 0.750000
O O2 0.250000 0.250000 0.500000
O O3 0.214529 0.157125 0.569953
O O4 0.261437 0.379966 0.586103
O O5 0.657307 0.448588 0.562171
O O6 0.567471 0.623720 0.542470
O O7 0.912015 0.580945 0.810725
O O8 0.750000 0.250000 0.500000
O O9 0.899859 0.424850 0.581003
O O10 0.000000 0.359832 0.750000
O O11 0.077039 0.217794 0.735134
O O12 0.171939 0.867405 0.222718
O O13 0.916805 0.734142 0.980099
O O14 0.684101 0.036344 0.582132
#
# Coordination Sequence:
#
# PCOD8154251 Si02
#       6
#     8   8   8   8   8   8
#     4  12  29  49  71 104 146 196 241 292 359 446
#     4  11  27  51  70 104 142 196 241 297 360 426
#     4  12  24  41  69 104 142 182 225 296 358 421
#     4  11  25  47  78 101 144 185 243 306 357 431
#     4  12  24  46  72 110 139 179 242 300 368 421
#     4  12  27  46  71 106 140 189 238 289 368 421
#
# _framework density 21.608429000000001
#
# number of rings (size 3 to 8) (size 9 to 14) (size 15 to 20)
#    0.000    0.333    6.667    0.000    9.333    0.667 
#    3.000    0.000    0.000    0.000    0.000    0.000 
#    0.000    0.000    0.000    0.000    0.000    0.000 
#
# Total GULP energy -297383.012294 kJ/mol
# GULP energy per Si atom -12390.958846 kJ/mol
# Density = 2.155925 g / cm^3
# Si number density = 21.608429 Si / 1000 Ang^3
#
#
#
# Elastic Constant Matrix: (Units=GPa)
#
#
# Indices 1 2 3 4 5 6 
#
# 1 113.2331 44.4631 37.7789 -0.0170 -9.3804 0.0046
# 2 44.4631 102.0472 12.5254 -0.1340 -1.1581 0.0143
# 3 37.7789 12.5254 86.4431 -0.2623 -19.8471 0.0469
# 4 -0.0170 -0.1340 -0.2623 41.8177 -0.0083 -7.0246
# 5 -9.3804 -1.1581 -19.8471 -0.0083 43.5303 0.0120
# 6 0.0046 0.0143 0.0469 -7.0246 0.0120 33.8901
#
#
#
# Elastic Compliance Matrix: (Units=1/GPa)
#
#
# Indices 1 2 3 4 5 6 
#
# 1 0.012269 -0.004780 -0.004570 -0.000039 0.000433 -0.000002
# 2 -0.004780 0.011847 0.000233 0.000038 -0.000609 0.000003
# 3 -0.004570 0.000233 0.014863 0.000093 0.005798 -0.000003
# 4 -0.000039 0.000038 0.000093 0.024777 0.000038 0.005135
# 5 0.000433 -0.000609 0.005798 0.000038 0.025693 -0.000009
# 6 -0.000002 0.000003 -0.000003 0.005135 -0.000009 0.030572
#
#
# Mechanical properties :
#
#
# Convention : Reuss Voigt Hill
#
# Bulk Modulus (GPa) = 48.20537 54.58422 51.39480
# Shear Modulus (GPa) = 34.44250 37.64469 36.04360
#
# Velocity S-wave (km/s) = 3.99675 4.17841 4.08859
# Velocity P-wave (km/s) = 6.60724 6.97096 6.79154
#
# Compressibility (1/GPa) = 0.02074458
#
# Stress axis : x y z
#
# Youngs Moduli (GPa) = 81.50712 84.41242 67.27935
#
# Poissons Ratio (x) = 0.40348 0.30747
# Poissons Ratio (y) = 0.38959 -0.01566
# Poissons Ratio (z) = 0.37249 -0.01965
#
# Static dielectric constant tensor:
#      x y z
#    x 3.732360 0.000030 0.042750 
#    y 0.000030 3.670030 -0.000030 
#    z 0.042750 -0.000030 4.167350 
# 
# 
# High freq. dielectric constant tensor:
#      x y z
#    x 1.852460 0.000000 -0.002630 
#    y 0.000000 1.854710 -0.000010 
#    z -0.002630 -0.000010 1.866730 
# 
# From -- ./inp_files/302222.got.cif
#   From: 2010.06.25/outbox.cif.g09.slc.cpg/sg15_152_cif.got.tgz:302222.got - 2010.06.28 07:06:18.
