data_PCOD8154663
_publ_section_title
;
Structure prediction by ZEFSAII (Michael W. Deem and Ramdas Pophale) SiO2 
 PCOD8154663
Probable space group: C 2/C
;
_chemical_formula_sum "Si O2"
_cell_formula_units_Z 64
_cell_length_a 19.103454
_cell_length_b 14.336127
_cell_length_c 11.627608
_cell_angle_alpha 90.000000
_cell_angle_beta 88.281462
_cell_angle_gamma 90.000000
_cell_volume 3183.015351
_symmetry_space_group_name_H-M "C 2/C"
_symmetry_group_IT_number 15
_symmetry_cell_setting 'monoclinic'
loop_
_space_group_symop_operation_xyz
x,y,z
-x,y,1/2-z
-x,-y,-z
x,-y,1/2+z
1/2+x,1/2+y,z
1/2-x,1/2+y,1/2-z
1/2-x,1/2-y,-z
1/2+x,1/2-y,1/2+z
loop_
_atom_site_type_symbol
_atom_site_label
_atom_site_fract_x
_atom_site_fract_y
_atom_site_fract_z
Si Si1 0.102491 0.747731 0.935027
Si Si2 0.666834 0.763788 0.681967
Si Si3 0.782931 0.911687 0.181855
Si Si4 0.569913 0.100738 0.318305
Si Si5 0.872385 0.404337 0.245645
Si Si6 0.447626 0.814447 0.445764
Si Si7 0.195939 0.874174 0.792382
Si Si8 0.183470 0.188975 0.034147
O O1 0.134697 0.659106 0.867018
O O2 0.129571 0.841879 0.871750
O O3 0.018779 0.744195 0.931734
O O4 0.126510 0.746685 0.064873
O O5 0.686087 0.661597 0.728056
O O6 0.616158 0.811412 0.777356
O O7 0.734452 0.828750 0.656342
O O8 0.699312 0.898968 0.179411
O O9 0.802732 0.015186 0.217183
O O10 0.814843 0.898191 0.052988
O O11 0.500000 0.094227 0.250000
O O12 0.548257 0.109368 0.452755
O O13 0.615098 0.008178 0.298802
O O14 0.933880 0.368651 0.326985
O O15 0.388041 0.742483 0.482388
O O16 0.187775 0.839232 0.664551
O O17 0.250000 0.250000 0.000000
#
# Coordination Sequence:
#
# PCOD8154663 Si02
#       8
#     8   8   8   8   8   8   8   8
#     4  12  26  44  68  99 139 181 221 286 341 399
#     4  12  24  45  67  97 138 181 221 277 342 402
#     4  12  26  43  71 105 131 178 235 281 337 406
#     4  12  25  43  67 103 139 182 218 272 354 414
#     4  12  26  41  71 104 137 175 226 284 343 413
#     4  12  24  45  72  94 141 182 230 277 338 413
#     4  12  26  44  70 101 136 179 229 285 335 400
#     4  12  22  46  72  96 131 183 229 276 336 402
#
# _framework density 20.106721
#
# number of rings (size 3 to 8) (size 9 to 14) (size 15 to 20)
#    0.000    0.000    8.750    1.500    3.500    1.000 
#    0.000    0.625    5.500    0.000    0.000    0.000 
#    0.000    0.000    0.000    0.000    0.000    0.000 
#
# Total GULP energy -396963.617465 kJ/mol
# GULP energy per Si atom -12405.113046 kJ/mol
# Density = 2.006096 g / cm^3
# Si number density = 20.106721 Si / 1000 Ang^3
#
#
#
# Elastic Constant Matrix: (Units=GPa)
#
#
# Indices 1 2 3 4 5 6 
#
# 1 91.7768 31.4293 25.7528 0.0000 -6.1750 0.0000
# 2 31.4293 108.4663 13.8065 0.0000 2.8044 0.0000
# 3 25.7528 13.8065 87.8575 0.0000 8.6640 0.0000
# 4 0.0000 0.0000 0.0000 17.0127 0.0000 -18.9694
# 5 -6.1750 2.8044 8.6640 0.0000 35.0770 0.0000
# 6 0.0000 0.0000 0.0000 -18.9694 0.0000 7.0227
#
#
#
# Elastic Compliance Matrix: (Units=1/GPa)
#
#
# Indices 1 2 3 4 5 6 
#
# 1 0.013376 -0.003494 -0.003722 0.000000 0.003553 0.000000
# 2 -0.003494 0.010326 -0.000468 0.000000 -0.001325 0.000000
# 3 -0.003722 -0.000468 0.012922 0.000000 -0.003810 0.000000
# 4 0.000000 0.000000 0.000000 -0.029217 0.000000 -0.078919
# 5 0.003553 -0.001325 -0.003810 0.000000 0.030181 0.000000
# 6 0.000000 0.000000 0.000000 -0.078919 0.000000 -0.070779
#
#
# Mechanical properties :
#
#
# Convention : Reuss Voigt Hill
#
# Bulk Modulus (GPa) = 47.04512 47.78641 47.41577
# Shear Modulus (GPa) = -465.67084 26.29663 -219.68711
#
# Velocity S-wave (km/s) = -15.23491 3.62035 -10.46412
# Velocity P-wave (km/s) = 16.91217 6.42603 11.06181
#
# Compressibility (1/GPa) = 0.02125619
#
# Stress axis : x y z
#
# Youngs Moduli (GPa) = 74.76060 96.84608 77.38560
#
# Poissons Ratio (x) = 0.33837 0.28804
# Poissons Ratio (y) = 0.26121 0.03620
# Poissons Ratio (z) = 0.27827 0.04531
#
# Static dielectric constant tensor:
#      x y z
#    x 3.827970 0.000000 -0.131960 
#    y 0.000000 3.951290 0.000000 
#    z -0.131960 0.000000 3.981050 
# 
# 
# High freq. dielectric constant tensor:
#      x y z
#    x 1.791450 0.000000 -0.004000 
#    y 0.000000 1.778350 0.000000 
#    z -0.004000 0.000000 1.804530 
# 
# From -- ./inp_files/105730.got.cif
#   From: 2010.06.25/outbox.cif.g09.slc.cpg/sg15_53_cif.got.tgz:105730.got - 2010.06.28 07:06:18.
