data_PCOD8154358
_publ_section_title
;
Structure prediction by ZEFSAII (Michael W. Deem and Ramdas Pophale) SiO2 
 PCOD8154358
Probable space group: C 2/C
;
_chemical_formula_sum "Si O2"
_cell_formula_units_Z 40
_cell_length_a 18.289993
_cell_length_b 5.330429
_cell_length_c 18.212875
_cell_angle_alpha 90.000000
_cell_angle_beta 76.521712
_cell_angle_gamma 90.000000
_cell_volume 1726.733055
_symmetry_space_group_name_H-M "C 2/C"
_symmetry_group_IT_number 15
_symmetry_cell_setting 'monoclinic'
loop_
_space_group_symop_operation_xyz
x,y,z
-x,y,1/2-z
-x,-y,-z
x,-y,1/2+z
1/2+x,1/2+y,z
1/2-x,1/2+y,1/2-z
1/2-x,1/2-y,-z
1/2+x,1/2-y,1/2+z
loop_
_atom_site_type_symbol
_atom_site_label
_atom_site_fract_x
_atom_site_fract_y
_atom_site_fract_z
Si Si1 0.582149 0.686544 0.264487
Si Si2 0.552205 0.324881 0.036239
Si Si3 0.676011 0.026930 0.463039
Si Si4 0.337811 0.376351 0.899243
Si Si5 0.585695 0.824374 0.856366
O O1 0.500000 0.728234 0.250000
O O2 0.647403 0.698487 0.187850
O O3 0.586275 0.422857 0.306084
O O4 0.604527 0.922261 0.309159
O O5 0.588579 0.474905 0.094400
O O6 0.496513 0.125470 0.087671
O O7 0.500000 0.500000 0.000000
O O8 0.618907 0.207657 0.971768
O O9 0.672465 0.135147 0.546199
O O10 0.762100 0.953401 0.424179
O O11 0.646875 0.220442 0.407274
#
# Coordination Sequence:
#
# PCOD8154358 Si02
#       5
#     8   8   8   8   8
#     4  12  26  46  71 109 143 192 241 305 365 438
#     4  12  23  45  74 110 141 192 251 309 359 441
#     4  11  26  46  72 106 144 195 242 305 368 439
#     4  11  26  46  72 105 148 190 244 304 370 439
#     4  12  26  45  75 103 148 188 248 296 367 433
#
# _framework density 23.165132
#
# number of rings (size 3 to 8) (size 9 to 14) (size 15 to 20)
#    0.000    0.400    4.000    4.200    2.800    1.600 
#    0.000    0.000    0.000    0.000    0.000    0.000 
#    0.000    0.000    0.000    0.000    0.000    0.000 
#
# Total GULP energy -247987.355223 kJ/mol
# GULP energy per Si atom -12399.367761 kJ/mol
# Density = 2.311241 g / cm^3
# Si number density = 23.165132 Si / 1000 Ang^3
#
#
#
# Elastic Constant Matrix: (Units=GPa)
#
#
# Indices 1 2 3 4 5 6 
#
# 1 135.9440 35.6747 57.7593 0.0000 -14.1905 0.0000
# 2 35.6747 108.2909 49.7672 0.0000 -2.4331 0.0000
# 3 57.7593 49.7672 151.8431 0.0000 -19.6563 0.0000
# 4 0.0000 0.0000 0.0000 27.1739 0.0000 -7.1102
# 5 -14.1905 -2.4331 -19.6563 0.0000 34.6094 0.0000
# 6 0.0000 0.0000 0.0000 -7.1102 0.0000 31.5984
#
#
#
# Elastic Compliance Matrix: (Units=1/GPa)
#
#
# Indices 1 2 3 4 5 6 
#
# 1 0.009159 -0.001760 -0.002630 0.000000 0.002138 0.000000
# 2 -0.001760 0.011270 -0.003254 0.000000 -0.001778 0.000000
# 3 -0.002630 -0.003254 0.009157 0.000000 0.003893 0.000000
# 4 0.000000 0.000000 0.000000 0.039102 0.000000 0.008799
# 5 0.002138 -0.001778 0.003893 0.000000 0.031857 0.000000
# 6 0.000000 0.000000 0.000000 0.008799 0.000000 0.033627
#
#
# Mechanical properties :
#
#
# Convention : Reuss Voigt Hill
#
# Bulk Modulus (GPa) = 69.95076 75.83115 72.89095
# Shear Modulus (GPa) = 32.41995 35.53479 33.97737
#
# Velocity S-wave (km/s) = 3.74507 3.92085 3.83397
# Velocity P-wave (km/s) = 6.99734 7.30093 7.15075
#
# Compressibility (1/GPa) = 0.01429577
#
# Stress axis : x y z
#
# Youngs Moduli (GPa) = 109.18778 88.73167 109.20835
#
# Poissons Ratio (x) = 0.15620 0.28723
# Poissons Ratio (y) = 0.19221 0.35539
# Poissons Ratio (z) = 0.28717 0.28876
#
# Static dielectric constant tensor:
#      x y z
#    x 4.483170 0.000000 -0.084530 
#    y 0.000000 3.901980 0.000000 
#    z -0.084530 0.000000 4.592160 
# 
# 
# High freq. dielectric constant tensor:
#      x y z
#    x 1.927340 0.000000 0.001730 
#    y 0.000000 1.901260 0.000000 
#    z 0.001730 0.000000 1.928950 
# 
# From -- ./inp_files/207998.got.cif
#   From: 2010.06.25/outbox.cif.g09.slc.cpg/sg15_104_cif.got.tgz:207998.got - 2010.06.28 07:06:18.
