data_PCOD8154865
_publ_section_title
;
Structure prediction by ZEFSAII (Michael W. Deem and Ramdas Pophale) SiO2 
 PCOD8154865
Probable space group: C 2/C
;
_chemical_formula_sum "Si O2"
_cell_formula_units_Z 40
_cell_length_a 10.222267
_cell_length_b 27.388333
_cell_length_c 7.795557
_cell_angle_alpha 90.000000
_cell_angle_beta 132.526958
_cell_angle_gamma 90.000000
_cell_volume 1608.435040
_symmetry_space_group_name_H-M "C 2/C"
_symmetry_group_IT_number 15
_symmetry_cell_setting 'monoclinic'
loop_
_space_group_symop_operation_xyz
x,y,z
-x,y,1/2-z
-x,-y,-z
x,-y,1/2+z
1/2+x,1/2+y,z
1/2-x,1/2+y,1/2-z
1/2-x,1/2-y,-z
1/2+x,1/2-y,1/2+z
loop_
_atom_site_type_symbol
_atom_site_label
_atom_site_fract_x
_atom_site_fract_y
_atom_site_fract_z
Si Si1 0.468392 0.444693 0.519888
Si Si2 0.408347 0.713034 0.348545
Si Si3 0.752705 0.686302 0.819044
Si Si4 0.266100 0.873110 0.679797
Si Si5 0.407870 0.097588 0.836981
O O1 0.500000 0.434584 0.750000
O O2 0.500000 0.500000 0.500000
O O3 0.601911 0.410693 0.529647
O O4 0.266986 0.434316 0.278507
O O5 0.500000 0.727516 0.250000
O O6 0.544209 0.689489 0.603283
O O7 0.330921 0.759562 0.377583
O O8 0.263247 0.669627 0.200257
O O9 0.842701 0.653468 0.750464
O O10 0.792440 0.656970 0.028081
O O11 0.444556 0.903675 0.880682
O O12 0.500000 0.076404 0.750000
#
# Coordination Sequence:
#
# PCOD8154865 Si02
#       5
#     8   8   8   8   8
#     4  12  29  54  85 115 154 202 261 331 407 475
#     4  12  24  45  74 112 167 217 268 323 388 470
#     4  12  26  44  75 116 164 213 269 324 393 468
#     4  12  26  49  75 116 159 204 266 328 392 469
#     4  12  25  49  78 110 156 204 256 323 392 470
#
# _framework density 24.868891999999999
#
# number of rings (size 3 to 8) (size 9 to 14) (size 15 to 20)
#    0.000    0.000    4.000    6.000    2.800    2.400 
#    0.000    0.000    0.000    0.000    0.000    0.000 
#    0.000    0.000    0.000    0.000    0.000    0.000 
#
# Total GULP energy -247886.466530 kJ/mol
# GULP energy per Si atom -12394.323326 kJ/mol
# Density = 2.481229 g / cm^3
# Si number density = 24.868892 Si / 1000 Ang^3
#
#
#
# Elastic Constant Matrix: (Units=GPa)
#
#
# Indices 1 2 3 4 5 6 
#
# 1 111.6924 62.9628 63.3950 0.0000 4.0277 0.0000
# 2 62.9628 168.1543 52.3136 0.0000 23.2419 0.0000
# 3 63.3950 52.3136 167.4868 0.0000 19.0578 0.0000
# 4 0.0000 0.0000 0.0000 36.9624 0.0000 9.0909
# 5 4.0277 23.2419 19.0578 0.0000 50.9980 0.0000
# 6 0.0000 0.0000 0.0000 9.0909 0.0000 38.8345
#
#
#
# Elastic Compliance Matrix: (Units=1/GPa)
#
#
# Indices 1 2 3 4 5 6 
#
# 1 0.013509 -0.004107 -0.004096 0.000000 0.002335 0.000000
# 2 -0.004107 0.008112 -0.000622 0.000000 -0.003140 0.000000
# 3 -0.004096 -0.000622 0.007986 0.000000 -0.002377 0.000000
# 4 0.000000 0.000000 0.000000 0.028707 0.000000 -0.006720
# 5 0.002335 -0.003140 -0.002377 0.000000 0.021744 0.000000
# 6 0.000000 0.000000 0.000000 -0.006720 0.000000 0.027323
#
#
# Mechanical properties :
#
#
# Convention : Reuss Voigt Hill
#
# Bulk Modulus (GPa) = 83.63313 89.40847 86.52080
# Shear Modulus (GPa) = 38.75454 43.26976 41.01215
#
# Velocity S-wave (km/s) = 3.95188 4.17575 4.06536
# Velocity P-wave (km/s) = 7.38416 7.69930 7.54337
#
# Compressibility (1/GPa) = 0.01195698
#
# Stress axis : x y z
#
# Youngs Moduli (GPa) = 74.02523 123.27181 125.22071
#
# Poissons Ratio (x) = 0.50623 0.51294
# Poissons Ratio (y) = 0.30399 0.07790
# Poissons Ratio (z) = 0.30323 0.07669
#
# Static dielectric constant tensor:
#      x y z
#    x 4.748900 0.000000 0.295790 
#    y 0.000000 4.452530 0.000000 
#    z 0.295790 0.000000 4.675350 
# 
# 
# High freq. dielectric constant tensor:
#      x y z
#    x 2.006920 0.000000 0.016830 
#    y 0.000000 1.982190 0.000000 
#    z 0.016830 0.000000 1.997770 
# 
# From -- ./inp_files/101006.got.cif
#   From: 2010.06.25/outbox.cif.g09.slc.cpg/sg15_51_cif.got.tgz:101006.got - 2010.06.28 07:06:18.
