data_PCOD8154610
_publ_section_title
;
Structure prediction by ZEFSAII (Michael W. Deem and Ramdas Pophale) SiO2 
 PCOD8154610
Probable space group: C 2/C
;
_chemical_formula_sum "Si O2"
_cell_formula_units_Z 64
_cell_length_a 31.337276
_cell_length_b 21.555277
_cell_length_c 9.505377
_cell_angle_alpha 90.000000
_cell_angle_beta 153.391646
_cell_angle_gamma 90.000000
_cell_volume 2875.775868
_symmetry_space_group_name_H-M "C 2/C"
_symmetry_group_IT_number 15
_symmetry_cell_setting 'monoclinic'
loop_
_space_group_symop_operation_xyz
x,y,z
-x,y,1/2-z
-x,-y,-z
x,-y,1/2+z
1/2+x,1/2+y,z
1/2-x,1/2+y,1/2-z
1/2-x,1/2-y,-z
1/2+x,1/2-y,1/2+z
loop_
_atom_site_type_symbol
_atom_site_label
_atom_site_fract_x
_atom_site_fract_y
_atom_site_fract_z
Si Si1 0.739286 0.947246 0.538913
Si Si2 0.600410 0.843338 0.236623
Si Si3 0.601729 0.828098 0.762388
Si Si4 0.850372 0.735191 0.365595
Si Si5 0.073522 0.118662 0.863223
Si Si6 0.243391 0.931816 0.242023
Si Si7 0.141363 0.248282 0.135526
Si Si8 0.444727 0.364730 0.723591
O O1 0.652236 0.902431 0.322735
O O2 0.750178 0.951215 0.402569
O O3 0.718679 0.013913 0.544895
O O4 0.835683 0.924080 0.897930
O O5 0.664120 0.812334 0.547379
O O6 0.581004 0.792321 0.059721
O O7 0.495944 0.862981 0.983244
O O8 0.584931 0.799303 0.559136
O O9 0.688982 0.874794 0.024821
O O10 0.629188 0.770119 0.940453
O O11 0.901442 0.796841 0.571339
O O12 0.750000 0.750000 0.000000
O O13 0.000000 0.082830 0.750000
O O14 0.026814 0.139620 0.581161
O O15 0.106178 0.178325 0.050200
O O16 0.135719 0.913488 0.965623
O O17 0.250000 0.250000 0.500000
O O18 0.500000 0.390137 0.750000
#
# Coordination Sequence:
#
# PCOD8154610 Si02
#       8
#     8   8   8   8   8   8   8   8
#     4  12  30  50  75 104 140 196 255 303 361 418
#     4  12  26  45  73 109 143 190 241 293 369 430
#     4  12  25  47  72 106 151 187 235 300 360 435
#     4  12  25  44  72 110 154 190 228 293 368 435
#     4  12  24  44  73 107 147 184 234 297 366 440
#     4  12  29  52  74 104 142 194 253 307 355 425
#     4  12  22  41  73 107 144 183 227 297 365 438
#     4  12  27  46  73 112 150 190 235 291 369 440
#
# _framework density 22.254864000000001
#
# number of rings (size 3 to 8) (size 9 to 14) (size 15 to 20)
#    0.000    0.000    5.000    5.250    5.250    1.500 
#    0.000    0.000    0.000    0.000    0.000    0.000 
#    0.000    0.000    0.000    0.000    0.000    0.000 
#
# Total GULP energy -396965.519661 kJ/mol
# GULP energy per Si atom -12405.172489 kJ/mol
# Density = 2.220421 g / cm^3
# Si number density = 22.254864 Si / 1000 Ang^3
#
#
#
# Elastic Constant Matrix: (Units=GPa)
#
#
# Indices 1 2 3 4 5 6 
#
# 1 137.7326 31.1600 29.0794 0.0000 -4.4601 0.0000
# 2 31.1600 55.8534 0.3443 0.0000 -3.6731 0.0000
# 3 29.0794 0.3443 98.6925 0.0000 -1.6048 0.0000
# 4 0.0000 0.0000 0.0000 11.9615 0.0000 -9.9224
# 5 -4.4601 -3.6731 -1.6048 0.0000 49.3162 0.0000
# 6 0.0000 0.0000 0.0000 -9.9224 0.0000 29.6240
#
#
#
# Elastic Compliance Matrix: (Units=1/GPa)
#
#
# Indices 1 2 3 4 5 6 
#
# 1 0.008943 -0.004950 -0.002612 0.000000 0.000355 0.000000
# 2 -0.004950 0.020732 0.001405 0.000000 0.001142 0.000000
# 3 -0.002612 0.001405 0.010901 0.000000 0.000223 0.000000
# 4 0.000000 0.000000 0.000000 0.115767 0.000000 0.038775
# 5 0.000355 0.001142 0.000223 0.000000 0.020402 0.000000
# 6 0.000000 0.000000 0.000000 0.038775 0.000000 0.046744
#
#
# Mechanical properties :
#
#
# Convention : Reuss Voigt Hill
#
# Bulk Modulus (GPa) = 35.38371 45.93843 40.66107
# Shear Modulus (GPa) = 20.38953 33.62665 27.00809
#
# Velocity S-wave (km/s) = 3.03014 3.89135 3.48743
# Velocity P-wave (km/s) = 5.30812 6.39351 5.87593
#
# Compressibility (1/GPa) = 0.02826159
#
# Stress axis : x y z
#
# Youngs Moduli (GPa) = 111.81598 48.23471 91.73603
#
# Poissons Ratio (x) = 0.23876 0.23962
# Poissons Ratio (y) = 0.55348 -0.12886
# Poissons Ratio (z) = 0.29207 -0.06776
#
# Static dielectric constant tensor:
#      x y z
#    x 4.404040 0.000000 -0.009240 
#    y 0.000000 3.871640 0.000000 
#    z -0.009240 0.000000 3.996040 
# 
# 
# High freq. dielectric constant tensor:
#      x y z
#    x 1.898410 0.000000 0.000430 
#    y 0.000000 1.853330 0.000000 
#    z 0.000430 0.000000 1.896390 
# 
# From -- ./inp_files/70981.got.cif
#   From: 2010.06.25/outbox.cif.g09.slc.cpg/sg15_36_cif.got.tgz:70981.got - 2010.06.28 07:06:18.
