data_PCOD8154620
_publ_section_title
;
Structure prediction by ZEFSAII (Michael W. Deem and Ramdas Pophale) SiO2 
 PCOD8154620
Probable space group: C 2/C
;
_chemical_formula_sum "Si O2"
_cell_formula_units_Z 48
_cell_length_a 12.722722
_cell_length_b 26.288257
_cell_length_c 10.559135
_cell_angle_alpha 90.000000
_cell_angle_beta 36.751235
_cell_angle_gamma 90.000000
_cell_volume 2113.097651
_symmetry_space_group_name_H-M "C 2/C"
_symmetry_group_IT_number 15
_symmetry_cell_setting 'monoclinic'
loop_
_space_group_symop_operation_xyz
x,y,z
-x,y,1/2-z
-x,-y,-z
x,-y,1/2+z
1/2+x,1/2+y,z
1/2-x,1/2+y,1/2-z
1/2-x,1/2-y,-z
1/2+x,1/2-y,1/2+z
loop_
_atom_site_type_symbol
_atom_site_label
_atom_site_fract_x
_atom_site_fract_y
_atom_site_fract_z
Si Si1 0.659127 0.304142 0.317525
Si Si2 0.180959 0.473858 0.349995
Si Si3 0.057077 0.631574 0.057742
Si Si4 0.732453 0.689337 0.261006
Si Si5 0.802098 0.349586 0.435589
Si Si6 0.193759 0.960351 0.539603
O O1 0.453634 0.315422 0.484716
O O2 0.681717 0.244216 0.306304
O O3 0.713649 0.333490 0.391053
O O4 0.792482 0.324415 0.079550
O O5 0.148493 0.414012 0.394652
O O6 0.264741 0.496284 0.397004
O O7 0.000000 0.500000 0.500000
O O8 0.296257 0.483577 0.112294
O O9 0.000000 0.612941 0.250000
O O10 0.877347 0.648602 0.164129
O O11 0.691718 0.677340 0.153718
O O12 0.814219 0.410730 0.439279
O O13 0.000000 0.328225 0.250000
O O14 0.000000 0.940048 0.750000
#
# Coordination Sequence:
#
# PCOD8154620 Si02
#       6
#     8   8   8   8   8   8
#     4  12  24  45  69 106 140 183 236 290 352 421
#     4  12  25  48  73 101 141 191 235 294 362 422
#     4  12  27  48  70 100 142 188 243 289 354 425
#     4  12  24  44  72 103 142 185 233 292 353 419
#     4  12  22  42  72 105 143 182 227 292 358 423
#     4  12  25  44  72 107 145 183 239 295 357 426
#
# _framework density 22.715468000000001
#
# number of rings (size 3 to 8) (size 9 to 14) (size 15 to 20)
#    0.000    0.000    5.000    6.000    0.000    1.333 
#    6.000    0.000    0.000    0.000    0.000    0.000 
#    0.000    0.000    0.000    0.000    0.000    0.000 
#
# Total GULP energy -297628.597694 kJ/mol
# GULP energy per Si atom -12401.191571 kJ/mol
# Density = 2.266377 g / cm^3
# Si number density = 22.715468 Si / 1000 Ang^3
#
#
#
# Elastic Constant Matrix: (Units=GPa)
#
#
# Indices 1 2 3 4 5 6 
#
# 1 80.6830 28.5614 42.8419 0.0000 1.2287 0.0000
# 2 28.5614 83.6957 4.8328 0.0000 2.4363 0.0000
# 3 42.8419 4.8328 134.4706 0.0000 0.1233 0.0000
# 4 0.0000 0.0000 0.0000 12.6444 0.0000 51.5505
# 5 1.2287 2.4363 0.1233 0.0000 50.2751 0.0000
# 6 0.0000 0.0000 0.0000 51.5505 0.0000 -95.2530
#
#
#
# Elastic Compliance Matrix: (Units=1/GPa)
#
#
# Indices 1 2 3 4 5 6 
#
# 1 0.017156 -0.005546 -0.005266 0.000000 -0.000138 0.000000
# 2 -0.005546 0.013783 0.001272 0.000000 -0.000535 0.000000
# 3 -0.005266 0.001272 0.009069 0.000000 0.000045 0.000000
# 4 0.000000 0.000000 0.000000 0.024665 0.000000 0.013349
# 5 -0.000138 -0.000535 0.000045 0.000000 0.019920 0.000000
# 6 0.000000 0.000000 0.000000 0.013349 0.000000 -0.003274
#
#
# Mechanical properties :
#
#
# Convention : Reuss Voigt Hill
#
# Bulk Modulus (GPa) = 47.78661 50.14686 48.96673
# Shear Modulus (GPa) = 46.56570 8.37418 27.46994
#
# Velocity S-wave (km/s) = 4.53256 1.92212 3.48128
# Velocity P-wave (km/s) = 6.96238 5.20097 6.14511
#
# Compressibility (1/GPa) = 0.02092637
#
# Stress axis : x y z
#
# Youngs Moduli (GPa) = 58.28817 72.55357 110.26969
#
# Poissons Ratio (x) = 0.40242 0.58073
# Poissons Ratio (y) = 0.32329 -0.14029
# Poissons Ratio (z) = 0.30697 -0.09231
#
# Static dielectric constant tensor:
#      x y z
#    x 3.679950 0.000000 0.061580 
#    y 0.000000 3.630760 0.000000 
#    z 0.061580 0.000000 4.439650 
# 
# 
# High freq. dielectric constant tensor:
#      x y z
#    x 1.886360 0.000000 -0.001750 
#    y 0.000000 1.898560 0.000000 
#    z -0.001750 0.000000 1.917370 
# 
# From -- ./inp_files/101217.got.cif
#   From: 2010.06.25/outbox.cif.g09.slc.cpg/sg15_51_cif.got.tgz:101217.got - 2010.06.28 07:06:18.
