data_PCOD8154701
_publ_section_title
;
Structure prediction by ZEFSAII (Michael W. Deem and Ramdas Pophale) SiO2 
 PCOD8154701
Probable space group: C 2/C
;
_chemical_formula_sum "Si O2"
_cell_formula_units_Z 28
_cell_length_a 15.227401
_cell_length_b 17.220510
_cell_length_c 15.129090
_cell_angle_alpha 90.000000
_cell_angle_beta 161.735184
_cell_angle_gamma 90.000000
_cell_volume 1243.359126
_symmetry_space_group_name_H-M "C 2/C"
_symmetry_group_IT_number 15
_symmetry_cell_setting 'monoclinic'
loop_
_space_group_symop_operation_xyz
x,y,z
-x,y,1/2-z
-x,-y,-z
x,-y,1/2+z
1/2+x,1/2+y,z
1/2-x,1/2+y,1/2-z
1/2-x,1/2-y,-z
1/2+x,1/2-y,1/2+z
loop_
_atom_site_type_symbol
_atom_site_label
_atom_site_fract_x
_atom_site_fract_y
_atom_site_fract_z
Si Si1 0.897212 0.426951 0.456313
Si Si2 0.500000 0.909829 0.250000
Si Si3 0.653848 0.451670 0.479249
Si Si4 0.932404 0.696970 0.518057
O O1 0.569709 0.446090 0.155335
O O2 0.000000 0.500000 0.500000
O O3 0.948354 0.348174 0.452580
O O4 0.054556 0.417952 0.702356
O O5 0.770472 0.961711 0.482415
O O6 0.577306 0.856831 0.406078
O O7 0.500000 0.406948 0.250000
O O8 0.115062 0.774818 0.702534
#
# Coordination Sequence:
#
# PCOD8154701 Si02
#       4
#     8   4   8   8
#     4  12  24  43  72  97 140 185 241 284 331 412
#     4  12  26  42  72 108 144 180 222 284 364 412
#     4  12  23  41  71 107 131 173 240 294 339 388
#     4  12  28  45  67 103 149 187 220 277 359 430
#
# _framework density 22.519641
#
# number of rings (size 3 to 8) (size 9 to 14) (size 15 to 20)
#    0.000    0.000    5.714    3.429    8.000    0.000 
#    0.000    0.000    0.000   17.143    0.000    0.000 
#    0.000    0.000    0.000    0.000    0.000    0.000 
#
# Total GULP energy -173532.758870 kJ/mol
# GULP energy per Si atom -12395.197062 kJ/mol
# Density = 2.246839 g / cm^3
# Si number density = 22.519641 Si / 1000 Ang^3
#
#
#
# Elastic Constant Matrix: (Units=GPa)
#
#
# Indices 1 2 3 4 5 6 
#
# 1 83.5276 51.6514 18.2337 0.1694 -10.0808 0.1404
# 2 51.6514 78.9620 22.6169 0.1075 -7.9110 0.0504
# 3 18.2337 22.6169 101.2764 -0.0557 -8.4198 -0.0141
# 4 0.1694 0.1075 -0.0557 63.8151 0.0682 17.3495
# 5 -10.0808 -7.9110 -8.4198 0.0682 55.1390 0.0474
# 6 0.1404 0.0504 -0.0141 17.3495 0.0474 41.8177
#
#
#
# Elastic Compliance Matrix: (Units=1/GPa)
#
#
# Indices 1 2 3 4 5 6 
#
# 1 0.020321 -0.012938 -0.000623 -0.000022 0.001764 -0.000046
# 2 -0.012938 0.021890 -0.002527 -0.000011 0.000389 0.000020
# 3 -0.000623 -0.002527 0.010646 0.000013 0.001149 0.000002
# 4 -0.000022 -0.000011 0.000013 0.017663 -0.000019 -0.007328
# 5 0.001764 0.000389 0.001149 -0.000019 0.018690 -0.000019
# 6 -0.000046 0.000020 0.000002 -0.007328 -0.000019 0.026954
#
#
# Mechanical properties :
#
#
# Convention : Reuss Voigt Hill
#
# Bulk Modulus (GPa) = 48.34924 49.86333 49.10628
# Shear Modulus (GPa) = 32.20984 43.57196 37.89090
#
# Velocity S-wave (km/s) = 3.78603 4.40346 4.10637
# Velocity P-wave (km/s) = 6.37405 6.93139 6.65855
#
# Compressibility (1/GPa) = 0.02068285
#
# Stress axis : x y z
#
# Youngs Moduli (GPa) = 49.20929 45.68307 93.93266
#
# Poissons Ratio (x) = 0.59103 0.05850
# Poissons Ratio (y) = 0.63665 0.23735
# Poissons Ratio (z) = 0.03065 0.11543
#
# Static dielectric constant tensor:
#      x y z
#    x 4.348700 0.000270 -0.079970 
#    y 0.000270 3.816430 0.000470 
#    z -0.079970 0.000470 4.451280 
# 
# 
# High freq. dielectric constant tensor:
#      x y z
#    x 1.910140 0.000000 0.000880 
#    y 0.000000 1.843760 -0.000010 
#    z 0.000880 -0.000010 1.916290 
# 
# From -- ./inp_files/9612.got.cif
#   From: 2010.06.25/outbox.cif.g09.slc.cpg/sg15_5_cif.got.tgz:9612.got - 2010.06.28 07:06:18.
