data_PCOD8154702
_publ_section_title
;
Structure prediction by ZEFSAII (Michael W. Deem and Ramdas Pophale) SiO2 
 PCOD8154702
Probable space group: C 2/C
;
_chemical_formula_sum "Si O2"
_cell_formula_units_Z 44
_cell_length_a 12.192206
_cell_length_b 23.279585
_cell_length_c 9.020344
_cell_angle_alpha 90.000000
_cell_angle_beta 126.629509
_cell_angle_gamma 90.000000
_cell_volume 2054.618711
_symmetry_space_group_name_H-M "C 2/C"
_symmetry_group_IT_number 15
_symmetry_cell_setting 'monoclinic'
loop_
_space_group_symop_operation_xyz
x,y,z
-x,y,1/2-z
-x,-y,-z
x,-y,1/2+z
1/2+x,1/2+y,z
1/2-x,1/2+y,1/2-z
1/2-x,1/2-y,-z
1/2+x,1/2-y,1/2+z
loop_
_atom_site_type_symbol
_atom_site_label
_atom_site_fract_x
_atom_site_fract_y
_atom_site_fract_z
Si Si1 0.127057 0.037177 0.563531
Si Si2 0.299580 0.981636 0.933244
Si Si3 0.499363 0.347606 0.068397
Si Si4 0.607355 0.241105 0.967441
Si Si5 0.500000 0.937591 0.750000
Si Si6 0.808704 0.367944 0.791039
O O1 0.163631 0.023133 0.423984
O O2 0.098221 0.102402 0.587717
O O3 0.260770 0.013278 0.751235
O O4 0.000000 0.000000 0.500000
O O5 0.332283 0.914732 0.938236
O O6 0.431235 0.018324 0.081744
O O7 0.500000 0.343295 0.250000
O O8 0.562180 0.291958 0.040539
O O9 0.347326 0.357125 0.883423
O O10 0.500000 0.229995 0.750000
O O11 0.750000 0.250000 0.000000
O O12 0.618567 0.188457 0.089500
O O13 0.384455 0.893974 0.711127
#
# Coordination Sequence:
#
# PCOD8154702 Si02
#       6
#     8   8   8   8   4   8
#     4  12  23  41  73 106 142 188 238 299 372 437
#     4  12  25  44  69 106 150 188 235 300 372 445
#     4  12  27  49  76 108 147 195 256 306 371 442
#     4  12  28  51  78 112 147 197 253 308 374 440
#     4  12  26  46  68 112 148 190 246 298 380 442
#     4  12  27  47  75 105 152 193 245 313 365 447
#
# _framework density 21.415164999999998
#
# number of rings (size 3 to 8) (size 9 to 14) (size 15 to 20)
#    0.000    0.000    5.455    4.364    2.545    3.636 
#    0.000    0.000    0.000    0.000    0.000    0.000 
#    0.000    0.000    0.000    0.000    0.000    0.000 
#
# Total GULP energy -272598.238588 kJ/mol
# GULP energy per Si atom -12390.829027 kJ/mol
# Density = 2.136642 g / cm^3
# Si number density = 21.415165 Si / 1000 Ang^3
#
#
#
# Elastic Constant Matrix: (Units=GPa)
#
#
# Indices 1 2 3 4 5 6 
#
# 1 81.6884 33.3638 2.3479 0.0000 1.8919 0.0000
# 2 33.3638 170.9986 44.0854 0.0000 6.3943 0.0000
# 3 2.3479 44.0854 83.3336 0.0000 8.9508 0.0000
# 4 0.0000 0.0000 0.0000 38.6684 0.0000 -4.7342
# 5 1.8919 6.3943 8.9508 0.0000 37.6928 0.0000
# 6 0.0000 0.0000 0.0000 -4.7342 0.0000 52.0276
#
#
#
# Elastic Compliance Matrix: (Units=1/GPa)
#
#
# Indices 1 2 3 4 5 6 
#
# 1 0.013406 -0.002911 0.001212 0.000000 -0.000467 0.000000
# 2 -0.002911 0.007407 -0.003814 0.000000 -0.000205 0.000000
# 3 0.001212 -0.003814 0.014285 0.000000 -0.002806 0.000000
# 4 0.000000 0.000000 0.000000 0.026152 0.000000 0.002380
# 5 -0.000467 -0.000205 -0.002806 0.000000 0.027255 0.000000
# 6 0.000000 0.000000 0.000000 0.002380 0.000000 0.019437
#
#
# Mechanical properties :
#
#
# Convention : Reuss Voigt Hill
#
# Bulk Modulus (GPa) = 41.54095 55.06833 48.30464
# Shear Modulus (GPa) = 39.37225 42.75932 41.06578
#
# Velocity S-wave (km/s) = 4.29245 4.47327 4.38379
# Velocity P-wave (km/s) = 6.63377 7.24229 6.94470
#
# Compressibility (1/GPa) = 0.02407263
#
# Stress axis : x y z
#
# Youngs Moduli (GPa) = 74.59077 135.00719 70.00280
#
# Poissons Ratio (x) = 0.39299 -0.08487
# Poissons Ratio (y) = 0.21712 0.26702
# Poissons Ratio (z) = -0.09043 0.51498
#
# Static dielectric constant tensor:
#      x y z
#    x -0.645600 0.000000 2.085040 
#    y 0.000000 -1.279740 0.000000 
#    z 2.085040 0.000000 3.351610 
# 
# 
# High freq. dielectric constant tensor:
#      x y z
#    x 1.862390 0.000000 0.000640 
#    y 0.000000 1.854120 0.000000 
#    z 0.000640 0.000000 1.852630 
# 
# From -- ./inp_files/32748.got.cif
#   From: 2010.06.25/outbox.cif.g09.slc.cpg/sg15_17_cif.got.tgz:32748.got - 2010.06.28 07:06:18.
