data_PCOD8154498
_publ_section_title
;
Structure prediction by ZEFSAII (Michael W. Deem and Ramdas Pophale) SiO2 
 PCOD8154498
Probable space group: C 2/C
;
_chemical_formula_sum "Si O2"
_cell_formula_units_Z 48
_cell_length_a 14.683338
_cell_length_b 18.368172
_cell_length_c 9.835271
_cell_angle_alpha 90.000000
_cell_angle_beta 71.250253
_cell_angle_gamma 90.000000
_cell_volume 2511.861276
_symmetry_space_group_name_H-M "C 2/C"
_symmetry_group_IT_number 15
_symmetry_cell_setting 'monoclinic'
loop_
_space_group_symop_operation_xyz
x,y,z
-x,y,1/2-z
-x,-y,-z
x,-y,1/2+z
1/2+x,1/2+y,z
1/2-x,1/2+y,1/2-z
1/2-x,1/2-y,-z
1/2+x,1/2-y,1/2+z
loop_
_atom_site_type_symbol
_atom_site_label
_atom_site_fract_x
_atom_site_fract_y
_atom_site_fract_z
Si Si1 0.000000 0.249793 0.250000
Si Si2 0.508364 0.868949 0.026047
Si Si3 0.701480 0.077254 0.815952
Si Si4 0.703126 0.270891 0.163321
Si Si5 0.292093 0.303832 0.866655
Si Si6 0.500000 0.789850 0.750000
Si Si7 0.702178 0.053676 0.505290
O O1 0.976818 0.296933 0.393210
O O2 0.904882 0.201935 0.277832
O O3 0.410317 0.906124 0.116763
O O4 0.593739 0.925323 0.015163
O O5 0.505050 0.845584 0.872087
O O6 0.765692 0.149399 0.801442
O O7 0.715204 0.042878 0.660249
O O8 0.732750 0.020782 0.916986
O O9 0.734241 0.210407 0.256739
O O10 0.588933 0.265603 0.200973
O O11 0.750000 0.250000 0.000000
O O12 0.250000 0.250000 0.000000
O O13 0.276654 0.385710 0.920821
#
# Coordination Sequence:
#
# PCOD8154498 Si02
#       7
#     4   8   8   8   8   4   8
#     4  12  20  40  70  98 120 164 224 274 318 378
#     4  12  21  40  65  96 129 165 213 269 332 387
#     4  12  26  43  63  96 135 172 213 267 329 393
#     4  12  23  42  65  97 131 170 218 268 317 384
#     4  12  21  42  69  91 128 171 218 268 319 382
#     4  12  24  36  70 100 128 166 216 278 320 370
#     4  12  26  42  65  94 135 173 212 267 332 390
#
# _framework density 19.109335000000002
#
# number of rings (size 3 to 8) (size 9 to 14) (size 15 to 20)
#    0.000    0.000   10.000    0.500    4.667    0.000 
#    0.000    0.833    0.000    2.000    0.000    0.000 
#    0.000    0.000    0.000    0.000    0.000    0.000 
#
# Total GULP energy -297696.531796 kJ/mol
# GULP energy per Si atom -12404.022158 kJ/mol
# Density = 1.906584 g / cm^3
# Si number density = 19.109335 Si / 1000 Ang^3
#
#
#
# Elastic Constant Matrix: (Units=GPa)
#
#
# Indices 1 2 3 4 5 6 
#
# 1 104.7640 15.5686 23.4061 0.0000 -6.8920 0.0000
# 2 15.5686 73.0619 29.1174 0.0000 1.8564 0.0000
# 3 23.4061 29.1174 149.3575 0.0000 16.3999 0.0000
# 4 0.0000 0.0000 0.0000 42.8542 0.0000 3.9840
# 5 -6.8920 1.8564 16.3999 0.0000 26.3423 0.0000
# 6 0.0000 0.0000 0.0000 3.9840 0.0000 13.8001
#
#
#
# Elastic Compliance Matrix: (Units=1/GPa)
#
#
# Indices 1 2 3 4 5 6 
#
# 1 0.010437 -0.001626 -0.001751 0.000000 0.003935 0.000000
# 2 -0.001626 0.015110 -0.002713 0.000000 0.000198 0.000000
# 3 -0.001751 -0.002713 0.008080 0.000000 -0.005297 0.000000
# 4 0.000000 0.000000 0.000000 0.023978 0.000000 -0.006923
# 5 0.003935 0.000198 -0.005297 0.000000 0.042275 0.000000
# 6 0.000000 0.000000 0.000000 -0.006923 0.000000 0.074462
#
#
# Mechanical properties :
#
#
# Convention : Reuss Voigt Hill
#
# Bulk Modulus (GPa) = 46.62503 51.48528 49.05516
# Shear Modulus (GPa) = 25.81703 33.87207 29.84455
#
# Velocity S-wave (km/s) = 3.67961 4.21472 3.95622
# Velocity P-wave (km/s) = 6.51956 7.11942 6.82608
#
# Compressibility (1/GPa) = 0.02144771
#
# Stress axis : x y z
#
# Youngs Moduli (GPa) = 95.81351 66.18328 123.75983
#
# Poissons Ratio (x) = 0.10763 0.21666
# Poissons Ratio (y) = 0.15582 0.33570
# Poissons Ratio (z) = 0.16773 0.17953
#
# Static dielectric constant tensor:
#      x y z
#    x 4.173470 0.000000 -0.190640 
#    y 0.000000 3.776150 0.000000 
#    z -0.190640 0.000000 3.733430 
# 
# 
# High freq. dielectric constant tensor:
#      x y z
#    x 1.742210 0.000000 0.001550 
#    y 0.000000 1.726490 0.000000 
#    z 0.001550 0.000000 1.769910 
# 
# From -- ./inp_files/39705.got.cif
#   From: 2010.06.25/outbox.cif.g09.slc.cpg/sg15_20_cif.got.tgz:39705.got - 2010.06.28 07:06:18.
