data_PCOD8154221
_publ_section_title
;
Structure prediction by ZEFSAII (Michael W. Deem and Ramdas Pophale) SiO2 
 PCOD8154221
Probable space group: C 2/C
;
_chemical_formula_sum "Si O2"
_cell_formula_units_Z 44
_cell_length_a 7.992318
_cell_length_b 23.709678
_cell_length_c 10.860345
_cell_angle_alpha 90.000000
_cell_angle_beta 115.774116
_cell_angle_gamma 90.000000
_cell_volume 1853.246245
_symmetry_space_group_name_H-M "C 2/C"
_symmetry_group_IT_number 15
_symmetry_cell_setting 'monoclinic'
loop_
_space_group_symop_operation_xyz
x,y,z
-x,y,1/2-z
-x,-y,-z
x,-y,1/2+z
1/2+x,1/2+y,z
1/2-x,1/2+y,1/2-z
1/2-x,1/2-y,-z
1/2+x,1/2-y,1/2+z
loop_
_atom_site_type_symbol
_atom_site_label
_atom_site_fract_x
_atom_site_fract_y
_atom_site_fract_z
Si Si1 0.176444 0.039170 0.568671
Si Si2 0.500000 0.038006 0.250000
Si Si3 0.873045 0.613736 0.421161
Si Si4 0.197403 0.310816 0.126709
Si Si5 0.445182 0.650365 0.901153
Si Si6 0.885963 0.194583 0.320764
O O1 0.254314 0.071446 0.470508
O O2 0.108775 0.086151 0.643522
O O3 0.325167 0.002479 0.687275
O O4 0.000000 0.000000 0.500000
O O5 0.498821 0.074764 0.373967
O O6 0.760205 0.651908 0.286457
O O7 0.004796 0.655753 0.543251
O O8 0.353852 0.336339 0.089678
O O9 0.274280 0.313977 0.291503
O O10 0.185492 0.242670 0.106693
O O11 0.461839 0.658543 0.053681
O O12 0.000000 0.226081 0.250000
#
# Coordination Sequence:
#
# PCOD8154221 Si02
#       6
#     8   4   8   8   8   8
#     4  12  26  46  73 104 148 192 249 310 376 430
#     4  12  28  46  80 110 146 198 254 312 372 438
#     4  12  26  48  75 112 147 193 253 305 368 450
#     4  11  26  44  73 105 151 192 244 299 373 444
#     4  11  25  47  68 108 146 196 242 307 364 445
#     4  12  25  44  75 106 148 195 244 301 374 440
#
# _framework density 23.742122999999999
#
# number of rings (size 3 to 8) (size 9 to 14) (size 15 to 20)
#    0.000    0.364    1.818    6.545    2.545    7.273 
#    0.000    0.000    0.000    0.000    0.000    0.000 
#    0.000    0.000    0.000    0.000    0.000    0.000 
#
# Total GULP energy -272569.894260 kJ/mol
# GULP energy per Si atom -12389.540648 kJ/mol
# Density = 2.368808 g / cm^3
# Si number density = 23.742123 Si / 1000 Ang^3
#
#
#
# Elastic Constant Matrix: (Units=GPa)
#
#
# Indices 1 2 3 4 5 6 
#
# 1 80.6115 46.9220 42.9744 0.0000 4.0782 0.0000
# 2 46.9220 128.2573 37.6528 0.0000 12.9960 0.0000
# 3 42.9744 37.6528 148.9104 0.0000 31.2099 0.0000
# 4 0.0000 0.0000 0.0000 47.9604 0.0000 -1.5058
# 5 4.0782 12.9960 31.2099 0.0000 44.2840 0.0000
# 6 0.0000 0.0000 0.0000 -1.5058 0.0000 38.8709
#
#
#
# Elastic Compliance Matrix: (Units=1/GPa)
#
#
# Indices 1 2 3 4 5 6 
#
# 1 0.017812 -0.005541 -0.004384 0.000000 0.003075 0.000000
# 2 -0.005541 0.010195 -0.000538 0.000000 -0.002102 0.000000
# 3 -0.004384 -0.000538 0.009385 0.000000 -0.006053 0.000000
# 4 0.000000 0.000000 0.000000 0.020876 0.000000 0.000809
# 5 0.003075 -0.002102 -0.006053 0.000000 0.027181 0.000000
# 6 0.000000 0.000000 0.000000 0.000809 0.000000 0.025758
#
#
# Mechanical properties :
#
#
# Convention : Reuss Voigt Hill
#
# Bulk Modulus (GPa) = 60.73068 68.09750 64.41409
# Shear Modulus (GPa) = 36.33155 41.57173 38.95164
#
# Velocity S-wave (km/s) = 3.91609 4.18900 4.05484
# Velocity P-wave (km/s) = 6.78841 7.22090 7.00799
#
# Compressibility (1/GPa) = 0.01646614
#
# Stress axis : x y z
#
# Youngs Moduli (GPa) = 56.14212 98.08764 106.55000
#
# Poissons Ratio (x) = 0.54350 0.46710
# Poissons Ratio (y) = 0.31108 0.05734
# Poissons Ratio (z) = 0.24612 0.05278
#
# Static dielectric constant tensor:
#      x y z
#    x 4.224810 0.000000 -0.057350 
#    y 0.000000 4.871330 0.000000 
#    z -0.057350 0.000000 4.956330 
# 
# 
# High freq. dielectric constant tensor:
#      x y z
#    x 1.946690 0.000000 0.003870 
#    y 0.000000 1.961440 0.000000 
#    z 0.003870 0.000000 1.953500 
# 
# From -- ./inp_files/79979.got.cif
#   From: 2010.06.25/outbox.cif.g09.slc.cpg/sg15_40_cif.got.tgz:79979.got - 2010.06.28 07:06:18.
