data_PCOD8154711
_publ_section_title
;
Structure prediction by ZEFSAII (Michael W. Deem and Ramdas Pophale) SiO2 
 PCOD8154711
Probable space group: C 2/C
;
_chemical_formula_sum "Si O2"
_cell_formula_units_Z 44
_cell_length_a 15.115905
_cell_length_b 26.995794
_cell_length_c 5.387567
_cell_angle_alpha 90.000000
_cell_angle_beta 122.236759
_cell_angle_gamma 90.000000
_cell_volume 1859.588580
_symmetry_space_group_name_H-M "C 2/C"
_symmetry_group_IT_number 15
_symmetry_cell_setting 'monoclinic'
loop_
_space_group_symop_operation_xyz
x,y,z
-x,y,1/2-z
-x,-y,-z
x,-y,1/2+z
1/2+x,1/2+y,z
1/2-x,1/2+y,1/2-z
1/2-x,1/2-y,-z
1/2+x,1/2-y,1/2+z
loop_
_atom_site_type_symbol
_atom_site_label
_atom_site_fract_x
_atom_site_fract_y
_atom_site_fract_z
Si Si1 0.174777 0.787280 0.021665
Si Si2 0.000000 0.045937 0.250000
Si Si3 0.783662 0.024334 0.803806
Si Si4 0.500000 0.783185 0.250000
Si Si5 0.000000 0.340870 0.750000
Si Si6 0.225305 0.374070 0.046050
Si Si7 0.401284 0.372447 0.931982
O O1 0.089423 0.750551 0.010793
O O2 0.113671 0.823511 0.748151
O O3 0.250000 0.750000 0.000000
O O4 0.236366 0.819488 0.315617
O O5 0.927494 0.079314 0.315444
O O6 0.088886 0.015302 0.534424
O O7 0.752809 0.082436 0.782200
O O8 0.736176 0.002235 0.476955
O O9 0.462508 0.813310 0.439564
O O10 0.899525 0.373294 0.685880
O O11 0.292247 0.386556 0.901782
O O12 0.500000 0.359748 0.250000
#
# Coordination Sequence:
#
# PCOD8154711 Si02
#       7
#     8   4   8   4   4   8   8
#     4  12  25  43  71 103 152 198 246 302 364 443
#     4  12  23  44  70 115 148 187 228 310 385 456
#     4  12  27  46  75 110 147 189 245 306 378 455
#     4  12  27  46  70 115 146 199 250 300 367 442
#     4  12  30  50  74 104 152 200 260 310 350 436
#     4  12  27  48  74 105 151 200 249 306 375 431
#     4  12  23  42  73 106 151 197 235 302 377 446
#
# _framework density 23.661147
#
# number of rings (size 3 to 8) (size 9 to 14) (size 15 to 20)
#    0.000    0.000    5.455    4.364    3.818    1.455 
#    0.000    0.909    0.000    0.000    0.000    0.000 
#    0.000    0.000    0.000    0.000    0.000    0.000 
#
# Total GULP energy -272701.804120 kJ/mol
# GULP energy per Si atom -12395.536551 kJ/mol
# Density = 2.360729 g / cm^3
# Si number density = 23.661147 Si / 1000 Ang^3
#
#
#
# Elastic Constant Matrix: (Units=GPa)
#
#
# Indices 1 2 3 4 5 6 
#
# 1 144.2591 23.2550 37.2103 0.0000 4.6372 0.0000
# 2 23.2550 85.5256 15.1689 0.0000 -8.2622 0.0000
# 3 37.2103 15.1689 85.6055 0.0000 -9.6234 0.0000
# 4 0.0000 0.0000 0.0000 60.9281 0.0000 -1.2405
# 5 4.6372 -8.2622 -9.6234 0.0000 49.1428 0.0000
# 6 0.0000 0.0000 0.0000 -1.2405 0.0000 22.2709
#
#
#
# Elastic Compliance Matrix: (Units=1/GPa)
#
#
# Indices 1 2 3 4 5 6 
#
# 1 0.008159 -0.001779 -0.003427 0.000000 -0.001740 0.000000
# 2 -0.001779 0.012591 -0.001228 0.000000 0.002044 0.000000
# 3 -0.003427 -0.001228 0.013703 0.000000 0.002800 0.000000
# 4 0.000000 0.000000 0.000000 0.016431 0.000000 0.000915
# 5 -0.001740 0.002044 0.002800 0.000000 0.021405 0.000000
# 6 0.000000 0.000000 0.000000 0.000915 0.000000 0.044953
#
#
# Mechanical properties :
#
#
# Convention : Reuss Voigt Hill
#
# Bulk Modulus (GPa) = 46.32595 51.85094 49.08844
# Shear Modulus (GPa) = 36.41531 42.45211 39.43371
#
# Velocity S-wave (km/s) = 3.92731 4.24036 4.08683
# Velocity P-wave (km/s) = 6.33928 6.77759 6.56209
#
# Compressibility (1/GPa) = 0.02158618
#
# Stress axis : x y z
#
# Youngs Moduli (GPa) = 122.57135 79.41959 72.97455
#
# Poissons Ratio (x) = 0.14126 0.25006
# Poissons Ratio (y) = 0.21801 0.08963
# Poissons Ratio (z) = 0.42001 0.09754
#
# Static dielectric constant tensor:
#      x y z
#    x 3.850310 0.000000 -0.550370 
#    y 0.000000 4.468460 0.000000 
#    z -0.550370 0.000000 3.564820 
# 
# 
# High freq. dielectric constant tensor:
#      x y z
#    x 1.935020 0.000000 -0.007390 
#    y 0.000000 1.946650 0.000000 
#    z -0.007390 0.000000 1.931790 
# 
# From -- ./inp_files/8219.got.cif
#   From: 2010.06.25/outbox.cif.g09.slc.cpg/sg15_5_cif.got.tgz:8219.got - 2010.06.28 07:06:18.
