data_PCOD8154403
_publ_section_title
;
Structure prediction by ZEFSAII (Michael W. Deem and Ramdas Pophale) SiO2 
 PCOD8154403
Probable space group: C 2/C
;
_chemical_formula_sum "Si O2"
_cell_formula_units_Z 48
_cell_length_a 23.003856
_cell_length_b 8.258174
_cell_length_c 12.066454
_cell_angle_alpha 90.000000
_cell_angle_beta 110.133469
_cell_angle_gamma 90.000000
_cell_volume 2152.189915
_symmetry_space_group_name_H-M "C 2/C"
_symmetry_group_IT_number 15
_symmetry_cell_setting 'monoclinic'
loop_
_space_group_symop_operation_xyz
x,y,z
-x,y,1/2-z
-x,-y,-z
x,-y,1/2+z
1/2+x,1/2+y,z
1/2-x,1/2+y,1/2-z
1/2-x,1/2-y,-z
1/2+x,1/2-y,1/2+z
loop_
_atom_site_type_symbol
_atom_site_label
_atom_site_fract_x
_atom_site_fract_y
_atom_site_fract_z
Si Si1 0.766677 0.071696 0.654536
Si Si2 0.120836 0.737893 0.347358
Si Si3 0.674783 0.261634 0.742167
Si Si4 0.429287 0.291203 0.425119
Si Si5 0.344384 0.096674 0.540040
Si Si6 0.066413 0.835698 0.526959
O O1 0.808156 0.196972 0.610048
O O2 0.732250 0.169963 0.726759
O O3 0.813338 0.953873 0.750492
O O4 0.721391 0.961053 0.551563
O O5 0.088314 0.730145 0.208001
O O6 0.117628 0.559354 0.396979
O O7 0.082414 0.849093 0.406984
O O8 0.666882 0.208740 0.862477
O O9 0.614883 0.224524 0.627052
O O10 0.382921 0.204106 0.478899
O O11 0.500332 0.248200 0.501326
O O12 0.427966 0.484652 0.422216
#
# Coordination Sequence:
#
# PCOD8154403 Si02
#       6
#     8   8   8   8   8   8
#     4  12  25  43  71 103 147 180 235 287 359 426
#     4  12  25  47  73 105 142 186 230 294 351 421
#     4  12  25  44  69 105 135 190 230 292 353 420
#     4  11  26  50  72 102 139 189 239 290 346 422
#     4  12  26  44  70 106 143 183 232 289 360 417
#     4  11  26  48  74  99 138 187 244 286 350 417
#
# _framework density 22.302866000000002
#
# number of rings (size 3 to 8) (size 9 to 14) (size 15 to 20)
#    0.000    0.333    3.333    5.500    2.333    1.333 
#    3.000    0.000    0.000    0.000    0.000    0.000 
#    0.000    0.000    0.000    0.000    0.000    0.000 
#
# Total GULP energy -297677.742708 kJ/mol
# GULP energy per Si atom -12403.239280 kJ/mol
# Density = 2.225210 g / cm^3
# Si number density = 22.302866 Si / 1000 Ang^3
#
#
#
# Elastic Constant Matrix: (Units=GPa)
#
#
# Indices 1 2 3 4 5 6 
#
# 1 101.2365 15.0215 33.9168 0.0000 5.7299 0.0000
# 2 15.0215 48.3865 11.2629 0.0000 6.2737 0.0000
# 3 33.9168 11.2629 82.3521 0.0000 -13.7977 0.0000
# 4 0.0000 0.0000 0.0000 28.1816 0.0000 -8.8293
# 5 5.7299 6.2737 -13.7977 0.0000 37.9021 0.0000
# 6 0.0000 0.0000 0.0000 -8.8293 0.0000 33.5258
#
#
#
# Elastic Compliance Matrix: (Units=1/GPa)
#
#
# Indices 1 2 3 4 5 6 
#
# 1 0.012156 -0.002099 -0.005292 0.000000 -0.003417 0.000000
# 2 -0.002099 0.022597 -0.002981 0.000000 -0.004508 0.000000
# 3 -0.005292 -0.002981 0.015918 0.000000 0.007088 0.000000
# 4 0.000000 0.000000 0.000000 0.038675 0.000000 0.010185
# 5 -0.003417 -0.004508 0.007088 0.000000 0.030227 0.000000
# 6 0.000000 0.000000 0.000000 0.010185 0.000000 0.032510
#
#
# Mechanical properties :
#
#
# Convention : Reuss Voigt Hill
#
# Bulk Modulus (GPa) = 33.41543 39.15306 36.28424
# Shear Modulus (GPa) = 27.35203 31.37350 29.36276
#
# Velocity S-wave (km/s) = 3.50579 3.75467 3.63236
# Velocity P-wave (km/s) = 5.60379 6.03242 5.82205
#
# Compressibility (1/GPa) = 0.02992630
#
# Stress axis : x y z
#
# Youngs Moduli (GPa) = 82.26726 44.25356 62.82321
#
# Poissons Ratio (x) = 0.09289 0.33244
# Poissons Ratio (y) = 0.17267 0.18730
# Poissons Ratio (z) = 0.43533 0.13194
#
# Static dielectric constant tensor:
#      x y z
#    x 4.202160 0.000000 0.092630 
#    y 0.000000 4.064110 0.000000 
#    z 0.092630 0.000000 4.071360 
# 
# 
# High freq. dielectric constant tensor:
#      x y z
#    x 1.886560 0.000000 0.001450 
#    y 0.000000 1.884220 0.000000 
#    z 0.001450 0.000000 1.891970 
# 
# From -- ./inp_files/116802.got.cif
#   From: 2010.06.25/outbox.cif.g09.slc.cpg/sg15_59_cif.got.tgz:116802.got - 2010.06.28 07:06:18.
