data_PCOD8154046
_publ_section_title
;
Structure prediction by ZEFSAII (Michael W. Deem and Ramdas Pophale) SiO2 
 PCOD8154046
Probable space group: C 2/C
;
_chemical_formula_sum "Si O2"
_cell_formula_units_Z 60
_cell_length_a 6.970642
_cell_length_b 17.345312
_cell_length_c 27.595528
_cell_angle_alpha 90.000000
_cell_angle_beta 64.312845
_cell_angle_gamma 90.000000
_cell_volume 3006.784910
_symmetry_space_group_name_H-M "C 2/C"
_symmetry_group_IT_number 15
_symmetry_cell_setting 'monoclinic'
loop_
_space_group_symop_operation_xyz
x,y,z
-x,y,1/2-z
-x,-y,-z
x,-y,1/2+z
1/2+x,1/2+y,z
1/2-x,1/2+y,1/2-z
1/2-x,1/2-y,-z
1/2+x,1/2-y,1/2+z
loop_
_atom_site_type_symbol
_atom_site_label
_atom_site_fract_x
_atom_site_fract_y
_atom_site_fract_z
Si Si1 0.213896 0.726513 0.889168
Si Si2 0.541901 0.633333 0.564639
Si Si3 0.051531 0.123060 0.450216
Si Si4 0.792716 0.518442 0.053212
Si Si5 0.433344 0.188683 0.203988
Si Si6 0.480345 0.046707 0.373701
Si Si7 0.063714 0.625337 0.647115
Si Si8 0.000000 0.719341 0.750000
O O1 0.311707 0.700333 0.929509
O O2 0.072641 0.801349 0.915093
O O3 0.401637 0.746410 0.831349
O O4 0.070587 0.659026 0.882874
O O5 0.545768 0.643410 0.507006
O O6 0.630661 0.552064 0.572905
O O7 0.308178 0.644278 0.611339
O O8 0.243725 0.063577 0.419510
O O9 0.825252 0.088228 0.460530
O O10 0.853920 0.543460 0.100411
O O11 0.000000 0.500000 0.000000
O O12 0.500000 0.161711 0.250000
O O13 0.436785 0.113233 0.170350
O O14 0.200487 0.224511 0.227789
O O15 0.477013 0.966053 0.345488
O O16 0.988914 0.664250 0.704822
#
# Coordination Sequence:
#
# PCOD8154046 Si02
#       8
#     8   8   8   8   8   8   8   4
#     4  11  25  43  67  98 135 177 223 276 338 402
#     4  12  23  42  67 101 136 180 227 274 331 407
#     4  11  25  41  67  99 140 178 226 273 330 402
#     4  12  23  41  67  98 142 184 219 273 335 402
#     4  11  25  47  69  95 132 175 226 284 339 396
#     4  11  25  43  69 100 133 180 229 270 334 414
#     4  12  25  44  69  99 134 178 225 281 339 399
#     4  12  26  46  70  96 136 174 220 290 348 384
#
# _framework density 19.954871000000001
#
# number of rings (size 3 to 8) (size 9 to 14) (size 15 to 20)
#    0.000    0.533    6.667    1.600    2.800    0.533 
#    0.000    1.333    0.000    0.000    0.000    0.000 
#    0.000    0.000    0.000    0.000    0.000    0.000 
#
# Total GULP energy -372202.529267 kJ/mol
# GULP energy per Si atom -12406.750976 kJ/mol
# Density = 1.990945 g / cm^3
# Si number density = 19.954871 Si / 1000 Ang^3
#
#
#
# Elastic Constant Matrix: (Units=GPa)
#
#
# Indices 1 2 3 4 5 6 
#
# 1 110.1436 36.2410 50.6270 0.0000 -5.9043 0.0000
# 2 36.2410 87.5566 32.9396 0.0000 -14.5634 0.0000
# 3 50.6270 32.9396 107.1117 0.0000 4.0986 0.0000
# 4 0.0000 0.0000 0.0000 30.1707 0.0000 6.1629
# 5 -5.9043 -14.5634 4.0986 0.0000 37.2195 0.0000
# 6 0.0000 0.0000 0.0000 6.1629 0.0000 38.3072
#
#
#
# Elastic Compliance Matrix: (Units=1/GPa)
#
#
# Indices 1 2 3 4 5 6 
#
# 1 0.012452 -0.003052 -0.004998 0.000000 0.001331 0.000000
# 2 -0.003052 0.014898 -0.003358 0.000000 0.005715 0.000000
# 3 -0.004998 -0.003358 0.012866 0.000000 -0.003523 0.000000
# 4 0.000000 0.000000 0.000000 0.034271 0.000000 -0.005514
# 5 0.001331 0.005715 -0.003523 0.000000 0.029703 0.000000
# 6 0.000000 0.000000 0.000000 -0.005514 0.000000 0.026992
#
#
# Mechanical properties :
#
#
# Convention : Reuss Voigt Hill
#
# Bulk Modulus (GPa) = 57.46967 60.49190 58.98079
# Shear Modulus (GPa) = 31.28963 33.47309 32.38136
#
# Velocity S-wave (km/s) = 3.96412 4.10010 4.03268
# Velocity P-wave (km/s) = 7.05795 7.26599 7.16272
#
# Compressibility (1/GPa) = 0.01740048
#
# Stress axis : x y z
#
# Youngs Moduli (GPa) = 80.30867 67.12146 77.72655
#
# Poissons Ratio (x) = 0.20488 0.38846
# Poissons Ratio (y) = 0.24514 0.26097
# Poissons Ratio (z) = 0.40136 0.22536
#
# Static dielectric constant tensor:
#      x y z
#    x 3.905730 0.000000 0.043750 
#    y 0.000000 3.667480 0.000000 
#    z 0.043750 0.000000 3.660360 
# 
# 
# High freq. dielectric constant tensor:
#      x y z
#    x 1.796590 0.000000 0.003230 
#    y 0.000000 1.787770 0.000000 
#    z 0.003230 0.000000 1.781810 
# 
# From -- ./inp_files/305776.got.cif
#   From: 2010.06.25/outbox.cif.g09.slc.cpg/sg15_153_cif.got.tgz:305776.got - 2010.06.28 07:06:18.
