data_PCOD8154824
_publ_section_title
;
Structure prediction by ZEFSAII (Michael W. Deem and Ramdas Pophale) SiO2 
 PCOD8154824
Probable space group: C 2/C
;
_chemical_formula_sum "Si O2"
_cell_formula_units_Z 60
_cell_length_a 7.986583
_cell_length_b 15.896876
_cell_length_c 21.465049
_cell_angle_alpha 90.000000
_cell_angle_beta 82.084628
_cell_angle_gamma 90.000000
_cell_volume 2699.274956
_symmetry_space_group_name_H-M "C 2/C"
_symmetry_group_IT_number 15
_symmetry_cell_setting 'monoclinic'
loop_
_space_group_symop_operation_xyz
x,y,z
-x,y,1/2-z
-x,-y,-z
x,-y,1/2+z
1/2+x,1/2+y,z
1/2-x,1/2+y,1/2-z
1/2-x,1/2-y,-z
1/2+x,1/2-y,1/2+z
loop_
_atom_site_type_symbol
_atom_site_label
_atom_site_fract_x
_atom_site_fract_y
_atom_site_fract_z
Si Si1 0.500000 0.317707 0.750000
Si Si2 0.309533 0.696660 0.761314
Si Si3 0.201735 0.290783 0.938478
Si Si4 0.164458 0.660191 0.010610
Si Si5 0.129545 0.985295 0.938132
Si Si6 0.364604 0.567680 0.363617
Si Si7 0.837215 0.404833 0.129391
Si Si8 0.208377 0.631632 0.640700
O O1 0.655036 0.263429 0.769835
O O2 0.595825 0.377851 0.697929
O O3 0.500000 0.736790 0.750000
O O4 0.305729 0.649290 0.828159
O O5 0.285232 0.627375 0.706684
O O6 0.315072 0.372735 0.923793
O O7 0.241850 0.226167 0.881192
O O8 0.010903 0.321999 0.947008
O O9 0.250000 0.250000 0.000000
O O10 0.260029 0.596589 0.051994
O O11 0.250000 0.750000 0.000000
O O12 0.148752 0.617744 0.944004
O O13 0.034441 0.977146 0.877318
O O14 0.236997 0.068331 0.917417
O O15 0.000000 0.000000 0.000000
O O16 0.211862 0.502510 0.359892
O O17 0.008931 0.382878 0.156647
#
# Coordination Sequence:
#
# PCOD8154824 Si02
#       8
#     4   8   8   8   8   8   8   8
#     4  12  28  54  74 110 148 196 254 316 372 446
#     4  12  27  50  80 105 143 199 253 310 376 448
#     4  12  24  43  73 103 143 192 237 297 370 440
#     4  12  27  42  71 108 147 191 245 302 373 448
#     4  12  26  44  70 108 151 191 250 304 373 450
#     4  12  27  47  73 108 149 191 244 312 366 440
#     4  12  26  47  74 106 148 195 247 307 375 440
#     4  12  25  49  74 105 148 197 247 307 372 449
#
# _framework density 22.228190000000001
#
# number of rings (size 3 to 8) (size 9 to 14) (size 15 to 20)
#    0.000    0.000    5.333    4.000    6.533    1.067 
#    2.400    0.000    0.000    0.000    0.000    0.000 
#    0.000    0.000    0.000    0.000    0.000    0.000 
#
# Total GULP energy -371912.069568 kJ/mol
# GULP energy per Si atom -12397.068986 kJ/mol
# Density = 2.217760 g / cm^3
# Si number density = 22.228190 Si / 1000 Ang^3
#
#
#
# Elastic Constant Matrix: (Units=GPa)
#
#
# Indices 1 2 3 4 5 6 
#
# 1 128.0049 48.4175 28.5810 0.0000 -14.9758 0.0000
# 2 48.4175 132.9656 38.1749 0.0000 -14.6061 0.0000
# 3 28.5810 38.1749 69.4531 0.0000 -1.3616 0.0000
# 4 0.0000 0.0000 0.0000 46.0725 0.0000 -10.5551
# 5 -14.9758 -14.6061 -1.3616 0.0000 32.8795 0.0000
# 6 0.0000 0.0000 0.0000 -10.5551 0.0000 40.9154
#
#
#
# Elastic Compliance Matrix: (Units=1/GPa)
#
#
# Indices 1 2 3 4 5 6 
#
# 1 0.009686 -0.002430 -0.002587 0.000000 0.003225 0.000000
# 2 -0.002430 0.010031 -0.004452 0.000000 0.003165 0.000000
# 3 -0.002587 -0.004452 0.017862 0.000000 -0.002416 0.000000
# 4 0.000000 0.000000 0.000000 0.023068 0.000000 0.005951
# 5 0.003225 0.003165 -0.002416 0.000000 0.033189 0.000000
# 6 0.000000 0.000000 0.000000 0.005951 0.000000 0.025976
#
#
# Mechanical properties :
#
#
# Convention : Reuss Voigt Hill
#
# Bulk Modulus (GPa) = 53.64155 62.30782 57.97469
# Shear Modulus (GPa) = 34.49101 38.32350 36.40725
#
# Velocity S-wave (km/s) = 3.94341 4.15673 4.05147
# Velocity P-wave (km/s) = 6.70213 7.15050 6.92994
#
# Compressibility (1/GPa) = 0.01864226
#
# Stress axis : x y z
#
# Youngs Moduli (GPa) = 103.23785 99.68703 55.98357
#
# Poissons Ratio (x) = 0.24225 0.14484
# Poissons Ratio (y) = 0.25088 0.24922
# Poissons Ratio (z) = 0.26709 0.44378
#
# Static dielectric constant tensor:
#      x y z
#    x 4.043870 0.000000 0.151320 
#    y 0.000000 4.242910 0.000000 
#    z 0.151320 0.000000 3.772780 
# 
# 
# High freq. dielectric constant tensor:
#      x y z
#    x 1.883450 0.000000 -0.011630 
#    y 0.000000 1.881600 0.000000 
#    z -0.011630 0.000000 1.889060 
# 
# From -- ./inp_files/264671.got.cif
#   From: 2010.06.25/outbox.cif.g09.slc.cpg/sg15_133_cif.got.tgz:264671.got - 2010.06.28 07:06:18.
