data_PCOD8154383
_publ_section_title
;
Structure prediction by ZEFSAII (Michael W. Deem and Ramdas Pophale) SiO2 
 PCOD8154383
Probable space group: C 2/C
;
_chemical_formula_sum "Si O2"
_cell_formula_units_Z 36
_cell_length_a 16.824423
_cell_length_b 9.299216
_cell_length_c 21.486891
_cell_angle_alpha 90.000000
_cell_angle_beta 30.230768
_cell_angle_gamma 90.000000
_cell_volume 1692.566583
_symmetry_space_group_name_H-M "C 2/C"
_symmetry_group_IT_number 15
_symmetry_cell_setting 'monoclinic'
loop_
_space_group_symop_operation_xyz
x,y,z
-x,y,1/2-z
-x,-y,-z
x,-y,1/2+z
1/2+x,1/2+y,z
1/2-x,1/2+y,1/2-z
1/2-x,1/2-y,-z
1/2+x,1/2-y,1/2+z
loop_
_atom_site_type_symbol
_atom_site_label
_atom_site_fract_x
_atom_site_fract_y
_atom_site_fract_z
Si Si1 0.166954 0.031114 0.916525
Si Si2 0.500000 0.505385 0.750000
Si Si3 0.911799 0.440748 0.647059
Si Si4 0.189992 0.365779 0.916344
Si Si5 0.104659 0.823103 0.065901
O O1 0.179787 0.195717 0.926593
O O2 0.304791 0.984668 0.776940
O O3 0.183128 0.939087 0.967682
O O4 0.000000 0.000000 0.000000
O O5 0.344191 0.408513 0.851134
O O6 0.503408 0.602903 0.809142
O O7 0.802769 0.421979 0.659753
O O8 0.036965 0.568115 0.553242
O O9 0.998893 0.289561 0.599406
O O10 0.250000 0.750000 0.000000
#
# Coordination Sequence:
#
# PCOD8154383 Si02
#       5
#     8   4   8   8   8
#     4  12  27  45  77 104 142 191 243 289 359 429
#     4  12  26  46  74 108 152 178 244 308 358 414
#     4  11  26  47  73 106 145 190 244 288 356 441
#     4  11  27  46  74 107 147 189 237 302 361 422
#     4  12  25  47  74 105 142 194 234 294 357 426
#
# _framework density 21.269475
#
# number of rings (size 3 to 8) (size 9 to 14) (size 15 to 20)
#    0.000    0.444    4.444    2.667    6.222    2.667 
#    0.000    0.000    0.000    0.000    0.000    0.000 
#    0.000    0.000    0.000    0.000    0.000    0.000 
#
# Total GULP energy -223330.057787 kJ/mol
# GULP energy per Si atom -12407.225433 kJ/mol
# Density = 2.122106 g / cm^3
# Si number density = 21.269475 Si / 1000 Ang^3
#
#
#
# Elastic Constant Matrix: (Units=GPa)
#
#
# Indices 1 2 3 4 5 6 
#
# 1 101.8260 33.8392 37.0847 0.0005 -0.9404 -0.0001
# 2 33.8392 154.2854 65.3383 0.0002 11.1179 -0.0002
# 3 37.0847 65.3383 136.8794 -0.0007 27.2589 0.0000
# 4 0.0005 0.0002 -0.0007 28.7963 0.0001 13.2869
# 5 -0.9404 11.1179 27.2589 0.0001 45.2290 0.0001
# 6 -0.0001 -0.0002 0.0000 13.2869 0.0001 34.0476
#
#
#
# Elastic Compliance Matrix: (Units=1/GPa)
#
#
# Indices 1 2 3 4 5 6 
#
# 1 0.011361 -0.001454 -0.002843 0.000000 0.002307 0.000000
# 2 -0.001454 0.008316 -0.003594 0.000000 0.000092 0.000000
# 3 -0.002843 -0.003594 0.010941 0.000000 -0.005769 0.000000
# 4 0.000000 0.000000 0.000000 0.042353 0.000000 -0.016528
# 5 0.002307 0.000092 -0.005769 0.000000 0.025612 0.000000
# 6 0.000000 0.000000 0.000000 -0.016528 0.000000 0.035821
#
#
# Mechanical properties :
#
#
# Convention : Reuss Voigt Hill
#
# Bulk Modulus (GPa) = 67.40932 73.94614 70.67773
# Shear Modulus (GPa) = 32.23107 38.72980 35.48044
#
# Velocity S-wave (km/s) = 3.89700 4.27184 4.08872
# Velocity P-wave (km/s) = 7.21183 7.69242 7.45600
#
# Compressibility (1/GPa) = 0.01483474
#
# Stress axis : x y z
#
# Youngs Moduli (GPa) = 88.02271 120.25467 91.40347
#
# Poissons Ratio (x) = 0.17483 0.25990
# Poissons Ratio (y) = 0.12797 0.32848
# Poissons Ratio (z) = 0.25029 0.43217
#
# Static dielectric constant tensor:
#      x y z
#    x 3.200950 -0.000140 0.668830 
#    y -0.000140 2.857830 0.000120 
#    z 0.668830 0.000120 3.216090 
# 
# 
# High freq. dielectric constant tensor:
#      x y z
#    x 1.847530 0.000000 0.001880 
#    y 0.000000 1.850580 0.000000 
#    z 0.001880 0.000000 1.844300 
# 
# From -- ./inp_files/102521.got.cif
#   From: 2010.06.25/outbox.cif.g09.slc.cpg/sg15_52_cif.got.tgz:102521.got - 2010.06.28 07:06:18.
