data_PCOD8154168
_publ_section_title
;
Structure prediction by ZEFSAII (Michael W. Deem and Ramdas Pophale) SiO2 
 PCOD8154168
Probable space group: C 2/C
;
_chemical_formula_sum "Si O2"
_cell_formula_units_Z 36
_cell_length_a 9.235015
_cell_length_b 16.855199
_cell_length_c 20.929791
_cell_angle_alpha 90.000000
_cell_angle_beta 30.243668
_cell_angle_gamma 90.000000
_cell_volume 1640.929040
_symmetry_space_group_name_H-M "C 2/C"
_symmetry_group_IT_number 15
_symmetry_cell_setting 'monoclinic'
loop_
_space_group_symop_operation_xyz
x,y,z
-x,y,1/2-z
-x,-y,-z
x,-y,1/2+z
1/2+x,1/2+y,z
1/2-x,1/2+y,1/2-z
1/2-x,1/2-y,-z
1/2+x,1/2-y,1/2+z
loop_
_atom_site_type_symbol
_atom_site_label
_atom_site_fract_x
_atom_site_fract_y
_atom_site_fract_z
Si Si1 0.072112 0.593401 0.394130
Si Si2 0.265127 0.432850 0.602421
Si Si3 0.251234 0.322479 0.045588
Si Si4 0.500000 0.275706 0.750000
Si Si5 0.183940 0.585302 0.870444
O O1 0.835996 0.594145 0.428810
O O2 0.945143 0.610846 0.512457
O O3 0.291153 0.663879 0.291266
O O4 0.223014 0.508167 0.342494
O O5 0.500000 0.500000 0.500000
O O6 0.432910 0.361494 0.573265
O O7 0.000000 0.459439 0.750000
O O8 0.180692 0.286091 0.140416
O O9 0.011095 0.384602 0.113621
O O10 0.250000 0.250000 0.000000
O O11 0.500000 0.624077 0.750000
#
# Coordination Sequence:
#
# PCOD8154168 Si02
#       5
#     8   8   8   4   8
#     4  11  25  46  76 103 143 197 248 301 367 447
#     4  12  29  47  79 111 150 195 252 301 370 448
#     4  12  27  49  70 109 153 192 237 319 373 436
#     4  12  26  46  76 106 152 188 252 314 374 428
#     4  11  25  45  78 105 144 193 257 299 374 448
#
# _framework density 21.938791999999999
#
# number of rings (size 3 to 8) (size 9 to 14) (size 15 to 20)
#    0.000    0.444    5.556    1.333    7.778    3.556 
#    0.000    0.000    0.000    0.000    0.000    0.000 
#    0.000    0.000    0.000    0.000    0.000    0.000 
#
# Total GULP energy -223129.859368 kJ/mol
# GULP energy per Si atom -12396.103298 kJ/mol
# Density = 2.188886 g / cm^3
# Si number density = 21.938792 Si / 1000 Ang^3
#
#
#
# Elastic Constant Matrix: (Units=GPa)
#
#
# Indices 1 2 3 4 5 6 
#
# 1 132.4264 36.1411 36.5450 0.1239 -25.0264 -0.1024
# 2 36.1411 84.5485 62.1789 0.1198 1.7844 -0.0451
# 3 36.5450 62.1789 115.0165 0.1475 -23.7626 -0.0478
# 4 0.1239 0.1198 0.1475 36.4607 -0.1137 -4.6930
# 5 -25.0264 1.7844 -23.7626 -0.1137 37.0270 0.0569
# 6 -0.1024 -0.0451 -0.0478 -4.6930 0.0569 43.6712
#
#
#
# Elastic Compliance Matrix: (Units=1/GPa)
#
#
# Indices 1 2 3 4 5 6 
#
# 1 0.010213 -0.005616 0.001468 0.000004 0.008116 0.000010
# 2 -0.005616 0.025678 -0.015145 -0.000049 -0.014753 0.000011
# 3 0.001468 -0.015145 0.019335 0.000009 0.014131 -0.000008
# 4 0.000004 -0.000049 0.000009 0.027812 0.000092 0.002989
# 5 0.008116 -0.014753 0.014131 0.000092 0.042272 -0.000026
# 6 0.000010 0.000011 -0.000008 0.002989 -0.000026 0.023220
#
#
# Mechanical properties :
#
#
# Convention : Reuss Voigt Hill
#
# Bulk Modulus (GPa) = 60.10177 66.85793 63.47985
# Shear Modulus (GPa) = 25.95211 36.57354 31.26282
#
# Velocity S-wave (km/s) = 3.44311 4.08741 3.77902
# Velocity P-wave (km/s) = 6.57734 7.26752 6.93102
#
# Compressibility (1/GPa) = 0.01663844
#
# Stress axis : x y z
#
# Youngs Moduli (GPa) = 97.91674 38.94407 51.71989
#
# Poissons Ratio (x) = 0.21873 -0.07592
# Poissons Ratio (y) = 0.54994 0.78330
# Poissons Ratio (z) = -0.14374 0.58981
#
# Static dielectric constant tensor:
#      x y z
#    x 3.650240 0.001060 0.143030 
#    y 0.001060 5.530950 -0.003050 
#    z 0.143030 -0.003050 3.683150 
# 
# 
# High freq. dielectric constant tensor:
#      x y z
#    x 1.875970 0.000000 -0.005260 
#    y 0.000000 1.867190 0.000000 
#    z -0.005260 0.000000 1.864950 
# 
# From -- ./inp_files/134164.got.cif
#   From: 2010.06.25/outbox.cif.g09.slc.cpg/sg15_68_cif.got.tgz:134164.got - 2010.06.28 07:06:18.
