data_PCOD8154835
_publ_section_title
;
Structure prediction by ZEFSAII (Michael W. Deem and Ramdas Pophale) SiO2 
 PCOD8154835
Probable space group: C 2/C
;
_chemical_formula_sum "Si O2"
_cell_formula_units_Z 44
_cell_length_a 19.803810
_cell_length_b 14.150507
_cell_length_c 8.609359
_cell_angle_alpha 90.000000
_cell_angle_beta 127.019723
_cell_angle_gamma 90.000000
_cell_volume 1926.315818
_symmetry_space_group_name_H-M "C 2/C"
_symmetry_group_IT_number 15
_symmetry_cell_setting 'monoclinic'
loop_
_space_group_symop_operation_xyz
x,y,z
-x,y,1/2-z
-x,-y,-z
x,-y,1/2+z
1/2+x,1/2+y,z
1/2-x,1/2+y,1/2-z
1/2-x,1/2-y,-z
1/2+x,1/2-y,1/2+z
loop_
_atom_site_type_symbol
_atom_site_label
_atom_site_fract_x
_atom_site_fract_y
_atom_site_fract_z
Si Si1 0.428810 0.419498 0.903405
Si Si2 0.345302 0.765932 0.845721
Si Si3 0.236482 0.439235 0.620803
Si Si4 0.291193 0.125450 0.755660
Si Si5 0.500000 0.283566 0.750000
Si Si6 0.590205 0.744175 0.904156
O O1 0.335995 0.462294 0.748719
O O2 0.445858 0.347526 0.789246
O O3 0.500000 0.500000 0.000000
O O4 0.427726 0.363641 0.065923
O O5 0.285201 0.857268 0.784418
O O6 0.300692 0.672771 0.852829
O O7 0.354881 0.747948 0.675829
O O8 0.435135 0.779870 0.058007
O O9 0.193274 0.536714 0.610678
O O10 0.197130 0.407229 0.404133
O O11 0.362861 0.202175 0.891525
O O12 0.500000 0.794180 0.750000
#
# Coordination Sequence:
#
# PCOD8154835 Si02
#       6
#     8   8   8   8   4   8
#     4  12  27  44  73 112 152 190 247 309 379 445
#     4  12  25  48  75 105 154 198 250 310 373 449
#     4  12  27  46  77 108 146 203 251 304 375 454
#     4  12  26  48  71 106 149 195 253 306 376 449
#     4  12  24  44  70 110 144 194 238 314 380 436
#     4  12  27  47  72 105 148 198 249 312 375 438
#
# _framework density 22.841531
#
# number of rings (size 3 to 8) (size 9 to 14) (size 15 to 20)
#    0.000    0.000    5.455    4.364    3.818    0.000 
#    1.636    1.818    0.000    0.000    0.000    0.000 
#    0.000    0.000    0.000    0.000    0.000    0.000 
#
# Total GULP energy -272898.020681 kJ/mol
# GULP energy per Si atom -12404.455485 kJ/mol
# Density = 2.278954 g / cm^3
# Si number density = 22.841531 Si / 1000 Ang^3
#
#
#
# Elastic Constant Matrix: (Units=GPa)
#
#
# Indices 1 2 3 4 5 6 
#
# 1 105.9332 47.6280 41.4385 0.0000 -5.2087 0.0000
# 2 47.6280 126.1035 40.2354 0.0000 -0.2453 0.0000
# 3 41.4385 40.2354 131.5597 0.0000 6.8842 0.0000
# 4 0.0000 0.0000 0.0000 30.7074 0.0000 -2.6339
# 5 -5.2087 -0.2453 6.8842 0.0000 36.9042 0.0000
# 6 0.0000 0.0000 0.0000 -2.6339 0.0000 50.4346
#
#
#
# Elastic Compliance Matrix: (Units=1/GPa)
#
#
# Indices 1 2 3 4 5 6 
#
# 1 0.012356 -0.003749 -0.002863 0.000000 0.002253 0.000000
# 2 -0.003749 0.009937 -0.001852 0.000000 -0.000118 0.000000
# 3 -0.002863 -0.001852 0.009181 0.000000 -0.002129 0.000000
# 4 0.000000 0.000000 0.000000 0.032712 0.000000 0.001708
# 5 0.002253 -0.000118 -0.002129 0.000000 0.027812 0.000000
# 6 0.000000 0.000000 0.000000 0.001708 0.000000 0.019917
#
#
# Mechanical properties :
#
#
# Convention : Reuss Voigt Hill
#
# Bulk Modulus (GPa) = 68.75068 69.13334 68.94201
# Shear Modulus (GPa) = 37.39971 39.22887 38.31429
#
# Velocity S-wave (km/s) = 4.05082 4.14869 4.10005
# Velocity P-wave (km/s) = 7.21409 7.29939 7.25687
#
# Compressibility (1/GPa) = 0.01454531
#
# Stress axis : x y z
#
# Youngs Moduli (GPa) = 80.93051 100.63825 108.92287
#
# Poissons Ratio (x) = 0.37728 0.31188
# Poissons Ratio (y) = 0.30340 0.20172
# Poissons Ratio (z) = 0.23173 0.18638
#
# Static dielectric constant tensor:
#      x y z
#    x 4.297250 0.000000 -0.029080 
#    y 0.000000 4.042050 0.000000 
#    z -0.029080 0.000000 4.124680 
# 
# 
# High freq. dielectric constant tensor:
#      x y z
#    x 1.912350 0.000000 -0.004510 
#    y 0.000000 1.887710 0.000000 
#    z -0.004510 0.000000 1.915930 
# 
# From -- ./inp_files/47087.got.cif
#   From: 2010.06.25/outbox.cif.g09.slc.cpg/sg15_24_cif.got.tgz:47087.got - 2010.06.28 07:06:18.
