data_PCOD8154305
_publ_section_title
;
Structure prediction by ZEFSAII (Michael W. Deem and Ramdas Pophale) SiO2 
 PCOD8154305
Probable space group: C 2/C
;
_chemical_formula_sum "Si O2"
_cell_formula_units_Z 52
_cell_length_a 6.551405
_cell_length_b 26.643019
_cell_length_c 16.375691
_cell_angle_alpha 90.000000
_cell_angle_beta 120.269707
_cell_angle_gamma 90.000000
_cell_volume 2468.660791
_symmetry_space_group_name_H-M "C 2/C"
_symmetry_group_IT_number 15
_symmetry_cell_setting 'monoclinic'
loop_
_space_group_symop_operation_xyz
x,y,z
-x,y,1/2-z
-x,-y,-z
x,-y,1/2+z
1/2+x,1/2+y,z
1/2-x,1/2+y,1/2-z
1/2-x,1/2-y,-z
1/2+x,1/2-y,1/2+z
loop_
_atom_site_type_symbol
_atom_site_label
_atom_site_fract_x
_atom_site_fract_y
_atom_site_fract_z
Si Si1 0.965281 0.781364 0.010041
Si Si2 0.125599 0.511480 0.195273
Si Si3 0.877199 0.792355 0.637383
Si Si4 0.345219 0.901346 0.913592
Si Si5 0.000000 0.066981 0.750000
Si Si6 0.807703 0.957213 0.461169
Si Si7 0.621057 0.613499 0.932016
O O1 0.203561 0.753407 0.083578
O O2 0.954299 0.831138 0.060860
O O3 0.950851 0.792814 0.908618
O O4 0.750000 0.750000 0.000000
O O5 0.226373 0.561992 0.174801
O O6 0.324045 0.471404 0.260887
O O7 0.000000 0.531493 0.250000
O O8 0.947901 0.481779 0.100370
O O9 0.739347 0.844760 0.618369
O O10 0.000000 0.781963 0.750000
O O11 0.201727 0.923938 0.959747
O O12 0.629653 0.901843 0.978016
O O13 0.142050 0.103939 0.839259
O O14 0.894302 0.919611 0.409459
O O15 0.000000 0.000000 0.500000
#
# Coordination Sequence:
#
# PCOD8154305 Si02
#       7
#     8   8   8   8   4   8   8
#     4  11  25  50  75 102 142 183 236 299 364 418
#     4  12  26  40  63 102 141 185 237 287 341 423
#     4  11  27  48  74 108 142 181 238 295 354 432
#     4  12  25  43  70 100 140 186 231 289 358 415
#     4  12  26  42  64 104 140 186 244 290 348 424
#     4  12  23  42  65  94 136 186 229 282 350 413
#     4  12  24  44  71  97 136 190 234 292 357 423
#
# _framework density 21.064053000000001
#
# number of rings (size 3 to 8) (size 9 to 14) (size 15 to 20)
#    0.000    0.308    7.692    1.385    1.077    3.077 
#    2.769    0.000    0.000    0.000    0.000    0.000 
#    0.000    0.000    0.000    0.000    0.000    0.000 
#
# Total GULP energy -322241.663102 kJ/mol
# GULP energy per Si atom -12393.910119 kJ/mol
# Density = 2.101611 g / cm^3
# Si number density = 21.064053 Si / 1000 Ang^3
#
#
#
# Elastic Constant Matrix: (Units=GPa)
#
#
# Indices 1 2 3 4 5 6 
#
# 1 90.7210 36.9709 28.0231 0.0000 -10.5222 0.0000
# 2 36.9709 144.0426 43.2443 0.0000 -10.0191 0.0000
# 3 28.0231 43.2443 108.5654 0.0000 -19.5101 0.0000
# 4 0.0000 0.0000 0.0000 26.6564 0.0000 -1.8887
# 5 -10.5222 -10.0191 -19.5101 0.0000 33.8467 0.0000
# 6 0.0000 0.0000 0.0000 -1.8887 0.0000 45.1504
#
#
#
# Elastic Compliance Matrix: (Units=1/GPa)
#
#
# Indices 1 2 3 4 5 6 
#
# 1 0.012920 -0.002591 -0.001917 0.000000 0.002144 0.000000
# 2 -0.002591 0.008415 -0.002655 0.000000 0.000155 0.000000
# 3 -0.001917 -0.002655 0.011730 0.000000 0.005380 0.000000
# 4 0.000000 0.000000 0.000000 0.037626 0.000000 0.001574
# 5 0.002144 0.000155 0.005380 0.000000 0.033358 0.000000
# 6 0.000000 0.000000 0.000000 0.001574 0.000000 0.022214
#
#
# Mechanical properties :
#
#
# Convention : Reuss Voigt Hill
#
# Bulk Modulus (GPa) = 53.36876 62.20064 57.78470
# Shear Modulus (GPa) = 34.05114 36.80342 35.42728
#
# Velocity S-wave (km/s) = 4.02500 4.18450 4.10553
# Velocity P-wave (km/s) = 6.85509 7.27600 7.06868
#
# Compressibility (1/GPa) = 0.01873755
#
# Stress axis : x y z
#
# Youngs Moduli (GPa) = 77.40075 118.82896 85.24838
#
# Poissons Ratio (x) = 0.30792 0.16345
# Poissons Ratio (y) = 0.20057 0.22637
# Poissons Ratio (z) = 0.14841 0.31554
#
# Static dielectric constant tensor:
#      x y z
#    x 3.660530 0.000000 -0.398370 
#    y 0.000000 1.445650 0.000000 
#    z -0.398370 0.000000 3.590620 
# 
# 
# High freq. dielectric constant tensor:
#      x y z
#    x 1.841360 0.000000 -0.007960 
#    y 0.000000 1.838710 0.000000 
#    z -0.007960 0.000000 1.816600 
# 
# From -- ./inp_files/186276.got.cif
#   From: 2010.06.25/outbox.cif.g09.slc.cpg/sg15_94_cif.got.tgz:186276.got - 2010.06.28 07:06:18.
