data_PCOD8154532
_publ_section_title
;
Structure prediction by ZEFSAII (Michael W. Deem and Ramdas Pophale) SiO2 
 PCOD8154532
Probable space group: C 2/C
;
_chemical_formula_sum "Si O2"
_cell_formula_units_Z 48
_cell_length_a 18.379633
_cell_length_b 12.847529
_cell_length_c 14.645708
_cell_angle_alpha 90.000000
_cell_angle_beta 41.167206
_cell_angle_gamma 90.000000
_cell_volume 2276.477799
_symmetry_space_group_name_H-M "C 2/C"
_symmetry_group_IT_number 15
_symmetry_cell_setting 'monoclinic'
loop_
_space_group_symop_operation_xyz
x,y,z
-x,y,1/2-z
-x,-y,-z
x,-y,1/2+z
1/2+x,1/2+y,z
1/2-x,1/2+y,1/2-z
1/2-x,1/2-y,-z
1/2+x,1/2-y,1/2+z
loop_
_atom_site_type_symbol
_atom_site_label
_atom_site_fract_x
_atom_site_fract_y
_atom_site_fract_z
Si Si1 0.880820 0.977697 0.902280
Si Si2 0.722448 0.960353 0.884418
Si Si3 0.608258 0.571594 0.907700
Si Si4 0.522853 0.099140 0.128319
Si Si5 0.157605 0.701007 0.313171
Si Si6 0.832516 0.209725 0.997558
O O1 0.000000 0.946239 0.750000
O O2 0.785199 0.949162 0.921127
O O3 0.879467 0.098607 0.926876
O O4 0.858503 0.916641 0.017527
O O5 0.689479 0.844901 0.882236
O O6 0.795819 0.017377 0.739627
O O7 0.610982 0.026221 0.996838
O O8 0.592152 0.689431 0.885431
O O9 0.500000 0.500000 0.000000
O O10 0.500000 0.051380 0.250000
O O11 0.412169 0.111062 0.173009
O O12 0.562674 0.216882 0.100467
O O13 0.272568 0.714858 0.151541
O O14 0.750000 0.250000 0.000000
#
# Coordination Sequence:
#
# PCOD8154532 Si02
#       6
#     8   8   8   8   8   8
#     4  12  24  42  71 103 140 181 230 283 342 412
#     4  12  26  46  67 102 143 180 229 288 349 411
#     4  12  25  45  73 100 137 184 228 283 340 416
#     4  12  24  41  70 103 139 181 234 292 349 397
#     4  12  26  44  68 101 138 186 228 278 348 416
#     4  12  21  39  69 104 134 171 232 298 345 392
#
# _framework density 21.085204999999998
#
# number of rings (size 3 to 8) (size 9 to 14) (size 15 to 20)
#    0.000    0.000    8.333    2.000    0.000    0.667 
#    0.000    0.833    0.000    0.000    0.000    0.000 
#    0.000    0.000    0.000    0.000    0.000    0.000 
#
# Total GULP energy -297658.272240 kJ/mol
# GULP energy per Si atom -12402.428010 kJ/mol
# Density = 2.103721 g / cm^3
# Si number density = 21.085205 Si / 1000 Ang^3
#
#
#
# Elastic Constant Matrix: (Units=GPa)
#
#
# Indices 1 2 3 4 5 6 
#
# 1 73.9483 23.8413 28.4208 0.0000 24.0294 0.0000
# 2 23.8413 84.4660 26.6078 0.0000 4.5981 0.0000
# 3 28.4208 26.6078 127.3439 0.0000 9.9151 0.0000
# 4 0.0000 0.0000 0.0000 33.1840 0.0000 4.0310
# 5 24.0294 4.5981 9.9151 0.0000 37.0799 0.0000
# 6 0.0000 0.0000 0.0000 4.0310 0.0000 35.6700
#
#
#
# Elastic Compliance Matrix: (Units=1/GPa)
#
#
# Indices 1 2 3 4 5 6 
#
# 1 0.019575 -0.004074 -0.002624 0.000000 -0.011479 0.000000
# 2 -0.004074 0.013549 -0.002039 0.000000 0.001505 0.000000
# 3 -0.002624 -0.002039 0.008898 0.000000 -0.000426 0.000000
# 4 0.000000 0.000000 0.000000 0.030554 0.000000 -0.003453
# 5 -0.011479 0.001505 -0.000426 0.000000 0.034335 0.000000
# 6 0.000000 0.000000 0.000000 -0.003453 0.000000 0.028425
#
#
# Mechanical properties :
#
#
# Convention : Reuss Voigt Hill
#
# Bulk Modulus (GPa) = 40.73588 49.27756 45.00672
# Shear Modulus (GPa) = 31.05749 34.97933 33.01841
#
# Velocity S-wave (km/s) = 3.84207 4.07744 3.96150
# Velocity P-wave (km/s) = 6.24849 6.75195 6.50509
#
# Compressibility (1/GPa) = 0.02454838
#
# Stress axis : x y z
#
# Youngs Moduli (GPa) = 51.08629 73.80433 112.39053
#
# Poissons Ratio (x) = 0.30066 0.29489
# Poissons Ratio (y) = 0.20811 0.22917
# Poissons Ratio (z) = 0.13404 0.15049
#
# Static dielectric constant tensor:
#      x y z
#    x 3.702840 0.000000 0.189730 
#    y 0.000000 3.711480 0.000000 
#    z 0.189730 0.000000 4.074760 
# 
# 
# High freq. dielectric constant tensor:
#      x y z
#    x 1.834610 0.000000 0.002710 
#    y 0.000000 1.809060 0.000000 
#    z 0.002710 0.000000 1.841840 
# 
# From -- ./inp_files/111437.got.cif
#   From: 2010.06.25/outbox.cif.g09.slc.cpg/sg15_56_cif.got.tgz:111437.got - 2010.06.28 07:06:18.
