data_PCOD8154378
_publ_section_title
;
Structure prediction by ZEFSAII (Michael W. Deem and Ramdas Pophale) SiO2 
 PCOD8154378
Probable space group: C 2/C
;
_chemical_formula_sum "Si O2"
_cell_formula_units_Z 40
_cell_length_a 24.793464
_cell_length_b 11.465050
_cell_length_c 10.910081
_cell_angle_alpha 90.000000
_cell_angle_beta 34.110302
_cell_angle_gamma 90.000000
_cell_volume 1739.160849
_symmetry_space_group_name_H-M "C 2/C"
_symmetry_group_IT_number 15
_symmetry_cell_setting 'monoclinic'
loop_
_space_group_symop_operation_xyz
x,y,z
-x,y,1/2-z
-x,-y,-z
x,-y,1/2+z
1/2+x,1/2+y,z
1/2-x,1/2+y,1/2-z
1/2-x,1/2-y,-z
1/2+x,1/2-y,1/2+z
loop_
_atom_site_type_symbol
_atom_site_label
_atom_site_fract_x
_atom_site_fract_y
_atom_site_fract_z
Si Si1 0.902274 0.797244 0.486194
Si Si2 0.439636 0.020285 0.738164
Si Si3 0.731768 0.159978 0.924748
Si Si4 0.392285 0.564037 0.466744
Si Si5 0.643091 0.734868 0.163562
O O1 0.808629 0.727414 0.618373
O O2 0.919000 0.794035 0.599520
O O3 0.889329 0.926446 0.459220
O O4 0.000000 0.740181 0.250000
O O5 0.500000 0.993158 0.750000
O O6 0.403168 0.153667 0.817648
O O7 0.500000 0.000000 0.500000
O O8 0.345296 0.940027 0.899232
O O9 0.835783 0.105000 0.695495
O O10 0.750000 0.250000 0.000000
O O11 0.500000 0.613575 0.250000
O O12 0.343283 0.619559 0.441861
O O13 0.750000 0.750000 0.000000
#
# Coordination Sequence:
#
# PCOD8154378 Si02
#       5
#     8   8   8   8   8
#     4  11  26  47  72 106 147 191 245 311 378 446
#     4  12  29  50  81 114 156 202 257 318 388 457
#     4  12  28  45  75 110 151 191 252 312 378 449
#     4  11  28  47  72 105 146 198 248 300 380 446
#     4  12  25  47  77 106 151 193 254 309 376 454
#
# _framework density 22.999597000000001
#
# number of rings (size 3 to 8) (size 9 to 14) (size 15 to 20)
#    0.000    0.400    2.000    4.800   14.000    1.600 
#    0.000    0.000    0.000    0.000    0.000    0.000 
#    0.000    0.000    0.000    0.000    0.000    0.000 
#
# Total GULP energy -247914.610646 kJ/mol
# GULP energy per Si atom -12395.730532 kJ/mol
# Density = 2.294725 g / cm^3
# Si number density = 22.999597 Si / 1000 Ang^3
#
#
#
# Elastic Constant Matrix: (Units=GPa)
#
#
# Indices 1 2 3 4 5 6 
#
# 1 94.9621 37.1051 35.9122 0.0000 6.6225 0.0000
# 2 37.1051 117.4586 32.5170 0.0000 -3.4637 0.0000
# 3 35.9122 32.5170 174.8358 0.0000 -1.0300 0.0000
# 4 0.0000 0.0000 0.0000 40.9662 0.0000 -0.5773
# 5 6.6225 -3.4637 -1.0300 0.0000 44.2319 0.0000
# 6 0.0000 0.0000 0.0000 -0.5773 0.0000 44.5220
#
#
#
# Elastic Compliance Matrix: (Units=1/GPa)
#
#
# Indices 1 2 3 4 5 6 
#
# 1 0.012833 -0.003571 -0.001985 0.000000 -0.002247 0.000000
# 2 -0.003571 0.009989 -0.001117 0.000000 0.001291 0.000000
# 3 -0.001985 -0.001117 0.006337 0.000000 0.000357 0.000000
# 4 0.000000 0.000000 0.000000 0.024415 0.000000 0.000317
# 5 -0.002247 0.001291 0.000357 0.000000 0.023054 0.000000
# 6 0.000000 0.000000 0.000000 0.000317 0.000000 0.022465
#
#
# Mechanical properties :
#
#
# Convention : Reuss Voigt Hill
#
# Bulk Modulus (GPa) = 63.23484 66.48057 64.85771
# Shear Modulus (GPa) = 42.47748 44.72550 43.60149
#
# Velocity S-wave (km/s) = 4.30220 4.41457 4.35874
# Velocity P-wave (km/s) = 7.22718 7.41299 7.32067
#
# Compressibility (1/GPa) = 0.01581407
#
# Stress axis : x y z
#
# Youngs Moduli (GPa) = 77.92315 100.11173 157.79801
#
# Poissons Ratio (x) = 0.35747 0.31325
# Poissons Ratio (y) = 0.27824 0.17622
# Poissons Ratio (z) = 0.15469 0.11180
#
# Static dielectric constant tensor:
#      x y z
#    x 3.778630 0.000000 -0.121850 
#    y 0.000000 4.837450 0.000000 
#    z -0.121850 0.000000 4.526810 
# 
# 
# High freq. dielectric constant tensor:
#      x y z
#    x 1.905580 0.000000 -0.000860 
#    y 0.000000 1.924830 0.000000 
#    z -0.000860 0.000000 1.930850 
# 
# From -- ./inp_files/122765.got.cif
#   From: 2010.06.25/outbox.cif.g09.slc.cpg/sg15_62_cif.got.tgz:122765.got - 2010.06.28 07:06:18.
