data_PCOD8154468
_publ_section_title
;
Structure prediction by ZEFSAII (Michael W. Deem and Ramdas Pophale) SiO2 
 PCOD8154468
Probable space group: C 2/C
;
_chemical_formula_sum "Si O2"
_cell_formula_units_Z 52
_cell_length_a 12.976367
_cell_length_b 11.906717
_cell_length_c 13.574295
_cell_angle_alpha 90.000000
_cell_angle_beta 93.314349
_cell_angle_gamma 90.000000
_cell_volume 2093.801043
_symmetry_space_group_name_H-M "C 2/C"
_symmetry_group_IT_number 15
_symmetry_cell_setting 'monoclinic'
loop_
_space_group_symop_operation_xyz
x,y,z
-x,y,1/2-z
-x,-y,-z
x,-y,1/2+z
1/2+x,1/2+y,z
1/2-x,1/2+y,1/2-z
1/2-x,1/2-y,-z
1/2+x,1/2-y,1/2+z
loop_
_atom_site_type_symbol
_atom_site_label
_atom_site_fract_x
_atom_site_fract_y
_atom_site_fract_z
Si Si1 0.846368 0.061921 0.469253
Si Si2 0.213489 0.531656 0.624154
Si Si3 0.500000 0.752186 0.750000
Si Si4 0.084796 0.409841 0.469158
Si Si5 0.111438 0.322135 0.261689
Si Si6 0.775077 0.645386 0.220127
Si Si7 0.953214 0.837937 0.454403
O O1 0.766117 0.122489 0.391306
O O2 0.958303 0.117665 0.466749
O O3 0.808865 0.096745 0.578692
O O4 0.858723 0.926858 0.453564
O O5 0.185746 0.451695 0.531052
O O6 0.121083 0.611496 0.657611
O O7 0.252777 0.465225 0.720732
O O8 0.602224 0.830079 0.769915
O O9 0.512916 0.672399 0.657052
O O10 0.108091 0.409798 0.353306
O O11 0.071473 0.283780 0.504931
O O12 0.000000 0.500000 0.500000
O O13 0.210697 0.242615 0.272973
O O14 0.000000 0.259101 0.250000
#
# Coordination Sequence:
#
# PCOD8154468 Si02
#       7
#     8   8   4   8   8   8   8
#     4  11  28  51  78 115 154 207 265 322 405 464
#     4  12  27  44  74 111 152 201 253 323 386 466
#     4  12  28  48  74 114 158 208 266 320 398 466
#     4  12  26  46  78 111 155 201 255 320 395 467
#     4  12  27  48  75 115 148 203 261 324 392 463
#     4  12  29  48  79 112 159 208 264 325 392 476
#     4  11  27  51  77 113 158 207 259 333 390 474
#
# _framework density 24.835215000000002
#
# number of rings (size 3 to 8) (size 9 to 14) (size 15 to 20)
#    0.000    0.308    3.077    3.692   11.846    3.692 
#    0.000    0.000    0.000    0.000    0.000    0.000 
#    0.000    0.000    0.000    0.000    0.000    0.000 
#
# Total GULP energy -322229.886400 kJ/mol
# GULP energy per Si atom -12393.457169 kJ/mol
# Density = 2.477869 g / cm^3
# Si number density = 24.835215 Si / 1000 Ang^3
#
#
#
# Elastic Constant Matrix: (Units=GPa)
#
#
# Indices 1 2 3 4 5 6 
#
# 1 141.8341 39.8391 40.2129 0.0000 -5.4229 0.0000
# 2 39.8391 95.6626 18.4199 0.0000 -11.7062 0.0000
# 3 40.2129 18.4199 135.8072 0.0000 -18.0224 0.0000
# 4 0.0000 0.0000 0.0000 42.5410 0.0000 4.3800
# 5 -5.4229 -11.7062 -18.0224 0.0000 40.0501 0.0000
# 6 0.0000 0.0000 0.0000 4.3800 0.0000 32.8909
#
#
#
# Elastic Compliance Matrix: (Units=1/GPa)
#
#
# Indices 1 2 3 4 5 6 
#
# 1 0.008552 -0.003233 -0.002197 0.000000 -0.000776 0.000000
# 2 -0.003233 0.012225 -0.000303 0.000000 0.002999 0.000000
# 3 -0.002197 -0.000303 0.008512 0.000000 0.003444 0.000000
# 4 0.000000 0.000000 0.000000 0.023834 0.000000 -0.003174
# 5 -0.000776 0.002999 0.003444 0.000000 0.027290 0.000000
# 6 0.000000 0.000000 0.000000 -0.003174 0.000000 0.030826
#
#
# Mechanical properties :
#
#
# Convention : Reuss Voigt Hill
#
# Bulk Modulus (GPa) = 56.10521 63.36085 59.73303
# Shear Modulus (GPa) = 38.86641 41.41852 40.14247
#
# Velocity S-wave (km/s) = 3.96026 4.08822 4.02475
# Velocity P-wave (km/s) = 6.59937 6.91756 6.76033
#
# Compressibility (1/GPa) = 0.01782366
#
# Stress axis : x y z
#
# Youngs Moduli (GPa) = 116.93408 81.79775 117.48191
#
# Poissons Ratio (x) = 0.26448 0.25806
# Poissons Ratio (y) = 0.37809 0.03556
# Poissons Ratio (z) = 0.25686 0.02476
#
# Static dielectric constant tensor:
#      x y z
#    x 4.541790 0.000000 -0.072840 
#    y 0.000000 4.472020 0.000000 
#    z -0.072840 0.000000 4.774890 
# 
# 
# High freq. dielectric constant tensor:
#      x y z
#    x 2.000240 0.000000 -0.006690 
#    y 0.000000 1.983690 0.000000 
#    z -0.006690 0.000000 2.006100 
# 
# From -- ./inp_files/152571.got.cif
#   From: 2010.06.25/outbox.cif.g09.slc.cpg/sg15_77_cif.got.tgz:152571.got - 2010.06.28 07:06:18.
