data_PCOD8154575
_publ_section_title
;
Structure prediction by ZEFSAII (Michael W. Deem and Ramdas Pophale) SiO2 
 PCOD8154575
Probable space group: C 2/C
;
_chemical_formula_sum "Si O2"
_cell_formula_units_Z 52
_cell_length_a 11.918310
_cell_length_b 27.633125
_cell_length_c 8.460820
_cell_angle_alpha 90.000000
_cell_angle_beta 59.135056
_cell_angle_gamma 90.000000
_cell_volume 2391.862414
_symmetry_space_group_name_H-M "C 2/C"
_symmetry_group_IT_number 15
_symmetry_cell_setting 'monoclinic'
loop_
_space_group_symop_operation_xyz
x,y,z
-x,y,1/2-z
-x,-y,-z
x,-y,1/2+z
1/2+x,1/2+y,z
1/2-x,1/2+y,1/2-z
1/2-x,1/2-y,-z
1/2+x,1/2-y,1/2+z
loop_
_atom_site_type_symbol
_atom_site_label
_atom_site_fract_x
_atom_site_fract_y
_atom_site_fract_z
Si Si1 0.779115 0.349736 0.190359
Si Si2 0.736106 0.532067 0.188127
Si Si3 0.140246 0.551622 0.720612
Si Si4 0.979306 0.827719 0.951588
Si Si5 0.843308 0.901207 0.514235
Si Si6 0.394132 0.760747 0.963422
Si Si7 0.500000 0.484234 0.250000
O O1 0.853262 0.395097 0.210910
O O2 0.672668 0.326728 0.387545
O O3 0.715829 0.364224 0.068434
O O4 0.887011 0.308890 0.075960
O O5 0.832832 0.488469 0.165130
O O6 0.760903 0.579920 0.278888
O O7 0.582325 0.516954 0.314582
O O8 0.753814 0.546902 0.993768
O O9 0.000000 0.541918 0.750000
O O10 0.034318 0.876207 0.990566
O O11 0.000000 0.829781 0.750000
O O12 0.058447 0.781997 0.958284
O O13 0.887873 0.951037 0.404365
O O14 0.500000 0.768776 0.750000
O O15 0.250000 0.750000 0.000000
#
# Coordination Sequence:
#
# PCOD8154575 Si02
#       7
#     8   8   8   8   8   8   4
#     4  12  25  47  72 102 141 189 238 295 360 438
#     4  12  25  41  68 103 140 190 243 295 356 415
#     4  12  26  46  66  97 145 191 241 293 351 428
#     4  12  25  44  74 107 144 182 232 301 364 426
#     4  12  22  40  71 104 143 184 234 293 357 418
#     4  12  25  50  79 104 142 187 233 291 369 438
#     4  12  22  38  70 102 140 180 236 296 348 406
#
# _framework density 21.740380999999999
#
# number of rings (size 3 to 8) (size 9 to 14) (size 15 to 20)
#    0.000    0.000    7.692    1.846    3.231    2.462 
#    2.769    0.769    0.000    0.000    0.000    0.000 
#    0.000    0.000    0.000    0.000    0.000    0.000 
#
# Total GULP energy -322436.394394 kJ/mol
# GULP energy per Si atom -12401.399784 kJ/mol
# Density = 2.169090 g / cm^3
# Si number density = 21.740381 Si / 1000 Ang^3
#
#
#
# Elastic Constant Matrix: (Units=GPa)
#
#
# Indices 1 2 3 4 5 6 
#
# 1 98.7480 21.1135 18.0359 0.0000 -1.9207 0.0000
# 2 21.1135 93.6688 33.1976 0.0000 2.2104 0.0000
# 3 18.0359 33.1976 100.8749 0.0000 6.5786 0.0000
# 4 0.0000 0.0000 0.0000 39.4551 0.0000 4.5524
# 5 -1.9207 2.2104 6.5786 0.0000 34.7075 0.0000
# 6 0.0000 0.0000 0.0000 4.5524 0.0000 13.5010
#
#
#
# Elastic Compliance Matrix: (Units=1/GPa)
#
#
# Indices 1 2 3 4 5 6 
#
# 1 0.010816 -0.001985 -0.001345 0.000000 0.000980 0.000000
# 2 -0.001985 0.012450 -0.003730 0.000000 -0.000196 0.000000
# 3 -0.001345 -0.003730 0.011513 0.000000 -0.002019 0.000000
# 4 0.000000 0.000000 0.000000 0.026371 0.000000 -0.008892
# 5 0.000980 -0.000196 -0.002019 0.000000 0.029262 0.000000
# 6 0.000000 0.000000 0.000000 -0.008892 0.000000 0.077067
#
#
# Mechanical properties :
#
#
# Convention : Reuss Voigt Hill
#
# Bulk Modulus (GPa) = 48.40081 48.66508 48.53295
# Shear Modulus (GPa) = 26.52769 32.26237 29.39503
#
# Velocity S-wave (km/s) = 3.49693 3.85643 3.68107
# Velocity P-wave (km/s) = 6.21419 6.50097 6.35920
#
# Compressibility (1/GPa) = 0.02066081
#
# Stress axis : x y z
#
# Youngs Moduli (GPa) = 92.45781 80.32344 86.86036
#
# Poissons Ratio (x) = 0.15940 0.11679
# Poissons Ratio (y) = 0.18348 0.32395
# Poissons Ratio (z) = 0.12432 0.29957
#
# Static dielectric constant tensor:
#      x y z
#    x 3.829950 0.000000 0.186280 
#    y 0.000000 4.087090 0.000000 
#    z 0.186280 0.000000 4.154280 
# 
# 
# High freq. dielectric constant tensor:
#      x y z
#    x 1.845320 0.000000 0.011670 
#    y 0.000000 1.867160 0.000000 
#    z 0.011670 0.000000 1.861500 
# 
# From -- ./inp_files/34062.got.cif
#   From: 2010.06.25/outbox.cif.g09.slc.cpg/sg15_18_cif.got.tgz:34062.got - 2010.06.28 07:06:18.
