data_PCOD8154668
_publ_section_title
;
Structure prediction by ZEFSAII (Michael W. Deem and Ramdas Pophale) SiO2 
 PCOD8154668
Probable space group: C 2/C
;
_chemical_formula_sum "Si O2"
_cell_formula_units_Z 36
_cell_length_a 7.599719
_cell_length_b 19.121698
_cell_length_c 11.098324
_cell_angle_alpha 90.000000
_cell_angle_beta 93.524713
_cell_angle_gamma 90.000000
_cell_volume 1609.752425
_symmetry_space_group_name_H-M "C 2/C"
_symmetry_group_IT_number 15
_symmetry_cell_setting 'monoclinic'
loop_
_space_group_symop_operation_xyz
x,y,z
-x,y,1/2-z
-x,-y,-z
x,-y,1/2+z
1/2+x,1/2+y,z
1/2-x,1/2+y,1/2-z
1/2-x,1/2-y,-z
1/2+x,1/2-y,1/2+z
loop_
_atom_site_type_symbol
_atom_site_label
_atom_site_fract_x
_atom_site_fract_y
_atom_site_fract_z
Si Si1 0.154866 0.685117 0.171029
Si Si2 0.307993 0.970199 0.514142
Si Si3 0.000000 0.733365 0.750000
Si Si4 0.623429 0.185369 0.522069
Si Si5 0.803744 0.039978 0.229633
O O1 0.346509 0.719255 0.186716
O O2 0.169781 0.603055 0.200959
O O3 0.000000 0.716849 0.250000
O O4 0.075307 0.696580 0.035487
O O5 0.294332 0.885902 0.525156
O O6 0.244298 0.998368 0.643686
O O7 0.500000 0.000000 0.500000
O O8 0.195771 0.990762 0.390307
O O9 0.095165 0.681125 0.662712
O O10 0.750000 0.250000 0.500000
O O11 0.000000 0.069557 0.250000
#
# Coordination Sequence:
#
# PCOD8154668 Si02
#       5
#     8   8   4   8   8
#     4  12  22  47  73  99 142 194 234 289 372 434
#     4  12  25  46  76 103 146 191 244 303 370 435
#     4  12  26  44  74 102 144 188 240 300 360 434
#     4  12  26  46  73 107 146 190 242 300 367 440
#     4  12  25  46  73 105 143 190 244 301 366 439
#
# _framework density 22.363689000000001
#
# number of rings (size 3 to 8) (size 9 to 14) (size 15 to 20)
#    0.000    0.000    7.778    2.000    3.111    0.000 
#    4.000    0.000    0.000    0.000    0.000    0.000 
#    0.000    0.000    0.000    0.000    0.000    0.000 
#
# Total GULP energy -223027.072454 kJ/mol
# GULP energy per Si atom -12390.392914 kJ/mol
# Density = 2.231279 g / cm^3
# Si number density = 22.363689 Si / 1000 Ang^3
#
#
#
# Elastic Constant Matrix: (Units=GPa)
#
#
# Indices 1 2 3 4 5 6 
#
# 1 121.3539 24.8966 28.7425 0.0000 16.9473 0.0000
# 2 24.8966 75.7746 26.5446 0.0000 15.5211 0.0000
# 3 28.7425 26.5446 178.5520 0.0000 6.2429 0.0000
# 4 0.0000 0.0000 0.0000 28.4002 0.0000 2.6197
# 5 16.9473 15.5211 6.2429 0.0000 41.6200 0.0000
# 6 0.0000 0.0000 0.0000 2.6197 0.0000 32.2598
#
#
#
# Elastic Compliance Matrix: (Units=1/GPa)
#
#
# Indices 1 2 3 4 5 6 
#
# 1 0.009327 -0.002099 -0.001090 0.000000 -0.002852 0.000000
# 2 -0.002099 0.015468 -0.001799 0.000000 -0.004644 0.000000
# 3 -0.001090 -0.001799 0.006036 0.000000 0.000209 0.000000
# 4 0.000000 0.000000 0.000000 0.035477 0.000000 -0.002881
# 5 -0.002852 -0.004644 0.000209 0.000000 0.026889 0.000000
# 6 0.000000 0.000000 0.000000 -0.002881 0.000000 0.031232
#
#
# Mechanical properties :
#
#
# Convention : Reuss Voigt Hill
#
# Bulk Modulus (GPa) = 47.94773 59.56090 53.75431
# Shear Modulus (GPa) = 35.37143 40.15577 37.76360
#
# Velocity S-wave (km/s) = 3.98131 4.24202 4.11373
# Velocity P-wave (km/s) = 6.52847 7.11925 6.83025
#
# Compressibility (1/GPa) = 0.02085605
#
# Stress axis : x y z
#
# Youngs Moduli (GPa) = 107.21217 64.64898 165.66658
#
# Poissons Ratio (x) = 0.13568 0.18054
# Poissons Ratio (y) = 0.22500 0.29810
# Poissons Ratio (z) = 0.11683 0.11633
#
# Static dielectric constant tensor:
#      x y z
#    x 4.391210 0.000000 0.129240 
#    y 0.000000 3.739970 0.000000 
#    z 0.129240 0.000000 4.830070 
# 
# 
# High freq. dielectric constant tensor:
#      x y z
#    x 1.892240 0.000000 0.008790 
#    y 0.000000 1.848850 0.000000 
#    z 0.008790 0.000000 1.906410 
# 
# From -- ./inp_files/76340.got.cif
#   From: 2010.06.25/outbox.cif.g09.slc.cpg/sg15_39_cif.got.tgz:76340.got - 2010.06.28 07:06:18.
