data_PCOD8154845
_publ_section_title
;
Structure prediction by ZEFSAII (Michael W. Deem and Ramdas Pophale) SiO2 
 PCOD8154845
Probable space group: C 2/C
;
_chemical_formula_sum "Si O2"
_cell_formula_units_Z 48
_cell_length_a 16.607028
_cell_length_b 8.412632
_cell_length_c 14.579533
_cell_angle_alpha 90.000000
_cell_angle_beta 86.934188
_cell_angle_gamma 90.000000
_cell_volume 2033.974006
_symmetry_space_group_name_H-M "C 2/C"
_symmetry_group_IT_number 15
_symmetry_cell_setting 'monoclinic'
loop_
_space_group_symop_operation_xyz
x,y,z
-x,y,1/2-z
-x,-y,-z
x,-y,1/2+z
1/2+x,1/2+y,z
1/2-x,1/2+y,1/2-z
1/2-x,1/2-y,-z
1/2+x,1/2-y,1/2+z
loop_
_atom_site_type_symbol
_atom_site_label
_atom_site_fract_x
_atom_site_fract_y
_atom_site_fract_z
Si Si1 0.808859 0.825160 0.723710
Si Si2 0.053600 0.160608 0.000230
Si Si3 0.302508 0.405448 0.365702
Si Si4 0.040873 0.724389 0.153886
Si Si5 0.282724 0.520719 0.556101
Si Si6 0.886944 0.623200 0.853834
O O1 0.728578 0.735049 0.696914
O O2 0.876981 0.699109 0.752013
O O3 0.789306 0.929314 0.814375
O O4 0.832358 0.927401 0.633194
O O5 0.149607 0.140006 0.984192
O O6 0.024940 0.278713 0.922222
O O7 0.050849 0.263320 0.094524
O O8 0.000000 0.000000 0.000000
O O9 0.396064 0.363919 0.375720
O O10 0.259276 0.412242 0.468457
O O11 0.078254 0.550916 0.160730
O O12 0.000000 0.778194 0.250000
O O13 0.203081 0.607809 0.597245
#
# Coordination Sequence:
#
# PCOD8154845 Si02
#       6
#     8   8   8   8   8   8
#     4  12  24  44  74 107 148 185 251 298 365 427
#     4  12  26  47  73 105 147 192 238 299 373 435
#     4  12  24  46  72 111 145 192 243 305 367 433
#     4  12  27  48  71 106 151 191 239 303 374 436
#     4  12  25  45  80 106 148 192 253 304 363 436
#     4  12  27  47  74 109 144 196 250 302 364 439
#
# _framework density 23.599122999999999
#
# number of rings (size 3 to 8) (size 9 to 14) (size 15 to 20)
#    0.000    0.000    6.667    2.500    0.000    2.667 
#    0.000    0.833    0.000    0.000    0.000    0.000 
#    0.000    0.000    0.000    0.000    0.000    0.000 
#
# Total GULP energy -297472.872718 kJ/mol
# GULP energy per Si atom -12394.703030 kJ/mol
# Density = 2.354541 g / cm^3
# Si number density = 23.599123 Si / 1000 Ang^3
#
#
#
# Elastic Constant Matrix: (Units=GPa)
#
#
# Indices 1 2 3 4 5 6 
#
# 1 51.9808 14.4478 20.4374 0.0000 16.8435 0.0000
# 2 14.4478 90.4130 40.5884 0.0000 13.6675 0.0000
# 3 20.4374 40.5884 157.8248 0.0000 33.0464 0.0000
# 4 0.0000 0.0000 0.0000 45.5490 0.0000 14.4909
# 5 16.8435 13.6675 33.0464 0.0000 38.9134 0.0000
# 6 0.0000 0.0000 0.0000 14.4909 0.0000 36.2317
#
#
#
# Elastic Compliance Matrix: (Units=1/GPa)
#
#
# Indices 1 2 3 4 5 6 
#
# 1 0.022856 -0.002068 -0.000618 0.000000 -0.008642 0.000000
# 2 -0.002068 0.012823 -0.002766 0.000000 -0.001259 0.000000
# 3 -0.000618 -0.002766 0.008354 0.000000 -0.005855 0.000000
# 4 0.000000 0.000000 0.000000 0.025155 0.000000 -0.010061
# 5 -0.008642 -0.001259 -0.005855 0.000000 0.034853 0.000000
# 6 0.000000 0.000000 0.000000 -0.010061 0.000000 0.031624
#
#
# Mechanical properties :
#
#
# Convention : Reuss Voigt Hill
#
# Bulk Modulus (GPa) = 30.18720 50.12953 40.15836
# Shear Modulus (GPa) = 31.72330 39.12182 35.42256
#
# Velocity S-wave (km/s) = 3.67039 4.07598 3.87849
# Velocity P-wave (km/s) = 5.54813 6.59088 6.09186
#
# Compressibility (1/GPa) = 0.03312662
#
# Stress axis : x y z
#
# Youngs Moduli (GPa) = 43.75217 77.98445 119.70973
#
# Poissons Ratio (x) = 0.16131 0.07402
# Poissons Ratio (y) = 0.09050 0.33114
# Poissons Ratio (z) = 0.02705 0.21572
#
# Static dielectric constant tensor:
#      x y z
#    x 4.121910 0.000000 0.296090 
#    y 0.000000 4.391870 0.000000 
#    z 0.296090 0.000000 4.618970 
# 
# 
# High freq. dielectric constant tensor:
#      x y z
#    x 1.916880 0.000000 0.030570 
#    y 0.000000 1.948180 0.000000 
#    z 0.030570 0.000000 1.950800 
# 
# From -- ./inp_files/159722.got.cif
#   From: 2010.06.25/outbox.cif.g09.slc.cpg/sg15_80_cif.got.tgz:159722.got - 2010.06.28 07:06:18.
