data_PCOD8154184
_publ_section_title
;
Structure prediction by ZEFSAII (Michael W. Deem and Ramdas Pophale) SiO2 
 PCOD8154184
Probable space group: C 2/C
;
_chemical_formula_sum "Si O2"
_cell_formula_units_Z 64
_cell_length_a 21.287668
_cell_length_b 8.432015
_cell_length_c 18.909454
_cell_angle_alpha 90.000000
_cell_angle_beta 58.298419
_cell_angle_gamma 90.000000
_cell_volume 2887.780626
_symmetry_space_group_name_H-M "C 2/C"
_symmetry_group_IT_number 15
_symmetry_cell_setting 'monoclinic'
loop_
_space_group_symop_operation_xyz
x,y,z
-x,y,1/2-z
-x,-y,-z
x,-y,1/2+z
1/2+x,1/2+y,z
1/2-x,1/2+y,1/2-z
1/2-x,1/2-y,-z
1/2+x,1/2-y,1/2+z
loop_
_atom_site_type_symbol
_atom_site_label
_atom_site_fract_x
_atom_site_fract_y
_atom_site_fract_z
Si Si1 0.430170 0.994925 0.746634
Si Si2 0.579936 0.427078 0.464355
Si Si3 0.201214 0.334775 0.599574
Si Si4 0.569967 0.932536 0.920465
Si Si5 0.663749 0.466703 0.048825
Si Si6 0.790406 0.624366 0.654417
Si Si7 0.167204 0.919260 0.795421
Si Si8 0.918875 0.135247 0.281441
O O1 0.500000 0.927332 0.750000
O O2 0.419933 0.176181 0.775203
O O3 0.354683 0.910044 0.812544
O O4 0.440270 0.958495 0.657703
O O5 0.500000 0.500000 0.500000
O O6 0.579613 0.247253 0.439096
O O7 0.603472 0.461426 0.530786
O O8 0.645092 0.511748 0.383580
O O9 0.250702 0.471589 0.530714
O O10 0.154794 0.221689 0.572971
O O11 0.256946 0.219075 0.608562
O O12 0.637921 0.029148 0.913186
O O13 0.500000 0.000000 0.000000
O O14 0.646778 0.575168 0.127644
O O15 0.812464 0.736466 0.706465
O O16 0.736843 0.498953 0.720067
O O17 0.097288 0.937406 0.785628
O O18 0.000000 0.067379 0.250000
#
# Coordination Sequence:
#
# PCOD8154184 Si02
#       8
#     8   8   8   8   8   8   8   8
#     4  11  27  48  75 104 146 195 245 302 372 442
#     4  12  27  45  74 108 146 191 245 307 372 434
#     4  11  25  48  72 108 147 193 246 300 371 439
#     4  12  29  47  74 110 147 193 247 308 370 436
#     4  11  26  46  72 109 144 191 243 307 361 439
#     4  12  24  46  72 104 145 191 243 300 359 441
#     4  12  23  44  73 101 145 193 247 301 363 445
#     4  11  25  46  71 105 147 192 244 301 370 439
#
# _framework density 22.162347
#
# number of rings (size 3 to 8) (size 9 to 14) (size 15 to 20)
#    0.000    0.500    3.750    3.750    5.250    3.000 
#    0.000    0.000    0.000    0.000    0.000    0.000 
#    0.000    0.000    0.000    0.000    0.000    0.000 
#
# Total GULP energy -396622.746982 kJ/mol
# GULP energy per Si atom -12394.460843 kJ/mol
# Density = 2.211190 g / cm^3
# Si number density = 22.162347 Si / 1000 Ang^3
#
#
#
# Elastic Constant Matrix: (Units=GPa)
#
#
# Indices 1 2 3 4 5 6 
#
# 1 98.0778 54.4184 46.1348 -0.0002 -5.9318 -0.0009
# 2 54.4184 120.5037 47.8467 0.0005 -10.7125 -0.0053
# 3 46.1348 47.8467 123.7602 0.0004 -8.0495 -0.0011
# 4 -0.0002 0.0005 0.0004 47.4880 -0.0001 -3.1556
# 5 -5.9318 -10.7125 -8.0495 -0.0001 42.8393 0.0000
# 6 -0.0009 -0.0053 -0.0011 -3.1556 0.0000 34.2218
#
#
#
# Elastic Compliance Matrix: (Units=1/GPa)
#
#
# Indices 1 2 3 4 5 6 
#
# 1 0.014758 -0.005287 -0.003453 0.000000 0.000073 -0.000001
# 2 -0.005287 0.011831 -0.002488 0.000000 0.001759 0.000002
# 3 -0.003453 -0.002488 0.010385 0.000000 0.000851 0.000000
# 4 0.000000 0.000000 0.000000 0.021188 0.000000 0.001954
# 5 0.000073 0.001759 0.000851 0.000000 0.023953 0.000000
# 6 -0.000001 0.000002 0.000000 0.001954 0.000000 0.029401
#
#
# Mechanical properties :
#
#
# Convention : Reuss Voigt Hill
#
# Bulk Modulus (GPa) = 68.88682 71.01572 69.95127
# Shear Modulus (GPa) = 36.02028 37.83928 36.92978
#
# Velocity S-wave (km/s) = 4.03586 4.13651 4.08650
# Velocity P-wave (km/s) = 7.27103 7.41130 7.34150
#
# Compressibility (1/GPa) = 0.01451656
#
# Stress axis : x y z
#
# Youngs Moduli (GPa) = 67.75935 84.52663 96.29642
#
# Poissons Ratio (x) = 0.44692 0.33248
# Poissons Ratio (y) = 0.35826 0.23963
# Poissons Ratio (z) = 0.23395 0.21034
#
# Static dielectric constant tensor:
#      x y z
#    x 4.411050 0.000000 0.123390 
#    y 0.000000 4.043140 0.000000 
#    z 0.123390 0.000000 4.189530 
# 
# 
# High freq. dielectric constant tensor:
#      x y z
#    x 1.885470 0.000000 0.002040 
#    y 0.000000 1.872310 0.000000 
#    z 0.002040 0.000000 1.889100 
# 
# From -- ./inp_files/251891.got.cif
#   From: 2010.06.25/outbox.cif.g09.slc.cpg/sg15_126_cif.got.tgz:251891.got - 2010.06.28 07:06:18.
