data_PCOD8154506
_publ_section_title
;
Structure prediction by ZEFSAII (Michael W. Deem and Ramdas Pophale) SiO2 
 PCOD8154506
Probable space group: C 2/C
;
_chemical_formula_sum "Si O2"
_cell_formula_units_Z 52
_cell_length_a 13.360296
_cell_length_b 20.486361
_cell_length_c 11.300717
_cell_angle_alpha 90.000000
_cell_angle_beta 126.632768
_cell_angle_gamma 90.000000
_cell_volume 2482.099269
_symmetry_space_group_name_H-M "C 2/C"
_symmetry_group_IT_number 15
_symmetry_cell_setting 'monoclinic'
loop_
_space_group_symop_operation_xyz
x,y,z
-x,y,1/2-z
-x,-y,-z
x,-y,1/2+z
1/2+x,1/2+y,z
1/2-x,1/2+y,1/2-z
1/2-x,1/2-y,-z
1/2+x,1/2-y,1/2+z
loop_
_atom_site_type_symbol
_atom_site_label
_atom_site_fract_x
_atom_site_fract_y
_atom_site_fract_z
Si Si1 0.144968 0.586412 0.003730
Si Si2 0.214852 0.183630 0.544935
Si Si3 0.795795 0.645633 0.208066
Si Si4 0.376366 0.060921 0.079851
Si Si5 0.959559 0.210029 0.476230
Si Si6 0.500000 0.245115 0.250000
Si Si7 0.409679 0.149082 0.876070
O O1 0.143633 0.605341 0.141285
O O2 0.258486 0.622455 0.020141
O O3 0.159507 0.510360 0.989989
O O4 0.008298 0.610303 0.862090
O O5 0.250000 0.250000 0.500000
O O6 0.291726 0.173859 0.719319
O O7 0.071272 0.177660 0.481212
O O8 0.768505 0.591244 0.087610
O O9 0.885919 0.700340 0.214720
O O10 0.668562 0.679358 0.162454
O O11 0.500000 0.063786 0.250000
O O12 0.375622 0.104583 0.962714
O O13 0.961983 0.203856 0.620085
O O14 0.977692 0.286712 0.469863
#
# Coordination Sequence:
#
# PCOD8154506 Si02
#       7
#     8   8   8   8   8   4   8
#     4  12  25  43  70 100 135 180 228 284 345 402
#     4  12  26  44  66 104 141 180 228 279 350 415
#     4  12  24  44  68 103 136 175 226 282 344 406
#     4  12  24  43  70 103 136 172 234 291 341 397
#     4  12  25  40  69 100 138 175 219 278 347 408
#     4  12  20  44  66 106 134 168 222 286 344 402
#     4  12  23  41  71 101 135 174 227 290 341 402
#
# _framework density 20.950008
#
# number of rings (size 3 to 8) (size 9 to 14) (size 15 to 20)
#    0.000    0.000    6.923    4.154    4.308    1.846 
#    0.000    0.769    3.385    0.000    0.000    0.000 
#    0.000    0.000    0.000    0.000    0.000    0.000 
#
# Total GULP energy -322243.932911 kJ/mol
# GULP energy per Si atom -12393.997420 kJ/mol
# Density = 2.090233 g / cm^3
# Si number density = 20.950008 Si / 1000 Ang^3
#
#
#
# Elastic Constant Matrix: (Units=GPa)
#
#
# Indices 1 2 3 4 5 6 
#
# 1 142.2224 43.9554 39.1091 0.0000 5.1362 0.0000
# 2 43.9554 100.3546 36.3923 0.0000 -7.5801 0.0000
# 3 39.1091 36.3923 86.4393 0.0000 -12.0354 0.0000
# 4 0.0000 0.0000 0.0000 37.3442 0.0000 -7.0999
# 5 5.1362 -7.5801 -12.0354 0.0000 36.9759 0.0000
# 6 0.0000 0.0000 0.0000 -7.0999 0.0000 32.3530
#
#
#
# Elastic Compliance Matrix: (Units=1/GPa)
#
#
# Indices 1 2 3 4 5 6 
#
# 1 0.008932 -0.002973 -0.003192 0.000000 -0.002889 0.000000
# 2 -0.002973 0.012774 -0.003782 0.000000 0.001801 0.000000
# 3 -0.003192 -0.003782 0.015250 0.000000 0.004632 0.000000
# 4 0.000000 0.000000 0.000000 0.027944 0.000000 0.006132
# 5 -0.002889 0.001801 0.004632 0.000000 0.029323 0.000000
# 6 0.000000 0.000000 0.000000 0.006132 0.000000 0.032255
#
#
# Mechanical properties :
#
#
# Convention : Reuss Voigt Hill
#
# Bulk Modulus (GPa) = 58.60867 63.10331 60.85599
# Shear Modulus (GPa) = 32.88168 35.30526 34.09347
#
# Velocity S-wave (km/s) = 3.96603 4.10959 4.03845
# Velocity P-wave (km/s) = 7.00062 7.25979 7.13139
#
# Compressibility (1/GPa) = 0.01706232
#
# Stress axis : x y z
#
# Youngs Moduli (GPa) = 111.95519 78.28096 65.57225
#
# Poissons Ratio (x) = 0.23273 0.20930
# Poissons Ratio (y) = 0.33284 0.24802
# Poissons Ratio (z) = 0.35735 0.29609
#
# Static dielectric constant tensor:
#      x y z
#    x 3.776560 0.000000 -0.262910 
#    y 0.000000 3.354440 0.000000 
#    z -0.262910 0.000000 3.879850 
# 
# 
# High freq. dielectric constant tensor:
#      x y z
#    x 1.823670 0.000000 -0.027670 
#    y 0.000000 1.809720 0.000000 
#    z -0.027670 0.000000 1.825830 
# 
# From -- ./inp_files/89724.got.cif
#   From: 2010.06.25/outbox.cif.g09.slc.cpg/sg15_45_cif.got.tgz:89724.got - 2010.06.28 07:06:18.
