data_PCOD8154451
_publ_section_title
;
Structure prediction by ZEFSAII (Michael W. Deem and Ramdas Pophale) SiO2 
 PCOD8154451
Probable space group: C 2/C
;
_chemical_formula_sum "Si O2"
_cell_formula_units_Z 44
_cell_length_a 19.066544
_cell_length_b 9.497100
_cell_length_c 24.704697
_cell_angle_alpha 90.000000
_cell_angle_beta 22.827483
_cell_angle_gamma 90.000000
_cell_volume 1735.509252
_symmetry_space_group_name_H-M "C 2/C"
_symmetry_group_IT_number 15
_symmetry_cell_setting 'monoclinic'
loop_
_space_group_symop_operation_xyz
x,y,z
-x,y,1/2-z
-x,-y,-z
x,-y,1/2+z
1/2+x,1/2+y,z
1/2-x,1/2+y,1/2-z
1/2-x,1/2-y,-z
1/2+x,1/2-y,1/2+z
loop_
_atom_site_type_symbol
_atom_site_label
_atom_site_fract_x
_atom_site_fract_y
_atom_site_fract_z
Si Si1 0.725461 0.497793 0.010987
Si Si2 0.229541 0.438804 0.720756
Si Si3 0.615420 0.615877 0.983028
Si Si4 0.500000 0.839206 0.750000
Si Si5 0.856469 0.160101 0.769993
Si Si6 0.873914 0.566537 0.018665
O O1 0.681357 0.618611 0.998312
O O2 0.564790 0.385817 0.119725
O O3 0.916799 0.427926 0.858946
O O4 0.746401 0.562190 0.055870
O O5 0.251235 0.519180 0.647680
O O6 0.415622 0.452752 0.622022
O O7 0.188220 0.271748 0.745442
O O8 0.076169 0.516025 0.863875
O O9 0.621085 0.777475 0.959352
O O10 0.338102 0.744772 0.840051
O O11 0.714973 0.031406 0.871693
#
# Coordination Sequence:
#
# PCOD8154451 Si02
#       6
#     8   8   8   4   8   8
#     4  12  23  44  73 101 138 178 235 291 341 411
#     4  11  27  48  69 101 144 184 235 279 345 420
#     4  11  28  46  68 102 142 184 227 290 351 406
#     4  12  20  42  70 104 134 184 228 286 344 402
#     4  12  24  43  72 104 136 183 237 284 342 413
#     4  12  26  45  73 103 138 182 230 289 351 402
#
# _framework density 25.352789999999999
#
# number of rings (size 3 to 8) (size 9 to 14) (size 15 to 20)
#    0.000    0.364    5.455    2.182    5.091    2.182 
#    6.545    0.000    0.000    0.000    0.000    0.000 
#    0.000    0.000    0.000    0.000    0.000    0.000 
#
# Total GULP energy -272866.661402 kJ/mol
# GULP energy per Si atom -12403.030064 kJ/mol
# Density = 2.529509 g / cm^3
# Si number density = 25.352790 Si / 1000 Ang^3
#
#
#
# Elastic Constant Matrix: (Units=GPa)
#
#
# Indices 1 2 3 4 5 6 
#
# 1 52.2967 8.3923 2.8654 0.0119 -7.7697 -0.0064
# 2 8.3923 154.2262 55.7798 0.0002 -6.7026 -0.0051
# 3 2.8654 55.7798 147.6817 -0.0430 -15.0873 0.0029
# 4 0.0119 0.0002 -0.0430 33.2795 -0.0043 -10.5309
# 5 -7.7697 -6.7026 -15.0873 -0.0043 28.7533 0.0003
# 6 -0.0064 -0.0051 0.0029 -10.5309 0.0003 30.4495
#
#
#
# Elastic Compliance Matrix: (Units=1/GPa)
#
#
# Indices 1 2 3 4 5 6 
#
# 1 0.020074 -0.001061 0.000571 -0.000005 0.005477 0.000002
# 2 -0.001061 0.007568 -0.002839 -0.000003 -0.000012 0.000000
# 3 0.000571 -0.002839 0.008221 0.000012 0.003806 0.000003
# 4 -0.000005 -0.000003 0.000012 0.033741 0.000009 0.011669
# 5 0.005477 -0.000012 0.003806 0.000009 0.038253 0.000003
# 6 0.000002 0.000000 0.000003 0.011669 0.000003 0.036877
#
#
# Mechanical properties :
#
#
# Convention : Reuss Voigt Hill
#
# Bulk Modulus (GPa) = 34.24033 54.25329 44.24681
# Shear Modulus (GPa) = 31.03116 37.64094 34.33605
#
# Velocity S-wave (km/s) = 3.50233 3.85734 3.68412
# Velocity P-wave (km/s) = 5.46717 6.42531 5.96551
#
# Compressibility (1/GPa) = 0.02920533
#
# Stress axis : x y z
#
# Youngs Moduli (GPa) = 49.81497 132.13504 121.63299
#
# Poissons Ratio (x) = 0.14016 -0.06941
# Poissons Ratio (y) = 0.05284 0.34533
# Poissons Ratio (z) = -0.02843 0.37515
#
# Static dielectric constant tensor:
#      x y z
#    x 4.515370 -0.000010 -0.126250 
#    y -0.000010 4.458880 0.000040 
#    z -0.126250 0.000040 4.330350 
# 
# 
# High freq. dielectric constant tensor:
#      x y z
#    x 2.017450 0.000000 -0.014550 
#    y 0.000000 2.011580 0.000000 
#    z -0.014550 0.000000 2.008240 
# 
# From -- ./inp_files/318567.got.cif
#   From: 2010.06.25/outbox.cif.g09.slc.cpg/sg15_160_cif.got.tgz:318567.got - 2010.06.28 07:06:18.
