data_PCOD8154292
_publ_section_title
;
Structure prediction by ZEFSAII (Michael W. Deem and Ramdas Pophale) SiO2 
 PCOD8154292
Probable space group: C 2/C
;
_chemical_formula_sum "Si O2"
_cell_formula_units_Z 36
_cell_length_a 17.223500
_cell_length_b 8.640472
_cell_length_c 13.261721
_cell_angle_alpha 90.000000
_cell_angle_beta 134.562657
_cell_angle_gamma 90.000000
_cell_volume 1406.156285
_symmetry_space_group_name_H-M "C 2/C"
_symmetry_group_IT_number 15
_symmetry_cell_setting 'monoclinic'
loop_
_space_group_symop_operation_xyz
x,y,z
-x,y,1/2-z
-x,-y,-z
x,-y,1/2+z
1/2+x,1/2+y,z
1/2-x,1/2+y,1/2-z
1/2-x,1/2-y,-z
1/2+x,1/2-y,1/2+z
loop_
_atom_site_type_symbol
_atom_site_label
_atom_site_fract_x
_atom_site_fract_y
_atom_site_fract_z
Si Si1 0.449170 0.353585 0.547634
Si Si2 0.682610 0.440570 0.701762
Si Si3 0.500000 0.396754 0.250000
Si Si4 0.177470 0.676008 0.349056
Si Si5 0.184058 0.608067 0.985116
O O1 0.572114 0.342343 0.619377
O O2 0.357388 0.395295 0.380286
O O3 0.430819 0.490513 0.614048
O O4 0.424965 0.182540 0.566618
O O5 0.761583 0.341891 0.701707
O O6 0.743458 0.477432 0.862506
O O7 0.572153 0.287170 0.242691
O O8 0.250000 0.750000 0.500000
O O9 0.145314 0.506713 0.362223
O O10 0.250000 0.750000 0.000000
#
# Coordination Sequence:
#
# PCOD8154292 Si02
#       5
#     8   8   4   8   8
#     4  11  25  49  74 106 146 204 243 305 377 441
#     4  11  26  44  77 104 146 191 250 303 372 436
#     4  12  26  48  74 104 150 194 248 304 374 436
#     4  12  26  47  73 111 145 194 246 310 370 440
#     4  12  26  47  74 111 149 194 252 306 374 448
#
# _framework density 25.601707000000001
#
# number of rings (size 3 to 8) (size 9 to 14) (size 15 to 20)
#    0.000    0.444    4.444    2.667    9.333    2.667 
#    0.000    2.222    0.000    0.000    0.000    0.000 
#    0.000    0.000    0.000    0.000    0.000    0.000 
#
# Total GULP energy -223206.041776 kJ/mol
# GULP energy per Si atom -12400.335654 kJ/mol
# Density = 2.554344 g / cm^3
# Si number density = 25.601707 Si / 1000 Ang^3
#
#
#
# Elastic Constant Matrix: (Units=GPa)
#
#
# Indices 1 2 3 4 5 6 
#
# 1 156.8511 35.7633 24.5567 0.0000 -3.0620 0.0000
# 2 35.7633 108.1750 30.1011 0.0000 3.1740 0.0000
# 3 24.5567 30.1011 87.7377 0.0000 -10.3521 0.0000
# 4 0.0000 0.0000 0.0000 38.6845 0.0000 1.7179
# 5 -3.0620 3.1740 -10.3521 0.0000 36.4064 0.0000
# 6 0.0000 0.0000 0.0000 1.7179 0.0000 34.9666
#
#
#
# Elastic Compliance Matrix: (Units=1/GPa)
#
#
# Indices 1 2 3 4 5 6 
#
# 1 0.007031 -0.001993 -0.001235 0.000000 0.000414 0.000000
# 2 -0.001993 0.010921 -0.003436 0.000000 -0.002097 0.000000
# 3 -0.001235 -0.003436 0.013395 0.000000 0.004004 0.000000
# 4 0.000000 0.000000 0.000000 0.025907 0.000000 -0.001273
# 5 0.000414 -0.002097 0.004004 0.000000 0.028824 0.000000
# 6 0.000000 0.000000 0.000000 -0.001273 0.000000 0.028661
#
#
# Mechanical properties :
#
#
# Convention : Reuss Voigt Hill
#
# Bulk Modulus (GPa) = 55.50124 59.28955 57.39539
# Shear Modulus (GPa) = 37.29272 39.50100 38.39686
#
# Velocity S-wave (km/s) = 3.82075 3.93224 3.87690
# Velocity P-wave (km/s) = 6.41794 6.62008 6.51979
#
# Compressibility (1/GPa) = 0.01801762
#
# Stress axis : x y z
#
# Youngs Moduli (GPa) = 142.21942 91.56750 74.65578
#
# Poissons Ratio (x) = 0.18249 0.09223
# Poissons Ratio (y) = 0.28344 0.25654
# Poissons Ratio (z) = 0.17570 0.31466
#
# Static dielectric constant tensor:
#      x y z
#    x 6.003330 0.000000 -0.193920 
#    y 0.000000 5.098750 0.000000 
#    z -0.193920 0.000000 4.608490 
# 
# 
# High freq. dielectric constant tensor:
#      x y z
#    x 2.038210 0.000000 -0.010540 
#    y 0.000000 2.019900 0.000000 
#    z -0.010540 0.000000 2.014980 
# 
# From -- ./inp_files/159588.got.cif
#   From: 2010.06.25/outbox.cif.g09.slc.cpg/sg15_80_cif.got.tgz:159588.got - 2010.06.28 07:06:18.
