data_PCOD8154373
_publ_section_title
;
Structure prediction by ZEFSAII (Michael W. Deem and Ramdas Pophale) SiO2 
 PCOD8154373
Probable space group: C 2/C
;
_chemical_formula_sum "Si O2"
_cell_formula_units_Z 56
_cell_length_a 14.743159
_cell_length_b 21.574353
_cell_length_c 18.135228
_cell_angle_alpha 90.000000
_cell_angle_beta 152.405340
_cell_angle_gamma 90.000000
_cell_volume 2671.975674
_symmetry_space_group_name_H-M "C 2/C"
_symmetry_group_IT_number 15
_symmetry_cell_setting 'monoclinic'
loop_
_space_group_symop_operation_xyz
x,y,z
-x,y,1/2-z
-x,-y,-z
x,-y,1/2+z
1/2+x,1/2+y,z
1/2-x,1/2+y,1/2-z
1/2-x,1/2-y,-z
1/2+x,1/2-y,1/2+z
loop_
_atom_site_type_symbol
_atom_site_label
_atom_site_fract_x
_atom_site_fract_y
_atom_site_fract_z
Si Si1 0.579109 0.428953 0.476741
Si Si2 0.500000 0.880384 0.750000
Si Si3 0.587024 0.320046 0.233487
Si Si4 0.604338 0.787814 0.445078
Si Si5 0.977930 0.305818 0.590472
Si Si6 0.330648 0.676783 0.252152
Si Si7 0.917357 0.069535 0.021165
Si Si8 0.000000 0.383728 0.250000
O O1 0.815775 0.421055 0.645246
O O2 0.473961 0.386990 0.340113
O O3 0.521548 0.499516 0.415662
O O4 0.483961 0.412128 0.486742
O O5 0.418819 0.837181 0.625385
O O6 0.500000 0.306083 0.250000
O O7 0.820725 0.317233 0.412518
O O8 0.506546 0.267991 0.119770
O O9 0.750000 0.750000 0.500000
O O10 0.438480 0.740349 0.352667
O O11 0.720758 0.816733 0.596204
O O12 0.509821 0.842655 0.330424
O O13 0.178074 0.337373 0.707427
O O14 0.477158 0.618725 0.349076
O O15 0.686448 0.073219 0.869873
#
# Coordination Sequence:
#
# PCOD8154373 Si02
#       8
#     8   4   8   8   8   8   8   4
#     4  11  26  47  68  94 134 178 224 279 323 396
#     4  12  21  46  72  98 133 174 228 270 338 400
#     4  12  24  42  63 101 136 169 216 269 334 397
#     4  12  23  41  67 100 136 168 219 278 337 393
#     4  12  25  39  70 104 133 173 214 273 344 402
#     4  12  24  42  66 102 135 173 218 275 332 401
#     4  11  26  47  68  95 131 180 229 272 330 390
#     4  12  25  44  70  98 129 182 220 278 340 396
#
# _framework density 20.958275
#
# number of rings (size 3 to 8) (size 9 to 14) (size 15 to 20)
#    0.000    0.286    6.429    2.571    6.000    0.000 
#    2.571    0.714    0.000    0.000    0.000    0.000 
#    0.000    0.000    0.000    0.000    0.000    0.000 
#
# Total GULP energy -347317.040835 kJ/mol
# GULP energy per Si atom -12404.180030 kJ/mol
# Density = 2.091057 g / cm^3
# Si number density = 20.958275 Si / 1000 Ang^3
#
#
#
# Elastic Constant Matrix: (Units=GPa)
#
#
# Indices 1 2 3 4 5 6 
#
# 1 95.1444 26.8650 38.9709 -0.0014 19.5725 0.0010
# 2 26.8650 111.3697 57.3666 -0.0083 -5.9613 -0.0034
# 3 38.9709 57.3666 134.3181 -0.0248 0.8921 -0.0185
# 4 -0.0014 -0.0083 -0.0248 24.7614 -0.0034 0.1074
# 5 19.5725 -5.9613 0.8921 -0.0034 40.4415 -0.0006
# 6 0.0010 -0.0034 -0.0185 0.1074 -0.0006 26.1225
#
#
#
# Elastic Compliance Matrix: (Units=1/GPa)
#
#
# Indices 1 2 3 4 5 6 
#
# 1 0.013780 -0.002126 -0.003044 -0.000004 -0.006915 -0.000003
# 2 -0.002126 0.011973 -0.004516 0.000000 0.002894 -0.000001
# 3 -0.003044 -0.004516 0.010253 0.000009 0.000581 0.000007
# 4 -0.000004 0.000000 0.000009 0.040386 0.000005 -0.000166
# 5 -0.006915 0.002894 0.000581 0.000005 0.028488 0.000002
# 6 -0.000003 -0.000001 0.000007 -0.000166 0.000002 0.038282
#
#
# Mechanical properties :
#
#
# Convention : Reuss Voigt Hill
#
# Bulk Modulus (GPa) = 60.11886 65.24859 62.68373
# Shear Modulus (GPa) = 29.74786 32.77372 31.26079
#
# Velocity S-wave (km/s) = 3.77156 3.95873 3.86628
# Velocity P-wave (km/s) = 6.90750 7.21773 7.06432
#
# Compressibility (1/GPa) = 0.01663371
#
# Stress axis : x y z
#
# Youngs Moduli (GPa) = 72.56802 83.52091 97.53141
#
# Poissons Ratio (x) = 0.17759 0.29690
# Poissons Ratio (y) = 0.15430 0.44045
# Poissons Ratio (z) = 0.22091 0.37718
#
# Static dielectric constant tensor:
#      x y z
#    x 3.842640 0.000000 0.187790 
#    y 0.000000 3.751380 -0.000050 
#    z 0.187790 -0.000050 4.090090 
# 
# 
# High freq. dielectric constant tensor:
#      x y z
#    x 1.835310 0.000000 0.013310 
#    y 0.000000 1.812030 0.000000 
#    z 0.013310 0.000000 1.826090 
# 
# From -- ./inp_files/207016.got.cif
#   From: 2010.06.25/outbox.cif.g09.slc.cpg/sg15_104_cif.got.tgz:207016.got - 2010.06.28 07:06:18.
