data_PCOD8154923
_publ_section_title
;
Structure prediction by ZEFSAII (Michael W. Deem and Ramdas Pophale) SiO2 
 PCOD8154923
Probable space group: C 2/C
;
_chemical_formula_sum "Si O2"
_cell_formula_units_Z 44
_cell_length_a 5.313509
_cell_length_b 18.067487
_cell_length_c 20.012247
_cell_angle_alpha 90.000000
_cell_angle_beta 109.109368
_cell_angle_gamma 90.000000
_cell_volume 1815.343272
_symmetry_space_group_name_H-M "C 2/C"
_symmetry_group_IT_number 15
_symmetry_cell_setting 'monoclinic'
loop_
_space_group_symop_operation_xyz
x,y,z
-x,y,1/2-z
-x,-y,-z
x,-y,1/2+z
1/2+x,1/2+y,z
1/2-x,1/2+y,1/2-z
1/2-x,1/2-y,-z
1/2+x,1/2-y,1/2+z
loop_
_atom_site_type_symbol
_atom_site_label
_atom_site_fract_x
_atom_site_fract_y
_atom_site_fract_z
Si Si1 0.000000 0.213539 0.250000
Si Si2 0.721647 0.028337 0.069303
Si Si3 0.494509 0.382159 0.088162
Si Si4 0.456916 0.896527 0.821637
Si Si5 0.551981 0.807658 0.131399
Si Si6 0.455747 0.664061 0.440887
O O1 0.777178 0.163703 0.195530
O O2 0.132317 0.265279 0.205708
O O3 0.616295 0.034693 0.136421
O O4 0.796715 0.109730 0.050461
O O5 0.970911 0.971714 0.086815
O O6 0.500000 0.000000 0.000000
O O7 0.803954 0.362368 0.123147
O O8 0.314120 0.352371 0.132991
O O9 0.369081 0.346680 0.010038
O O10 0.500000 0.926662 0.750000
O O11 0.720862 0.856172 0.869533
O O12 0.462540 0.748836 0.066508
#
# Coordination Sequence:
#
# PCOD8154923 Si02
#       6
#     4   8   8   8   8   8
#     4  12  26  50  74 110 146 218 264 320 382 490
#     4  12  26  48  78 117 158 203 259 328 399 476
#     4  12  28  46  75 121 160 192 250 338 404 441
#     4  12  24  47  81 110 148 207 279 317 379 481
#     4  12  27  48  77 111 157 204 261 319 390 469
#     4  12  25  46  82 111 150 210 266 313 384 493
#
# _framework density 24.237839000000001
#
# number of rings (size 3 to 8) (size 9 to 14) (size 15 to 20)
#    0.000    0.000    5.455    3.818    2.545    0.000 
#    1.636    1.818    0.000    0.000    0.000    0.000 
#    0.000    0.000    0.000    0.000    0.000    0.000 
#
# Total GULP energy -272924.099814 kJ/mol
# GULP energy per Si atom -12405.640901 kJ/mol
# Density = 2.418267 g / cm^3
# Si number density = 24.237839 Si / 1000 Ang^3
#
#
#
# Elastic Constant Matrix: (Units=GPa)
#
#
# Indices 1 2 3 4 5 6 
#
# 1 124.9440 24.7831 27.3089 0.0000 -9.7206 0.0000
# 2 24.7831 82.5831 -8.2951 0.0000 -12.4776 0.0000
# 3 27.3089 -8.2951 113.4395 0.0000 -15.7999 0.0000
# 4 0.0000 0.0000 0.0000 37.7087 0.0000 -15.3749
# 5 -9.7206 -12.4776 -15.7999 0.0000 47.4391 0.0000
# 6 0.0000 0.0000 0.0000 -15.3749 0.0000 42.5580
#
#
#
# Elastic Compliance Matrix: (Units=1/GPa)
#
#
# Indices 1 2 3 4 5 6 
#
# 1 0.009126 -0.002930 -0.002368 0.000000 0.000311 0.000000
# 2 -0.002930 0.013783 0.002238 0.000000 0.003770 0.000000
# 3 -0.002368 0.002238 0.010029 0.000000 0.003444 0.000000
# 4 0.000000 0.000000 0.000000 0.031100 0.000000 0.011235
# 5 0.000311 0.003770 0.003444 0.000000 0.023282 0.000000
# 6 0.000000 0.000000 0.000000 0.011235 0.000000 0.027556
#
#
# Mechanical properties :
#
#
# Convention : Reuss Voigt Hill
#
# Bulk Modulus (GPa) = 37.28721 45.39561 41.34141
# Shear Modulus (GPa) = 38.48085 44.01915 41.25000
#
# Velocity S-wave (km/s) = 3.98884 4.26623 4.12987
# Velocity P-wave (km/s) = 6.05241 6.56030 6.31147
#
# Compressibility (1/GPa) = 0.02681885
#
# Stress axis : x y z
#
# Youngs Moduli (GPa) = 109.57149 72.55469 99.71449
#
# Poissons Ratio (x) = 0.21257 0.23612
# Poissons Ratio (y) = 0.32101 -0.22319
# Poissons Ratio (z) = 0.25947 -0.16240
#
# Static dielectric constant tensor:
#      x y z
#    x 4.803080 0.000000 -0.225580 
#    y 0.000000 4.582510 0.000000 
#    z -0.225580 0.000000 4.462790 
# 
# 
# High freq. dielectric constant tensor:
#      x y z
#    x 1.971460 0.000000 -0.014950 
#    y 0.000000 1.958870 0.000000 
#    z -0.014950 0.000000 1.965920 
# 
# From -- ./inp_files/227006.got.cif
#   From: 2010.06.25/outbox.cif.g09.slc.cpg/sg15_114_cif.got.tgz:227006.got - 2010.06.28 07:06:18.
