data_PCOD8154090
_publ_section_title
;
Structure prediction by ZEFSAII (Michael W. Deem and Ramdas Pophale) SiO2 
 PCOD8154090
Probable space group: C 2/C
;
_chemical_formula_sum "Si O2"
_cell_formula_units_Z 48
_cell_length_a 26.399258
_cell_length_b 9.251829
_cell_length_c 13.132732
_cell_angle_alpha 90.000000
_cell_angle_beta 136.768477
_cell_angle_gamma 90.000000
_cell_volume 2197.010048
_symmetry_space_group_name_H-M "C 2/C"
_symmetry_group_IT_number 15
_symmetry_cell_setting 'monoclinic'
loop_
_space_group_symop_operation_xyz
x,y,z
-x,y,1/2-z
-x,-y,-z
x,-y,1/2+z
1/2+x,1/2+y,z
1/2-x,1/2+y,1/2-z
1/2-x,1/2-y,-z
1/2+x,1/2-y,1/2+z
loop_
_atom_site_type_symbol
_atom_site_label
_atom_site_fract_x
_atom_site_fract_y
_atom_site_fract_z
Si Si1 0.187849 0.086849 0.857235
Si Si2 0.822252 0.409330 0.152209
Si Si3 0.914332 0.248012 0.113250
Si Si4 0.318765 0.650548 0.295850
Si Si5 0.914463 0.907027 0.117167
Si Si6 0.675274 0.151764 0.203169
O O1 0.129052 0.153923 0.849543
O O2 0.213942 0.224017 0.829276
O O3 0.146162 0.975403 0.721921
O O4 0.253496 0.995015 0.003932
O O5 0.872782 0.339088 0.139740
O O6 0.795541 0.286381 0.192120
O O7 0.862719 0.528490 0.282149
O O8 0.000000 0.283764 0.250000
O O9 0.898458 0.078187 0.096890
O O10 0.889626 0.294284 0.964755
O O11 0.382623 0.677844 0.472540
O O12 0.243898 0.589741 0.238280
O O13 0.000000 0.867859 0.250000
#
# Coordination Sequence:
#
# PCOD8154090 Si02
#       6
#     8   8   8   8   8   8
#     4  12  23  43  70 100 132 175 226 271 326 396
#     4  12  25  41  69 100 134 172 222 275 330 391
#     4  11  25  45  66  97 138 177 220 279 338 394
#     4  12  23  41  71 100 126 177 225 271 327 391
#     4  11  25  44  68 101 134 172 227 282 330 394
#     4  12  25  41  70 101 133 175 224 271 331 398
#
# _framework density 21.847875999999999
#
# number of rings (size 3 to 8) (size 9 to 14) (size 15 to 20)
#    0.000    0.333    6.667    3.000    0.000    2.667 
#    0.000    1.667    0.000    0.000    0.000    0.000 
#    0.000    0.000    0.000    0.000    0.000    0.000 
#
# Total GULP energy -297518.956547 kJ/mol
# GULP energy per Si atom -12396.623189 kJ/mol
# Density = 2.179815 g / cm^3
# Si number density = 21.847876 Si / 1000 Ang^3
#
#
#
# Elastic Constant Matrix: (Units=GPa)
#
#
# Indices 1 2 3 4 5 6 
#
# 1 109.7502 33.3794 57.4659 0.0000 -11.7253 0.0000
# 2 33.3794 83.7894 9.3298 0.0000 -13.1969 0.0000
# 3 57.4659 9.3298 87.5664 0.0000 0.4832 0.0000
# 4 0.0000 0.0000 0.0000 29.7422 0.0000 -10.0050
# 5 -11.7253 -13.1969 0.4832 0.0000 36.6833 0.0000
# 6 0.0000 0.0000 0.0000 -10.0050 0.0000 22.5839
#
#
#
# Elastic Compliance Matrix: (Units=1/GPa)
#
#
# Indices 1 2 3 4 5 6 
#
# 1 0.016298 -0.004786 -0.010206 0.000000 0.003622 0.000000
# 2 -0.004786 0.014224 0.001605 0.000000 0.003566 0.000000
# 3 -0.010206 0.001605 0.017962 0.000000 -0.002921 0.000000
# 4 0.000000 0.000000 0.000000 0.039510 0.000000 0.017504
# 5 0.003622 0.003566 -0.002921 0.000000 0.029740 0.000000
# 6 0.000000 0.000000 0.000000 0.017504 0.000000 0.052034
#
#
# Mechanical properties :
#
#
# Convention : Reuss Voigt Hill
#
# Bulk Modulus (GPa) = 46.05614 53.49513 49.77563
# Shear Modulus (GPa) = 24.53658 29.86395 27.20026
#
# Velocity S-wave (km/s) = 3.35485 3.70118 3.53226
# Velocity P-wave (km/s) = 6.01106 6.54243 6.28237
#
# Compressibility (1/GPa) = 0.02171263
#
# Stress axis : x y z
#
# Youngs Moduli (GPa) = 61.35782 70.30317 55.67163
#
# Poissons Ratio (x) = 0.33645 0.56816
# Poissons Ratio (y) = 0.29364 -0.08938
# Poissons Ratio (z) = 0.62620 -0.11287
#
# Static dielectric constant tensor:
#      x y z
#    x 4.145920 0.000000 -0.474810 
#    y 0.000000 4.110090 0.000000 
#    z -0.474810 0.000000 4.037840 
# 
# 
# High freq. dielectric constant tensor:
#      x y z
#    x 1.860770 0.000000 -0.032330 
#    y 0.000000 1.860430 0.000000 
#    z -0.032330 0.000000 1.860280 
# 
# From -- ./inp_files/176954.got.cif
#   From: 2010.06.25/outbox.cif.g09.slc.cpg/sg15_89_cif.got.tgz:176954.got - 2010.06.28 07:06:18.
