data_PCOD8154949
_publ_section_title
;
Structure prediction by ZEFSAII (Michael W. Deem and Ramdas Pophale) SiO2 
 PCOD8154949
Probable space group: C 2/C
;
_chemical_formula_sum "Si O2"
_cell_formula_units_Z 32
_cell_length_a 8.001604
_cell_length_b 13.276362
_cell_length_c 12.931955
_cell_angle_alpha 90.000000
_cell_angle_beta 84.821431
_cell_angle_gamma 90.000000
_cell_volume 1368.182422
_symmetry_space_group_name_H-M "C 2/C"
_symmetry_group_IT_number 15
_symmetry_cell_setting 'monoclinic'
loop_
_space_group_symop_operation_xyz
x,y,z
-x,y,1/2-z
-x,-y,-z
x,-y,1/2+z
1/2+x,1/2+y,z
1/2-x,1/2+y,1/2-z
1/2-x,1/2-y,-z
1/2+x,1/2-y,1/2+z
loop_
_atom_site_type_symbol
_atom_site_label
_atom_site_fract_x
_atom_site_fract_y
_atom_site_fract_z
Si Si1 0.380048 0.246106 0.900625
Si Si2 0.586182 0.564045 0.406731
Si Si3 0.316981 0.388971 0.246635
Si Si4 0.129182 0.411071 0.463530
O O1 0.452617 0.356015 0.867359
O O2 0.306027 0.191074 0.802902
O O3 0.533790 0.189265 0.941980
O O4 0.250000 0.250000 0.000000
O O5 0.500000 0.500000 0.500000
O O6 0.655783 0.490935 0.316567
O O7 0.751307 0.615563 0.446756
O O8 0.500000 0.335957 0.250000
O O9 0.241853 0.434086 0.356342
O O10 0.000000 0.500000 0.500000
#
# Coordination Sequence:
#
# PCOD8154949 Si02
#       4
#     8   8   8   8
#     4  12  25  47  76 112 153 201 257 320 391 463
#     4  12  24  49  78 109 156 202 250 328 390 454
#     4  12  26  47  77 114 158 202 264 316 391 465
#     4  12  25  48  78 112 158 202 257 322 384 466
#
# _framework density 23.388695999999999
#
# number of rings (size 3 to 8) (size 9 to 14) (size 15 to 20)
#    0.000    0.000    7.500    1.500    0.000    2.000 
#    0.000    0.000    5.500    0.000    0.000    0.000 
#    0.000    0.000    0.000    0.000    0.000    0.000 
#
# Total GULP energy -198350.038400 kJ/mol
# GULP energy per Si atom -12396.877400 kJ/mol
# Density = 2.333546 g / cm^3
# Si number density = 23.388696 Si / 1000 Ang^3
#
#
#
# Elastic Constant Matrix: (Units=GPa)
#
#
# Indices 1 2 3 4 5 6 
#
# 1 146.4175 54.2535 45.1698 0.0000 13.1287 0.0000
# 2 54.2535 136.0026 40.9753 0.0000 10.5795 0.0000
# 3 45.1698 40.9753 105.0297 0.0000 -10.6760 0.0000
# 4 0.0000 0.0000 0.0000 30.5395 0.0000 -1.9619
# 5 13.1287 10.5795 -10.6760 0.0000 59.0514 0.0000
# 6 0.0000 0.0000 0.0000 -1.9619 0.0000 54.8038
#
#
#
# Elastic Compliance Matrix: (Units=1/GPa)
#
#
# Indices 1 2 3 4 5 6 
#
# 1 0.008873 -0.002452 -0.003072 0.000000 -0.002089 0.000000
# 2 -0.002452 0.009278 -0.002729 0.000000 -0.001611 0.000000
# 3 -0.003072 -0.002729 0.012251 0.000000 0.003387 0.000000
# 4 0.000000 0.000000 0.000000 0.032820 0.000000 0.001175
# 5 -0.002089 -0.001611 0.003387 0.000000 0.018300 0.000000
# 6 0.000000 0.000000 0.000000 0.001175 0.000000 0.018289
#
#
# Mechanical properties :
#
#
# Convention : Reuss Voigt Hill
#
# Bulk Modulus (GPa) = 71.95600 74.24967 73.10284
# Shear Modulus (GPa) = 41.33965 45.34902 43.34433
#
# Velocity S-wave (km/s) = 4.20873 4.40810 4.30957
# Velocity P-wave (km/s) = 7.37902 7.59759 7.48910
#
# Compressibility (1/GPa) = 0.01389738
#
# Stress axis : x y z
#
# Youngs Moduli (GPa) = 112.69872 107.77819 81.62440
#
# Poissons Ratio (x) = 0.26423 0.25075
# Poissons Ratio (y) = 0.27630 0.22276
# Poissons Ratio (z) = 0.34621 0.29414
#
# Static dielectric constant tensor:
#      x y z
#    x 4.876510 0.000000 0.144800 
#    y 0.000000 3.389850 0.000000 
#    z 0.144800 0.000000 2.463500 
# 
# 
# High freq. dielectric constant tensor:
#      x y z
#    x 1.955070 0.000000 -0.000960 
#    y 0.000000 1.919660 0.000000 
#    z -0.000960 0.000000 1.938210 
# 
# From -- ./inp_files/131783.got.cif
#   From: 2010.06.25/outbox.cif.g09.slc.cpg/sg15_66_cif.got.tgz:131783.got - 2010.06.28 07:06:18.
