data_PCOD8154584
_publ_section_title
;
Structure prediction by ZEFSAII (Michael W. Deem and Ramdas Pophale) SiO2 
 PCOD8154584
Probable space group: C 2/C
;
_chemical_formula_sum "Si O2"
_cell_formula_units_Z 60
_cell_length_a 12.065685
_cell_length_b 19.276261
_cell_length_c 19.554907
_cell_angle_alpha 90.000000
_cell_angle_beta 139.335983
_cell_angle_gamma 90.000000
_cell_volume 2963.646324
_symmetry_space_group_name_H-M "C 2/C"
_symmetry_group_IT_number 15
_symmetry_cell_setting 'monoclinic'
loop_
_space_group_symop_operation_xyz
x,y,z
-x,y,1/2-z
-x,-y,-z
x,-y,1/2+z
1/2+x,1/2+y,z
1/2-x,1/2+y,1/2-z
1/2-x,1/2-y,-z
1/2+x,1/2-y,1/2+z
loop_
_atom_site_type_symbol
_atom_site_label
_atom_site_fract_x
_atom_site_fract_y
_atom_site_fract_z
Si Si1 0.740301 0.418853 0.410369
Si Si2 0.123693 0.190065 0.465677
Si Si3 0.814097 0.669954 0.688652
Si Si4 0.500000 0.686470 0.750000
Si Si5 0.255321 0.773165 0.728238
Si Si6 0.250642 0.074640 0.437655
Si Si7 0.398647 0.904929 0.860635
Si Si8 0.887511 0.440187 0.332649
O O1 0.589737 0.362923 0.349428
O O2 0.678843 0.495973 0.403404
O O3 0.782171 0.417593 0.349522
O O4 0.901875 0.395800 0.530234
O O5 0.250000 0.250000 0.500000
O O6 0.186192 0.158181 0.566319
O O7 0.113814 0.127738 0.405324
O O8 0.937123 0.221219 0.388676
O O9 0.739160 0.732190 0.698262
O O10 0.820804 0.599049 0.734790
O O11 0.000000 0.692186 0.750000
O O12 0.359094 0.734179 0.718556
O O13 0.339613 0.847696 0.779467
O O14 0.292155 0.099138 0.380646
O O15 0.416585 0.079233 0.562899
O O16 0.367289 0.978358 0.809474
#
# Coordination Sequence:
#
# PCOD8154584 Si02
#       8
#     8   8   8   4   8   8   8   8
#     4   9  20  40  66  91 123 171 227 266 301 397
#     4  12  24  39  64 105 136 159 218 274 334 396
#     4  12  22  39  70  95 131 174 203 271 341 386
#     4  12  26  44  62  86 132 178 226 268 316 394
#     4  12  27  43  61  96 131 175 220 268 328 391
#     4   9  18  36  69 100 124 160 215 276 324 379
#     4   9  21  39  67  92 129 170 212 269 326 389
#     4   9  17  40  64  97 125 166 215 259 331 387
#
# _framework density 20.245329999999999
#
# number of rings (size 3 to 8) (size 9 to 14) (size 15 to 20)
#    0.000    1.600    4.000    2.400    3.733    2.667 
#    1.200    0.667    0.000    0.000    0.000    0.000 
#    0.000    0.000    0.000    0.000    0.000    0.000 
#
# Total GULP energy -372077.294620 kJ/mol
# GULP energy per Si atom -12402.576487 kJ/mol
# Density = 2.019925 g / cm^3
# Si number density = 20.245330 Si / 1000 Ang^3
#
#
#
# Elastic Constant Matrix: (Units=GPa)
#
#
# Indices 1 2 3 4 5 6 
#
# 1 76.6195 48.8651 33.6663 -0.0002 10.9974 -0.0001
# 2 48.8651 136.3234 56.8848 -0.0002 4.5718 -0.0001
# 3 33.6663 56.8848 102.4583 -0.0015 3.3822 -0.0005
# 4 -0.0002 -0.0002 -0.0015 34.9647 -0.0004 0.2314
# 5 10.9974 4.5718 3.3822 -0.0004 31.7668 -0.0001
# 6 -0.0001 -0.0001 -0.0005 0.2314 -0.0001 34.0812
#
#
#
# Elastic Compliance Matrix: (Units=1/GPa)
#
#
# Indices 1 2 3 4 5 6 
#
# 1 0.018437 -0.005175 -0.003010 0.000000 -0.005318 0.000000
# 2 -0.005175 0.011021 -0.004441 0.000000 0.000678 0.000000
# 3 -0.003010 -0.004441 0.013205 0.000001 0.000275 0.000000
# 4 0.000000 0.000000 0.000001 0.028602 0.000000 -0.000194
# 5 -0.005318 0.000678 0.000275 0.000000 0.033194 0.000000
# 6 0.000000 0.000000 0.000000 -0.000194 0.000000 0.029343
#
#
# Mechanical properties :
#
#
# Convention : Reuss Voigt Hill
#
# Bulk Modulus (GPa) = 57.42755 66.02594 61.72674
# Shear Modulus (GPa) = 30.32944 31.89486 31.11215
#
# Velocity S-wave (km/s) = 3.87472 3.97346 3.92440
# Velocity P-wave (km/s) = 6.96027 7.33041 7.14774
#
# Compressibility (1/GPa) = 0.01741325
#
# Stress axis : x y z
#
# Youngs Moduli (GPa) = 54.23742 90.73893 75.72633
#
# Poissons Ratio (x) = 0.46954 0.22792
# Poissons Ratio (y) = 0.28066 0.33628
# Poissons Ratio (z) = 0.16324 0.40295
#
# Static dielectric constant tensor:
#      x y z
#    x 3.489170 0.000000 0.074060 
#    y 0.000000 3.800800 0.000000 
#    z 0.074060 0.000000 3.572880 
# 
# 
# High freq. dielectric constant tensor:
#      x y z
#    x 1.767410 0.000000 0.006520 
#    y 0.000000 1.804080 0.000000 
#    z 0.006520 0.000000 1.785290 
# 
# From -- ./inp_files/239987.got.cif
#   From: 2010.06.25/outbox.cif.g09.slc.cpg/sg15_120_cif.got.tgz:239987.got - 2010.06.28 07:06:18.
