data_PCOD8154418
_publ_section_title
;
Structure prediction by ZEFSAII (Michael W. Deem and Ramdas Pophale) SiO2 
 PCOD8154418
Probable space group: C 2/C
;
_chemical_formula_sum "Si O2"
_cell_formula_units_Z 40
_cell_length_a 18.232614
_cell_length_b 8.420580
_cell_length_c 11.196693
_cell_angle_alpha 90.000000
_cell_angle_beta 88.543121
_cell_angle_gamma 90.000000
_cell_volume 1718.463463
_symmetry_space_group_name_H-M "C 2/C"
_symmetry_group_IT_number 15
_symmetry_cell_setting 'monoclinic'
loop_
_space_group_symop_operation_xyz
x,y,z
-x,y,1/2-z
-x,-y,-z
x,-y,1/2+z
1/2+x,1/2+y,z
1/2-x,1/2+y,1/2-z
1/2-x,1/2-y,-z
1/2+x,1/2-y,1/2+z
loop_
_atom_site_type_symbol
_atom_site_label
_atom_site_fract_x
_atom_site_fract_y
_atom_site_fract_z
Si Si1 0.508233 0.886801 0.118223
Si Si2 0.685668 0.331208 0.343119
Si Si3 0.071086 0.074123 0.439135
Si Si4 0.823099 0.743426 0.422894
Si Si5 0.662396 0.100922 0.555259
O O1 0.500000 0.974377 0.250000
O O2 0.451605 0.738422 0.124491
O O3 0.591132 0.813046 0.114374
O O4 0.500000 0.000000 0.000000
O O5 0.616483 0.453018 0.351679
O O6 0.692884 0.253556 0.215030
O O7 0.677525 0.179994 0.428330
O O8 0.764355 0.410187 0.367430
O O9 0.125963 0.108795 0.545634
O O10 0.000000 0.000000 0.500000
O O11 0.750000 0.750000 0.500000
O O12 0.864010 0.581071 0.457901
#
# Coordination Sequence:
#
# PCOD8154418 Si02
#       5
#     8   8   8   8   8
#     4  12  29  47  79 112 155 202 260 320 394 463
#     4  11  28  47  78 111 156 196 261 317 386 464
#     4  12  27  49  74 117 154 203 257 325 395 459
#     4  12  28  46  79 111 154 201 255 317 393 465
#     4  11  26  49  74 109 150 201 252 316 382 462
#
# _framework density 23.276608
#
# number of rings (size 3 to 8) (size 9 to 14) (size 15 to 20)
#    0.000    0.400    6.000    0.000   11.200    0.000 
#    0.000    0.000    0.000    0.000    0.000    0.000 
#    0.000    0.000    0.000    0.000    0.000    0.000 
#
# Total GULP energy -247821.429403 kJ/mol
# GULP energy per Si atom -12391.071470 kJ/mol
# Density = 2.322363 g / cm^3
# Si number density = 23.276608 Si / 1000 Ang^3
#
#
#
# Elastic Constant Matrix: (Units=GPa)
#
#
# Indices 1 2 3 4 5 6 
#
# 1 166.1455 36.1055 55.1656 0.0000 -16.1924 0.0000
# 2 36.1055 112.9894 56.7302 0.0000 3.8869 0.0000
# 3 55.1656 56.7302 163.0015 0.0000 -2.7169 0.0000
# 4 0.0000 0.0000 0.0000 30.3738 0.0000 -1.8169
# 5 -16.1924 3.8869 -2.7169 0.0000 18.8270 0.0000
# 6 0.0000 0.0000 0.0000 -1.8169 0.0000 37.5834
#
#
#
# Elastic Compliance Matrix: (Units=1/GPa)
#
#
# Indices 1 2 3 4 5 6 
#
# 1 0.007672 -0.001738 -0.001880 0.000000 0.006686 0.000000
# 2 -0.001738 0.011263 -0.003404 0.000000 -0.004311 0.000000
# 3 -0.001880 -0.003404 0.007960 0.000000 0.000234 0.000000
# 4 0.000000 0.000000 0.000000 0.033019 0.000000 0.001596
# 5 0.006686 -0.004311 0.000234 0.000000 0.059789 0.000000
# 6 0.000000 0.000000 0.000000 0.001596 0.000000 0.026685
#
#
# Mechanical properties :
#
#
# Convention : Reuss Voigt Hill
#
# Bulk Modulus (GPa) = 77.81053 82.01545 79.91299
# Shear Modulus (GPa) = 30.35549 36.96587 33.66068
#
# Velocity S-wave (km/s) = 3.61518 3.98944 3.80691
# Velocity P-wave (km/s) = 7.13633 7.51881 7.33006
#
# Compressibility (1/GPa) = 0.01285173
#
# Stress axis : x y z
#
# Youngs Moduli (GPa) = 130.33727 88.78760 125.63107
#
# Poissons Ratio (x) = 0.15427 0.23624
# Poissons Ratio (y) = 0.22647 0.42761
# Poissons Ratio (z) = 0.24509 0.30220
#
# Static dielectric constant tensor:
#      x y z
#    x 5.558650 0.000000 0.133230 
#    y 0.000000 4.226730 0.000000 
#    z 0.133230 0.000000 3.998590 
# 
# 
# High freq. dielectric constant tensor:
#      x y z
#    x 1.951700 0.000000 -0.004450 
#    y 0.000000 1.919000 0.000000 
#    z -0.004450 0.000000 1.911970 
# 
# From -- ./inp_files/102696.got.cif
#   From: 2010.06.25/outbox.cif.g09.slc.cpg/sg15_52_cif.got.tgz:102696.got - 2010.06.28 07:06:18.
