data_PCOD8154082
_publ_section_title
;
Structure prediction by ZEFSAII (Michael W. Deem and Ramdas Pophale) SiO2 
 PCOD8154082
Probable space group: C 2/C
;
_chemical_formula_sum "Si O2"
_cell_formula_units_Z 44
_cell_length_a 22.250885
_cell_length_b 17.621916
_cell_length_c 14.988697
_cell_angle_alpha 90.000000
_cell_angle_beta 19.959398
_cell_angle_gamma 90.000000
_cell_volume 2006.178121
_symmetry_space_group_name_H-M "C 2/C"
_symmetry_group_IT_number 15
_symmetry_cell_setting 'monoclinic'
loop_
_space_group_symop_operation_xyz
x,y,z
-x,y,1/2-z
-x,-y,-z
x,-y,1/2+z
1/2+x,1/2+y,z
1/2-x,1/2+y,1/2-z
1/2-x,1/2-y,-z
1/2+x,1/2-y,1/2+z
loop_
_atom_site_type_symbol
_atom_site_label
_atom_site_fract_x
_atom_site_fract_y
_atom_site_fract_z
Si Si1 0.475595 0.071115 0.600306
Si Si2 0.087909 0.212463 0.776174
Si Si3 0.140844 0.067137 0.803677
Si Si4 0.153891 0.155919 0.967234
Si Si5 0.000000 0.504269 0.750000
Si Si6 0.800646 0.291224 0.710667
O O1 0.333488 0.128615 0.760662
O O2 0.416841 0.050057 0.782915
O O3 0.657765 0.119050 0.356060
O O4 0.500000 0.000000 0.500000
O O5 0.250000 0.250000 0.500000
O O6 0.111225 0.122781 0.760951
O O7 0.074386 0.256281 0.888316
O O8 0.905455 0.221457 0.976479
O O9 0.115701 0.110157 0.930931
O O10 0.343440 0.042488 0.514062
O O11 0.000000 0.000000 0.000000
O O12 0.162927 0.245962 0.932520
O O13 0.000000 0.138582 0.250000
#
# Coordination Sequence:
#
# PCOD8154082 Si02
#       6
#     8   8   8   8   4   8
#     4  12  26  48  74 108 152 195 250 310 381 451
#     4  11  25  43  73 105 149 195 254 310 380 449
#     4  11  25  46  69 108 148 195 257 314 382 460
#     4  11  25  47  72 103 150 192 252 313 372 451
#     4  12  26  44  80 100 150 196 248 312 388 434
#     4  11  25  47  71 106 149 195 250 307 378 454
#
# _framework density 21.93225
#
# number of rings (size 3 to 8) (size 9 to 14) (size 15 to 20)
#    0.000    0.727    3.636    2.727    8.909    2.182 
#    0.000    0.000    0.000    0.000    0.000    0.000 
#    0.000    0.000    0.000    0.000    0.000    0.000 
#
# Total GULP energy -272738.630765 kJ/mol
# GULP energy per Si atom -12397.210489 kJ/mol
# Density = 2.188233 g / cm^3
# Si number density = 21.932250 Si / 1000 Ang^3
#
#
#
# Elastic Constant Matrix: (Units=GPa)
#
#
# Indices 1 2 3 4 5 6 
#
# 1 101.7307 52.3611 33.2780 -0.0079 4.3107 0.0006
# 2 52.3611 147.0208 61.6197 -0.0085 3.5119 0.0023
# 3 33.2780 61.6197 148.9543 -0.0174 -2.8386 0.0068
# 4 -0.0079 -0.0085 -0.0174 27.3820 0.0089 0.4754
# 5 4.3107 3.5119 -2.8386 0.0089 40.5396 -0.0024
# 6 0.0006 0.0023 0.0068 0.4754 -0.0024 40.3695
#
#
#
# Elastic Compliance Matrix: (Units=1/GPa)
#
#
# Indices 1 2 3 4 5 6 
#
# 1 0.012233 -0.003845 -0.001163 0.000002 -0.001049 0.000000
# 2 -0.003845 0.009474 -0.003072 0.000000 -0.000627 0.000000
# 3 -0.001163 -0.003072 0.008263 0.000004 0.000968 -0.000001
# 4 0.000002 0.000000 0.000004 0.036528 -0.000008 -0.000430
# 5 -0.001049 -0.000627 0.000968 -0.000008 0.024901 0.000001
# 6 0.000000 0.000000 -0.000001 -0.000430 0.000001 0.024776
#
#
# Mechanical properties :
#
#
# Convention : Reuss Voigt Hill
#
# Bulk Modulus (GPa) = 72.40620 76.91371 74.65996
# Shear Modulus (GPa) = 36.51321 38.35468 37.43394
#
# Velocity S-wave (km/s) = 4.08464 4.18638 4.13582
# Velocity P-wave (km/s) = 7.43848 7.64935 7.54465
#
# Compressibility (1/GPa) = 0.01381097
#
# Stress axis : x y z
#
# Youngs Moduli (GPa) = 81.74297 105.55722 121.02826
#
# Poissons Ratio (x) = 0.40582 0.14071
# Poissons Ratio (y) = 0.31427 0.37181
# Poissons Ratio (z) = 0.09504 0.32428
#
# Static dielectric constant tensor:
#      x y z
#    x 4.227280 0.000000 -0.012710 
#    y 0.000000 4.198840 -0.000030 
#    z -0.012710 -0.000030 3.670530 
# 
# 
# High freq. dielectric constant tensor:
#      x y z
#    x 1.875630 0.000000 -0.008030 
#    y 0.000000 1.869280 0.000000 
#    z -0.008030 0.000000 1.861040 
# 
# From -- ./inp_files/174172.got.cif
#   From: 2010.06.25/outbox.cif.g09.slc.cpg/sg15_88_cif.got.tgz:174172.got - 2010.06.28 07:06:18.
