data_PCOD8154202
_publ_section_title
;
Structure prediction by ZEFSAII (Michael W. Deem and Ramdas Pophale) SiO2 
 PCOD8154202
Probable space group: C 2/C
;
_chemical_formula_sum "Si O2"
_cell_formula_units_Z 40
_cell_length_a 10.445088
_cell_length_b 20.516237
_cell_length_c 13.510195
_cell_angle_alpha 90.000000
_cell_angle_beta 143.823522
_cell_angle_gamma 90.000000
_cell_volume 1708.934140
_symmetry_space_group_name_H-M "C 2/C"
_symmetry_group_IT_number 15
_symmetry_cell_setting 'monoclinic'
loop_
_space_group_symop_operation_xyz
x,y,z
-x,y,1/2-z
-x,-y,-z
x,-y,1/2+z
1/2+x,1/2+y,z
1/2-x,1/2+y,1/2-z
1/2-x,1/2-y,-z
1/2+x,1/2-y,1/2+z
loop_
_atom_site_type_symbol
_atom_site_label
_atom_site_fract_x
_atom_site_fract_y
_atom_site_fract_z
Si Si1 0.500000 0.417303 0.250000
Si Si2 0.771293 0.136000 0.319755
Si Si3 0.149227 0.178985 0.439507
Si Si4 0.500000 0.086791 0.750000
Si Si5 0.820304 0.676665 0.025913
Si Si6 0.297052 0.005922 0.798122
O O1 0.697770 0.365903 0.369522
O O2 0.422651 0.462954 0.292097
O O3 0.570635 0.177594 0.149808
O O4 0.731562 0.132114 0.411275
O O5 0.989650 0.175727 0.433975
O O6 0.782757 0.065281 0.280113
O O7 0.250000 0.250000 0.500000
O O8 0.345028 0.128712 0.580663
O O9 0.000000 0.162367 0.250000
O O10 0.358951 0.042848 0.736029
O O11 0.750000 0.750000 0.000000
O O12 0.500000 0.000000 0.000000
#
# Coordination Sequence:
#
# PCOD8154202 Si02
#       6
#     4   8   8   4   8   8
#     4  12  26  44  76 112 146 204 252 312 386 458
#     4  11  26  47  72 105 147 193 245 313 381 444
#     4  12  28  49  76 111 157 202 257 316 385 470
#     4  12  28  50  82 116 152 212 254 322 394 460
#     4  11  25  46  73 106 145 192 249 313 376 451
#     4  12  27  49  78 112 159 198 263 318 386 466
#
# _framework density 23.406402
#
# number of rings (size 3 to 8) (size 9 to 14) (size 15 to 20)
#    0.000    0.400    3.000    4.800    7.000    3.200 
#    0.000    0.000    0.000    0.000    0.000    0.000 
#    0.000    0.000    0.000    0.000    0.000    0.000 
#
# Total GULP energy -247822.718147 kJ/mol
# GULP energy per Si atom -12391.135907 kJ/mol
# Density = 2.335313 g / cm^3
# Si number density = 23.406402 Si / 1000 Ang^3
#
#
#
# Elastic Constant Matrix: (Units=GPa)
#
#
# Indices 1 2 3 4 5 6 
#
# 1 130.6133 62.3161 8.4689 -0.0065 18.7628 -0.0012
# 2 62.3161 180.2359 38.7187 -0.0008 11.5685 -0.0001
# 3 8.4689 38.7187 92.2292 -0.0118 4.9719 -0.0023
# 4 -0.0065 -0.0008 -0.0118 313.3180 -0.0079 58.9849
# 5 18.7628 11.5685 4.9719 -0.0079 44.6926 -0.0015
# 6 -0.0012 -0.0001 -0.0023 58.9849 -0.0015 54.0628
#
#
#
# Elastic Compliance Matrix: (Units=1/GPa)
#
#
# Indices 1 2 3 4 5 6 
#
# 1 0.009642 -0.003266 0.000662 0.000000 -0.003276 0.000000
# 2 -0.003266 0.007280 -0.002745 0.000000 -0.000208 0.000000
# 3 0.000662 -0.002745 0.011983 0.000000 -0.000900 0.000000
# 4 0.000000 0.000000 0.000000 0.004017 0.000000 -0.004382
# 5 -0.003276 -0.000208 -0.000900 0.000000 0.023905 0.000000
# 6 0.000000 0.000000 0.000000 -0.004382 0.000000 0.023278
#
#
# Mechanical properties :
#
#
# Convention : Reuss Voigt Hill
#
# Bulk Modulus (GPa) = 54.92191 69.12066 62.02128
# Shear Modulus (GPa) = 51.61474 101.98634 76.80054
#
# Velocity S-wave (km/s) = 4.70100 6.60807 5.73437
# Velocity P-wave (km/s) = 7.27883 9.37107 8.39042
#
# Compressibility (1/GPa) = 0.01820767
#
# Stress axis : x y z
#
# Youngs Moduli (GPa) = 103.71363 137.35340 83.45294
#
# Poissons Ratio (x) = 0.44855 -0.05526
# Poissons Ratio (y) = 0.33869 0.22911
# Poissons Ratio (z) = -0.06868 0.37708
#
# Static dielectric constant tensor:
#      x y z
#    x 4.433860 0.000000 0.435080 
#    y 0.000000 4.290660 0.000000 
#    z 0.435080 0.000000 5.389160 
# 
# 
# High freq. dielectric constant tensor:
#      x y z
#    x 1.936280 0.000000 0.012940 
#    y 0.000000 1.940390 0.000000 
#    z 0.012940 0.000000 1.932680 
# 
# From -- ./inp_files/145885.got.cif
#   From: 2010.06.25/outbox.cif.g09.slc.cpg/sg15_73_cif.got.tgz:145885.got - 2010.06.28 07:06:18.
