data_PCOD8154203
_publ_section_title
;
Structure prediction by ZEFSAII (Michael W. Deem and Ramdas Pophale) SiO2 
 PCOD8154203
Probable space group: C 2/C
;
_chemical_formula_sum "Si O2"
_cell_formula_units_Z 32
_cell_length_a 7.116574
_cell_length_b 7.293776
_cell_length_c 30.366976
_cell_angle_alpha 90.000000
_cell_angle_beta 124.809959
_cell_angle_gamma 90.000000
_cell_volume 1294.179574
_symmetry_space_group_name_H-M "C 2/C"
_symmetry_group_IT_number 15
_symmetry_cell_setting 'monoclinic'
loop_
_space_group_symop_operation_xyz
x,y,z
-x,y,1/2-z
-x,-y,-z
x,-y,1/2+z
1/2+x,1/2+y,z
1/2-x,1/2+y,1/2-z
1/2-x,1/2-y,-z
1/2+x,1/2-y,1/2+z
loop_
_atom_site_type_symbol
_atom_site_label
_atom_site_fract_x
_atom_site_fract_y
_atom_site_fract_z
Si Si1 0.910600 0.618012 0.608978
Si Si2 0.978270 0.362256 0.536900
Si Si3 0.594915 0.378032 0.309843
Si Si4 0.174936 0.305147 0.309633
O O1 0.710671 0.746107 0.563601
O O2 0.841705 0.562109 0.649832
O O3 0.952083 0.449143 0.581688
O O4 0.158985 0.715896 0.647493
O O5 0.000000 0.500000 0.500000
O O6 0.750000 0.250000 0.500000
O O7 0.500000 0.311371 0.250000
O O8 0.431767 0.308527 0.326532
O O9 0.611366 0.598084 0.314058
O O10 0.000000 0.385096 0.250000
#
# Coordination Sequence:
#
# PCOD8154203 Si02
#       4
#     8   8   8   8
#     4  12  26  52  79 110 150 202 239 315 382 430
#     4  12  30  52  78 106 146 196 266 317 364 428
#     4  11  25  46  73 113 154 195 239 294 370 465
#     4  11  25  46  73 113 154 195 239 294 370 465
#
# _framework density 24.726087
#
# number of rings (size 3 to 8) (size 9 to 14) (size 15 to 20)
#    0.000    0.500    5.000    1.500    3.500    6.000 
#    0.000    0.000    0.000    0.000    0.000    0.000 
#    0.000    0.000    0.000    0.000    0.000    0.000 
#
# Total GULP energy -198359.768820 kJ/mol
# GULP energy per Si atom -12397.485551 kJ/mol
# Density = 2.466981 g / cm^3
# Si number density = 24.726087 Si / 1000 Ang^3
#
#
#
# Elastic Constant Matrix: (Units=GPa)
#
#
# Indices 1 2 3 4 5 6 
#
# 1 163.8894 11.3613 46.2687 0.0000 32.2219 0.0000
# 2 11.3613 43.8558 5.9060 0.0000 13.5855 0.0000
# 3 46.2687 5.9060 143.1842 0.0000 26.7479 0.0000
# 4 0.0000 0.0000 0.0000 -9.4081 0.0000 -2.4245
# 5 32.2219 13.5855 26.7479 0.0000 67.9692 0.0000
# 6 0.0000 0.0000 0.0000 -2.4245 0.0000 44.8203
#
#
#
# Elastic Compliance Matrix: (Units=1/GPa)
#
#
# Indices 1 2 3 4 5 6 
#
# 1 0.007166 -0.000832 -0.001811 0.000000 -0.002518 0.000000
# 2 -0.000832 0.024405 0.000108 0.000000 -0.004526 0.000000
# 3 -0.001811 0.000108 0.007996 0.000000 -0.002310 0.000000
# 4 0.000000 0.000000 0.000000 -0.104830 0.000000 -0.005671
# 5 -0.002518 -0.004526 -0.002310 0.000000 0.017720 0.000000
# 6 0.000000 0.000000 0.000000 -0.005671 0.000000 0.022005
#
#
# Mechanical properties :
#
#
# Convention : Reuss Voigt Hill
#
# Bulk Modulus (GPa) = 28.98881 53.11130 41.05006
# Shear Modulus (GPa) = -557.48147 39.83583 -258.82282
#
# Velocity S-wave (km/s) = -15.03171 4.01819 -10.24223
# Velocity P-wave (km/s) = 17.01530 6.56157 11.10104
#
# Compressibility (1/GPa) = 0.03449607
#
# Stress axis : x y z
#
# Youngs Moduli (GPa) = 139.55438 40.97498 125.05935
#
# Poissons Ratio (x) = 0.03411 0.22646
# Poissons Ratio (y) = 0.11617 -0.01348
# Poissons Ratio (z) = 0.25271 -0.00442
#
# Static dielectric constant tensor:
#      x y z
#    x 4.781660 0.000000 0.126860 
#    y 0.000000 4.102500 0.000000 
#    z 0.126860 0.000000 5.260710 
# 
# 
# High freq. dielectric constant tensor:
#      x y z
#    x 2.011750 0.000000 0.004570 
#    y 0.000000 1.961620 0.000000 
#    z 0.004570 0.000000 2.007290 
# 
# From -- ./inp_files/304685.got.cif
#   From: 2010.06.25/outbox.cif.g09.slc.cpg/sg15_153_cif.got.tgz:304685.got - 2010.06.28 07:06:18.
