data_PCOD8154530
_publ_section_title
;
Structure prediction by ZEFSAII (Michael W. Deem and Ramdas Pophale) SiO2 
 PCOD8154530
Probable space group: C 2/C
;
_chemical_formula_sum "Si O2"
_cell_formula_units_Z 48
_cell_length_a 13.663057
_cell_length_b 32.437878
_cell_length_c 13.408982
_cell_angle_alpha 90.000000
_cell_angle_beta 21.223371
_cell_angle_gamma 90.000000
_cell_volume 2151.347152
_symmetry_space_group_name_H-M "C 2/C"
_symmetry_group_IT_number 15
_symmetry_cell_setting 'monoclinic'
loop_
_space_group_symop_operation_xyz
x,y,z
-x,y,1/2-z
-x,-y,-z
x,-y,1/2+z
1/2+x,1/2+y,z
1/2-x,1/2+y,1/2-z
1/2-x,1/2-y,-z
1/2+x,1/2-y,1/2+z
loop_
_atom_site_type_symbol
_atom_site_label
_atom_site_fract_x
_atom_site_fract_y
_atom_site_fract_z
Si Si1 0.929885 0.398471 0.627784
Si Si2 0.500000 0.599277 0.250000
Si Si3 0.348650 0.724883 0.681407
Si Si4 0.221297 0.489763 0.712274
Si Si5 0.000000 0.454948 0.250000
Si Si6 0.383062 0.634642 0.571059
Si Si7 0.000000 0.351515 0.750000
Si Si8 0.000000 0.200601 0.750000
O O1 0.808770 0.441558 0.780286
O O2 0.160464 0.398876 0.322094
O O3 0.081143 0.378675 0.578090
O O4 0.677256 0.370821 0.837362
O O5 0.234204 0.572043 0.472462
O O6 0.409282 0.628140 0.427652
O O7 0.608666 0.744066 0.381616
O O8 0.282665 0.680136 0.697411
O O9 0.367817 0.725930 0.784552
O O10 0.500000 0.500000 0.500000
O O11 0.173291 0.516496 0.659383
O O12 0.000000 0.500000 0.000000
O O13 0.264033 0.325449 0.526713
#
# Coordination Sequence:
#
# PCOD8154530 Si02
#       8
#     8   4   8   8   4   8   4   4
#     4  12  23  42  67  95 138 174 219 278 333 414
#     4  12  26  46  73  93 128 185 241 299 338 397
#     4  12  24  42  66 100 139 173 216 281 347 417
#     4  12  25  42  66  99 135 179 226 282 349 405
#     4  12  25  46  68 102 138 178 236 293 351 410
#     4  12  25  45  68  98 130 178 238 278 337 404
#     4  12  21  39  64  98 130 173 213 260 330 406
#     4  12  22  41  63  99 136 170 216 254 329 429
#
# _framework density 22.311601
#
# number of rings (size 3 to 8) (size 9 to 14) (size 15 to 20)
#    0.000    0.000    3.333    9.000    0.000    0.000 
#    0.000    5.833    0.000    0.000    0.000    0.000 
#    0.000    0.000    0.000    0.000    0.000    0.000 
#
# Total GULP energy -297615.019732 kJ/mol
# GULP energy per Si atom -12400.625822 kJ/mol
# Density = 2.226082 g / cm^3
# Si number density = 22.311601 Si / 1000 Ang^3
#
#
#
# Elastic Constant Matrix: (Units=GPa)
#
#
# Indices 1 2 3 4 5 6 
#
# 1 102.8661 37.4589 36.7353 0.0002 0.2821 0.0010
# 2 37.4589 96.2508 29.8853 0.0005 -0.2918 0.0003
# 3 36.7353 29.8853 142.0047 0.0006 -7.6254 0.0067
# 4 0.0002 0.0005 0.0006 42.7153 0.0001 10.9208
# 5 0.2821 -0.2918 -7.6254 0.0001 39.9010 -0.0015
# 6 0.0010 0.0003 0.0067 10.9208 -0.0015 49.8444
#
#
#
# Elastic Compliance Matrix: (Units=1/GPa)
#
#
# Indices 1 2 3 4 5 6 
#
# 1 0.011982 -0.003952 -0.002298 0.000000 -0.000553 0.000000
# 2 -0.003952 0.012424 -0.001603 0.000000 -0.000187 0.000000
# 3 -0.002298 -0.001603 0.008057 0.000000 0.001544 -0.000001
# 4 0.000000 0.000000 0.000000 0.024800 0.000000 -0.005434
# 5 -0.000553 -0.000187 0.001544 0.000000 0.025360 0.000001
# 6 0.000000 0.000000 -0.000001 -0.005434 0.000001 0.021253
#
#
# Mechanical properties :
#
#
# Convention : Reuss Voigt Hill
#
# Bulk Modulus (GPa) = 59.66736 61.03119 60.34928
# Shear Modulus (GPa) = 39.94678 42.29495 41.12086
#
# Velocity S-wave (km/s) = 4.23591 4.35863 4.29771
# Velocity P-wave (km/s) = 7.12213 7.26248 7.19264
#
# Compressibility (1/GPa) = 0.01675958
#
# Stress axis : x y z
#
# Youngs Moduli (GPa) = 83.45543 80.48671 124.12138
#
# Poissons Ratio (x) = 0.31805 0.28521
# Poissons Ratio (y) = 0.32978 0.19892
# Poissons Ratio (z) = 0.19176 0.12899
#
# Static dielectric constant tensor:
#      x y z
#    x 3.763730 0.000000 -0.023470 
#    y 0.000000 3.704780 -0.000010 
#    z -0.023470 -0.000010 4.161030 
# 
# 
# High freq. dielectric constant tensor:
#      x y z
#    x 1.864660 0.000000 -0.005910 
#    y 0.000000 1.879830 0.000000 
#    z -0.005910 0.000000 1.903260 
# 
# From -- ./inp_files/157686.got.cif
#   From: 2010.06.25/outbox.cif.g09.slc.cpg/sg15_79_cif.got.tgz:157686.got - 2010.06.28 07:06:18.
