data_PCOD8154096
_publ_section_title
;
Structure prediction by ZEFSAII (Michael W. Deem and Ramdas Pophale) SiO2 
 PCOD8154096
Probable space group: C 2/C
;
_chemical_formula_sum "Si O2"
_cell_formula_units_Z 32
_cell_length_a 14.352481
_cell_length_b 9.696258
_cell_length_c 10.378121
_cell_angle_alpha 90.000000
_cell_angle_beta 66.089392
_cell_angle_gamma 90.000000
_cell_volume 1320.325711
_symmetry_space_group_name_H-M "C 2/C"
_symmetry_group_IT_number 15
_symmetry_cell_setting 'monoclinic'
loop_
_space_group_symop_operation_xyz
x,y,z
-x,y,1/2-z
-x,-y,-z
x,-y,1/2+z
1/2+x,1/2+y,z
1/2-x,1/2+y,1/2-z
1/2-x,1/2-y,-z
1/2+x,1/2-y,1/2+z
loop_
_atom_site_type_symbol
_atom_site_label
_atom_site_fract_x
_atom_site_fract_y
_atom_site_fract_z
Si Si1 0.519820 0.702499 0.397447
Si Si2 0.334779 0.864225 0.434200
Si Si3 0.811081 0.585165 0.663503
Si Si4 0.082648 0.091041 0.799183
O O1 0.443788 0.790562 0.347461
O O2 0.609651 0.792671 0.410395
O O3 0.440623 0.645214 0.546533
O O4 0.574355 0.575364 0.295013
O O5 0.250000 0.750000 0.500000
O O6 0.313631 0.952960 0.315401
O O7 0.342723 0.956519 0.557742
O O8 0.696427 0.633356 0.692030
O O9 0.000000 0.159051 0.750000
#
# Coordination Sequence:
#
# PCOD8154096 Si02
#       4
#     8   8   8   8
#     4  11  25  46  71 105 150 196 247 308 376 448
#     4  12  25  50  75 110 153 194 248 314 378 446
#     4  12  26  45  80 106 148 197 252 305 381 446
#     4  11  25  44  70 105 148 201 247 306 374 447
#
# _framework density 24.236442
#
# number of rings (size 3 to 8) (size 9 to 14) (size 15 to 20)
#    0.000    0.500    2.500    6.000    3.500    3.000 
#    0.000    0.000    0.000    0.000    0.000    0.000 
#    0.000    0.000    0.000    0.000    0.000    0.000 
#
# Total GULP energy -198407.302884 kJ/mol
# GULP energy per Si atom -12400.456430 kJ/mol
# Density = 2.418128 g / cm^3
# Si number density = 24.236442 Si / 1000 Ang^3
#
#
#
# Elastic Constant Matrix: (Units=GPa)
#
#
# Indices 1 2 3 4 5 6 
#
# 1 189.2226 55.1528 37.1925 0.0000 -18.9467 0.0000
# 2 55.1528 91.4782 45.2056 0.0000 -0.6716 0.0000
# 3 37.1925 45.2056 114.8546 0.0000 5.4441 0.0000
# 4 0.0000 0.0000 0.0000 33.4813 0.0000 5.3605
# 5 -18.9467 -0.6716 5.4441 0.0000 56.6624 0.0000
# 6 0.0000 0.0000 0.0000 5.3605 0.0000 44.8028
#
#
#
# Elastic Compliance Matrix: (Units=1/GPa)
#
#
# Indices 1 2 3 4 5 6 
#
# 1 0.006739 -0.003618 -0.000867 0.000000 0.002294 0.000000
# 2 -0.003618 0.015539 -0.004918 0.000000 -0.000553 0.000000
# 3 -0.000867 -0.004918 0.010990 0.000000 -0.001404 0.000000
# 4 0.000000 0.000000 0.000000 0.030451 0.000000 -0.003643
# 5 0.002294 -0.000553 -0.001404 0.000000 0.018544 0.000000
# 6 0.000000 0.000000 0.000000 -0.003643 0.000000 0.022756
#
#
# Mechanical properties :
#
#
# Convention : Reuss Voigt Hill
#
# Bulk Modulus (GPa) = 69.14783 74.51747 71.83265
# Shear Modulus (GPa) = 38.86630 44.18961 41.52795
#
# Velocity S-wave (km/s) = 4.00888 4.27461 4.14388
# Velocity P-wave (km/s) = 7.07253 7.42804 7.25246
#
# Compressibility (1/GPa) = 0.01446177
#
# Stress axis : x y z
#
# Youngs Moduli (GPa) = 148.38072 64.35325 90.99333
#
# Poissons Ratio (x) = 0.23282 0.07890
# Poissons Ratio (y) = 0.53682 0.44753
# Poissons Ratio (z) = 0.12867 0.31651
#
# Static dielectric constant tensor:
#      x y z
#    x 4.633030 0.000000 0.061820 
#    y 0.000000 4.145120 0.000000 
#    z 0.061820 0.000000 4.480040 
# 
# 
# High freq. dielectric constant tensor:
#      x y z
#    x 1.986280 0.000000 -0.010600 
#    y 0.000000 1.936810 0.000000 
#    z -0.010600 0.000000 1.987520 
# 
# From -- ./inp_files/83957.got.cif
#   From: 2010.06.25/outbox.cif.g09.slc.cpg/sg15_42_cif.got.tgz:83957.got - 2010.06.28 07:06:18.
