data_PCOD8154218
_publ_section_title
;
Structure prediction by ZEFSAII (Michael W. Deem and Ramdas Pophale) SiO2 
 PCOD8154218
Probable space group: C 2/C
;
_chemical_formula_sum "Si O2"
_cell_formula_units_Z 44
_cell_length_a 6.549072
_cell_length_b 18.662506
_cell_length_c 17.560111
_cell_angle_alpha 90.000000
_cell_angle_beta 102.100641
_cell_angle_gamma 90.000000
_cell_volume 2098.546167
_symmetry_space_group_name_H-M "C 2/C"
_symmetry_group_IT_number 15
_symmetry_cell_setting 'monoclinic'
loop_
_space_group_symop_operation_xyz
x,y,z
-x,y,1/2-z
-x,-y,-z
x,-y,1/2+z
1/2+x,1/2+y,z
1/2-x,1/2+y,1/2-z
1/2-x,1/2-y,-z
1/2+x,1/2-y,1/2+z
loop_
_atom_site_type_symbol
_atom_site_label
_atom_site_fract_x
_atom_site_fract_y
_atom_site_fract_z
Si Si1 0.033700 0.717794 0.958383
Si Si2 0.897292 0.019723 0.413491
Si Si3 0.804597 0.014489 0.190363
Si Si4 0.692050 0.832969 0.910100
Si Si5 0.000000 0.622009 0.250000
Si Si6 0.551327 0.908811 0.341202
O O1 0.065844 0.662133 0.892690
O O2 0.890695 0.782219 0.917776
O O3 0.250000 0.750000 0.000000
O O4 0.937252 0.681078 0.024524
O O5 0.739622 0.083393 0.416975
O O6 0.087587 0.048687 0.375720
O O7 0.767123 0.953441 0.366227
O O8 0.000000 0.000000 0.500000
O O9 0.692859 0.071675 0.237792
O O10 0.000000 0.978461 0.250000
O O11 0.643474 0.956146 0.145871
O O12 0.558373 0.823800 0.822585
O O13 0.500000 0.888009 0.250000
#
# Coordination Sequence:
#
# PCOD8154218 Si02
#       6
#     8   8   8   8   4   8
#     4  11  28  47  66  93 147 185 233 287 351 429
#     4  12  25  41  75 105 135 181 227 293 361 405
#     4  12  21  43  70 104 141 168 228 293 347 415
#     4  11  25  47  63 104 134 181 234 282 347 426
#     4  12  24  42  74 104 136 176 238 288 350 426
#     4  12  24  45  68 107 134 180 240 288 346 428
#
# _framework density 20.966898
#
# number of rings (size 3 to 8) (size 9 to 14) (size 15 to 20)
#    0.000    0.364    6.364    2.182    5.091    4.364 
#    1.636    0.000    0.000    0.000    0.000    0.000 
#    0.000    0.000    0.000    0.000    0.000    0.000 
#
# Total GULP energy -272728.722275 kJ/mol
# GULP energy per Si atom -12396.760103 kJ/mol
# Density = 2.091918 g / cm^3
# Si number density = 20.966898 Si / 1000 Ang^3
#
#
#
# Elastic Constant Matrix: (Units=GPa)
#
#
# Indices 1 2 3 4 5 6 
#
# 1 124.3726 42.1130 57.7645 0.0000 -1.8701 0.0000
# 2 42.1130 105.4340 63.0751 0.0000 -1.2372 0.0000
# 3 57.7645 63.0751 160.4719 0.0000 10.6660 0.0000
# 4 0.0000 0.0000 0.0000 45.0069 0.0000 8.3606
# 5 -1.8701 -1.2372 10.6660 0.0000 36.3558 0.0000
# 6 0.0000 0.0000 0.0000 8.3606 0.0000 21.7751
#
#
#
# Elastic Compliance Matrix: (Units=1/GPa)
#
#
# Indices 1 2 3 4 5 6 
#
# 1 0.010167 -0.002361 -0.002816 0.000000 0.001269 0.000000
# 2 -0.002361 0.013078 -0.004397 0.000000 0.001614 0.000000
# 3 -0.002816 -0.004397 0.009172 0.000000 -0.002985 0.000000
# 4 0.000000 0.000000 0.000000 0.023925 0.000000 -0.009186
# 5 0.001269 0.001614 -0.002985 0.000000 0.028502 0.000000
# 6 0.000000 0.000000 0.000000 -0.009186 0.000000 0.049451
#
#
# Mechanical properties :
#
#
# Convention : Reuss Voigt Hill
#
# Bulk Modulus (GPa) = 75.37523 79.57598 77.47560
# Shear Modulus (GPa) = 31.67228 35.78261 33.72744
#
# Velocity S-wave (km/s) = 3.89084 4.13561 4.01509
# Velocity P-wave (km/s) = 7.49750 7.79999 7.65024
#
# Compressibility (1/GPa) = 0.01326696
#
# Stress axis : x y z
#
# Youngs Moduli (GPa) = 98.35891 76.46711 109.02580
#
# Poissons Ratio (x) = 0.18057 0.30700
# Poissons Ratio (y) = 0.23227 0.47944
# Poissons Ratio (z) = 0.27697 0.33626
#
# Static dielectric constant tensor:
#      x y z
#    x 4.003160 0.000000 -0.037600 
#    y 0.000000 3.697740 0.000000 
#    z -0.037600 0.000000 4.158080 
# 
# 
# High freq. dielectric constant tensor:
#      x y z
#    x 1.839580 0.000000 0.002620 
#    y 0.000000 1.798290 0.000000 
#    z 0.002620 0.000000 1.848550 
# 
# From -- ./inp_files/184936.got.cif
#   From: 2010.06.25/outbox.cif.g09.slc.cpg/sg15_93_cif.got.tgz:184936.got - 2010.06.28 07:06:18.
