data_PCOD8154682
_publ_section_title
;
Structure prediction by ZEFSAII (Michael W. Deem and Ramdas Pophale) SiO2 
 PCOD8154682
Probable space group: C 2/C
;
_chemical_formula_sum "Si O2"
_cell_formula_units_Z 48
_cell_length_a 9.194458
_cell_length_b 22.562136
_cell_length_c 10.924768
_cell_angle_alpha 90.000000
_cell_angle_beta 85.357996
_cell_angle_gamma 90.000000
_cell_volume 2258.872206
_symmetry_space_group_name_H-M "C 2/C"
_symmetry_group_IT_number 15
_symmetry_cell_setting 'monoclinic'
loop_
_space_group_symop_operation_xyz
x,y,z
-x,y,1/2-z
-x,-y,-z
x,-y,1/2+z
1/2+x,1/2+y,z
1/2-x,1/2+y,1/2-z
1/2-x,1/2-y,-z
1/2+x,1/2-y,1/2+z
loop_
_atom_site_type_symbol
_atom_site_label
_atom_site_fract_x
_atom_site_fract_y
_atom_site_fract_z
Si Si1 0.337597 0.980235 0.715780
Si Si2 0.162740 0.317537 0.196768
Si Si3 0.343814 0.209674 0.236260
Si Si4 0.728363 0.113630 0.078881
Si Si5 0.090047 0.386791 0.965991
Si Si6 0.654087 0.404906 0.173847
O O1 0.500000 0.997783 0.750000
O O2 0.262217 0.936019 0.817288
O O3 0.343247 0.950193 0.579724
O O4 0.240337 0.037796 0.712893
O O5 0.234664 0.253008 0.171108
O O6 0.257181 0.346412 0.296430
O O7 0.000000 0.306069 0.250000
O O8 0.169841 0.360269 0.078587
O O9 0.500000 0.242448 0.250000
O O10 0.267581 0.180144 0.362318
O O11 0.387057 0.154866 0.150475
O O12 0.583349 0.106065 0.004180
O O13 0.860443 0.101501 0.973472
O O14 0.500000 0.405760 0.250000
#
# Coordination Sequence:
#
# PCOD8154682 Si02
#       6
#     8   8   8   8   8   8
#     4   9  21  40  69  88 115 161 205 252 300 360
#     4  12  23  39  61  94 121 159 206 249 297 364
#     4   9  20  42  66  88 121 160 198 253 309 354
#     4   9  20  42  64  88 121 163 202 245 308 363
#     4   9  19  41  66  91 118 155 207 253 299 360
#     4  12  26  40  57  90 128 165 199 250 306 356
#
# _framework density 21.249542000000002
#
# number of rings (size 3 to 8) (size 9 to 14) (size 15 to 20)
#    0.000    2.000    1.667    3.500    2.333    2.667 
#    6.000    1.667    0.000    0.000    0.000    0.000 
#    0.000    0.000    0.000    0.000    0.000    0.000 
#
# Total GULP energy -297493.766235 kJ/mol
# GULP energy per Si atom -12395.573593 kJ/mol
# Density = 2.120118 g / cm^3
# Si number density = 21.249542 Si / 1000 Ang^3
#
#
#
# Elastic Constant Matrix: (Units=GPa)
#
#
# Indices 1 2 3 4 5 6 
#
# 1 91.2916 39.5219 34.6822 0.0000 -22.8712 0.0000
# 2 39.5219 73.1232 16.5732 0.0000 -9.4153 0.0000
# 3 34.6822 16.5732 106.9485 0.0000 -19.7855 0.0000
# 4 0.0000 0.0000 0.0000 -24.7226 0.0000 7.8263
# 5 -22.8712 -9.4153 -19.7855 0.0000 32.2292 0.0000
# 6 0.0000 0.0000 0.0000 7.8263 0.0000 21.4677
#
#
#
# Elastic Compliance Matrix: (Units=1/GPa)
#
#
# Indices 1 2 3 4 5 6 
#
# 1 0.017507 -0.007720 -0.002933 0.000000 0.008368 0.000000
# 2 -0.007720 0.017867 -0.000353 0.000000 -0.000476 0.000000
# 3 -0.002933 -0.000353 0.011227 0.000000 0.004708 0.000000
# 4 0.000000 0.000000 0.000000 -0.036264 0.000000 0.013220
# 5 0.008368 -0.000476 0.004708 0.000000 0.039717 0.000000
# 6 0.000000 0.000000 0.000000 0.013220 0.000000 0.041762
#
#
# Mechanical properties :
#
#
# Convention : Reuss Voigt Hill
#
# Bulk Modulus (GPa) = 40.66944 50.32421 45.49682
# Shear Modulus (GPa) = 40.97569 17.83395 29.40482
#
# Velocity S-wave (km/s) = 4.39602 2.90015 3.72396
# Velocity P-wave (km/s) = 6.70426 5.91171 6.32042
#
# Compressibility (1/GPa) = 0.02458849
#
# Stress axis : x y z
#
# Youngs Moduli (GPa) = 57.12156 55.96972 89.07037
#
# Poissons Ratio (x) = 0.43208 0.26123
# Poissons Ratio (y) = 0.44097 0.03146
# Poissons Ratio (z) = 0.16753 0.01977
#
# Static dielectric constant tensor:
#      x y z
#    x 3.668790 0.000000 -0.083830 
#    y 0.000000 3.801310 0.000000 
#    z -0.083830 0.000000 3.977970 
# 
# 
# High freq. dielectric constant tensor:
#      x y z
#    x 1.803070 0.000000 -0.009610 
#    y 0.000000 1.840460 0.000000 
#    z -0.009610 0.000000 1.841110 
# 
# From -- ./inp_files/79148.got.cif
#   From: 2010.06.25/outbox.cif.g09.slc.cpg/sg15_40_cif.got.tgz:79148.got - 2010.06.28 07:06:18.
