data_PCOD8154331
_publ_section_title
;
Structure prediction by ZEFSAII (Michael W. Deem and Ramdas Pophale) SiO2 
 PCOD8154331
Probable space group: C 2/C
;
_chemical_formula_sum "Si O2"
_cell_formula_units_Z 48
_cell_length_a 9.593724
_cell_length_b 11.000472
_cell_length_c 19.145566
_cell_angle_alpha 90.000000
_cell_angle_beta 62.032591
_cell_angle_gamma 90.000000
_cell_volume 1784.567329
_symmetry_space_group_name_H-M "C 2/C"
_symmetry_group_IT_number 15
_symmetry_cell_setting 'monoclinic'
loop_
_space_group_symop_operation_xyz
x,y,z
-x,y,1/2-z
-x,-y,-z
x,-y,1/2+z
1/2+x,1/2+y,z
1/2-x,1/2+y,1/2-z
1/2-x,1/2-y,-z
1/2+x,1/2-y,1/2+z
loop_
_atom_site_type_symbol
_atom_site_label
_atom_site_fract_x
_atom_site_fract_y
_atom_site_fract_z
Si Si1 0.547328 0.077363 0.612751
Si Si2 0.000000 0.192744 0.750000
Si Si3 0.402439 0.389547 0.412990
Si Si4 0.919461 0.292157 0.018162
Si Si5 0.168777 0.049406 0.389380
Si Si6 0.801009 0.613530 0.216812
Si Si7 0.500000 0.254488 0.750000
O O1 0.547685 0.138976 0.535512
O O2 0.486927 0.174228 0.683610
O O3 0.724725 0.034028 0.585382
O O4 0.425232 0.963456 0.641576
O O5 0.086226 0.106954 0.673534
O O6 0.120220 0.270795 0.766086
O O7 0.216035 0.387978 0.474362
O O8 0.486261 0.270368 0.431422
O O9 0.486655 0.503854 0.429881
O O10 0.830982 0.187980 0.085108
O O11 0.239757 0.030644 0.295393
O O12 0.653954 0.659732 0.205528
#
# Coordination Sequence:
#
# PCOD8154331 Si02
#       7
#     8   4   8   8   8   8   4
#     4  12  24  44  69 100 143 180 229 289 345 407
#     4  12  21  49  74  96 140 180 230 290 346 408
#     4  11  26  44  75 101 137 190 230 285 354 409
#     4  11  26  49  66 103 147 181 230 290 347 413
#     4  12  23  44  71 100 141 181 230 286 344 406
#     4  12  24  41  68 106 136 174 232 292 335 406
#     4  12  23  39  64 104 136 174 234 276 346 412
#
# _framework density 26.897275
#
# number of rings (size 3 to 8) (size 9 to 14) (size 15 to 20)
#    0.000    0.333    6.667    1.500    4.667    0.667 
#    0.000    7.500    0.000    0.000    0.000    0.000 
#    0.000    0.000    0.000    0.000    0.000    0.000 
#
# Total GULP energy -297579.103242 kJ/mol
# GULP energy per Si atom -12399.129302 kJ/mol
# Density = 2.683606 g / cm^3
# Si number density = 26.897275 Si / 1000 Ang^3
#
#
#
# Elastic Constant Matrix: (Units=GPa)
#
#
# Indices 1 2 3 4 5 6 
#
# 1 117.4839 25.7582 -16.5327 0.0000 -1.1444 0.0000
# 2 25.7582 49.4168 -9.3509 0.0000 6.0974 0.0000
# 3 -16.5327 -9.3509 57.1830 0.0000 25.6211 0.0000
# 4 0.0000 0.0000 0.0000 28.1843 0.0000 5.6605
# 5 -1.1444 6.0974 25.6211 0.0000 43.3630 0.0000
# 6 0.0000 0.0000 0.0000 5.6605 0.0000 59.0125
#
#
#
# Elastic Compliance Matrix: (Units=1/GPa)
#
#
# Indices 1 2 3 4 5 6 
#
# 1 0.009848 -0.004648 0.002282 0.000000 -0.000435 0.000000
# 2 -0.004648 0.024631 0.005836 0.000000 -0.007034 0.000000
# 3 0.002282 0.005836 0.026443 0.000000 -0.016384 0.000000
# 4 0.000000 0.000000 0.000000 0.036178 0.000000 -0.003470
# 5 -0.000435 -0.007034 -0.016384 0.000000 0.033719 0.000000
# 6 0.000000 0.000000 0.000000 -0.003470 0.000000 0.017278
#
#
# Mechanical properties :
#
#
# Convention : Reuss Voigt Hill
#
# Bulk Modulus (GPa) = 14.73588 24.87032 19.80310
# Shear Modulus (GPa) = 30.52938 41.05923 35.79430
#
# Velocity S-wave (km/s) = 3.37268 3.91131 3.65194
# Velocity P-wave (km/s) = 4.54501 5.44649 5.01604
#
# Compressibility (1/GPa) = 0.06786157
#
# Stress axis : x y z
#
# Youngs Moduli (GPa) = 101.54689 40.59974 37.81753
#
# Poissons Ratio (x) = 0.18869 -0.08630
# Poissons Ratio (y) = 0.47194 -0.22069
# Poissons Ratio (z) = -0.23173 -0.23693
#
# Static dielectric constant tensor:
#      x y z
#    x 4.874280 0.000000 0.055160 
#    y 0.000000 4.767540 0.000000 
#    z 0.055160 0.000000 6.001100 
# 
# 
# High freq. dielectric constant tensor:
#      x y z
#    x 2.086640 0.000000 0.019880 
#    y 0.000000 2.073500 0.000000 
#    z 0.019880 0.000000 2.082030 
# 
# From -- ./inp_files/263517.got.cif
#   From: 2010.06.25/outbox.cif.g09.slc.cpg/sg15_132_cif.got.tgz:263517.got - 2010.06.28 07:06:18.
