data_PCOD8154176
_publ_section_title
;
Structure prediction by ZEFSAII (Michael W. Deem and Ramdas Pophale) SiO2 
 PCOD8154176
Probable space group: C 2/C
;
_chemical_formula_sum "Si O2"
_cell_formula_units_Z 48
_cell_length_a 13.497428
_cell_length_b 8.545246
_cell_length_c 18.145318
_cell_angle_alpha 90.000000
_cell_angle_beta 92.059524
_cell_angle_gamma 90.000000
_cell_volume 2091.508055
_symmetry_space_group_name_H-M "C 2/C"
_symmetry_group_IT_number 15
_symmetry_cell_setting 'monoclinic'
loop_
_space_group_symop_operation_xyz
x,y,z
-x,y,1/2-z
-x,-y,-z
x,-y,1/2+z
1/2+x,1/2+y,z
1/2-x,1/2+y,1/2-z
1/2-x,1/2-y,-z
1/2+x,1/2-y,1/2+z
loop_
_atom_site_type_symbol
_atom_site_label
_atom_site_fract_x
_atom_site_fract_y
_atom_site_fract_z
Si Si1 0.895734 0.979888 0.785421
Si Si2 0.016791 0.677103 0.977995
Si Si3 0.671905 0.618507 0.989019
Si Si4 0.746674 0.465172 0.850446
Si Si5 0.556988 0.856397 0.176701
Si Si6 0.829897 0.829718 0.414348
O O1 0.802494 0.999217 0.729163
O O2 0.883323 0.804786 0.815159
O O3 0.000000 0.999703 0.750000
O O4 0.897184 0.111074 0.848579
O O5 0.025328 0.671356 0.889304
O O6 0.935549 0.807703 0.998825
O O7 0.000000 0.500000 0.000000
O O8 0.116218 0.732205 0.019963
O O9 0.677953 0.557700 0.905923
O O10 0.750000 0.750000 0.000000
O O11 0.709588 0.485108 0.046801
O O12 0.862386 0.516160 0.847871
O O13 0.746128 0.282989 0.876590
O O14 0.500000 0.907137 0.250000
#
# Coordination Sequence:
#
# PCOD8154176 Si02
#       6
#     8   8   8   8   8   8
#     4  11  25  46  70 101 146 193 242 302 364 435
#     4  12  24  48  73 106 145 188 246 300 359 437
#     4  12  24  45  71 105 146 182 242 304 355 428
#     4  12  25  47  68 110 142 189 248 295 367 438
#     4  11  25  48  69 101 151 189 236 304 364 433
#     4  12  25  44  75 105 143 197 240 297 372 430
#
# _framework density 22.949947999999999
#
# number of rings (size 3 to 8) (size 9 to 14) (size 15 to 20)
#    0.000    0.333    5.000    3.000    4.667    0.667 
#   12.000    0.000    0.000    0.000    0.000    0.000 
#    0.000    0.000    0.000    0.000    0.000    0.000 
#
# Total GULP energy -297499.008789 kJ/mol
# GULP energy per Si atom -12395.792033 kJ/mol
# Density = 2.289771 g / cm^3
# Si number density = 22.949948 Si / 1000 Ang^3
#
#
#
# Elastic Constant Matrix: (Units=GPa)
#
#
# Indices 1 2 3 4 5 6 
#
# 1 54.5398 19.2790 31.0587 0.0000 5.2794 0.0000
# 2 19.2790 130.4875 51.4912 0.0000 -5.5340 0.0000
# 3 31.0587 51.4912 165.2828 0.0000 8.2379 0.0000
# 4 0.0000 0.0000 0.0000 43.4934 0.0000 -2.2061
# 5 5.2794 -5.5340 8.2379 0.0000 35.1708 0.0000
# 6 0.0000 0.0000 0.0000 -2.2061 0.0000 28.8466
#
#
#
# Elastic Compliance Matrix: (Units=1/GPa)
#
#
# Indices 1 2 3 4 5 6 
#
# 1 0.021129 -0.001966 -0.003222 0.000000 -0.002726 0.000000
# 2 -0.001966 0.009067 -0.002571 0.000000 0.002324 0.000000
# 3 -0.003222 -0.002571 0.007541 0.000000 -0.001687 0.000000
# 4 0.000000 0.000000 0.000000 0.023082 0.000000 0.001765
# 5 -0.002726 0.002324 -0.001687 0.000000 0.029603 0.000000
# 6 0.000000 0.000000 0.000000 0.001765 0.000000 0.034801
#
#
# Mechanical properties :
#
#
# Convention : Reuss Voigt Hill
#
# Bulk Modulus (GPa) = 45.00718 61.55197 53.27957
# Shear Modulus (GPa) = 33.75032 38.06756 35.90894
#
# Velocity S-wave (km/s) = 3.83901 4.07716 3.95987
# Velocity P-wave (km/s) = 6.26931 7.00304 6.64631
#
# Compressibility (1/GPa) = 0.02221868
#
# Stress axis : x y z
#
# Youngs Moduli (GPa) = 47.32853 110.28795 132.61199
#
# Poissons Ratio (x) = 0.21681 0.42729
# Poissons Ratio (y) = 0.09304 0.34097
# Poissons Ratio (z) = 0.15250 0.28357
#
# Static dielectric constant tensor:
#      x y z
#    x 3.739120 0.000000 0.060700 
#    y 0.000000 4.464580 0.000000 
#    z 0.060700 0.000000 4.544050 
# 
# 
# High freq. dielectric constant tensor:
#      x y z
#    x 1.887500 0.000000 0.002110 
#    y 0.000000 1.923560 0.000000 
#    z 0.002110 0.000000 1.930110 
# 
# From -- ./inp_files/202972.got.cif
#   From: 2010.06.25/outbox.cif.g09.slc.cpg/sg15_102_cif.got.tgz:202972.got - 2010.06.28 07:06:18.
