data_PCOD8154401
_publ_section_title
;
Structure prediction by ZEFSAII (Michael W. Deem and Ramdas Pophale) SiO2 
 PCOD8154401
Probable space group: C 2/C
;
_chemical_formula_sum "Si O2"
_cell_formula_units_Z 56
_cell_length_a 12.026961
_cell_length_b 15.423093
_cell_length_c 14.735205
_cell_angle_alpha 90.000000
_cell_angle_beta 58.454407
_cell_angle_gamma 90.000000
_cell_volume 2329.364125
_symmetry_space_group_name_H-M "C 2/C"
_symmetry_group_IT_number 15
_symmetry_cell_setting 'monoclinic'
loop_
_space_group_symop_operation_xyz
x,y,z
-x,y,1/2-z
-x,-y,-z
x,-y,1/2+z
1/2+x,1/2+y,z
1/2-x,1/2+y,1/2-z
1/2-x,1/2-y,-z
1/2+x,1/2-y,1/2+z
loop_
_atom_site_type_symbol
_atom_site_label
_atom_site_fract_x
_atom_site_fract_y
_atom_site_fract_z
Si Si1 0.410896 0.584478 0.548739
Si Si2 0.297270 0.885815 0.011084
Si Si3 0.135548 0.207518 0.431537
Si Si4 0.133854 0.146567 0.240220
Si Si5 0.505747 0.029976 0.640214
Si Si6 0.286093 0.848236 0.502922
Si Si7 0.208175 0.962433 0.222042
O O1 0.500000 0.500000 0.500000
O O2 0.489122 0.672954 0.500379
O O3 0.301272 0.583139 0.517264
O O4 0.340370 0.598650 0.675848
O O5 0.363745 0.803343 0.029936
O O6 0.188307 0.921914 0.129610
O O7 0.228591 0.857972 0.947203
O O8 0.408388 0.954620 0.941384
O O9 0.173316 0.206856 0.308574
O O10 0.000000 0.179797 0.250000
O O11 0.118421 0.047065 0.278256
O O12 0.257402 0.140894 0.121048
O O13 0.500000 0.020353 0.750000
O O14 0.565598 0.124184 0.584864
O O15 0.362326 0.020854 0.661895
O O16 0.250000 0.750000 0.500000
#
# Coordination Sequence:
#
# PCOD8154401 Si02
#       7
#     8   8   8   8   8   8   8
#     4  12  24  48  75 106 148 194 245 306 373 446
#     4  11  27  49  71 108 149 196 247 303 371 453
#     4  11  26  48  74 108 149 189 251 310 367 450
#     4  12  25  46  77 109 142 191 248 316 375 444
#     4  12  25  49  76 104 151 200 251 303 378 449
#     4  12  28  45  75 115 150 191 246 314 379 444
#     4  12  26  43  77 104 144 201 247 299 377 452
#
# _framework density 24.040896
#
# number of rings (size 3 to 8) (size 9 to 14) (size 15 to 20)
#    0.000    0.286    5.714    2.143    6.000    0.571 
#    5.143    0.000    0.000    0.000    0.000    0.000 
#    0.000    0.000    0.000    0.000    0.000    0.000 
#
# Total GULP energy -347202.977265 kJ/mol
# GULP energy per Si atom -12400.106331 kJ/mol
# Density = 2.398618 g / cm^3
# Si number density = 24.040896 Si / 1000 Ang^3
#
#
#
# Elastic Constant Matrix: (Units=GPa)
#
#
# Indices 1 2 3 4 5 6 
#
# 1 84.7610 3.4304 27.1113 0.0000 17.8088 0.0000
# 2 3.4304 79.5100 24.0146 0.0000 4.2715 0.0000
# 3 27.1113 24.0146 182.5201 0.0000 24.6789 0.0000
# 4 0.0000 0.0000 0.0000 27.3573 0.0000 4.8043
# 5 17.8088 4.2715 24.6789 0.0000 42.8786 0.0000
# 6 0.0000 0.0000 0.0000 4.8043 0.0000 27.2804
#
#
#
# Elastic Compliance Matrix: (Units=1/GPa)
#
#
# Indices 1 2 3 4 5 6 
#
# 1 0.013215 0.000087 -0.001335 0.000000 -0.004729 0.000000
# 2 0.000087 0.013103 -0.001687 0.000000 -0.000371 0.000000
# 3 -0.001335 -0.001687 0.006291 0.000000 -0.002898 0.000000
# 4 0.000000 0.000000 0.000000 0.037720 0.000000 -0.006643
# 5 -0.004729 -0.000371 -0.002898 0.000000 0.026991 0.000000
# 6 0.000000 0.000000 0.000000 -0.006643 0.000000 0.037826
#
#
# Mechanical properties :
#
#
# Convention : Reuss Voigt Hill
#
# Bulk Modulus (GPa) = 37.39822 50.65595 44.02708
# Shear Modulus (GPa) = 33.34939 38.98558 36.16749
#
# Velocity S-wave (km/s) = 3.72855 4.03132 3.88289
# Velocity P-wave (km/s) = 5.84174 6.54104 6.20126
#
# Compressibility (1/GPa) = 0.02673924
#
# Stress axis : x y z
#
# Youngs Moduli (GPa) = 75.67200 76.32051 158.95820
#
# Poissons Ratio (x) = -0.00665 0.21221
# Poissons Ratio (y) = -0.00659 0.26813
# Poissons Ratio (z) = 0.10102 0.12874
#
# Static dielectric constant tensor:
#      x y z
#    x 4.688660 0.000000 0.928750 
#    y 0.000000 4.966820 0.000000 
#    z 0.928750 0.000000 6.690310 
# 
# 
# High freq. dielectric constant tensor:
#      x y z
#    x 1.953820 0.000000 0.013810 
#    y 0.000000 1.953150 0.000000 
#    z 0.013810 0.000000 1.974610 
# 
# From -- ./inp_files/145996.got.cif
#   From: 2010.06.25/outbox.cif.g09.slc.cpg/sg15_73_cif.got.tgz:145996.got - 2010.06.28 07:06:18.
