data_PCOD8154188
_publ_section_title
;
Structure prediction by ZEFSAII (Michael W. Deem and Ramdas Pophale) SiO2 
 PCOD8154188
Probable space group: C 2/C
;
_chemical_formula_sum "Si O2"
_cell_formula_units_Z 44
_cell_length_a 23.439038
_cell_length_b 8.366086
_cell_length_c 13.144096
_cell_angle_alpha 90.000000
_cell_angle_beta 129.512102
_cell_angle_gamma 90.000000
_cell_volume 1988.489269
_symmetry_space_group_name_H-M "C 2/C"
_symmetry_group_IT_number 15
_symmetry_cell_setting 'monoclinic'
loop_
_space_group_symop_operation_xyz
x,y,z
-x,y,1/2-z
-x,-y,-z
x,-y,1/2+z
1/2+x,1/2+y,z
1/2-x,1/2+y,1/2-z
1/2-x,1/2-y,-z
1/2+x,1/2-y,1/2+z
loop_
_atom_site_type_symbol
_atom_site_label
_atom_site_fract_x
_atom_site_fract_y
_atom_site_fract_z
Si Si1 0.083253 0.767294 0.830712
Si Si2 0.168709 0.393857 0.603516
Si Si3 0.000000 0.729438 0.250000
Si Si4 0.353200 0.603543 0.588332
Si Si5 0.064140 0.501430 0.153387
Si Si6 0.259000 0.298410 0.161279
O O1 0.084763 0.667605 0.728009
O O2 0.000000 0.831394 0.750000
O O3 0.141323 0.912304 0.890922
O O4 0.105776 0.655996 0.951961
O O5 0.137174 0.447453 0.676748
O O6 0.214451 0.535994 0.604238
O O7 0.219311 0.243336 0.697016
O O8 0.932258 0.837861 0.133927
O O9 0.963521 0.623671 0.294500
O O10 0.331621 0.680743 0.672683
O O11 0.291030 0.651656 0.436261
O O12 0.000000 0.500000 0.000000
#
# Coordination Sequence:
#
# PCOD8154188 Si02
#       6
#     8   8   4   8   8   8
#     4  12  25  45  70 107 141 184 238 297 356 421
#     4  12  26  46  71 103 143 191 242 290 361 429
#     4  12  22  46  72 100 142 184 232 300 356 414
#     4  11  25  46  72 101 145 186 238 299 356 422
#     4  12  23  43  71 102 138 185 234 293 359 421
#     4  11  26  47  69 105 143 192 238 291 359 431
#
# _framework density 22.127351999999998
#
# number of rings (size 3 to 8) (size 9 to 14) (size 15 to 20)
#    0.000    0.364    5.455    3.273    5.091    0.727 
#    3.273    2.727    0.000    0.000    0.000    0.000 
#    0.000    0.000    0.000    0.000    0.000    0.000 
#
# Total GULP energy -272775.269000 kJ/mol
# GULP energy per Si atom -12398.875864 kJ/mol
# Density = 2.207699 g / cm^3
# Si number density = 22.127352 Si / 1000 Ang^3
#
#
#
# Elastic Constant Matrix: (Units=GPa)
#
#
# Indices 1 2 3 4 5 6 
#
# 1 104.0469 30.2370 16.4259 0.0000 8.4797 0.0000
# 2 30.2370 104.0021 35.8277 0.0000 9.9748 0.0000
# 3 16.4259 35.8277 115.4166 0.0000 8.0006 0.0000
# 4 0.0000 0.0000 0.0000 37.0989 0.0000 7.6430
# 5 8.4797 9.9748 8.0006 0.0000 29.2516 0.0000
# 6 0.0000 0.0000 0.0000 7.6430 0.0000 34.8144
#
#
#
# Elastic Compliance Matrix: (Units=1/GPa)
#
#
# Indices 1 2 3 4 5 6 
#
# 1 0.010650 -0.002720 -0.000532 0.000000 -0.002014 0.000000
# 2 -0.002720 0.011693 -0.003079 0.000000 -0.002357 0.000000
# 3 -0.000532 -0.003079 0.009798 0.000000 -0.001476 0.000000
# 4 0.000000 0.000000 0.000000 0.028232 0.000000 -0.006198
# 5 -0.002014 -0.002357 -0.001476 0.000000 0.035977 0.000000
# 6 0.000000 0.000000 0.000000 -0.006198 0.000000 0.030084
#
#
# Mechanical properties :
#
#
# Convention : Reuss Voigt Hill
#
# Bulk Modulus (GPa) = 51.33777 54.27187 52.80482
# Shear Modulus (GPa) = 34.34338 36.29796 35.32067
#
# Velocity S-wave (km/s) = 3.94392 4.05459 3.99964
# Velocity P-wave (km/s) = 6.63255 6.81909 6.72646
#
# Compressibility (1/GPa) = 0.01947884
#
# Stress axis : x y z
#
# Youngs Moduli (GPa) = 93.90056 85.52332 102.06074
#
# Poissons Ratio (x) = 0.23261 0.05427
# Poissons Ratio (y) = 0.25539 0.31427
# Poissons Ratio (z) = 0.04993 0.26335
#
# Static dielectric constant tensor:
#      x y z
#    x 4.176410 0.000000 0.072970 
#    y 0.000000 3.949480 0.000000 
#    z 0.072970 0.000000 3.922600 
# 
# 
# High freq. dielectric constant tensor:
#      x y z
#    x 1.876270 0.000000 0.010730 
#    y 0.000000 1.873750 0.000000 
#    z 0.010730 0.000000 1.875750 
# 
# From -- ./inp_files/116859.got.cif
#   From: 2010.06.25/outbox.cif.g09.slc.cpg/sg15_59_cif.got.tgz:116859.got - 2010.06.28 07:06:18.
