data_PCOD8154257
_publ_section_title
;
Structure prediction by ZEFSAII (Michael W. Deem and Ramdas Pophale) SiO2 
 PCOD8154257
Probable space group: C 2/C
;
_chemical_formula_sum "Si O2"
_cell_formula_units_Z 44
_cell_length_a 11.914530
_cell_length_b 7.854615
_cell_length_c 23.973591
_cell_angle_alpha 90.000000
_cell_angle_beta 58.156864
_cell_angle_gamma 90.000000
_cell_volume 1905.882435
_symmetry_space_group_name_H-M "C 2/C"
_symmetry_group_IT_number 15
_symmetry_cell_setting 'monoclinic'
loop_
_space_group_symop_operation_xyz
x,y,z
-x,y,1/2-z
-x,-y,-z
x,-y,1/2+z
1/2+x,1/2+y,z
1/2-x,1/2+y,1/2-z
1/2-x,1/2-y,-z
1/2+x,1/2-y,1/2+z
loop_
_atom_site_type_symbol
_atom_site_label
_atom_site_fract_x
_atom_site_fract_y
_atom_site_fract_z
Si Si1 0.483656 0.670009 0.076972
Si Si2 0.145502 0.370797 0.115887
Si Si3 0.000000 0.433274 0.750000
Si Si4 0.754027 0.266585 0.211173
Si Si5 0.155239 0.118746 0.493120
Si Si6 0.845624 0.878187 0.795606
O O1 0.570996 0.824973 0.077894
O O2 0.352953 0.650594 0.148691
O O3 0.444006 0.715415 0.023403
O O4 0.567592 0.493114 0.058771
O O5 0.264372 0.492862 0.068540
O O6 0.193142 0.195654 0.133266
O O7 0.046042 0.453274 0.186130
O O8 0.110995 0.313586 0.746012
O O9 0.808163 0.267476 0.260219
O O10 0.746674 0.458771 0.190688
O O11 0.250000 0.250000 0.500000
O O12 0.000000 0.926495 0.750000
#
# Coordination Sequence:
#
# PCOD8154257 Si02
#       6
#     8   8   4   8   8   8
#     4  11  25  48  69 104 137 188 241 295 351 433
#     4  12  24  47  72 106 147 177 241 299 363 436
#     4  12  24  46  74 114 144 194 232 302 372 436
#     4  12  25  45  73 106 151 189 236 292 373 434
#     4  11  28  50  73  98 143 192 247 300 357 427
#     4  12  25  44  72 111 148 187 231 301 368 441
#
# _framework density 23.086417000000001
#
# number of rings (size 3 to 8) (size 9 to 14) (size 15 to 20)
#    0.000    0.364    5.455    2.727    2.545    2.182 
#    9.818    0.000    0.000    0.000    0.000    0.000 
#    0.000    0.000    0.000    0.000    0.000    0.000 
#
# Total GULP energy -272832.294431 kJ/mol
# GULP energy per Si atom -12401.467929 kJ/mol
# Density = 2.303387 g / cm^3
# Si number density = 23.086417 Si / 1000 Ang^3
#
#
#
# Elastic Constant Matrix: (Units=GPa)
#
#
# Indices 1 2 3 4 5 6 
#
# 1 134.9021 59.5096 42.4649 0.0000 14.4883 0.0000
# 2 59.5096 118.8589 51.9154 0.0000 7.9265 0.0000
# 3 42.4649 51.9154 105.3089 0.0000 -2.1729 0.0000
# 4 0.0000 0.0000 0.0000 33.7097 0.0000 -1.9000
# 5 14.4883 7.9265 -2.1729 0.0000 42.1329 0.0000
# 6 0.0000 0.0000 0.0000 -1.9000 0.0000 48.2963
#
#
#
# Elastic Compliance Matrix: (Units=1/GPa)
#
#
# Indices 1 2 3 4 5 6 
#
# 1 0.010149 -0.003921 -0.002219 0.000000 -0.002867 0.000000
# 2 -0.003921 0.012463 -0.004588 0.000000 -0.001233 0.000000
# 3 -0.002219 -0.004588 0.012699 0.000000 0.002281 0.000000
# 4 0.000000 0.000000 0.000000 0.029731 0.000000 0.001170
# 5 -0.002867 -0.001233 0.002281 0.000000 0.025070 0.000000
# 6 0.000000 0.000000 0.000000 0.001170 0.000000 0.020752
#
#
# Mechanical properties :
#
#
# Convention : Reuss Voigt Hill
#
# Bulk Modulus (GPa) = 72.17430 74.09442 73.13436
# Shear Modulus (GPa) = 36.51307 38.50643 37.50975
#
# Velocity S-wave (km/s) = 3.98123 4.08846 4.03520
# Velocity P-wave (km/s) = 7.24321 7.37912 7.31148
#
# Compressibility (1/GPa) = 0.01385535
#
# Stress axis : x y z
#
# Youngs Moduli (GPa) = 98.53490 80.23893 78.74338
#
# Poissons Ratio (x) = 0.31462 0.17470
# Poissons Ratio (y) = 0.38636 0.36129
# Poissons Ratio (z) = 0.21860 0.36816
#
# Static dielectric constant tensor:
#      x y z
#    x 4.478340 0.000000 0.043350 
#    y 0.000000 4.063110 0.000000 
#    z 0.043350 0.000000 4.287290 
# 
# 
# High freq. dielectric constant tensor:
#      x y z
#    x 1.941140 0.000000 0.004490 
#    y 0.000000 1.902120 0.000000 
#    z 0.004490 0.000000 1.901210 
# 
# From -- ./inp_files/267970.got.cif
#   From: 2010.06.25/outbox.cif.g09.slc.cpg/sg15_134_cif.got.tgz:267970.got - 2010.06.28 07:06:18.
