data_PCOD8154004
_publ_section_title
;
Structure prediction by ZEFSAII (Michael W. Deem and Ramdas Pophale) SiO2 
 PCOD8154004
Probable space group: C 2/C
;
_chemical_formula_sum "Si O2"
_cell_formula_units_Z 44
_cell_length_a 8.632093
_cell_length_b 16.774109
_cell_length_c 18.369729
_cell_angle_alpha 90.000000
_cell_angle_beta 49.125394
_cell_angle_gamma 90.000000
_cell_volume 2011.233949
_symmetry_space_group_name_H-M "C 2/C"
_symmetry_group_IT_number 15
_symmetry_cell_setting 'monoclinic'
loop_
_space_group_symop_operation_xyz
x,y,z
-x,y,1/2-z
-x,-y,-z
x,-y,1/2+z
1/2+x,1/2+y,z
1/2-x,1/2+y,1/2-z
1/2-x,1/2-y,-z
1/2+x,1/2-y,1/2+z
loop_
_atom_site_type_symbol
_atom_site_label
_atom_site_fract_x
_atom_site_fract_y
_atom_site_fract_z
Si Si1 0.799325 0.325194 0.765592
Si Si2 0.086688 0.535212 0.360405
Si Si3 0.524524 0.254263 0.537133
Si Si4 0.500000 0.932092 0.250000
Si Si5 0.608856 0.324643 0.357528
Si Si6 0.796065 0.402188 0.069624
O O1 0.765399 0.395527 0.717034
O O2 0.601593 0.319621 0.878102
O O3 0.820846 0.240843 0.720854
O O4 0.000000 0.346528 0.750000
O O5 0.991549 0.485291 0.324203
O O6 0.215512 0.479016 0.374610
O O7 0.901140 0.576545 0.460832
O O8 0.519595 0.282229 0.455834
O O9 0.419570 0.167559 0.573254
O O10 0.750000 0.250000 0.500000
O O11 0.299941 0.878664 0.318074
O O12 0.436026 0.377760 0.373151
#
# Coordination Sequence:
#
# PCOD8154004 Si02
#       6
#     8   8   8   4   8   8
#     4  12  23  45  77 105 135 186 243 291 348 429
#     4  11  25  46  68 107 144 181 236 293 363 423
#     4  12  25  45  75 110 143 186 244 298 348 423
#     4  12  28  46  68 106 148 182 234 302 360 430
#     4  12  25  47  75 101 141 190 239 286 356 423
#     4  11  24  48  73 100 146 189 232 295 360 427
#
# _framework density 21.877116000000001
#
# number of rings (size 3 to 8) (size 9 to 14) (size 15 to 20)
#    0.000    0.364    4.545    4.909    0.000    0.727 
#    9.818    0.000    0.000    0.000    0.000    0.000 
#    0.000    0.000    0.000    0.000    0.000    0.000 
#
# Total GULP energy -272962.726264 kJ/mol
# GULP energy per Si atom -12407.396648 kJ/mol
# Density = 2.182732 g / cm^3
# Si number density = 21.877116 Si / 1000 Ang^3
#
#
#
# Elastic Constant Matrix: (Units=GPa)
#
#
# Indices 1 2 3 4 5 6 
#
# 1 102.6626 27.8714 32.0931 0.0006 -17.3856 0.0002
# 2 27.8714 99.7033 27.0751 0.0004 -4.7113 0.0000
# 3 32.0931 27.0751 101.7170 0.0008 3.9500 0.0000
# 4 0.0006 0.0004 0.0008 53.4797 -0.0005 18.4386
# 5 -17.3856 -4.7113 3.9500 -0.0005 42.4595 -0.0001
# 6 0.0002 0.0000 0.0000 18.4386 -0.0001 28.8681
#
#
#
# Elastic Compliance Matrix: (Units=1/GPa)
#
#
# Indices 1 2 3 4 5 6 
#
# 1 0.012307 -0.002253 -0.003482 0.000000 0.005113 0.000000
# 2 -0.002253 0.011316 -0.002323 0.000000 0.000549 0.000000
# 3 -0.003482 -0.002323 0.011655 0.000000 -0.002768 0.000000
# 4 0.000000 0.000000 0.000000 0.023979 0.000000 -0.015316
# 5 0.005113 0.000549 -0.002768 0.000000 0.025964 0.000000
# 6 0.000000 0.000000 0.000000 -0.015316 0.000000 0.044423
#
#
# Mechanical properties :
#
#
# Convention : Reuss Voigt Hill
#
# Bulk Modulus (GPa) = 52.18280 53.12913 52.65596
# Shear Modulus (GPa) = 32.86290 39.43101 36.14696
#
# Velocity S-wave (km/s) = 3.87997 4.25006 4.06923
# Velocity P-wave (km/s) = 6.63150 6.95859 6.79701
#
# Compressibility (1/GPa) = 0.01916340
#
# Stress axis : x y z
#
# Youngs Moduli (GPa) = 81.25704 88.36830 85.79682
#
# Poissons Ratio (x) = 0.19911 0.29872
# Poissons Ratio (y) = 0.18308 0.19927
# Poissons Ratio (z) = 0.28291 0.20524
#
# Static dielectric constant tensor:
#      x y z
#    x 3.767810 0.000000 0.170580 
#    y 0.000000 4.267370 0.000000 
#    z 0.170580 0.000000 4.165670 
# 
# 
# High freq. dielectric constant tensor:
#      x y z
#    x 1.857240 0.000000 0.015160 
#    y 0.000000 1.875850 0.000000 
#    z 0.015160 0.000000 1.879510 
# 
# From -- ./inp_files/134272.got.cif
#   From: 2010.06.25/outbox.cif.g09.slc.cpg/sg15_68_cif.got.tgz:134272.got - 2010.06.28 07:06:18.
