data_PCOD8154928
_publ_section_title
;
Structure prediction by ZEFSAII (Michael W. Deem and Ramdas Pophale) SiO2 
 PCOD8154928
Probable space group: C 2/C
;
_chemical_formula_sum "Si O2"
_cell_formula_units_Z 48
_cell_length_a 27.777264
_cell_length_b 13.754645
_cell_length_c 11.808726
_cell_angle_alpha 90.000000
_cell_angle_beta 150.358105
_cell_angle_gamma 90.000000
_cell_volume 2231.394023
_symmetry_space_group_name_H-M "C 2/C"
_symmetry_group_IT_number 15
_symmetry_cell_setting 'monoclinic'
loop_
_space_group_symop_operation_xyz
x,y,z
-x,y,1/2-z
-x,-y,-z
x,-y,1/2+z
1/2+x,1/2+y,z
1/2-x,1/2+y,1/2-z
1/2-x,1/2-y,-z
1/2+x,1/2-y,1/2+z
loop_
_atom_site_type_symbol
_atom_site_label
_atom_site_fract_x
_atom_site_fract_y
_atom_site_fract_z
Si Si1 0.945830 0.334355 0.817977
Si Si2 0.000000 0.512235 0.250000
Si Si3 0.679306 0.439372 0.007074
Si Si4 0.332634 0.897779 0.806605
Si Si5 0.591748 0.330321 0.614774
Si Si6 0.713135 0.762673 0.173284
Si Si7 0.000000 0.966127 0.250000
O O1 0.886727 0.378847 0.800141
O O2 0.878140 0.272470 0.596196
O O3 0.995708 0.422857 0.853728
O O4 0.030949 0.262620 0.035243
O O5 0.095435 0.445624 0.454803
O O6 0.637341 0.386172 0.812486
O O7 0.592745 0.466994 0.914786
O O8 0.738966 0.534754 0.091816
O O9 0.751237 0.369659 0.222717
O O10 0.299517 0.794873 0.788985
O O11 0.680519 0.296398 0.717280
O O12 0.519608 0.401465 0.400458
#
# Coordination Sequence:
#
# PCOD8154928 Si02
#       7
#     8   4   8   8   8   8   4
#     4  12  24  48  73 101 142 188 235 287 355 408
#     4  12  25  47  70 104 148 182 230 294 350 410
#     4  12  28  44  75 107 138 188 235 287 345 424
#     4  12  28  44  75 107 138 188 235 287 345 424
#     4  12  24  48  73 101 142 188 235 287 355 408
#     4  12  25  47  70 104 148 182 230 294 350 410
#     4  12  25  47  70 104 148 182 230 294 350 410
#
# _framework density 21.511216999999998
#
# number of rings (size 3 to 8) (size 9 to 14) (size 15 to 20)
#    0.000    0.000    6.667    2.000    9.333    0.000 
#    0.000    0.000    0.000    0.000    0.000    0.000 
#    0.000    0.000    0.000    0.000    0.000    0.000 
#
# Total GULP energy -297833.428809 kJ/mol
# GULP energy per Si atom -12409.726200 kJ/mol
# Density = 2.146226 g / cm^3
# Si number density = 21.511217 Si / 1000 Ang^3
#
#
#
# Elastic Constant Matrix: (Units=GPa)
#
#
# Indices 1 2 3 4 5 6 
#
# 1 109.7027 33.1278 17.5439 0.0000 12.9395 0.0000
# 2 33.1278 71.9464 14.0756 0.0000 -2.6447 0.0000
# 3 17.5439 14.0756 75.9751 0.0000 1.5193 0.0000
# 4 0.0000 0.0000 0.0000 27.9506 0.0000 17.1759
# 5 12.9395 -2.6447 1.5193 0.0000 30.0125 0.0000
# 6 0.0000 0.0000 0.0000 17.1759 0.0000 36.2106
#
#
#
# Elastic Compliance Matrix: (Units=1/GPa)
#
#
# Indices 1 2 3 4 5 6 
#
# 1 0.011580 -0.005217 -0.001600 0.000000 -0.005371 0.000000
# 2 -0.005217 0.016831 -0.001990 0.000000 0.003833 0.000000
# 3 -0.001600 -0.001990 0.013904 0.000000 -0.000189 0.000000
# 4 0.000000 0.000000 0.000000 0.050496 0.000000 -0.023952
# 5 -0.005371 0.003833 -0.000189 0.000000 0.035983 0.000000
# 6 0.000000 0.000000 0.000000 -0.023952 0.000000 0.038977
#
#
# Mechanical properties :
#
#
# Convention : Reuss Voigt Hill
#
# Bulk Modulus (GPa) = 40.48290 43.01320 41.74805
# Shear Modulus (GPa) = 25.82375 31.69321 28.75848
#
# Velocity S-wave (km/s) = 3.46855 3.84257 3.66034
# Velocity P-wave (km/s) = 5.90774 6.30287 6.10850
#
# Compressibility (1/GPa) = 0.02470179
#
# Stress axis : x y z
#
# Youngs Moduli (GPa) = 86.35361 59.41243 71.92039
#
# Poissons Ratio (x) = 0.30993 0.11509
# Poissons Ratio (y) = 0.45047 0.14315
# Poissons Ratio (z) = 0.13818 0.11825
#
# Static dielectric constant tensor:
#      x y z
#    x 3.814480 0.000000 0.121490 
#    y 0.000000 4.067190 0.000000 
#    z 0.121490 0.000000 3.964570 
# 
# 
# High freq. dielectric constant tensor:
#      x y z
#    x 1.846340 0.000000 0.011710 
#    y 0.000000 1.861390 0.000000 
#    z 0.011710 0.000000 1.852520 
# 
# From -- ./inp_files/96432.got.cif
#   From: 2010.06.25/outbox.cif.g09.slc.cpg/sg15_49_cif.got.tgz:96432.got - 2010.06.28 07:06:18.
