data_PCOD8154889
_publ_section_title
;
Structure prediction by ZEFSAII (Michael W. Deem and Ramdas Pophale) SiO2 
 PCOD8154889
Probable space group: C 2/C
;
_chemical_formula_sum "Si O2"
_cell_formula_units_Z 44
_cell_length_a 7.719075
_cell_length_b 17.021124
_cell_length_c 16.860069
_cell_angle_alpha 90.000000
_cell_angle_beta 111.221626
_cell_angle_gamma 90.000000
_cell_volume 2064.980707
_symmetry_space_group_name_H-M "C 2/C"
_symmetry_group_IT_number 15
_symmetry_cell_setting 'monoclinic'
loop_
_space_group_symop_operation_xyz
x,y,z
-x,y,1/2-z
-x,-y,-z
x,-y,1/2+z
1/2+x,1/2+y,z
1/2-x,1/2+y,1/2-z
1/2-x,1/2-y,-z
1/2+x,1/2-y,1/2+z
loop_
_atom_site_type_symbol
_atom_site_label
_atom_site_fract_x
_atom_site_fract_y
_atom_site_fract_z
Si Si1 0.138364 0.328697 0.970614
Si Si2 0.000000 0.703299 0.750000
Si Si3 0.197812 0.018825 0.069453
Si Si4 0.527019 0.910092 0.113264
Si Si5 0.640127 0.807731 0.706215
Si Si6 0.203106 0.976373 0.751440
O O1 0.255483 0.389351 0.935534
O O2 0.948187 0.303898 0.895846
O O3 0.250000 0.250000 0.000000
O O4 0.100482 0.365107 0.049459
O O5 0.047948 0.651010 0.834296
O O6 0.824485 0.756809 0.740474
O O7 0.359533 0.966355 0.056361
O O8 0.191660 0.993540 0.159930
O O9 0.000000 0.000000 0.000000
O O10 0.697471 0.958926 0.178129
O O11 0.500000 0.774540 0.750000
O O12 0.677666 0.898138 0.730124
O O13 0.000000 0.958615 0.750000
#
# Coordination Sequence:
#
# PCOD8154889 Si02
#       6
#     8   4   8   8   8   8
#     4  12  28  46  74 109 149 191 244 313 374 437
#     4  12  28  46  76 108 146 202 250 304 376 448
#     4  12  26  46  71 108 145 191 246 306 369 440
#     4  12  26  50  71 109 147 194 249 308 367 447
#     4  12  25  48  74 105 152 196 248 308 373 442
#     4  12  24  46  77 104 141 201 247 298 375 443
#
# _framework density 21.307707000000001
#
# number of rings (size 3 to 8) (size 9 to 14) (size 15 to 20)
#    0.000    0.000    6.364    2.727    5.091    2.909 
#    0.000    0.000    0.000    0.000    0.000    0.000 
#    0.000    0.000    0.000    0.000    0.000    0.000 
#
# Total GULP energy -272963.652182 kJ/mol
# GULP energy per Si atom -12407.438736 kJ/mol
# Density = 2.125921 g / cm^3
# Si number density = 21.307707 Si / 1000 Ang^3
#
#
#
# Elastic Constant Matrix: (Units=GPa)
#
#
# Indices 1 2 3 4 5 6 
#
# 1 138.1115 53.5273 56.3484 0.0000 5.3510 0.0000
# 2 53.5273 119.6507 50.3049 0.0000 6.6999 0.0000
# 3 56.3484 50.3049 140.3771 0.0000 12.0010 0.0000
# 4 0.0000 0.0000 0.0000 33.8868 0.0000 -14.5929
# 5 5.3510 6.6999 12.0010 0.0000 41.7260 0.0000
# 6 0.0000 0.0000 0.0000 -14.5929 0.0000 -116.9836
#
#
#
# Elastic Compliance Matrix: (Units=1/GPa)
#
#
# Indices 1 2 3 4 5 6 
#
# 1 0.009564 -0.003139 -0.002719 0.000000 0.000060 0.000000
# 2 -0.003139 0.010884 -0.002589 0.000000 -0.000600 0.000000
# 3 -0.002719 -0.002589 0.009307 0.000000 -0.001912 0.000000
# 4 0.000000 0.000000 0.000000 0.028006 0.000000 -0.003494
# 5 0.000060 -0.000600 -0.001912 0.000000 0.024605 0.000000
# 6 0.000000 0.000000 0.000000 -0.003494 0.000000 -0.008112
#
#
# Mechanical properties :
#
#
# Convention : Reuss Voigt Hill
#
# Bulk Modulus (GPa) = 77.75903 79.83338 78.79620
# Shear Modulus (GPa) = 52.39241 7.58976 29.99108
#
# Velocity S-wave (km/s) = 4.96406 1.88937 3.75577
# Velocity P-wave (km/s) = 8.33237 6.50445 7.47450
#
# Compressibility (1/GPa) = 0.01286024
#
# Stress axis : x y z
#
# Youngs Moduli (GPa) = 104.55694 91.87853 107.45086
#
# Poissons Ratio (x) = 0.28837 0.29221
# Poissons Ratio (y) = 0.32817 0.27820
# Poissons Ratio (z) = 0.28434 0.23788
#
# Static dielectric constant tensor:
#      x y z
#    x 3.041820 0.000000 -0.613820 
#    y 0.000000 3.627780 0.000000 
#    z -0.613820 0.000000 3.516340 
# 
# 
# High freq. dielectric constant tensor:
#      x y z
#    x 1.844410 0.000000 0.000530 
#    y 0.000000 1.844760 0.000000 
#    z 0.000530 0.000000 1.852550 
# 
# From -- ./inp_files/189342.got.cif
#   From: 2010.06.25/outbox.cif.g09.slc.cpg/sg15_95_cif.got.tgz:189342.got - 2010.06.28 07:06:18.
