data_PCOD8154946
_publ_section_title
;
Structure prediction by ZEFSAII (Michael W. Deem and Ramdas Pophale) SiO2 
 PCOD8154946
Probable space group: C 2/C
;
_chemical_formula_sum "Si O2"
_cell_formula_units_Z 40
_cell_length_a 8.308757
_cell_length_b 13.680096
_cell_length_c 17.120970
_cell_angle_alpha 90.000000
_cell_angle_beta 57.673778
_cell_angle_gamma 90.000000
_cell_volume 1644.444097
_symmetry_space_group_name_H-M "C 2/C"
_symmetry_group_IT_number 15
_symmetry_cell_setting 'monoclinic'
loop_
_space_group_symop_operation_xyz
x,y,z
-x,y,1/2-z
-x,-y,-z
x,-y,1/2+z
1/2+x,1/2+y,z
1/2-x,1/2+y,1/2-z
1/2-x,1/2-y,-z
1/2+x,1/2-y,1/2+z
loop_
_atom_site_type_symbol
_atom_site_label
_atom_site_fract_x
_atom_site_fract_y
_atom_site_fract_z
Si Si1 0.712308 0.994043 0.414587
Si Si2 0.549868 0.602332 0.890746
Si Si3 0.683094 0.968061 0.752142
Si Si4 0.092162 0.829169 0.553914
Si Si5 0.814850 0.236683 0.244235
O O1 0.698408 0.967898 0.326626
O O2 0.829309 0.902315 0.421238
O O3 0.500000 0.000000 0.500000
O O4 0.824810 0.094359 0.404200
O O5 0.637536 0.493631 0.850514
O O6 0.678554 0.674101 0.803633
O O7 0.552203 0.620618 0.981484
O O8 0.500000 0.997108 0.750000
O O9 0.679240 0.857773 0.784960
O O10 0.250000 0.750000 0.500000
O O11 0.903054 0.771238 0.633578
O O12 0.000000 0.234651 0.250000
#
# Coordination Sequence:
#
# PCOD8154946 Si02
#       5
#     8   8   8   8   8
#     4  12  27  47  75 113 153 206 264 323 390 472
#     4  12  26  49  79 111 159 211 258 328 396 471
#     4  12  26  47  75 108 154 208 259 320 393 461
#     4  12  25  48  79 113 157 202 261 318 400 471
#     4  12  24  49  76 112 156 205 254 327 391 467
#
# _framework density 24.324328999999999
#
# number of rings (size 3 to 8) (size 9 to 14) (size 15 to 20)
#    0.000    0.000    6.000    3.000    5.600    1.600 
#    0.000    2.000    0.000    0.000    0.000    0.000 
#    0.000    0.000    0.000    0.000    0.000    0.000 
#
# Total GULP energy -247855.772510 kJ/mol
# GULP energy per Si atom -12392.788626 kJ/mol
# Density = 2.426897 g / cm^3
# Si number density = 24.324329 Si / 1000 Ang^3
#
#
#
# Elastic Constant Matrix: (Units=GPa)
#
#
# Indices 1 2 3 4 5 6 
#
# 1 189.7121 39.4079 83.7550 -0.0002 12.9361 0.0003
# 2 39.4079 62.7004 27.1197 -0.0001 7.0454 0.0001
# 3 83.7550 27.1197 165.1570 -0.0001 7.5567 0.0001
# 4 -0.0002 -0.0001 -0.0001 46.2913 0.0001 -5.7257
# 5 12.9361 7.0454 7.5567 0.0001 51.7073 -0.0002
# 6 0.0003 0.0001 0.0001 -5.7257 -0.0002 34.4357
#
#
#
# Elastic Compliance Matrix: (Units=1/GPa)
#
#
# Indices 1 2 3 4 5 6 
#
# 1 0.007402 -0.003165 -0.003190 0.000000 -0.000954 0.000000
# 2 -0.003165 0.018717 -0.001397 0.000000 -0.001554 0.000000
# 3 -0.003190 -0.001397 0.007910 0.000000 -0.000167 0.000000
# 4 0.000000 0.000000 0.000000 0.022056 0.000000 0.003667
# 5 -0.000954 -0.001554 -0.000167 0.000000 0.019815 0.000000
# 6 0.000000 0.000000 0.000000 0.003667 0.000000 0.029649
#
#
# Mechanical properties :
#
#
# Convention : Reuss Voigt Hill
#
# Bulk Modulus (GPa) = 53.98510 79.79277 66.88893
# Shear Modulus (GPa) = 39.29905 44.30598 41.80252
#
# Velocity S-wave (km/s) = 4.02385 4.27250 4.15003
# Velocity P-wave (km/s) = 6.62046 7.56398 7.10790
#
# Compressibility (1/GPa) = 0.01852363
#
# Stress axis : x y z
#
# Youngs Moduli (GPa) = 135.09425 53.42675 126.42415
#
# Poissons Ratio (x) = 0.16911 0.40335
# Poissons Ratio (y) = 0.42760 0.17664
# Poissons Ratio (z) = 0.43101 0.07465
#
# Static dielectric constant tensor:
#      x y z
#    x 4.864610 0.000000 -0.102960 
#    y 0.000000 4.388740 0.000000 
#    z -0.102960 0.000000 4.600760 
# 
# 
# High freq. dielectric constant tensor:
#      x y z
#    x 1.968700 0.000000 -0.000850 
#    y 0.000000 1.965650 0.000000 
#    z -0.000850 0.000000 1.985670 
# 
# From -- ./inp_files/188694.got.cif
#   From: 2010.06.25/outbox.cif.g09.slc.cpg/sg15_95_cif.got.tgz:188694.got - 2010.06.28 07:06:18.
