data_PCOD8154392
_publ_section_title
;
Structure prediction by ZEFSAII (Michael W. Deem and Ramdas Pophale) SiO2 
 PCOD8154392
Probable space group: C 2/C
;
_chemical_formula_sum "Si O2"
_cell_formula_units_Z 24
_cell_length_a 4.805032
_cell_length_b 12.984869
_cell_length_c 13.406040
_cell_angle_alpha 90.000000
_cell_angle_beta 82.522713
_cell_angle_gamma 90.000000
_cell_volume 829.326542
_symmetry_space_group_name_H-M "C 2/C"
_symmetry_group_IT_number 15
_symmetry_cell_setting 'monoclinic'
loop_
_space_group_symop_operation_xyz
x,y,z
-x,y,1/2-z
-x,-y,-z
x,-y,1/2+z
1/2+x,1/2+y,z
1/2-x,1/2+y,1/2-z
1/2-x,1/2-y,-z
1/2+x,1/2-y,1/2+z
loop_
_atom_site_type_symbol
_atom_site_label
_atom_site_fract_x
_atom_site_fract_y
_atom_site_fract_z
Si Si1 0.823239 0.687134 0.857946
Si Si2 0.499198 0.519460 0.364517
Si Si3 0.486781 0.127795 0.445838
O O1 0.598657 0.595835 0.874691
O O2 0.653000 0.793418 0.865009
O O3 0.000000 0.674047 0.750000
O O4 0.032167 0.678750 0.943642
O O5 0.500000 0.552599 0.250000
O O6 0.185310 0.524081 0.428598
O O7 0.682604 0.604215 0.415297
#
# Coordination Sequence:
#
# PCOD8154392 Si02
#       3
#     8   8   8
#     4  11  26  47  76 109 144 191 245 297 360 430
#     4  12  26  47  74 107 146 191 240 295 361 432
#     4  11  27  49  74 106 148 190 239 302 360 425
#
# _framework density 28.939146000000001
#
# number of rings (size 3 to 8) (size 9 to 14) (size 15 to 20)
#    0.000    0.667    0.000    6.000    0.000   16.000 
#    0.000    0.000    0.000    0.000    0.000    0.000 
#    0.000    0.000    0.000    0.000    0.000    0.000 
#
# Total GULP energy -148942.981143 kJ/mol
# GULP energy per Si atom -12411.915095 kJ/mol
# Density = 2.887328 g / cm^3
# Si number density = 28.939146 Si / 1000 Ang^3
#
#
#
# Elastic Constant Matrix: (Units=GPa)
#
#
# Indices 1 2 3 4 5 6 
#
# 1 127.5245 -9.9000 38.4234 0.0000 9.5184 0.0000
# 2 -9.9000 67.9638 -14.7515 0.0000 15.3050 0.0000
# 3 38.4234 -14.7515 188.8880 0.0000 8.6245 0.0000
# 4 0.0000 0.0000 0.0000 21.7384 0.0000 3.5249
# 5 9.5184 15.3050 8.6245 0.0000 47.2963 0.0000
# 6 0.0000 0.0000 0.0000 3.5249 0.0000 -0.9521
#
#
#
# Elastic Compliance Matrix: (Units=1/GPa)
#
#
# Indices 1 2 3 4 5 6 
#
# 1 0.008551 0.001330 -0.001550 0.000000 -0.001869 0.000000
# 2 0.001330 0.016502 0.001285 0.000000 -0.005842 0.000000
# 3 -0.001550 0.001285 0.005763 0.000000 -0.001155 0.000000
# 4 0.000000 0.000000 0.000000 0.028745 0.000000 0.106420
# 5 -0.001869 -0.005842 -0.001155 0.000000 0.023620 0.000000
# 6 0.000000 0.000000 0.000000 0.106420 0.000000 -0.656300
#
#
# Mechanical properties :
#
#
# Convention : Reuss Voigt Hill
#
# Bulk Modulus (GPa) = 30.35352 45.76889 38.06120
# Shear Modulus (GPa) = -8.86107 38.32347 14.73120
#
# Velocity S-wave (km/s) = -1.75175 3.64301 2.25864
# Velocity P-wave (km/s) = 2.53378 5.79183 4.47020
#
# Compressibility (1/GPa) = 0.03294511
#
# Stress axis : x y z
#
# Youngs Moduli (GPa) = 116.93891 60.59897 173.53332
#
# Poissons Ratio (x) = -0.08059 0.26904
# Poissons Ratio (y) = -0.15552 -0.22298
# Poissons Ratio (z) = 0.18130 -0.07787
#
# Static dielectric constant tensor:
#      x y z
#    x 5.238930 0.000000 0.158820 
#    y 0.000000 5.597720 0.000000 
#    z 0.158820 0.000000 5.679230 
# 
# 
# High freq. dielectric constant tensor:
#      x y z
#    x 2.177790 0.000000 -0.008410 
#    y 0.000000 2.204840 0.000000 
#    z -0.008410 0.000000 2.196310 
# 
# From -- ./inp_files/127792.got.cif
#   From: 2010.06.25/outbox.cif.g09.slc.cpg/sg15_64_cif.got.tgz:127792.got - 2010.06.28 07:06:18.
