data_PCOD8154349
_publ_section_title
;
Structure prediction by ZEFSAII (Michael W. Deem and Ramdas Pophale) SiO2 
 PCOD8154349
Probable space group: C 2/C
;
_chemical_formula_sum "Si O2"
_cell_formula_units_Z 56
_cell_length_a 17.214555
_cell_length_b 17.719304
_cell_length_c 8.588587
_cell_angle_alpha 90.000000
_cell_angle_beta 65.531057
_cell_angle_gamma 90.000000
_cell_volume 2384.483338
_symmetry_space_group_name_H-M "C 2/C"
_symmetry_group_IT_number 15
_symmetry_cell_setting 'monoclinic'
loop_
_space_group_symop_operation_xyz
x,y,z
-x,y,1/2-z
-x,-y,-z
x,-y,1/2+z
1/2+x,1/2+y,z
1/2-x,1/2+y,1/2-z
1/2-x,1/2-y,-z
1/2+x,1/2-y,1/2+z
loop_
_atom_site_type_symbol
_atom_site_label
_atom_site_fract_x
_atom_site_fract_y
_atom_site_fract_z
Si Si1 0.101647 0.089948 0.486277
Si Si2 0.714935 0.324544 0.112704
Si Si3 0.426984 0.846030 0.421462
Si Si4 0.122446 0.939721 0.614431
Si Si5 0.937688 0.460946 0.665596
Si Si6 0.553717 0.685916 0.968248
Si Si7 0.300163 0.090774 0.813279
O O1 0.186339 0.121225 0.497826
O O2 0.130483 0.064607 0.291796
O O3 0.027929 0.153674 0.557005
O O4 0.072128 0.015543 0.605220
O O5 0.635331 0.305229 0.289613
O O6 0.786089 0.370504 0.154992
O O7 0.750000 0.250000 0.000000
O O8 0.500000 0.885417 0.250000
O O9 0.402482 0.888702 0.601217
O O10 0.465211 0.765581 0.437141
O O11 0.340764 0.843710 0.389225
O O12 0.067845 0.869976 0.600017
O O13 0.213720 0.939678 0.457363
O O14 0.860793 0.517389 0.769975
O O15 0.000000 0.431964 0.750000
O O16 0.000000 0.500000 0.500000
#
# Coordination Sequence:
#
# PCOD8154349 Si02
#       7
#     8   8   8   8   8   8   8
#     4  12  26  49  75 110 148 196 250 304 375 446
#     4  11  29  47  73 110 148 191 246 309 373 441
#     4  12  26  46  76 108 149 198 247 306 374 450
#     4  11  26  45  78 109 144 197 249 313 372 442
#     4  12  24  45  70 105 143 195 245 300 366 446
#     4  11  27  49  75 107 147 197 244 305 374 452
#     4  11  26  46  72 108 152 191 251 307 376 443
#
# _framework density 23.485171999999999
#
# number of rings (size 3 to 8) (size 9 to 14) (size 15 to 20)
#    0.000    0.571    2.857    3.857   10.000    4.571 
#    0.000    0.000    0.000    0.000    0.000    0.000 
#    0.000    0.000    0.000    0.000    0.000    0.000 
#
# Total GULP energy -347146.179998 kJ/mol
# GULP energy per Si atom -12398.077857 kJ/mol
# Density = 2.343172 g / cm^3
# Si number density = 23.485172 Si / 1000 Ang^3
#
#
#
# Elastic Constant Matrix: (Units=GPa)
#
#
# Indices 1 2 3 4 5 6 
#
# 1 147.1600 58.0419 48.0168 0.0000 32.9361 0.0000
# 2 58.0419 137.8266 47.2441 0.0000 22.6039 0.0000
# 3 48.0168 47.2441 114.3589 0.0000 32.3768 0.0000
# 4 0.0000 0.0000 0.0000 26.2638 0.0000 12.8782
# 5 32.9361 22.6039 32.3768 0.0000 52.8755 0.0000
# 6 0.0000 0.0000 0.0000 12.8782 0.0000 36.3938
#
#
#
# Elastic Compliance Matrix: (Units=1/GPa)
#
#
# Indices 1 2 3 4 5 6 
#
# 1 0.009222 -0.002704 -0.001761 0.000000 -0.003510 0.000000
# 2 -0.002704 0.009387 -0.002520 0.000000 -0.000785 0.000000
# 3 -0.001761 -0.002520 0.011988 0.000000 -0.005166 0.000000
# 4 0.000000 0.000000 0.000000 0.046069 0.000000 -0.016302
# 5 -0.003510 -0.000785 -0.005166 0.000000 0.024598 0.000000
# 6 0.000000 0.000000 0.000000 -0.016302 0.000000 0.033246
#
#
# Mechanical properties :
#
#
# Convention : Reuss Voigt Hill
#
# Bulk Modulus (GPa) = 60.14947 78.43902 69.29424
# Shear Modulus (GPa) = 32.46291 39.50946 35.98618
#
# Velocity S-wave (km/s) = 3.72193 4.10605 3.91870
# Velocity P-wave (km/s) = 6.64361 7.48007 7.07422
#
# Compressibility (1/GPa) = 0.01662525
#
# Stress axis : x y z
#
# Youngs Moduli (GPa) = 108.43405 106.53056 83.41973
#
# Poissons Ratio (x) = 0.28809 0.14692
# Poissons Ratio (y) = 0.29324 0.21023
# Poissons Ratio (z) = 0.19098 0.26848
#
# Static dielectric constant tensor:
#      x y z
#    x 4.520020 0.000000 0.143970 
#    y 0.000000 4.478270 0.000000 
#    z 0.143970 0.000000 3.799520 
# 
# 
# High freq. dielectric constant tensor:
#      x y z
#    x 1.940560 0.000000 0.009730 
#    y 0.000000 1.929670 0.000000 
#    z 0.009730 0.000000 1.944080 
# 
# From -- ./inp_files/49033.got.cif
#   From: 2010.06.25/outbox.cif.g09.slc.cpg/sg15_25_cif.got.tgz:49033.got - 2010.06.28 07:06:18.
