data_PCOD8154249
_publ_section_title
;
Structure prediction by ZEFSAII (Michael W. Deem and Ramdas Pophale) SiO2 
 PCOD8154249
Probable space group: C 2/C
;
_chemical_formula_sum "Si O2"
_cell_formula_units_Z 40
_cell_length_a 12.996816
_cell_length_b 8.387439
_cell_length_c 27.378080
_cell_angle_alpha 90.000000
_cell_angle_beta 31.150068
_cell_angle_gamma 90.000000
_cell_volume 1543.818286
_symmetry_space_group_name_H-M "C 2/C"
_symmetry_group_IT_number 15
_symmetry_cell_setting 'monoclinic'
loop_
_space_group_symop_operation_xyz
x,y,z
-x,y,1/2-z
-x,-y,-z
x,-y,1/2+z
1/2+x,1/2+y,z
1/2-x,1/2+y,1/2-z
1/2-x,1/2-y,-z
1/2+x,1/2-y,1/2+z
loop_
_atom_site_type_symbol
_atom_site_label
_atom_site_fract_x
_atom_site_fract_y
_atom_site_fract_z
Si Si1 0.564564 0.071506 0.878730
Si Si2 0.648629 0.459642 0.076675
Si Si3 0.372492 0.688248 0.230826
Si Si4 0.154919 0.765094 0.932236
Si Si5 0.678391 0.415604 0.373666
O O1 0.670209 0.913388 0.816291
O O2 0.620412 0.222929 0.823773
O O3 0.635015 0.113365 0.904880
O O4 0.328630 0.040995 0.974282
O O5 0.566171 0.573974 0.154027
O O6 0.714727 0.291605 0.074177
O O7 0.468767 0.437515 0.112401
O O8 0.369487 0.817078 0.276184
O O9 0.255778 0.917168 0.864597
O O10 0.933750 0.816085 0.038771
#
# Coordination Sequence:
#
# PCOD8154249 Si02
#       5
#     8   8   8   8   8
#     4  12  25  48  73 111 154 200 259 322 382 470
#     4  12  25  47  81 106 155 210 245 324 407 442
#     4  12  25  47  77 109 156 200 260 319 387 463
#     4  11  25  47  77 110 151 198 260 321 386 471
#     4  11  25  49  76 112 151 198 263 323 380 473
#
# _framework density 25.909786
#
# number of rings (size 3 to 8) (size 9 to 14) (size 15 to 20)
#    0.000    0.400    6.000    1.800    0.000    0.800 
#    0.000    2.000    4.400    0.000    0.000    0.000 
#    0.000    0.000    0.000    0.000    0.000    0.000 
#
# Total GULP energy -248029.966983 kJ/mol
# GULP energy per Si atom -12401.498349 kJ/mol
# Density = 2.585081 g / cm^3
# Si number density = 25.909786 Si / 1000 Ang^3
#
#
#
# Elastic Constant Matrix: (Units=GPa)
#
#
# Indices 1 2 3 4 5 6 
#
# 1 80.2812 43.5272 12.8706 -0.0004 7.1906 0.0016
# 2 43.5272 139.3469 60.2784 0.0004 14.6843 0.0019
# 3 12.8706 60.2784 153.0183 -0.0016 11.5223 0.0044
# 4 -0.0004 0.0004 -0.0016 68.9202 -0.0003 21.1726
# 5 7.1906 14.6843 11.5223 -0.0003 22.7149 0.0003
# 6 0.0016 0.0019 0.0044 21.1726 0.0003 42.4702
#
#
#
# Elastic Compliance Matrix: (Units=1/GPa)
#
#
# Indices 1 2 3 4 5 6 
#
# 1 0.015147 -0.004858 0.000795 0.000000 -0.002057 -0.000001
# 2 -0.004858 0.010576 -0.003492 0.000000 -0.003528 0.000000
# 3 0.000795 -0.003492 0.007998 0.000000 -0.002051 -0.000001
# 4 0.000000 0.000000 0.000000 0.017134 0.000000 -0.008542
# 5 -0.002057 -0.003528 -0.002051 0.000000 0.047996 0.000000
# 6 -0.000001 0.000000 -0.000001 -0.008542 0.000000 0.027804
#
#
# Mechanical properties :
#
#
# Convention : Reuss Voigt Hill
#
# Bulk Modulus (GPa) = 53.73319 67.33319 60.53319
# Shear Modulus (GPa) = 33.79041 43.88573 38.83807
#
# Velocity S-wave (km/s) = 3.61523 4.12003 3.87586
# Velocity P-wave (km/s) = 6.18143 6.97688 6.59117
#
# Compressibility (1/GPa) = 0.01861047
#
# Stress axis : x y z
#
# Youngs Moduli (GPa) = 66.01853 94.55117 125.02512
#
# Poissons Ratio (x) = 0.45938 -0.09937
# Poissons Ratio (y) = 0.32075 0.43659
# Poissons Ratio (z) = -0.05247 0.33017
#
# Static dielectric constant tensor:
#      x y z
#    x 4.162120 0.000000 0.363390 
#    y 0.000000 5.057850 0.000000 
#    z 0.363390 0.000000 5.088640 
# 
# 
# High freq. dielectric constant tensor:
#      x y z
#    x 2.014030 0.000000 0.021850 
#    y 0.000000 2.055370 0.000000 
#    z 0.021850 0.000000 2.049420 
# 
# From -- ./inp_files/313048.got.cif
#   From: 2010.06.25/outbox.cif.g09.slc.cpg/sg15_157_cif.got.tgz:313048.got - 2010.06.28 07:06:18.
