data_PCOD8154484
_publ_section_title
;
Structure prediction by ZEFSAII (Michael W. Deem and Ramdas Pophale) SiO2 
 PCOD8154484
Probable space group: C 2/C
;
_chemical_formula_sum "Si O2"
_cell_formula_units_Z 56
_cell_length_a 27.139587
_cell_length_b 13.884711
_cell_length_c 9.328758
_cell_angle_alpha 90.000000
_cell_angle_beta 121.235527
_cell_angle_gamma 90.000000
_cell_volume 3005.742723
_symmetry_space_group_name_H-M "C 2/C"
_symmetry_group_IT_number 15
_symmetry_cell_setting 'monoclinic'
loop_
_space_group_symop_operation_xyz
x,y,z
-x,y,1/2-z
-x,-y,-z
x,-y,1/2+z
1/2+x,1/2+y,z
1/2-x,1/2+y,1/2-z
1/2-x,1/2-y,-z
1/2+x,1/2-y,1/2+z
loop_
_atom_site_type_symbol
_atom_site_label
_atom_site_fract_x
_atom_site_fract_y
_atom_site_fract_z
Si Si1 0.753957 0.476276 0.097038
Si Si2 0.717168 0.226828 0.809138
Si Si3 0.176743 0.007233 0.737459
Si Si4 0.789684 0.692528 0.167255
Si Si5 0.388254 0.679708 0.749163
Si Si6 0.503801 0.603896 0.429066
Si Si7 0.101693 0.163228 0.067635
O O1 0.793552 0.388837 0.214210
O O2 0.696962 0.472881 0.108043
O O3 0.787867 0.576928 0.151140
O O4 0.729389 0.454323 0.900163
O O5 0.764445 0.271709 0.776916
O O6 0.653418 0.268310 0.694643
O O7 0.750000 0.250000 0.000000
O O8 0.119215 0.945794 0.630336
O O9 0.162463 0.101101 0.809786
O O10 0.857047 0.719457 0.241665
O O11 0.750000 0.750000 0.000000
O O12 0.411972 0.679015 0.621734
O O13 0.437112 0.656857 0.939251
O O14 0.500000 0.593690 0.250000
O O15 0.500000 0.500000 0.500000
O O16 0.455002 0.676295 0.419813
#
# Coordination Sequence:
#
# PCOD8154484 Si02
#       7
#     8   8   8   8   8   8   8
#     4  12  22  36  56  94 128 168 200 246 307 380
#     4  12  23  35  60  93 130 164 204 259 314 373
#     4  12  20  33  60  86 126 159 199 243 299 367
#     4  12  21  39  60  89 126 168 205 251 313 373
#     4  12  24  40  62  86 126 167 208 256 305 376
#     4  12  28  42  64  90 121 165 213 259 317 375
#     4  12  24  41  58  91 125 166 209 254 309 372
#
# _framework density 18.631001999999999
#
# number of rings (size 3 to 8) (size 9 to 14) (size 15 to 20)
#    0.000    0.000   10.000    1.286    4.000    0.000 
#    0.000    0.000    0.000    0.857    0.000    0.000 
#    0.000    0.000    0.000    0.000    0.000    0.000 
#
# Total GULP energy -346986.036364 kJ/mol
# GULP energy per Si atom -12392.358442 kJ/mol
# Density = 1.858860 g / cm^3
# Si number density = 18.631002 Si / 1000 Ang^3
#
#
#
# Elastic Constant Matrix: (Units=GPa)
#
#
# Indices 1 2 3 4 5 6 
#
# 1 104.1810 31.6432 44.0623 0.0000 -4.7149 0.0000
# 2 31.6432 82.6591 25.4638 0.0000 3.7612 0.0000
# 3 44.0623 25.4638 126.2503 0.0000 -8.6886 0.0000
# 4 0.0000 0.0000 0.0000 22.4975 0.0000 3.5912
# 5 -4.7149 3.7612 -8.6886 0.0000 32.9385 0.0000
# 6 0.0000 0.0000 0.0000 3.5912 0.0000 25.3450
#
#
#
# Elastic Compliance Matrix: (Units=1/GPa)
#
#
# Indices 1 2 3 4 5 6 
#
# 1 0.012228 -0.003679 -0.003439 0.000000 0.001263 0.000000
# 2 -0.003679 0.014165 -0.001752 0.000000 -0.002606 0.000000
# 3 -0.003439 -0.001752 0.009629 0.000000 0.002248 0.000000
# 4 0.000000 0.000000 0.000000 0.045478 0.000000 -0.006444
# 5 0.001263 -0.002606 0.002248 0.000000 0.031431 0.000000
# 6 0.000000 0.000000 0.000000 -0.006444 0.000000 0.040369
#
#
# Mechanical properties :
#
#
# Convention : Reuss Voigt Hill
#
# Bulk Modulus (GPa) = 54.70023 57.26988 55.98506
# Shear Modulus (GPa) = 28.22742 30.28425 29.25584
#
# Velocity S-wave (km/s) = 3.89662 4.03609 3.96697
# Velocity P-wave (km/s) = 7.04758 7.24747 7.14823
#
# Compressibility (1/GPa) = 0.01828146
#
# Stress axis : x y z
#
# Youngs Moduli (GPa) = 81.78205 70.59798 103.85341
#
# Poissons Ratio (x) = 0.25974 0.35710
# Poissons Ratio (y) = 0.30089 0.18198
# Poissons Ratio (z) = 0.28121 0.12371
#
# Static dielectric constant tensor:
#      x y z
#    x 3.419580 0.000000 -0.157610 
#    y 0.000000 3.564170 0.000000 
#    z -0.157610 0.000000 3.483300 
# 
# 
# High freq. dielectric constant tensor:
#      x y z
#    x 1.714450 0.000000 -0.019460 
#    y 0.000000 1.708460 0.000000 
#    z -0.019460 0.000000 1.736180 
# 
# From -- ./inp_files/55600.got.cif
#   From: 2010.06.25/outbox.cif.g09.slc.cpg/sg15_28_cif.got.tgz:55600.got - 2010.06.28 07:06:18.
