data_PCOD8154147
_publ_section_title
;
Structure prediction by ZEFSAII (Michael W. Deem and Ramdas Pophale) SiO2 
 PCOD8154147
Probable space group: C 2/C
;
_chemical_formula_sum "Si O2"
_cell_formula_units_Z 60
_cell_length_a 19.950135
_cell_length_b 6.472854
_cell_length_c 25.055977
_cell_angle_alpha 90.000000
_cell_angle_beta 56.258500
_cell_angle_gamma 90.000000
_cell_volume 2690.558360
_symmetry_space_group_name_H-M "C 2/C"
_symmetry_group_IT_number 15
_symmetry_cell_setting 'monoclinic'
loop_
_space_group_symop_operation_xyz
x,y,z
-x,y,1/2-z
-x,-y,-z
x,-y,1/2+z
1/2+x,1/2+y,z
1/2-x,1/2+y,1/2-z
1/2-x,1/2-y,-z
1/2+x,1/2-y,1/2+z
loop_
_atom_site_type_symbol
_atom_site_label
_atom_site_fract_x
_atom_site_fract_y
_atom_site_fract_z
Si Si1 0.500000 0.740556 0.250000
Si Si2 0.894024 0.109557 0.118870
Si Si3 0.779062 0.342007 0.932079
Si Si4 0.905714 0.084474 0.727878
Si Si5 0.186852 0.199301 0.925192
Si Si6 0.461933 0.921840 0.850896
Si Si7 0.761667 0.404749 0.149405
Si Si8 0.033756 0.387944 0.037114
O O1 0.570459 0.600292 0.243159
O O2 0.537018 0.872828 0.185362
O O3 0.837429 0.313738 0.149080
O O4 0.985128 0.176331 0.066457
O O5 0.893885 0.988786 0.173554
O O6 0.865931 0.961957 0.084232
O O7 0.750971 0.579911 0.934572
O O8 0.874878 0.317639 0.883793
O O9 0.735018 0.198170 0.909541
O O10 0.750000 0.250000 0.000000
O O11 0.819050 0.166255 0.784878
O O12 0.970821 0.267435 0.701826
O O13 0.231378 0.348572 0.862674
O O14 0.127935 0.333949 0.988938
O O15 0.478179 0.969144 0.905737
O O16 0.000000 0.500000 0.000000
#
# Coordination Sequence:
#
# PCOD8154147 Si02
#       8
#     4   8   8   8   8   8   8   8
#     4  12  24  48  68  98 136 180 234 282 344 420
#     4  11  26  44  69 106 136 186 234 285 355 422
#     4  11  26  44  69 102 138 180 234 284 355 418
#     4  12  27  44  73  99 140 184 235 289 350 420
#     4  11  25  45  72 100 144 182 229 297 348 426
#     4  12  27  46  71 104 140 185 232 295 350 420
#     4  11  25  46  67 102 137 183 233 289 349 415
#     4  12  24  46  75 104 145 184 236 291 360 424
#
# _framework density 22.300204000000001
#
# number of rings (size 3 to 8) (size 9 to 14) (size 15 to 20)
#    0.000    0.533    2.667    4.800    5.600    4.267 
#    0.000    0.000    0.000    0.000    0.000    0.000 
#    0.000    0.000    0.000    0.000    0.000    0.000 
#
# Total GULP energy -372155.352844 kJ/mol
# GULP energy per Si atom -12405.178428 kJ/mol
# Density = 2.224945 g / cm^3
# Si number density = 22.300204 Si / 1000 Ang^3
#
#
#
# Elastic Constant Matrix: (Units=GPa)
#
#
# Indices 1 2 3 4 5 6 
#
# 1 80.1494 23.5669 27.3614 0.0152 -11.2535 -0.0050
# 2 23.5669 97.8537 27.8293 0.0376 -7.0615 -0.0455
# 3 27.3614 27.8293 105.9015 0.0077 -9.4824 -0.0192
# 4 0.0152 0.0376 0.0077 40.3966 -0.0004 2.8374
# 5 -11.2535 -7.0615 -9.4824 -0.0004 51.1635 0.0096
# 6 -0.0050 -0.0455 -0.0192 2.8374 0.0096 45.5261
#
#
#
# Elastic Compliance Matrix: (Units=1/GPa)
#
#
# Indices 1 2 3 4 5 6 
#
# 1 0.014525 -0.002510 -0.002886 -0.000002 0.002313 -0.000002
# 2 -0.002510 0.011530 -0.002327 -0.000010 0.000608 0.000011
# 3 -0.002886 -0.002327 0.010895 0.000001 0.001063 0.000002
# 4 -0.000002 -0.000010 0.000001 0.024863 -0.000001 -0.001550
# 5 0.002313 0.000608 0.001063 -0.000001 0.020335 -0.000003
# 6 -0.000002 0.000011 0.000002 -0.001550 -0.000003 0.022062
#
#
# Mechanical properties :
#
#
# Convention : Reuss Voigt Hill
#
# Bulk Modulus (GPa) = 46.50463 49.04665 47.77564
# Shear Modulus (GPa) = 39.42479 41.09371 40.25925
#
# Velocity S-wave (km/s) = 4.20922 4.29738 4.25353
# Velocity P-wave (km/s) = 6.67252 6.83117 6.75231
#
# Compressibility (1/GPa) = 0.02150324
#
# Stress axis : x y z
#
# Youngs Moduli (GPa) = 68.84741 86.73374 91.78521
#
# Poissons Ratio (x) = 0.21774 0.26488
# Poissons Ratio (y) = 0.17284 0.21356
# Poissons Ratio (z) = 0.19869 0.20181
#
# Static dielectric constant tensor:
#      x y z
#    x 4.197530 -0.000060 -0.008070 
#    y -0.000060 4.180630 -0.000240 
#    z -0.008070 -0.000240 4.035690 
# 
# 
# High freq. dielectric constant tensor:
#      x y z
#    x 1.890750 -0.000010 0.001220 
#    y -0.000010 1.881990 -0.000010 
#    z 0.001220 -0.000010 1.886880 
# 
# From -- ./inp_files/300114.got.cif
#   From: 2010.06.25/outbox.cif.g09.slc.cpg/sg15_151_cif.got.tgz:300114.got - 2010.06.28 07:06:18.
