data_PCOD8154193
_publ_section_title
;
Structure prediction by ZEFSAII (Michael W. Deem and Ramdas Pophale) SiO2 
 PCOD8154193
Probable space group: C 2/C
;
_chemical_formula_sum "Si O2"
_cell_formula_units_Z 36
_cell_length_a 14.491712
_cell_length_b 11.518832
_cell_length_c 13.736684
_cell_angle_alpha 90.000000
_cell_angle_beta 145.241439
_cell_angle_gamma 90.000000
_cell_volume 1307.302107
_symmetry_space_group_name_H-M "C 2/C"
_symmetry_group_IT_number 15
_symmetry_cell_setting 'monoclinic'
loop_
_space_group_symop_operation_xyz
x,y,z
-x,y,1/2-z
-x,-y,-z
x,-y,1/2+z
1/2+x,1/2+y,z
1/2-x,1/2+y,1/2-z
1/2-x,1/2-y,-z
1/2+x,1/2-y,1/2+z
loop_
_atom_site_type_symbol
_atom_site_label
_atom_site_fract_x
_atom_site_fract_y
_atom_site_fract_z
Si Si1 0.653493 0.182066 0.541856
Si Si2 0.404749 0.646174 0.266698
Si Si3 0.021361 0.384123 0.435815
Si Si4 0.500000 0.047366 0.250000
Si Si5 0.509904 0.403317 0.143735
O O1 0.531667 0.093066 0.496902
O O2 0.626976 0.321455 0.520768
O O3 0.828510 0.168855 0.739181
O O4 0.637227 0.132418 0.416268
O O5 0.500000 0.671276 0.250000
O O6 0.213875 0.620295 0.082952
O O7 0.434628 0.757462 0.358365
O O8 0.481920 0.534789 0.390850
O O9 0.932809 0.463065 0.277191
O O10 0.500000 0.421273 0.250000
#
# Coordination Sequence:
#
# PCOD8154193 Si02
#       5
#     8   8   8   4   8
#     4  12  26  48  73 106 141 187 237 288 351 418
#     4  11  25  46  72 107 143 183 235 288 353 416
#     4  12  26  48  73 106 141 187 237 288 351 418
#     4  12  26  44  80  96 148 188 230 292 356 410
#     4  11  25  46  72 107 143 183 235 288 353 416
#
# _framework density 27.537627000000001
#
# number of rings (size 3 to 8) (size 9 to 14) (size 15 to 20)
#    0.000    0.444    4.444    3.333    0.000    0.889 
#    0.000    0.000    0.000    0.000    0.000    0.000 
#    0.000    0.000    0.000    0.000    0.000    0.000 
#
# Total GULP energy -223098.814337 kJ/mol
# GULP energy per Si atom -12394.378574 kJ/mol
# Density = 2.747495 g / cm^3
# Si number density = 27.537627 Si / 1000 Ang^3
#
#
#
# Elastic Constant Matrix: (Units=GPa)
#
#
# Indices 1 2 3 4 5 6 
#
# 1 91.3651 -28.4673 15.7620 0.0000 10.0369 0.0000
# 2 -28.4673 131.3877 11.6035 0.0000 -9.3752 0.0000
# 3 15.7620 11.6035 53.4006 -0.0001 3.9046 -0.0001
# 4 0.0000 0.0000 -0.0001 27.4601 0.0000 14.4424
# 5 10.0369 -9.3752 3.9046 0.0000 41.7764 0.0000
# 6 0.0000 0.0000 -0.0001 14.4424 0.0000 4.8234
#
#
#
# Elastic Compliance Matrix: (Units=1/GPa)
#
#
# Indices 1 2 3 4 5 6 
#
# 1 0.012849 0.003021 -0.004302 0.000000 -0.002007 0.000000
# 2 0.003021 0.008625 -0.002874 0.000000 0.001478 0.000000
# 3 -0.004302 -0.002874 0.020734 0.000000 -0.001549 0.000000
# 4 0.000000 0.000000 0.000000 -0.063353 0.000000 0.189696
# 5 -0.002007 0.001478 -0.001549 0.000000 0.024896 0.000000
# 6 0.000000 0.000000 0.000000 0.189696 0.000000 -0.360679
#
#
# Mechanical properties :
#
#
# Convention : Reuss Voigt Hill
#
# Bulk Modulus (GPa) = 29.50104 30.43888 29.96996
# Shear Modulus (GPa) = -14.82278 33.29564 9.23643
#
# Velocity S-wave (km/s) = -2.32259 3.48098 1.83341
# Velocity P-wave (km/s) = 1.88247 5.21861 3.92285
#
# Compressibility (1/GPa) = 0.03389711
#
# Stress axis : x y z
#
# Youngs Moduli (GPa) = 77.82740 115.94429 48.23007
#
# Poissons Ratio (x) = -0.35023 0.20749
# Poissons Ratio (y) = -0.23509 0.13860
# Poissons Ratio (z) = 0.33483 0.33320
#
# Static dielectric constant tensor:
#      x y z
#    x 5.152840 0.000000 -0.089860 
#    y 0.000000 5.617680 0.000000 
#    z -0.089860 0.000000 4.465250 
# 
# 
# High freq. dielectric constant tensor:
#      x y z
#    x 2.125980 0.000000 -0.015450 
#    y 0.000000 2.152260 0.000000 
#    z -0.015450 0.000000 2.077920 
# 
# From -- ./inp_files/152817.got.cif
#   From: 2010.06.25/outbox.cif.g09.slc.cpg/sg15_77_cif.got.tgz:152817.got - 2010.06.28 07:06:18.
