data_PCOD8154902
_publ_section_title
;
Structure prediction by ZEFSAII (Michael W. Deem and Ramdas Pophale) SiO2 
 PCOD8154902
Probable space group: C 2/C
;
_chemical_formula_sum "Si O2"
_cell_formula_units_Z 48
_cell_length_a 13.403247
_cell_length_b 9.689045
_cell_length_c 27.173588
_cell_angle_alpha 90.000000
_cell_angle_beta 143.883553
_cell_angle_gamma 90.000000
_cell_volume 2080.026854
_symmetry_space_group_name_H-M "C 2/C"
_symmetry_group_IT_number 15
_symmetry_cell_setting 'monoclinic'
loop_
_space_group_symop_operation_xyz
x,y,z
-x,y,1/2-z
-x,-y,-z
x,-y,1/2+z
1/2+x,1/2+y,z
1/2-x,1/2+y,1/2-z
1/2-x,1/2-y,-z
1/2+x,1/2-y,1/2+z
loop_
_atom_site_type_symbol
_atom_site_label
_atom_site_fract_x
_atom_site_fract_y
_atom_site_fract_z
Si Si1 0.181076 0.706707 0.327355
Si Si2 0.692954 0.698769 0.333745
Si Si3 0.823005 0.555819 0.833603
Si Si4 0.323516 0.854221 0.990550
Si Si5 0.698330 0.453789 0.179748
Si Si6 0.664653 0.652677 0.926922
O O1 0.170463 0.841285 0.287410
O O2 0.318705 0.595088 0.359981
O O3 0.200296 0.763117 0.390626
O O4 0.000000 0.631286 0.250000
O O5 0.500000 0.646338 0.250000
O O6 0.813709 0.592923 0.354162
O O7 0.765328 0.713704 0.416834
O O8 0.706882 0.848552 0.317130
O O9 0.826348 0.525727 0.776785
O O10 0.978026 0.640185 0.919380
O O11 0.261745 0.009797 0.965970
O O12 0.250000 0.750000 0.000000
O O13 0.525053 0.390746 0.132597
O O14 0.750000 0.750000 0.000000
#
# Coordination Sequence:
#
# PCOD8154902 Si02
#       6
#     8   8   8   8   8   8
#     4  12  26  48  75 107 150 198 249 310 379 453
#     4  12  25  46  72 103 143 187 244 302 373 450
#     4  12  24  47  73 102 145 192 249 301 377 446
#     4  12  27  46  72 106 144 191 242 309 372 446
#     4  12  27  46  75 107 144 198 248 305 375 456
#     4  12  28  48  72 109 150 191 249 311 379 445
#
# _framework density 23.076626999999998
#
# number of rings (size 3 to 8) (size 9 to 14) (size 15 to 20)
#    0.000    0.000    3.333    6.500    7.000    0.667 
#    0.000    0.000    0.000    0.000    0.000    0.000 
#    0.000    0.000    0.000    0.000    0.000    0.000 
#
# Total GULP energy -297370.938268 kJ/mol
# GULP energy per Si atom -12390.455761 kJ/mol
# Density = 2.302410 g / cm^3
# Si number density = 23.076627 Si / 1000 Ang^3
#
#
#
# Elastic Constant Matrix: (Units=GPa)
#
#
# Indices 1 2 3 4 5 6 
#
# 1 114.8552 81.2262 73.1857 0.0000 -38.5249 0.0000
# 2 81.2262 119.2975 43.9242 0.0000 -30.6556 0.0000
# 3 73.1857 43.9242 138.9212 0.0000 -31.7736 0.0000
# 4 0.0000 0.0000 0.0000 36.3904 0.0000 -10.9922
# 5 -38.5249 -30.6556 -31.7736 0.0000 48.8607 0.0000
# 6 0.0000 0.0000 0.0000 -10.9922 0.0000 63.9481
#
#
#
# Elastic Compliance Matrix: (Units=1/GPa)
#
#
# Indices 1 2 3 4 5 6 
#
# 1 0.024157 -0.012000 -0.007398 0.000000 0.006707 0.000000
# 2 -0.012000 0.016466 0.001544 0.000000 0.001873 0.000000
# 3 -0.007398 0.001544 0.011154 0.000000 0.002389 0.000000
# 4 0.000000 0.000000 0.000000 0.028985 0.000000 0.004982
# 5 0.006707 0.001873 0.002389 0.000000 0.028483 0.000000
# 6 0.000000 0.000000 0.000000 0.004982 0.000000 0.016494
#
#
# Mechanical properties :
#
#
# Convention : Reuss Voigt Hill
#
# Bulk Modulus (GPa) = 62.23410 85.52735 73.88072
# Shear Modulus (GPa) = 29.97538 41.48904 35.73221
#
# Velocity S-wave (km/s) = 3.60800 4.24474 3.93926
# Velocity P-wave (km/s) = 6.66213 7.82091 7.26466
#
# Compressibility (1/GPa) = 0.01606836
#
# Stress axis : x y z
#
# Youngs Moduli (GPa) = 41.39578 60.73143 89.65514
#
# Poissons Ratio (x) = 0.72881 0.66327
# Poissons Ratio (y) = 0.49677 -0.13845
# Poissons Ratio (z) = 0.30624 -0.09378
#
# Static dielectric constant tensor:
#      x y z
#    x 4.141420 0.000000 0.061250 
#    y 0.000000 4.288730 0.000000 
#    z 0.061250 0.000000 4.136910 
# 
# 
# High freq. dielectric constant tensor:
#      x y z
#    x 1.922590 0.000000 -0.008120 
#    y 0.000000 1.933000 0.000000 
#    z -0.008120 0.000000 1.918290 
# 
# From -- ./inp_files/295456.got.cif
#   From: 2010.06.25/outbox.cif.g09.slc.cpg/sg15_148_cif.got.tgz:295456.got - 2010.06.28 07:06:18.
