data_PCOD8154850
_publ_section_title
;
Structure prediction by ZEFSAII (Michael W. Deem and Ramdas Pophale) SiO2 
 PCOD8154850
Probable space group: C 2/C
;
_chemical_formula_sum "Si O2"
_cell_formula_units_Z 40
_cell_length_a 20.979623
_cell_length_b 14.197456
_cell_length_c 18.166484
_cell_angle_alpha 90.000000
_cell_angle_beta 160.993260
_cell_angle_gamma 90.000000
_cell_volume 1762.257438
_symmetry_space_group_name_H-M "C 2/C"
_symmetry_group_IT_number 15
_symmetry_cell_setting 'monoclinic'
loop_
_space_group_symop_operation_xyz
x,y,z
-x,y,1/2-z
-x,-y,-z
x,-y,1/2+z
1/2+x,1/2+y,z
1/2-x,1/2+y,1/2-z
1/2-x,1/2-y,-z
1/2+x,1/2-y,1/2+z
loop_
_atom_site_type_symbol
_atom_site_label
_atom_site_fract_x
_atom_site_fract_y
_atom_site_fract_z
Si Si1 0.476386 0.116319 0.444134
Si Si2 0.626697 0.698377 0.587253
Si Si3 0.802710 0.166844 0.002207
Si Si4 0.681238 0.445408 0.730314
Si Si5 0.004527 0.493297 0.674017
O O1 0.369701 0.211387 0.355472
O O2 0.711499 0.124312 0.706519
O O3 0.375345 0.041646 0.390129
O O4 0.416472 0.087641 0.295498
O O5 0.663580 0.715220 0.540822
O O6 0.404148 0.659595 0.352397
O O7 0.634105 0.088386 0.811226
O O8 0.750000 0.250000 0.000000
O O9 0.000000 0.118713 0.250000
O O10 0.500000 0.500000 0.500000
O O11 0.773767 0.482036 0.907583
O O12 0.000000 0.448947 0.750000
#
# Coordination Sequence:
#
# PCOD8154850 Si02
#       5
#     8   8   8   8   8
#     4  12  25  46  71 107 143 193 256 301 363 450
#     4  12  24  44  76 103 143 200 251 305 367 447
#     4  12  26  44  69 111 158 191 239 313 390 452
#     4  12  24  45  78 107 144 194 251 311 372 440
#     4  12  27  47  71 111 154 191 247 316 382 451
#
# _framework density 22.698160000000001
#
# number of rings (size 3 to 8) (size 9 to 14) (size 15 to 20)
#    0.000    0.000    6.000    4.800    2.800    0.000 
#    0.000    1.000    0.000    0.000    0.000    0.000 
#    0.000    0.000    0.000    0.000    0.000    0.000 
#
# Total GULP energy -247863.988611 kJ/mol
# GULP energy per Si atom -12393.199431 kJ/mol
# Density = 2.264650 g / cm^3
# Si number density = 22.698160 Si / 1000 Ang^3
#
#
#
# Elastic Constant Matrix: (Units=GPa)
#
#
# Indices 1 2 3 4 5 6 
#
# 1 195.5738 69.8624 60.3558 -0.0018 -15.4997 -0.0002
# 2 69.8624 91.1198 50.3817 -0.0065 -15.3156 -0.0042
# 3 60.3558 50.3817 170.9508 0.0057 -6.2662 0.0040
# 4 -0.0018 -0.0065 0.0057 39.7260 0.0025 -6.9347
# 5 -15.4997 -15.3156 -6.2662 0.0025 46.6092 0.0012
# 6 -0.0002 -0.0042 0.0040 -6.9347 0.0012 42.2486
#
#
#
# Elastic Compliance Matrix: (Units=1/GPa)
#
#
# Indices 1 2 3 4 5 6 
#
# 1 0.007229 -0.004817 -0.001108 0.000000 0.000672 0.000000
# 2 -0.004817 0.017029 -0.003187 0.000003 0.003565 0.000002
# 3 -0.001108 -0.003187 0.007164 -0.000002 -0.000453 -0.000001
# 4 0.000000 0.000003 -0.000002 0.025915 -0.000001 0.004254
# 5 0.000672 0.003565 -0.000453 -0.000001 0.022789 0.000000
# 6 0.000000 0.000002 -0.000001 0.004254 0.000000 0.024368
#
#
# Mechanical properties :
#
#
# Convention : Reuss Voigt Hill
#
# Bulk Modulus (GPa) = 75.77333 90.98269 83.37801
# Shear Modulus (GPa) = 39.33353 44.18640 41.75996
#
# Velocity S-wave (km/s) = 4.16732 4.41692 4.29394
# Velocity P-wave (km/s) = 7.52402 8.13530 7.83562
#
# Compressibility (1/GPa) = 0.01319726
#
# Stress axis : x y z
#
# Youngs Moduli (GPa) = 138.33013 58.72177 139.59406
#
# Poissons Ratio (x) = 0.28286 0.15467
# Poissons Ratio (y) = 0.66633 0.44495
# Poissons Ratio (z) = 0.15327 0.18717
#
# Static dielectric constant tensor:
#      x y z
#    x 4.474520 -0.000050 0.227210 
#    y -0.000050 4.118940 -0.000030 
#    z 0.227210 -0.000030 4.623880 
# 
# 
# High freq. dielectric constant tensor:
#      x y z
#    x 1.900550 0.000000 0.017900 
#    y 0.000000 1.896170 0.000000 
#    z 0.017900 0.000000 1.916360 
# 
# From -- ./inp_files/215654.got.cif
#   From: 2010.06.25/outbox.cif.g09.slc.cpg/sg15_108_cif.got.tgz:215654.got - 2010.06.28 07:06:18.
