data_PCOD8154443
_publ_section_title
;
Structure prediction by ZEFSAII (Michael W. Deem and Ramdas Pophale) SiO2 
 PCOD8154443
Probable space group: C 2/C
;
_chemical_formula_sum "Si O2"
_cell_formula_units_Z 56
_cell_length_a 10.811470
_cell_length_b 9.244246
_cell_length_c 24.106505
_cell_angle_alpha 90.000000
_cell_angle_beta 74.656890
_cell_angle_gamma 90.000000
_cell_volume 2323.427105
_symmetry_space_group_name_H-M "C 2/C"
_symmetry_group_IT_number 15
_symmetry_cell_setting 'monoclinic'
loop_
_space_group_symop_operation_xyz
x,y,z
-x,y,1/2-z
-x,-y,-z
x,-y,1/2+z
1/2+x,1/2+y,z
1/2-x,1/2+y,1/2-z
1/2-x,1/2-y,-z
1/2+x,1/2-y,1/2+z
loop_
_atom_site_type_symbol
_atom_site_label
_atom_site_fract_x
_atom_site_fract_y
_atom_site_fract_z
Si Si1 0.444258 0.352246 0.430350
Si Si2 0.784556 0.237901 0.624518
Si Si3 0.600122 0.703997 0.691327
Si Si4 0.364922 0.667666 0.456140
Si Si5 0.843261 0.454434 0.142986
Si Si6 0.577620 0.958828 0.187743
Si Si7 0.078302 0.357808 0.477753
O O1 0.598285 0.332856 0.425688
O O2 0.442299 0.350577 0.364205
O O3 0.381500 0.495543 0.464468
O O4 0.372694 0.216021 0.470237
O O5 0.668504 0.308069 0.603724
O O6 0.836481 0.372552 0.654632
O O7 0.716251 0.117373 0.669952
O O8 0.500000 0.652064 0.750000
O O9 0.736459 0.630337 0.690948
O O10 0.614488 0.874700 0.688998
O O11 0.250000 0.750000 0.500000
O O12 0.499752 0.735783 0.455277
O O13 0.816891 0.409353 0.080550
O O14 0.988547 0.419350 0.144998
O O15 0.500000 0.903764 0.250000
O O16 0.000000 0.500000 0.500000
#
# Coordination Sequence:
#
# PCOD8154443 Si02
#       7
#     8   8   8   8   8   8   8
#     4  12  26  46  74 110 145 201 243 304 384 436
#     4  12  25  46  71 102 152 184 248 300 364 448
#     4  11  27  50  73 106 145 189 249 310 366 439
#     4  12  25  45  67 109 147 190 246 293 364 448
#     4  12  25  48  71 108 147 190 242 304 372 443
#     4  11  27  46  74 106 139 197 248 305 372 435
#     4  12  24  45  72 105 152 191 238 306 365 448
#
# _framework density 24.102328
#
# number of rings (size 3 to 8) (size 9 to 14) (size 15 to 20)
#    0.000    0.286    7.143    0.429    4.000    1.143 
#    0.000    0.000    0.000    0.000    0.000    0.000 
#    0.000    0.000    0.000    0.000    0.000    0.000 
#
# Total GULP energy -347010.017793 kJ/mol
# GULP energy per Si atom -12393.214921 kJ/mol
# Density = 2.404747 g / cm^3
# Si number density = 24.102328 Si / 1000 Ang^3
#
#
#
# Elastic Constant Matrix: (Units=GPa)
#
#
# Indices 1 2 3 4 5 6 
#
# 1 74.5812 38.1449 28.2287 0.0000 -23.5093 0.0000
# 2 38.1449 155.1999 63.4448 0.0000 -25.4341 0.0000
# 3 28.2287 63.4448 121.3369 0.0000 -24.6259 0.0000
# 4 0.0000 0.0000 0.0000 38.3860 0.0000 -11.8357
# 5 -23.5093 -25.4341 -24.6259 0.0000 49.9392 0.0000
# 6 0.0000 0.0000 0.0000 -11.8357 0.0000 42.7151
#
#
#
# Elastic Compliance Matrix: (Units=1/GPa)
#
#
# Indices 1 2 3 4 5 6 
#
# 1 0.017206 -0.002674 -0.001375 0.000000 0.006060 0.000000
# 2 -0.002674 0.008853 -0.003720 0.000000 0.001416 0.000000
# 3 -0.001375 -0.003720 0.011102 0.000000 0.002933 0.000000
# 4 0.000000 0.000000 0.000000 0.028485 0.000000 0.007893
# 5 0.006060 0.001416 0.002933 0.000000 0.025045 0.000000
# 6 0.000000 0.000000 0.000000 0.007893 0.000000 0.025598
#
#
# Mechanical properties :
#
#
# Convention : Reuss Voigt Hill
#
# Bulk Modulus (GPa) = 46.24447 67.86164 57.05305
# Shear Modulus (GPa) = 35.96261 40.96136 38.46199
#
# Velocity S-wave (km/s) = 3.86694 4.12694 3.99905
# Velocity P-wave (km/s) = 6.25827 7.13622 6.71162
#
# Compressibility (1/GPa) = 0.02162421
#
# Stress axis : x y z
#
# Youngs Moduli (GPa) = 58.11774 112.95493 90.07739
#
# Poissons Ratio (x) = 0.30201 0.12386
# Poissons Ratio (y) = 0.15539 0.33506
# Poissons Ratio (z) = 0.07991 0.42016
#
# Static dielectric constant tensor:
#      x y z
#    x 5.020360 0.000000 -0.148720 
#    y 0.000000 4.423820 0.000000 
#    z -0.148720 0.000000 4.529700 
# 
# 
# High freq. dielectric constant tensor:
#      x y z
#    x 1.961460 0.000000 -0.000600 
#    y 0.000000 1.961000 0.000000 
#    z -0.000600 0.000000 1.951490 
# 
# From -- ./inp_files/291531.got.cif
#   From: 2010.06.25/outbox.cif.g09.slc.cpg/sg15_146_cif.got.tgz:291531.got - 2010.06.28 07:06:18.
