data_PCOD8154496
_publ_section_title
;
Structure prediction by ZEFSAII (Michael W. Deem and Ramdas Pophale) SiO2 
 PCOD8154496
Probable space group: C 2/C
;
_chemical_formula_sum "Si O2"
_cell_formula_units_Z 44
_cell_length_a 12.289871
_cell_length_b 22.582962
_cell_length_c 9.469282
_cell_angle_alpha 90.000000
_cell_angle_beta 124.437394
_cell_angle_gamma 90.000000
_cell_volume 2167.528207
_symmetry_space_group_name_H-M "C 2/C"
_symmetry_group_IT_number 15
_symmetry_cell_setting 'monoclinic'
loop_
_space_group_symop_operation_xyz
x,y,z
-x,y,1/2-z
-x,-y,-z
x,-y,1/2+z
1/2+x,1/2+y,z
1/2-x,1/2+y,1/2-z
1/2-x,1/2-y,-z
1/2+x,1/2-y,1/2+z
loop_
_atom_site_type_symbol
_atom_site_label
_atom_site_fract_x
_atom_site_fract_y
_atom_site_fract_z
Si Si1 0.717774 0.283234 0.829138
Si Si2 0.000000 0.876540 0.750000
Si Si3 0.776130 0.064997 0.941861
Si Si4 0.349931 0.980229 0.867973
Si Si5 0.066078 0.359705 0.652346
Si Si6 0.392918 0.832144 0.284844
O O1 0.611681 0.336266 0.759518
O O2 0.846867 0.306224 0.844109
O O3 0.663860 0.229280 0.692846
O O4 0.750000 0.250000 0.000000
O O5 0.930777 0.920700 0.584150
O O6 0.712697 0.129870 0.880077
O O7 0.746437 0.026750 0.780608
O O8 0.711451 0.030959 0.024778
O O9 0.350689 0.920327 0.773948
O O10 0.500000 0.000000 0.000000
O O11 0.000000 0.340893 0.750000
O O12 0.949579 0.371687 0.453590
O O13 0.500000 0.812204 0.250000
#
# Coordination Sequence:
#
# PCOD8154496 Si02
#       6
#     8   4   8   8   8   8
#     4  12  21  41  72  98 126 178 223 272 330 413
#     4  12  22  42  64 102 134 170 228 266 336 418
#     4  12  25  39  67  99 129 177 221 277 333 397
#     4  12  22  42  66  96 129 171 228 280 327 386
#     4  12  25  41  66 100 133 165 221 290 335 382
#     4  12  20  40  68  98 124 168 228 270 326 398
#
# _framework density 20.299619
#
# number of rings (size 3 to 8) (size 9 to 14) (size 15 to 20)
#    0.000    0.000   10.000    1.636    0.000    1.455 
#    0.000    0.000    0.000    0.000    0.000    0.000 
#    0.000    0.000    0.000    0.000    0.000    0.000 
#
# Total GULP energy -272724.307968 kJ/mol
# GULP energy per Si atom -12396.559453 kJ/mol
# Density = 2.025342 g / cm^3
# Si number density = 20.299619 Si / 1000 Ang^3
#
#
#
# Elastic Constant Matrix: (Units=GPa)
#
#
# Indices 1 2 3 4 5 6 
#
# 1 86.5082 33.3420 45.2612 0.0000 -6.7031 0.0000
# 2 33.3420 117.6467 50.1199 0.0000 7.8222 0.0000
# 3 45.2612 50.1199 112.0354 0.0000 14.9737 0.0000
# 4 0.0000 0.0000 0.0000 31.2817 0.0000 6.5758
# 5 -6.7031 7.8222 14.9737 0.0000 37.6321 0.0000
# 6 0.0000 0.0000 0.0000 6.5758 0.0000 31.0055
#
#
#
# Elastic Compliance Matrix: (Units=1/GPa)
#
#
# Indices 1 2 3 4 5 6 
#
# 1 0.016196 -0.002296 -0.006300 0.000000 0.005869 0.000000
# 2 -0.002296 0.010831 -0.003762 0.000000 -0.001163 0.000000
# 3 -0.006300 -0.003762 0.013941 0.000000 -0.005887 0.000000
# 4 0.000000 0.000000 0.000000 0.033459 0.000000 -0.007096
# 5 0.005869 -0.001163 -0.005887 0.000000 0.030203 0.000000
# 6 0.000000 0.000000 0.000000 -0.007096 0.000000 0.033757
#
#
# Mechanical properties :
#
#
# Convention : Reuss Voigt Hill
#
# Bulk Modulus (GPa) = 61.53675 63.73737 62.63706
# Shear Modulus (GPa) = 29.67009 32.48169 31.07589
#
# Velocity S-wave (km/s) = 3.82725 4.00448 3.91687
# Velocity P-wave (km/s) = 7.06473 7.26964 7.16792
#
# Compressibility (1/GPa) = 0.01625045
#
# Stress axis : x y z
#
# Youngs Moduli (GPa) = 61.74551 92.32843 71.73231
#
# Poissons Ratio (x) = 0.21201 0.45191
# Poissons Ratio (y) = 0.14178 0.26987
# Poissons Ratio (z) = 0.38899 0.34735
#
# Static dielectric constant tensor:
#      x y z
#    x 3.533800 0.000000 0.408940 
#    y 0.000000 4.039390 0.000000 
#    z 0.408940 0.000000 3.989400 
# 
# 
# High freq. dielectric constant tensor:
#      x y z
#    x 1.765720 0.000000 0.019820 
#    y 0.000000 1.815000 0.000000 
#    z 0.019820 0.000000 1.790440 
# 
# From -- ./inp_files/32754.got.cif
#   From: 2010.06.25/outbox.cif.g09.slc.cpg/sg15_17_cif.got.tgz:32754.got - 2010.06.28 07:06:18.
