data_PCOD8154757
_publ_section_title
;
Structure prediction by ZEFSAII (Michael W. Deem and Ramdas Pophale) SiO2 
 PCOD8154757
Probable space group: C 2/C
;
_chemical_formula_sum "Si O2"
_cell_formula_units_Z 60
_cell_length_a 16.034557
_cell_length_b 11.332406
_cell_length_c 16.660688
_cell_angle_alpha 90.000000
_cell_angle_beta 107.385039
_cell_angle_gamma 90.000000
_cell_volume 2889.118210
_symmetry_space_group_name_H-M "C 2/C"
_symmetry_group_IT_number 15
_symmetry_cell_setting 'monoclinic'
loop_
_space_group_symop_operation_xyz
x,y,z
-x,y,1/2-z
-x,-y,-z
x,-y,1/2+z
1/2+x,1/2+y,z
1/2-x,1/2+y,1/2-z
1/2-x,1/2-y,-z
1/2+x,1/2-y,1/2+z
loop_
_atom_site_type_symbol
_atom_site_label
_atom_site_fract_x
_atom_site_fract_y
_atom_site_fract_z
Si Si1 0.497308 0.653683 0.879819
Si Si2 0.845109 0.498191 0.649311
Si Si3 0.500000 0.848555 0.750000
Si Si4 0.426778 0.734172 0.431056
Si Si5 0.860039 0.987559 0.645213
Si Si6 0.343142 0.512047 0.326218
Si Si7 0.791051 0.370626 0.479601
Si Si8 0.063072 0.260365 0.343383
O O1 0.488960 0.773320 0.827506
O O2 0.551937 0.562069 0.841748
O O3 0.402615 0.598105 0.871447
O O4 0.545638 0.677275 0.976923
O O5 0.749589 0.493682 0.658605
O O6 0.846670 0.435483 0.563630
O O7 0.870933 0.633930 0.652487
O O8 0.914150 0.429671 0.724418
O O9 0.388190 0.634232 0.362459
O O10 0.355772 0.837256 0.425159
O O11 0.508061 0.791049 0.407561
O O12 0.829629 0.993782 0.727687
O O13 0.878183 0.854419 0.623187
O O14 0.783256 0.040026 0.569340
O O15 0.750000 0.250000 0.500000
O O16 0.000000 0.237885 0.250000
#
# Coordination Sequence:
#
# PCOD8154757 Si02
#       8
#     8   8   4   8   8   8   8   8
#     4  12  23  45  75 109 138 184 250 293 354 436
#     4  12  28  48  70 105 146 192 236 303 363 425
#     4  12  24  48  74 100 144 190 242 302 352 432
#     4  12  25  45  76 102 145 194 230 299 369 422
#     4  12  24  44  73 107 143 187 236 298 359 433
#     4  12  25  42  74 107 139 186 241 286 367 425
#     4  12  25  46  74 107 144 183 247 300 348 433
#     4  12  27  49  69 103 151 189 238 302 366 430
#
# _framework density 20.767582999999998
#
# number of rings (size 3 to 8) (size 9 to 14) (size 15 to 20)
#    0.000    0.000    8.667    0.400    3.733    2.133 
#    2.400    0.000    0.000    0.000    0.000    0.000 
#    0.000    0.000    0.000    0.000    0.000    0.000 
#
# Total GULP energy -372214.324790 kJ/mol
# GULP energy per Si atom -12407.144160 kJ/mol
# Density = 2.072032 g / cm^3
# Si number density = 20.767583 Si / 1000 Ang^3
#
#
#
# Elastic Constant Matrix: (Units=GPa)
#
#
# Indices 1 2 3 4 5 6 
#
# 1 66.9910 26.7406 4.5399 0.0000 6.5466 0.0000
# 2 26.7406 114.4662 30.5269 0.0000 14.6146 0.0000
# 3 4.5399 30.5269 85.9893 0.0000 4.0019 0.0000
# 4 0.0000 0.0000 0.0000 32.5260 0.0000 4.5209
# 5 6.5466 14.6146 4.0019 0.0000 36.8894 0.0000
# 6 0.0000 0.0000 0.0000 4.5209 0.0000 40.4862
#
#
#
# Elastic Compliance Matrix: (Units=1/GPa)
#
#
# Indices 1 2 3 4 5 6 
#
# 1 0.016563 -0.003827 0.000553 0.000000 -0.001483 0.000000
# 2 -0.003827 0.010997 -0.003549 0.000000 -0.003293 0.000000
# 3 0.000553 -0.003549 0.012864 0.000000 -0.000088 0.000000
# 4 0.000000 0.000000 0.000000 0.031229 0.000000 -0.003487
# 5 -0.001483 -0.003293 -0.000088 0.000000 0.028685 0.000000
# 6 0.000000 0.000000 0.000000 -0.003487 0.000000 0.025089
#
#
# Mechanical properties :
#
#
# Convention : Reuss Voigt Hill
#
# Bulk Modulus (GPa) = 37.34395 43.45124 40.39759
# Shear Modulus (GPa) = 33.78395 35.68959 34.73677
#
# Velocity S-wave (km/s) = 4.03769 4.15001 4.09423
# Velocity P-wave (km/s) = 6.30541 6.62808 6.46876
#
# Compressibility (1/GPa) = 0.02677810
#
# Stress axis : x y z
#
# Youngs Moduli (GPa) = 60.37700 90.93278 77.73584
#
# Poissons Ratio (x) = 0.34804 -0.04302
# Poissons Ratio (y) = 0.23109 0.27587
# Poissons Ratio (z) = -0.03341 0.32270
#
# Static dielectric constant tensor:
#      x y z
#    x 4.023620 0.000000 -0.093350 
#    y 0.000000 3.881650 0.000000 
#    z -0.093350 0.000000 3.853440 
# 
# 
# High freq. dielectric constant tensor:
#      x y z
#    x 1.822260 0.000000 -0.000610 
#    y 0.000000 1.817370 0.000000 
#    z -0.000610 0.000000 1.821320 
# 
# From -- ./inp_files/204498.got.cif
#   From: 2010.06.25/outbox.cif.g09.slc.cpg/sg15_103_cif.got.tgz:204498.got - 2010.06.28 07:06:18.
