data_PCOD8154013
_publ_section_title
;
Structure prediction by ZEFSAII (Michael W. Deem and Ramdas Pophale) SiO2 
 PCOD8154013
Probable space group: C 2/C
;
_chemical_formula_sum "Si O2"
_cell_formula_units_Z 40
_cell_length_a 20.869475
_cell_length_b 7.944291
_cell_length_c 11.494372
_cell_angle_alpha 90.000000
_cell_angle_beta 66.802359
_cell_angle_gamma 90.000000
_cell_volume 1751.616566
_symmetry_space_group_name_H-M "C 2/C"
_symmetry_group_IT_number 15
_symmetry_cell_setting 'monoclinic'
loop_
_space_group_symop_operation_xyz
x,y,z
-x,y,1/2-z
-x,-y,-z
x,-y,1/2+z
1/2+x,1/2+y,z
1/2-x,1/2+y,1/2-z
1/2-x,1/2-y,-z
1/2+x,1/2-y,1/2+z
loop_
_atom_site_type_symbol
_atom_site_label
_atom_site_fract_x
_atom_site_fract_y
_atom_site_fract_z
Si Si1 0.788557 0.775082 0.852888
Si Si2 0.460166 0.494805 0.905310
Si Si3 0.077355 0.650546 0.647284
Si Si4 0.221320 0.842670 0.182095
Si Si5 0.637114 0.193728 0.053579
O O1 0.863051 0.677778 0.796218
O O2 0.730543 0.697955 0.809794
O O3 0.805253 0.968532 0.815488
O O4 0.750000 0.750000 0.000000
O O5 0.500000 0.506538 0.750000
O O6 0.419764 0.315699 0.936998
O O7 0.408821 0.650310 0.952907
O O8 0.500000 0.500000 0.000000
O O9 0.094753 0.479079 0.566727
O O10 0.000000 0.627412 0.750000
O O11 0.163271 0.719352 0.167912
O O12 0.296460 0.808963 0.074981
#
# Coordination Sequence:
#
# PCOD8154013 Si02
#       5
#     8   8   8   8   8
#     4  12  25  48  74 107 149 195 250 311 373 446
#     4  11  27  48  72 105 149 198 241 303 379 452
#     4  11  25  47  71 110 148 190 245 304 377 450
#     4  11  26  44  76 106 145 194 252 310 372 439
#     4  11  24  48  74 108 143 190 250 308 370 443
#
# _framework density 22.836048000000002
#
# number of rings (size 3 to 8) (size 9 to 14) (size 15 to 20)
#    0.000    0.800    4.000    1.800    8.400    2.400 
#    3.600    0.000    0.000    0.000    0.000    0.000 
#    0.000    0.000    0.000    0.000    0.000    0.000 
#
# Total GULP energy -247866.694162 kJ/mol
# GULP energy per Si atom -12393.334708 kJ/mol
# Density = 2.278407 g / cm^3
# Si number density = 22.836048 Si / 1000 Ang^3
#
#
#
# Elastic Constant Matrix: (Units=GPa)
#
#
# Indices 1 2 3 4 5 6 
#
# 1 142.7940 56.4746 49.1849 0.0000 8.2909 0.0000
# 2 56.4746 197.7861 28.8536 0.0000 -2.3266 0.0000
# 3 49.1849 28.8536 91.9813 0.0000 25.2335 0.0000
# 4 0.0000 0.0000 0.0000 8.9762 0.0000 -36.4591
# 5 8.2909 -2.3266 25.2335 0.0000 41.2042 0.0000
# 6 0.0000 0.0000 0.0000 -36.4591 0.0000 -13.7457
#
#
#
# Elastic Compliance Matrix: (Units=1/GPa)
#
#
# Indices 1 2 3 4 5 6 
#
# 1 0.009319 -0.001982 -0.004587 0.000000 0.000822 0.000000
# 2 -0.001982 0.005807 -0.001155 0.000000 0.001434 0.000000
# 3 -0.004587 -0.001155 0.016168 0.000000 -0.009043 0.000000
# 4 0.000000 0.000000 0.000000 0.009463 0.000000 -0.025098
# 5 0.000822 0.001434 -0.009043 0.000000 0.029723 0.000000
# 6 0.000000 0.000000 0.000000 -0.025098 0.000000 -0.006179
#
#
# Mechanical properties :
#
#
# Convention : Reuss Voigt Hill
#
# Bulk Modulus (GPa) = 63.10849 77.95418 70.53134
# Shear Modulus (GPa) = 58.80161 27.15682 42.97922
#
# Velocity S-wave (km/s) = 5.07990 3.45223 4.34300
# Velocity P-wave (km/s) = 7.88052 7.07821 7.49012
#
# Compressibility (1/GPa) = 0.01584573
#
# Stress axis : x y z
#
# Youngs Moduli (GPa) = 107.30456 172.19597 61.85100
#
# Poissons Ratio (x) = 0.34132 0.28371
# Poissons Ratio (y) = 0.21269 0.07145
# Poissons Ratio (z) = 0.49221 0.19893
#
# Static dielectric constant tensor:
#      x y z
#    x 4.872310 0.000000 0.247980 
#    y 0.000000 4.811640 0.000000 
#    z 0.247980 0.000000 3.937350 
# 
# 
# High freq. dielectric constant tensor:
#      x y z
#    x 1.919110 0.000000 0.004490 
#    y 0.000000 1.924530 0.000000 
#    z 0.004490 0.000000 1.882010 
# 
# From -- ./inp_files/109580.got.cif
#   From: 2010.06.25/outbox.cif.g09.slc.cpg/sg15_55_cif.got.tgz:109580.got - 2010.06.28 07:06:18.
