data_PCOD8154209
_publ_section_title
;
Structure prediction by ZEFSAII (Michael W. Deem and Ramdas Pophale) SiO2 
 PCOD8154209
Probable space group: C 2/C
;
_chemical_formula_sum "Si O2"
_cell_formula_units_Z 44
_cell_length_a 14.562588
_cell_length_b 13.226112
_cell_length_c 9.698356
_cell_angle_alpha 90.000000
_cell_angle_beta 82.066862
_cell_angle_gamma 90.000000
_cell_volume 1850.088831
_symmetry_space_group_name_H-M "C 2/C"
_symmetry_group_IT_number 15
_symmetry_cell_setting 'monoclinic'
loop_
_space_group_symop_operation_xyz
x,y,z
-x,y,1/2-z
-x,-y,-z
x,-y,1/2+z
1/2+x,1/2+y,z
1/2-x,1/2+y,1/2-z
1/2-x,1/2-y,-z
1/2+x,1/2-y,1/2+z
loop_
_atom_site_type_symbol
_atom_site_label
_atom_site_fract_x
_atom_site_fract_y
_atom_site_fract_z
Si Si1 0.674505 0.408886 0.649322
Si Si2 0.000000 0.046037 0.750000
Si Si3 0.239608 0.255817 0.335404
Si Si4 0.149037 0.453867 0.397091
Si Si5 0.102011 0.800866 0.406573
Si Si6 0.499148 0.883528 0.606369
O O1 0.584892 0.477001 0.685867
O O2 0.690345 0.344766 0.786129
O O3 0.762338 0.477751 0.594952
O O4 0.665383 0.337234 0.519094
O O5 0.029471 0.112948 0.875708
O O6 0.250000 0.250000 0.500000
O O7 0.177993 0.354212 0.305868
O O8 0.337449 0.269687 0.239217
O O9 0.104709 0.412518 0.549157
O O10 0.062806 0.515923 0.352042
O O11 0.048766 0.701472 0.480415
O O12 0.500000 0.823670 0.750000
#
# Coordination Sequence:
#
# PCOD8154209 Si02
#       6
#     8   4   8   8   8   8
#     4  12  29  48  78 113 152 199 257 314 383 462
#     4  12  28  48  76 114 158 196 256 316 394 448
#     4  12  28  48  76 107 152 199 255 310 383 453
#     4  11  27  45  75 109 149 199 249 308 384 444
#     4  12  26  50  77 112 151 200 254 318 379 459
#     4  11  25  46  75 110 152 191 253 310 378 445
#
# _framework density 23.782641000000002
#
# number of rings (size 3 to 8) (size 9 to 14) (size 15 to 20)
#    0.000    0.364    4.545    2.182    7.636    1.455 
#    0.000    0.000    0.000    0.000    0.000    0.000 
#    0.000    0.000    0.000    0.000    0.000    0.000 
#
# Total GULP energy -272656.738138 kJ/mol
# GULP energy per Si atom -12393.488097 kJ/mol
# Density = 2.372851 g / cm^3
# Si number density = 23.782641 Si / 1000 Ang^3
#
#
#
# Elastic Constant Matrix: (Units=GPa)
#
#
# Indices 1 2 3 4 5 6 
#
# 1 135.6764 68.5695 48.3595 0.0000 -19.9146 0.0000
# 2 68.5695 155.9356 45.9325 0.0000 -13.7364 0.0000
# 3 48.3595 45.9325 119.0917 0.0000 0.8876 0.0000
# 4 0.0000 0.0000 0.0000 28.3905 0.0000 -13.4544
# 5 -19.9146 -13.7364 0.8876 0.0000 28.0985 0.0000
# 6 0.0000 0.0000 0.0000 -13.4544 0.0000 47.9727
#
#
#
# Elastic Compliance Matrix: (Units=1/GPa)
#
#
# Indices 1 2 3 4 5 6 
#
# 1 0.011191 -0.003392 -0.003284 0.000000 0.006377 0.000000
# 2 -0.003392 0.008652 -0.001974 0.000000 0.001888 0.000000
# 3 -0.003284 -0.001974 0.010519 0.000000 -0.003624 0.000000
# 4 0.000000 0.000000 0.000000 0.040622 0.000000 0.011393
# 5 0.006377 0.001888 -0.003624 0.000000 0.041146 0.000000
# 6 0.000000 0.000000 0.000000 0.011393 0.000000 0.024040
#
#
# Mechanical properties :
#
#
# Convention : Reuss Voigt Hill
#
# Bulk Modulus (GPa) = 76.55186 81.82520 79.18853
# Shear Modulus (GPa) = 31.68080 37.41516 34.54798
#
# Velocity S-wave (km/s) = 3.65375 3.97068 3.81551
# Velocity P-wave (km/s) = 7.07516 7.44996 7.26497
#
# Compressibility (1/GPa) = 0.01306304
#
# Stress axis : x y z
#
# Youngs Moduli (GPa) = 89.35538 115.57751 95.07034
#
# Poissons Ratio (x) = 0.39205 0.31218
# Poissons Ratio (y) = 0.30311 0.18764
# Poissons Ratio (z) = 0.29341 0.22811
#
# Static dielectric constant tensor:
#      x y z
#    x 9.434040 0.000000 -3.118110 
#    y 0.000000 4.771710 0.000000 
#    z -3.118110 0.000000 5.865440 
# 
# 
# High freq. dielectric constant tensor:
#      x y z
#    x 1.957520 0.000000 -0.012450 
#    y 0.000000 1.971000 0.000000 
#    z -0.012450 0.000000 1.923190 
# 
# From -- ./inp_files/95013.got.cif
#   From: 2010.06.25/outbox.cif.g09.slc.cpg/sg15_48_cif.got.tgz:95013.got - 2010.06.28 07:06:18.
