data_PCOD8154237
_publ_section_title
;
Structure prediction by ZEFSAII (Michael W. Deem and Ramdas Pophale) SiO2 
 PCOD8154237
Probable space group: C 2/C
;
_chemical_formula_sum "Si O2"
_cell_formula_units_Z 40
_cell_length_a 13.008831
_cell_length_b 17.875292
_cell_length_c 12.117238
_cell_angle_alpha 90.000000
_cell_angle_beta 143.972654
_cell_angle_gamma 90.000000
_cell_volume 1657.291459
_symmetry_space_group_name_H-M "C 2/C"
_symmetry_group_IT_number 15
_symmetry_cell_setting 'monoclinic'
loop_
_space_group_symop_operation_xyz
x,y,z
-x,y,1/2-z
-x,-y,-z
x,-y,1/2+z
1/2+x,1/2+y,z
1/2-x,1/2+y,1/2-z
1/2-x,1/2-y,-z
1/2+x,1/2-y,1/2+z
loop_
_atom_site_type_symbol
_atom_site_label
_atom_site_fract_x
_atom_site_fract_y
_atom_site_fract_z
Si Si1 0.763762 0.775778 0.272215
Si Si2 0.920400 0.671339 0.559894
Si Si3 0.378393 0.440686 0.744163
Si Si4 0.505855 0.404540 0.096099
Si Si5 0.695226 0.822932 0.886634
O O1 0.810690 0.748203 0.438629
O O2 0.583295 0.821507 0.116446
O O3 0.769833 0.696907 0.211942
O O4 0.894430 0.826229 0.315342
O O5 0.812965 0.595283 0.441172
O O6 0.000000 0.668980 0.750000
O O7 0.500000 0.411811 0.750000
O O8 0.373772 0.531150 0.744771
O O9 0.469902 0.418008 0.936526
O O10 0.329752 0.393066 0.018469
O O11 0.500000 0.848901 0.750000
O O12 0.750000 0.750000 0.000000
#
# Coordination Sequence:
#
# PCOD8154237 Si02
#       5
#     8   8   8   8   8
#     4  12  23  43  70 113 145 186 254 308 369 435
#     4  12  24  43  75 109 154 197 248 306 376 451
#     4  11  26  49  69 101 152 203 245 299 380 448
#     4  11  25  47  73 106 152 192 247 314 365 458
#     4  12  23  41  73 111 143 185 240 305 385 436
#
# _framework density 24.135767000000001
#
# number of rings (size 3 to 8) (size 9 to 14) (size 15 to 20)
#    0.000    0.400    6.000    1.800    2.800    2.400 
#    0.000    5.000    0.000    0.000    0.000    0.000 
#    0.000    0.000    0.000    0.000    0.000    0.000 
#
# Total GULP energy -247811.820695 kJ/mol
# GULP energy per Si atom -12390.591035 kJ/mol
# Density = 2.408083 g / cm^3
# Si number density = 24.135767 Si / 1000 Ang^3
#
#
#
# Elastic Constant Matrix: (Units=GPa)
#
#
# Indices 1 2 3 4 5 6 
#
# 1 128.0619 53.0299 57.0229 0.0000 24.2566 0.0000
# 2 53.0299 133.7180 64.6788 0.0000 21.2719 0.0000
# 3 57.0229 64.6788 123.9415 0.0000 25.1639 0.0000
# 4 0.0000 0.0000 0.0000 35.9701 0.0000 5.8401
# 5 24.2566 21.2719 25.1639 0.0000 44.6037 0.0000
# 6 0.0000 0.0000 0.0000 5.8401 0.0000 39.7324
#
#
#
# Elastic Compliance Matrix: (Units=1/GPa)
#
#
# Indices 1 2 3 4 5 6 
#
# 1 0.010705 -0.002250 -0.003147 0.000000 -0.002973 0.000000
# 2 -0.002250 0.010647 -0.004222 0.000000 -0.001472 0.000000
# 3 -0.003147 -0.004222 0.012382 0.000000 -0.003260 0.000000
# 4 0.000000 0.000000 0.000000 0.028481 0.000000 -0.004186
# 5 -0.002973 -0.001472 -0.003260 0.000000 0.026578 0.000000
# 6 0.000000 0.000000 0.000000 -0.004186 0.000000 0.025784
#
#
# Mechanical properties :
#
#
# Convention : Reuss Voigt Hill
#
# Bulk Modulus (GPa) = 68.99112 81.68718 75.33915
# Shear Modulus (GPa) = 36.06297 38.12723 37.09510
#
# Velocity S-wave (km/s) = 3.86964 3.97885 3.92463
# Velocity P-wave (km/s) = 6.97224 7.41800 7.19857
#
# Compressibility (1/GPa) = 0.01449462
#
# Stress axis : x y z
#
# Youngs Moduli (GPa) = 93.41392 93.92170 80.76531
#
# Poissons Ratio (x) = 0.21133 0.25420
# Poissons Ratio (y) = 0.21019 0.34100
# Poissons Ratio (z) = 0.29401 0.39655
#
# Static dielectric constant tensor:
#      x y z
#    x 4.566760 0.000000 -0.140120 
#    y 0.000000 4.360610 0.000000 
#    z -0.140120 0.000000 4.788740 
# 
# 
# High freq. dielectric constant tensor:
#      x y z
#    x 1.973140 0.000000 -0.013680 
#    y 0.000000 1.940320 0.000000 
#    z -0.013680 0.000000 1.968780 
# 
# From -- ./inp_files/89861.got.cif
#   From: 2010.06.25/outbox.cif.g09.slc.cpg/sg15_45_cif.got.tgz:89861.got - 2010.06.28 07:06:18.
