data_PCOD8154342
_publ_section_title
;
Structure prediction by ZEFSAII (Michael W. Deem and Ramdas Pophale) SiO2 
 PCOD8154342
Probable space group: C 2/C
;
_chemical_formula_sum "Si O2"
_cell_formula_units_Z 32
_cell_length_a 17.543460
_cell_length_b 9.807253
_cell_length_c 14.061596
_cell_angle_alpha 90.000000
_cell_angle_beta 34.485609
_cell_angle_gamma 90.000000
_cell_volume 1369.829502
_symmetry_space_group_name_H-M "C 2/C"
_symmetry_group_IT_number 15
_symmetry_cell_setting 'monoclinic'
loop_
_space_group_symop_operation_xyz
x,y,z
-x,y,1/2-z
-x,-y,-z
x,-y,1/2+z
1/2+x,1/2+y,z
1/2-x,1/2+y,1/2-z
1/2-x,1/2-y,-z
1/2+x,1/2-y,1/2+z
loop_
_atom_site_type_symbol
_atom_site_label
_atom_site_fract_x
_atom_site_fract_y
_atom_site_fract_z
Si Si1 0.665942 0.620774 0.978479
Si Si2 0.725594 0.148691 0.833074
Si Si3 0.488013 0.644382 0.871565
Si Si4 0.632355 0.078460 0.563973
O O1 0.771289 0.628175 0.783391
O O2 0.742713 0.568247 0.992839
O O3 0.543382 0.516883 0.085298
O O4 0.601194 0.768291 0.062382
O O5 0.875029 0.180521 0.716151
O O6 0.633499 0.276673 0.953253
O O7 0.665908 0.010883 0.937944
O O8 0.500000 0.690019 0.750000
O O9 0.500000 0.017952 0.750000
#
# Coordination Sequence:
#
# PCOD8154342 Si02
#       4
#     8   8   8   8
#     4  11  26  46  71 102 137 184 230 284 344 407
#     4  12  27  45  73 102 140 183 231 282 344 408
#     4  12  25  47  71 100 142 182 229 286 341 408
#     4  11  26  45  71 101 141 180 230 287 341 407
#
# _framework density 23.360572000000001
#
# number of rings (size 3 to 8) (size 9 to 14) (size 15 to 20)
#    0.000    0.500    2.500    4.500   10.500    1.000 
#    0.000    0.000    0.000    0.000    0.000    0.000 
#    0.000    0.000    0.000    0.000    0.000    0.000 
#
# Total GULP energy -198578.410787 kJ/mol
# GULP energy per Si atom -12411.150674 kJ/mol
# Density = 2.330740 g / cm^3
# Si number density = 23.360572 Si / 1000 Ang^3
#
#
#
# Elastic Constant Matrix: (Units=GPa)
#
#
# Indices 1 2 3 4 5 6 
#
# 1 38.5563 33.2609 20.8096 0.0000 10.6144 0.0000
# 2 33.2609 96.3603 33.8132 0.0000 -13.5913 0.0000
# 3 20.8096 33.8132 131.1127 0.0000 4.0868 0.0000
# 4 0.0000 0.0000 0.0000 37.8669 0.0000 11.0058
# 5 10.6144 -13.5913 4.0868 0.0000 57.9497 0.0000
# 6 0.0000 0.0000 0.0000 11.0058 0.0000 12.8061
#
#
#
# Elastic Compliance Matrix: (Units=1/GPa)
#
#
# Indices 1 2 3 4 5 6 
#
# 1 0.044422 -0.016099 -0.002533 0.000000 -0.011734 0.000000
# 2 -0.016099 0.017749 -0.002249 0.000000 0.007270 0.000000
# 3 -0.002533 -0.002249 0.008630 0.000000 -0.000672 0.000000
# 4 0.000000 0.000000 0.000000 0.035201 0.000000 -0.030253
# 5 -0.011734 0.007270 -0.000672 0.000000 0.021158 0.000000
# 6 0.000000 0.000000 0.000000 -0.030253 0.000000 0.104088
#
#
# Mechanical properties :
#
#
# Convention : Reuss Voigt Hill
#
# Bulk Modulus (GPa) = 34.43645 49.08852 41.76248
# Shear Modulus (GPa) = 17.68726 33.60092 25.64409
#
# Velocity S-wave (km/s) = 2.75461 3.79669 3.31683
# Velocity P-wave (km/s) = 4.98903 6.34656 5.70829
#
# Compressibility (1/GPa) = 0.02903900
#
# Stress axis : x y z
#
# Youngs Moduli (GPa) = 22.51156 56.34003 115.87595
#
# Poissons Ratio (x) = 0.90704 0.29348
# Poissons Ratio (y) = 0.36242 0.26059
# Poissons Ratio (z) = 0.05702 0.12670
#
# Static dielectric constant tensor:
#      x y z
#    x 4.164160 0.000000 0.236250 
#    y 0.000000 4.151610 0.000000 
#    z 0.236250 0.000000 4.319210 
# 
# 
# High freq. dielectric constant tensor:
#      x y z
#    x 1.920100 0.000000 0.011860 
#    y 0.000000 1.931320 0.000000 
#    z 0.011860 0.000000 1.943530 
# 
# From -- ./inp_files/161211.got.cif
#   From: 2010.06.25/outbox.cif.g09.slc.cpg/sg15_81_cif.got.tgz:161211.got - 2010.06.28 07:06:18.
