data_PCOD8154274
_publ_section_title
;
Structure prediction by ZEFSAII (Michael W. Deem and Ramdas Pophale) SiO2 
 PCOD8154274
Probable space group: C 2/C
;
_chemical_formula_sum "Si O2"
_cell_formula_units_Z 32
_cell_length_a 7.555382
_cell_length_b 18.115393
_cell_length_c 11.925654
_cell_angle_alpha 90.000000
_cell_angle_beta 55.028454
_cell_angle_gamma 90.000000
_cell_volume 1337.524824
_symmetry_space_group_name_H-M "C 2/C"
_symmetry_group_IT_number 15
_symmetry_cell_setting 'monoclinic'
loop_
_space_group_symop_operation_xyz
x,y,z
-x,y,1/2-z
-x,-y,-z
x,-y,1/2+z
1/2+x,1/2+y,z
1/2-x,1/2+y,1/2-z
1/2-x,1/2-y,-z
1/2+x,1/2-y,1/2+z
loop_
_atom_site_type_symbol
_atom_site_label
_atom_site_fract_x
_atom_site_fract_y
_atom_site_fract_z
Si Si1 0.543968 0.824829 0.470050
Si Si2 0.681737 0.691973 0.268244
Si Si3 0.638729 0.599058 0.494447
Si Si4 0.314518 0.941005 0.404187
O O1 0.587624 0.765963 0.357996
O O2 0.402562 0.789622 0.622167
O O3 0.773340 0.850184 0.437079
O O4 0.407050 0.893028 0.472093
O O5 0.500000 0.661449 0.250000
O O6 0.727414 0.628599 0.343016
O O7 0.721352 0.516558 0.488118
O O8 0.378123 0.602682 0.589515
O O9 0.500000 0.959748 0.250000
#
# Coordination Sequence:
#
# PCOD8154274 Si02
#       4
#     8   8   8   8
#     4  12  26  47  75 108 147 191 242 300 360 433
#     4  12  25  47  74 105 150 191 238 304 363 423
#     4  11  26  47  75 106 144 193 240 299 366 427
#     4  11  25  48  74 108 146 187 244 299 362 432
#
# _framework density 23.924787999999999
#
# number of rings (size 3 to 8) (size 9 to 14) (size 15 to 20)
#    0.000    0.500    2.500    5.250    3.500    1.000 
#    0.000    0.000    0.000    0.000    0.000    0.000 
#    0.000    0.000    0.000    0.000    0.000    0.000 
#
# Total GULP energy -198520.848485 kJ/mol
# GULP energy per Si atom -12407.553030 kJ/mol
# Density = 2.387033 g / cm^3
# Si number density = 23.924788 Si / 1000 Ang^3
#
#
#
# Elastic Constant Matrix: (Units=GPa)
#
#
# Indices 1 2 3 4 5 6 
#
# 1 154.5492 35.4212 22.6985 0.0000 1.4262 0.0000
# 2 35.4212 95.2870 13.3102 0.0000 20.2655 0.0000
# 3 22.6985 13.3102 74.1084 0.0000 -6.3279 0.0000
# 4 0.0000 0.0000 0.0000 27.2121 0.0000 5.5113
# 5 1.4262 20.2655 -6.3279 0.0000 37.4865 0.0000
# 6 0.0000 0.0000 0.0000 5.5113 0.0000 34.7591
#
#
#
# Elastic Compliance Matrix: (Units=1/GPa)
#
#
# Indices 1 2 3 4 5 6 
#
# 1 0.007323 -0.002674 -0.001687 0.000000 0.000882 0.000000
# 2 -0.002674 0.013399 -0.002229 0.000000 -0.007518 0.000000
# 3 -0.001687 -0.002229 0.014732 0.000000 0.003756 0.000000
# 4 0.000000 0.000000 0.000000 0.037968 0.000000 -0.006020
# 5 0.000882 -0.007518 0.003756 0.000000 0.031341 0.000000
# 6 0.000000 0.000000 0.000000 -0.006020 0.000000 0.029724
#
#
# Mechanical properties :
#
#
# Convention : Reuss Voigt Hill
#
# Bulk Modulus (GPa) = 44.89948 51.86714 48.38331
# Shear Modulus (GPa) = 32.23887 36.72586 34.48237
#
# Velocity S-wave (km/s) = 3.67483 3.92223 3.80054
# Velocity P-wave (km/s) = 6.06741 6.49909 6.28695
#
# Compressibility (1/GPa) = 0.02227198
#
# Stress axis : x y z
#
# Youngs Moduli (GPa) = 136.55622 74.63215 67.88078
#
# Poissons Ratio (x) = 0.19958 0.11454
# Poissons Ratio (y) = 0.36517 0.15134
# Poissons Ratio (z) = 0.23042 0.16639
#
# Static dielectric constant tensor:
#      x y z
#    x 4.649350 0.000000 -0.124680 
#    y 0.000000 4.214790 0.000000 
#    z -0.124680 0.000000 4.146530 
# 
# 
# High freq. dielectric constant tensor:
#      x y z
#    x 1.971750 0.000000 -0.005040 
#    y 0.000000 1.950740 0.000000 
#    z -0.005040 0.000000 1.941930 
# 
# From -- ./inp_files/77553.got.cif
#   From: 2010.06.25/outbox.cif.g09.slc.cpg/sg15_39_cif.got.tgz:77553.got - 2010.06.28 07:06:18.
