data_PCOD8154720
_publ_section_title
;
Structure prediction by ZEFSAII (Michael W. Deem and Ramdas Pophale) SiO2 
 PCOD8154720
Probable space group: C 2/C
;
_chemical_formula_sum "Si O2"
_cell_formula_units_Z 48
_cell_length_a 14.342544
_cell_length_b 12.214110
_cell_length_c 19.298957
_cell_angle_alpha 90.000000
_cell_angle_beta 140.954449
_cell_angle_gamma 90.000000
_cell_volume 2129.706162
_symmetry_space_group_name_H-M "C 2/C"
_symmetry_group_IT_number 15
_symmetry_cell_setting 'monoclinic'
loop_
_space_group_symop_operation_xyz
x,y,z
-x,y,1/2-z
-x,-y,-z
x,-y,1/2+z
1/2+x,1/2+y,z
1/2-x,1/2+y,1/2-z
1/2-x,1/2-y,-z
1/2+x,1/2-y,1/2+z
loop_
_atom_site_type_symbol
_atom_site_label
_atom_site_fract_x
_atom_site_fract_y
_atom_site_fract_z
Si Si1 0.579051 0.954778 0.907571
Si Si2 0.150737 0.640197 0.725225
Si Si3 0.960442 0.876559 0.468610
Si Si4 0.819876 0.866254 0.529666
Si Si5 0.500000 0.299095 0.750000
Si Si6 0.180735 0.694568 0.587224
Si Si7 0.000000 0.279158 0.750000
O O1 0.556307 0.851219 0.846026
O O2 0.425731 0.021033 0.817364
O O3 0.625387 0.909011 0.009816
O O4 0.705735 0.035267 0.950483
O O5 0.324819 0.630580 0.837419
O O6 0.089255 0.721332 0.748694
O O7 0.125286 0.682398 0.633437
O O8 0.923091 0.841074 0.524580
O O9 0.095367 0.805515 0.513865
O O10 0.000000 0.000000 0.500000
O O11 0.750000 0.750000 0.500000
O O12 0.905826 0.886200 0.651145
O O13 0.358615 0.704302 0.687107
#
# Coordination Sequence:
#
# PCOD8154720 Si02
#       7
#     8   8   8   8   4   8   4
#     4  12  25  46  74 107 147 193 243 302 375 436
#     4  12  24  44  73 105 144 187 237 303 367 435
#     4  12  25  43  71 105 144 190 249 297 366 441
#     4  12  23  43  72 105 143 189 240 303 364 442
#     4  12  23  43  74 104 148 188 241 295 376 440
#     4  12  27  48  71 107 146 195 247 305 365 441
#     4  12  27  51  74  98 148 202 241 295 372 444
#
# _framework density 22.538319999999999
#
# number of rings (size 3 to 8) (size 9 to 14) (size 15 to 20)
#    0.000    0.000    5.000    5.500    0.000    3.333 
#    3.000    0.000    0.000    0.000    0.000    0.000 
#    0.000    0.000    0.000    0.000    0.000    0.000 
#
# Total GULP energy -297487.568446 kJ/mol
# GULP energy per Si atom -12395.315352 kJ/mol
# Density = 2.248702 g / cm^3
# Si number density = 22.538320 Si / 1000 Ang^3
#
#
#
# Elastic Constant Matrix: (Units=GPa)
#
#
# Indices 1 2 3 4 5 6 
#
# 1 86.9720 19.4076 25.5356 0.0000 3.2144 0.0000
# 2 19.4076 64.9028 12.1354 0.0000 2.6919 0.0000
# 3 25.5356 12.1354 128.5811 0.0002 -2.8163 0.0001
# 4 0.0000 0.0000 0.0002 50.2919 0.0001 1.5313
# 5 3.2144 2.6919 -2.8163 0.0001 39.1141 0.0000
# 6 0.0000 0.0000 0.0001 1.5313 0.0000 35.3928
#
#
#
# Elastic Compliance Matrix: (Units=1/GPa)
#
#
# Indices 1 2 3 4 5 6 
#
# 1 0.012963 -0.003410 -0.002274 0.000000 -0.000994 0.000000
# 2 -0.003410 0.016637 -0.000913 0.000000 -0.000931 0.000000
# 3 -0.002274 -0.000913 0.008334 0.000000 0.000850 0.000000
# 4 0.000000 0.000000 0.000000 0.019910 0.000000 -0.000861
# 5 -0.000994 -0.000931 0.000850 0.000000 0.025773 0.000000
# 6 0.000000 0.000000 0.000000 -0.000861 0.000000 0.028292
#
#
# Mechanical properties :
#
#
# Convention : Reuss Voigt Hill
#
# Bulk Modulus (GPa) = 40.42290 43.84589 42.13440
# Shear Modulus (GPa) = 37.49527 39.85158 38.67342
#
# Velocity S-wave (km/s) = 4.08318 4.20952 4.14683
# Velocity P-wave (km/s) = 6.34066 6.56681 6.45472
#
# Compressibility (1/GPa) = 0.02473845
#
# Stress axis : x y z
#
# Youngs Moduli (GPa) = 77.14029 60.10821 119.99472
#
# Poissons Ratio (x) = 0.20496 0.27292
# Poissons Ratio (y) = 0.26304 0.10960
# Poissons Ratio (z) = 0.17545 0.05490
#
# Static dielectric constant tensor:
#      x y z
#    x 3.556440 0.000000 -0.451780 
#    y 0.000000 3.821340 0.000000 
#    z -0.451780 0.000000 3.745140 
# 
# 
# High freq. dielectric constant tensor:
#      x y z
#    x 1.891770 0.000000 -0.004810 
#    y 0.000000 1.885660 0.000000 
#    z -0.004810 0.000000 1.912910 
# 
# From -- ./inp_files/244012.got.cif
#   From: 2010.06.25/outbox.cif.g09.slc.cpg/sg15_123_cif.got.tgz:244012.got - 2010.06.28 07:06:18.
