data_PCOD8154014
_publ_section_title
;
Structure prediction by ZEFSAII (Michael W. Deem and Ramdas Pophale) SiO2 
 PCOD8154014
Probable space group: C 2/C
;
_chemical_formula_sum "Si O2"
_cell_formula_units_Z 36
_cell_length_a 7.496732
_cell_length_b 15.202011
_cell_length_c 13.246880
_cell_angle_alpha 90.000000
_cell_angle_beta 109.949437
_cell_angle_gamma 90.000000
_cell_volume 1419.095918
_symmetry_space_group_name_H-M "C 2/C"
_symmetry_group_IT_number 15
_symmetry_cell_setting 'monoclinic'
loop_
_space_group_symop_operation_xyz
x,y,z
-x,y,1/2-z
-x,-y,-z
x,-y,1/2+z
1/2+x,1/2+y,z
1/2-x,1/2+y,1/2-z
1/2-x,1/2-y,-z
1/2+x,1/2-y,1/2+z
loop_
_atom_site_type_symbol
_atom_site_label
_atom_site_fract_x
_atom_site_fract_y
_atom_site_fract_z
Si Si1 0.437527 0.675812 0.134176
Si Si2 0.010780 0.263774 0.556601
Si Si3 0.000000 0.855863 0.250000
Si Si4 0.042857 0.554160 0.410394
Si Si5 0.700591 0.483404 0.711051
O O1 0.500000 0.725464 0.250000
O O2 0.215546 0.691260 0.079586
O O3 0.504077 0.572594 0.158514
O O4 0.545990 0.714089 0.057320
O O5 0.974459 0.202683 0.645986
O O6 0.875692 0.348880 0.545173
O O7 0.826165 0.921463 0.242333
O O8 0.851086 0.570640 0.307499
O O9 0.000000 0.500000 0.500000
O O10 0.204358 0.501472 0.380240
#
# Coordination Sequence:
#
# PCOD8154014 Si02
#       5
#     8   8   4   8   8
#     4  11  24  48  75 100 154 194 247 309 378 440
#     4  11  27  45  75 113 144 195 257 313 363 459
#     4  12  26  46  76 112 146 192 256 306 390 436
#     4  11  26  49  70 107 151 197 255 299 375 444
#     4  11  25  46  73 105 151 201 237 313 373 455
#
# _framework density 25.368264
#
# number of rings (size 3 to 8) (size 9 to 14) (size 15 to 20)
#    0.000    0.889    3.333    1.333    9.333    3.556 
#    0.000    0.000    0.000    0.000    0.000    0.000 
#    0.000    0.000    0.000    0.000    0.000    0.000 
#
# Total GULP energy -223034.946655 kJ/mol
# GULP energy per Si atom -12390.830370 kJ/mol
# Density = 2.531052 g / cm^3
# Si number density = 25.368264 Si / 1000 Ang^3
#
#
#
# Elastic Constant Matrix: (Units=GPa)
#
#
# Indices 1 2 3 4 5 6 
#
# 1 126.3457 43.0938 45.3053 0.0000 -26.0972 0.0000
# 2 43.0938 179.0673 71.3094 0.0000 -47.1094 0.0000
# 3 45.3053 71.3094 173.0742 0.0000 -62.7304 0.0000
# 4 0.0000 0.0000 0.0000 41.0898 0.0000 -10.0836
# 5 -26.0972 -47.1094 -62.7304 0.0000 61.0746 0.0000
# 6 0.0000 0.0000 0.0000 -10.0836 0.0000 29.9993
#
#
#
# Elastic Compliance Matrix: (Units=1/GPa)
#
#
# Indices 1 2 3 4 5 6 
#
# 1 0.009140 -0.001263 -0.001290 0.000000 0.001606 0.000000
# 2 -0.001263 0.007427 -0.001352 0.000000 0.003800 0.000000
# 3 -0.001290 -0.001352 0.009709 0.000000 0.008379 0.000000
# 4 0.000000 0.000000 0.000000 0.026525 0.000000 0.008916
# 5 0.001606 0.003800 0.008379 0.000000 0.028597 0.000000
# 6 0.000000 0.000000 0.000000 0.008916 0.000000 0.036331
#
#
# Mechanical properties :
#
#
# Convention : Reuss Voigt Hill
#
# Bulk Modulus (GPa) = 54.15420 88.65601 71.40511
# Shear Modulus (GPa) = 37.96682 47.68465 42.82574
#
# Velocity S-wave (km/s) = 3.87282 4.34025 4.11318
# Velocity P-wave (km/s) = 6.43365 7.75503 7.12504
#
# Compressibility (1/GPa) = 0.01846579
#
# Stress axis : x y z
#
# Youngs Moduli (GPa) = 109.40928 134.65091 102.99387
#
# Poissons Ratio (x) = 0.17012 0.13285
# Poissons Ratio (y) = 0.13823 0.13923
# Poissons Ratio (z) = 0.14112 0.18202
#
# Static dielectric constant tensor:
#      x y z
#    x 4.794480 0.000000 -0.529790 
#    y 0.000000 4.532050 0.000000 
#    z -0.529790 0.000000 4.988110 
# 
# 
# High freq. dielectric constant tensor:
#      x y z
#    x 2.029710 0.000000 -0.035700 
#    y 0.000000 2.005470 0.000000 
#    z -0.035700 0.000000 2.019720 
# 
# From -- ./inp_files/132907.got.cif
#   From: 2010.06.25/outbox.cif.g09.slc.cpg/sg15_67_cif.got.tgz:132907.got - 2010.06.28 07:06:18.
