data_PCOD8154975
_publ_section_title
;
Structure prediction by ZEFSAII (Michael W. Deem and Ramdas Pophale) SiO2 
 PCOD8154975
Probable space group: C 2/C
;
_chemical_formula_sum "Si O2"
_cell_formula_units_Z 32
_cell_length_a 5.031362
_cell_length_b 18.151638
_cell_length_c 15.384758
_cell_angle_alpha 90.000000
_cell_angle_beta 83.747941
_cell_angle_gamma 90.000000
_cell_volume 1396.694251
_symmetry_space_group_name_H-M "C 2/C"
_symmetry_group_IT_number 15
_symmetry_cell_setting 'monoclinic'
loop_
_space_group_symop_operation_xyz
x,y,z
-x,y,1/2-z
-x,-y,-z
x,-y,1/2+z
1/2+x,1/2+y,z
1/2-x,1/2+y,1/2-z
1/2-x,1/2-y,-z
1/2+x,1/2-y,1/2+z
loop_
_atom_site_type_symbol
_atom_site_label
_atom_site_fract_x
_atom_site_fract_y
_atom_site_fract_z
Si Si1 0.180682 0.782821 0.094920
Si Si2 0.369709 0.134971 0.847907
Si Si3 0.734239 0.010410 0.060710
Si Si4 0.761279 0.862414 0.691654
O O1 0.387747 0.850206 0.094453
O O2 0.252179 0.723080 0.166132
O O3 0.877208 0.810150 0.121056
O O4 0.250000 0.750000 0.000000
O O5 0.500000 0.149018 0.750000
O O6 0.282637 0.050552 0.862207
O O7 0.764154 0.090175 0.103374
O O8 0.500000 0.000000 0.000000
O O9 0.000000 0.000000 0.000000
O O10 0.500000 0.888208 0.750000
O O11 0.000000 0.878032 0.750000
#
# Coordination Sequence:
#
# PCOD8154975 Si02
#       4
#     8   8   8   8
#     4  12  25  44  69  99 135 177 225 280 340 408
#     4  12  25  44  69  99 134 177 226 281 339 405
#     4  12  26  46  69  99 136 180 228 281 342 411
#     4  12  25  44  68  99 135 176 223 280 341 404
#
# _framework density 22.911242999999999
#
# number of rings (size 3 to 8) (size 9 to 14) (size 15 to 20)
#    0.000    0.000    0.000   12.000    0.000    2.000 
#    0.000    0.000    0.000    0.000    0.000    0.000 
#    0.000    0.000    0.000    0.000    0.000    0.000 
#
# Total GULP energy -198380.665375 kJ/mol
# GULP energy per Si atom -12398.791586 kJ/mol
# Density = 2.285910 g / cm^3
# Si number density = 22.911243 Si / 1000 Ang^3
#
#
#
# Elastic Constant Matrix: (Units=GPa)
#
#
# Indices 1 2 3 4 5 6 
#
# 1 186.1499 19.0106 56.7653 0.0000 -12.8697 0.0000
# 2 19.0106 83.4608 20.1178 0.0000 -10.0115 0.0000
# 3 56.7653 20.1178 99.7105 0.0000 -9.2887 0.0000
# 4 0.0000 0.0000 0.0000 54.1599 0.0000 -2.1623
# 5 -12.8697 -10.0115 -9.2887 0.0000 55.5454 0.0000
# 6 0.0000 0.0000 0.0000 -2.1623 0.0000 38.5195
#
#
#
# Elastic Compliance Matrix: (Units=1/GPa)
#
#
# Indices 1 2 3 4 5 6 
#
# 1 0.006568 -0.000540 -0.003553 0.000000 0.000830 0.000000
# 2 -0.000540 0.012834 -0.002111 0.000000 0.001835 0.000000
# 3 -0.003553 -0.002111 0.012561 0.000000 0.000897 0.000000
# 4 0.000000 0.000000 0.000000 0.018505 0.000000 0.001039
# 5 0.000830 0.001835 0.000897 0.000000 0.018676 0.000000
# 6 0.000000 0.000000 0.000000 0.001039 0.000000 0.026019
#
#
# Mechanical properties :
#
#
# Convention : Reuss Voigt Hill
#
# Bulk Modulus (GPa) = 51.13764 62.34539 56.74152
# Shear Modulus (GPa) = 43.82514 47.87344 45.84929
#
# Velocity S-wave (km/s) = 4.37833 4.57608 4.47830
# Velocity P-wave (km/s) = 6.92301 7.42910 7.18051
#
# Compressibility (1/GPa) = 0.01955507
#
# Stress axis : x y z
#
# Youngs Moduli (GPa) = 152.25353 77.92030 79.61062
#
# Poissons Ratio (x) = 0.04208 0.28284
# Poissons Ratio (y) = 0.08223 0.16805
# Poissons Ratio (z) = 0.54093 0.16448
#
# Static dielectric constant tensor:
#      x y z
#    x 4.864560 0.000000 -0.178230 
#    y 0.000000 6.095340 0.000000 
#    z -0.178230 0.000000 4.093660 
# 
# 
# High freq. dielectric constant tensor:
#      x y z
#    x 1.923570 0.000000 -0.008250 
#    y 0.000000 1.917480 0.000000 
#    z -0.008250 0.000000 1.920380 
# 
# From -- ./inp_files/128293.got.cif
#   From: 2010.06.25/outbox.cif.g09.slc.cpg/sg15_65_cif.got.tgz:128293.got - 2010.06.28 07:06:18.
