data_PCOD8154999
_publ_section_title
;
Structure prediction by ZEFSAII (Michael W. Deem and Ramdas Pophale) SiO2 
 PCOD8154999
Probable space group: C 2/C
;
_chemical_formula_sum "Si O2"
_cell_formula_units_Z 36
_cell_length_a 5.015665
_cell_length_b 23.090319
_cell_length_c 13.613679
_cell_angle_alpha 90.000000
_cell_angle_beta 89.120689
_cell_angle_gamma 90.000000
_cell_volume 1576.459489
_symmetry_space_group_name_H-M "C 2/C"
_symmetry_group_IT_number 15
_symmetry_cell_setting 'monoclinic'
loop_
_space_group_symop_operation_xyz
x,y,z
-x,y,1/2-z
-x,-y,-z
x,-y,1/2+z
1/2+x,1/2+y,z
1/2-x,1/2+y,1/2-z
1/2-x,1/2-y,-z
1/2+x,1/2-y,1/2+z
loop_
_atom_site_type_symbol
_atom_site_label
_atom_site_fract_x
_atom_site_fract_y
_atom_site_fract_z
Si Si1 0.235595 0.978025 0.687225
Si Si2 0.988126 0.731010 0.061642
Si Si3 0.311724 0.109538 0.013921
Si Si4 0.000000 0.195294 0.750000
Si Si5 0.807869 0.897821 0.383246
O O1 0.500000 0.982752 0.750000
O O2 0.284169 0.943605 0.587368
O O3 0.000000 0.946309 0.750000
O O4 0.111282 0.040546 0.661350
O O5 0.951815 0.661934 0.073310
O O6 0.921896 0.760761 0.165120
O O7 0.750000 0.750000 0.000000
O O8 0.250000 0.750000 0.000000
O O9 0.515152 0.092234 0.927580
O O10 0.027630 0.123439 0.962962
O O11 0.780035 0.151560 0.798309
#
# Coordination Sequence:
#
# PCOD8154999 Si02
#       5
#     8   8   8   4   8
#     4  12  26  44  72 109 144 188 242 301 366 432
#     4  12  26  47  70 106 143 185 244 301 362 434
#     4  12  25  48  69 103 144 191 235 302 364 429
#     4  12  26  46  78 102 144 194 242 302 364 434
#     4  12  25  46  74 100 143 188 248 292 359 435
#
# _framework density 22.835981
#
# number of rings (size 3 to 8) (size 9 to 14) (size 15 to 20)
#    0.000    0.000    5.556    4.000    1.556    2.667 
#    0.000    0.000    0.000    0.000    0.000    0.000 
#    0.000    0.000    0.000    0.000    0.000    0.000 
#
# Total GULP energy -223045.596393 kJ/mol
# GULP energy per Si atom -12391.422022 kJ/mol
# Density = 2.278401 g / cm^3
# Si number density = 22.835981 Si / 1000 Ang^3
#
#
#
# Elastic Constant Matrix: (Units=GPa)
#
#
# Indices 1 2 3 4 5 6 
#
# 1 135.3926 29.2864 54.6949 0.0000 -3.0763 0.0000
# 2 29.2864 119.2103 63.6216 0.0000 -1.5169 0.0000
# 3 54.6949 63.6216 163.3875 0.0000 -8.3196 0.0000
# 4 0.0000 0.0000 0.0000 46.1707 0.0000 -6.3667
# 5 -3.0763 -1.5169 -8.3196 0.0000 38.7579 0.0000
# 6 0.0000 0.0000 0.0000 -6.3667 0.0000 32.5890
#
#
#
# Elastic Compliance Matrix: (Units=1/GPa)
#
#
# Indices 1 2 3 4 5 6 
#
# 1 0.008591 -0.000729 -0.002587 0.000000 0.000098 0.000000
# 2 -0.000729 0.010660 -0.003932 0.000000 -0.000485 0.000000
# 3 -0.002587 -0.003932 0.008593 0.000000 0.001485 0.000000
# 4 0.000000 0.000000 0.000000 0.022258 0.000000 0.004348
# 5 0.000098 -0.000485 0.001485 0.000000 0.026109 0.000000
# 6 0.000000 0.000000 0.000000 0.004348 0.000000 0.031535
#
#
# Mechanical properties :
#
#
# Convention : Reuss Voigt Hill
#
# Bulk Modulus (GPa) = 74.91187 79.24402 77.07795
# Shear Modulus (GPa) = 39.46653 41.52934 40.49794
#
# Velocity S-wave (km/s) = 4.16175 4.26912 4.21578
# Velocity P-wave (km/s) = 7.48125 7.68617 7.58440
#
# Compressibility (1/GPa) = 0.01334902
#
# Stress axis : x y z
#
# Youngs Moduli (GPa) = 116.40239 93.81234 116.37345
#
# Poissons Ratio (x) = 0.06834 0.30108
# Poissons Ratio (y) = 0.08480 0.45753
# Poissons Ratio (z) = 0.30115 0.36883
#
# Static dielectric constant tensor:
#      x y z
#    x 4.052240 0.000000 -0.068800 
#    y 0.000000 3.923040 0.000000 
#    z -0.068800 0.000000 4.196470 
# 
# 
# High freq. dielectric constant tensor:
#      x y z
#    x 1.902710 0.000000 -0.012390 
#    y 0.000000 1.917540 0.000000 
#    z -0.012390 0.000000 1.911790 
# 
# From -- ./inp_files/72622.got.cif
#   From: 2010.06.25/outbox.cif.g09.slc.cpg/sg15_37_cif.got.tgz:72622.got - 2010.06.28 07:06:18.
