data_PCOD8154512
_publ_section_title
;
Structure prediction by ZEFSAII (Michael W. Deem and Ramdas Pophale) SiO2 
 PCOD8154512
Probable space group: C 2/C
;
_chemical_formula_sum "Si O2"
_cell_formula_units_Z 44
_cell_length_a 11.168609
_cell_length_b 10.865902
_cell_length_c 18.800520
_cell_angle_alpha 90.000000
_cell_angle_beta 118.763660
_cell_angle_gamma 90.000000
_cell_volume 2000.056076
_symmetry_space_group_name_H-M "C 2/C"
_symmetry_group_IT_number 15
_symmetry_cell_setting 'monoclinic'
loop_
_space_group_symop_operation_xyz
x,y,z
-x,y,1/2-z
-x,-y,-z
x,-y,1/2+z
1/2+x,1/2+y,z
1/2-x,1/2+y,1/2-z
1/2-x,1/2-y,-z
1/2+x,1/2-y,1/2+z
loop_
_atom_site_type_symbol
_atom_site_label
_atom_site_fract_x
_atom_site_fract_y
_atom_site_fract_z
Si Si1 0.831757 0.537775 0.603149
Si Si2 0.500000 0.872268 0.750000
Si Si3 0.792832 0.878980 0.044911
Si Si4 0.011994 0.759758 0.672475
Si Si5 0.791157 0.160914 0.708757
Si Si6 0.923333 0.984469 0.366410
O O1 0.954103 0.457468 0.671688
O O2 0.799689 0.486517 0.515495
O O3 0.695239 0.526240 0.610282
O O4 0.880747 0.678857 0.611776
O O5 0.372641 0.789181 0.737889
O O6 0.769692 0.883196 0.122322
O O7 0.952327 0.898657 0.072544
O O8 0.750000 0.750000 0.000000
O O9 0.146063 0.675892 0.704568
O O10 0.000000 0.804041 0.750000
O O11 0.022096 0.875965 0.623080
O O12 0.872782 0.055951 0.773987
#
# Coordination Sequence:
#
# PCOD8154512 Si02
#       6
#     8   4   8   8   8   8
#     4  12  25  44  71 102 141 187 233 298 365 418
#     4  12  20  46  70 100 134 182 238 280 356 428
#     4  12  24  44  70 104 141 186 237 299 362 420
#     4  12  25  43  71 103 139 186 241 295 354 423
#     4  12  23  43  74 100 137 189 236 291 355 430
#     4  12  24  47  70 103 143 187 242 290 352 438
#
# _framework density 21.999383000000002
#
# number of rings (size 3 to 8) (size 9 to 14) (size 15 to 20)
#    0.000    0.000    8.182    1.636    0.000    1.455 
#    0.000    0.000    0.000    0.000    0.000    0.000 
#    0.000    0.000    0.000    0.000    0.000    0.000 
#
# Total GULP energy -272946.176888 kJ/mol
# GULP energy per Si atom -12406.644404 kJ/mol
# Density = 2.194931 g / cm^3
# Si number density = 21.999383 Si / 1000 Ang^3
#
#
#
# Elastic Constant Matrix: (Units=GPa)
#
#
# Indices 1 2 3 4 5 6 
#
# 1 116.2133 54.7316 42.3231 0.0000 15.0399 0.0000
# 2 54.7316 139.3886 52.5067 0.0000 9.0728 0.0000
# 3 42.3231 52.5067 139.3169 0.0000 4.3964 0.0000
# 4 0.0000 0.0000 0.0000 24.1774 0.0000 4.4512
# 5 15.0399 9.0728 4.3964 0.0000 22.4369 0.0000
# 6 0.0000 0.0000 0.0000 4.4512 0.0000 35.6869
#
#
#
# Elastic Compliance Matrix: (Units=1/GPa)
#
#
# Indices 1 2 3 4 5 6 
#
# 1 0.011774 -0.003440 -0.002088 0.000000 -0.006092 0.000000
# 2 -0.003440 0.009542 -0.002518 0.000000 -0.001059 0.000000
# 3 -0.002088 -0.002518 0.008739 0.000000 0.000705 0.000000
# 4 0.000000 0.000000 0.000000 0.042333 0.000000 -0.005280
# 5 -0.006092 -0.001059 0.000705 0.000000 0.048943 0.000000
# 6 0.000000 0.000000 0.000000 -0.005280 0.000000 0.028680
#
#
# Mechanical properties :
#
#
# Convention : Reuss Voigt Hill
#
# Bulk Modulus (GPa) = 71.61685 77.11575 74.36630
# Shear Modulus (GPa) = 29.28127 32.81739 31.04933
#
# Velocity S-wave (km/s) = 3.65225 3.86650 3.76090
# Velocity P-wave (km/s) = 7.10000 7.42043 7.26198
#
# Compressibility (1/GPa) = 0.01396319
#
# Stress axis : x y z
#
# Youngs Moduli (GPa) = 84.93450 104.79608 114.43071
#
# Poissons Ratio (x) = 0.36049 0.23894
# Poissons Ratio (y) = 0.29217 0.28813
# Poissons Ratio (z) = 0.17735 0.26387
#
# Static dielectric constant tensor:
#      x y z
#    x 4.004520 0.000000 0.124670 
#    y 0.000000 4.119440 0.000000 
#    z 0.124670 0.000000 4.269710 
# 
# 
# High freq. dielectric constant tensor:
#      x y z
#    x 1.867420 0.000000 0.009810 
#    y 0.000000 1.870800 0.000000 
#    z 0.009810 0.000000 1.872220 
# 
# From -- ./inp_files/237300.got.cif
#   From: 2010.06.25/outbox.cif.g09.slc.cpg/sg15_119_cif.got.tgz:237300.got - 2010.06.28 07:06:18.
