data_PCOD8154108
_publ_section_title
;
Structure prediction by ZEFSAII (Michael W. Deem and Ramdas Pophale) SiO2 
 PCOD8154108
Probable space group: C 2/C
;
_chemical_formula_sum "Si O2"
_cell_formula_units_Z 44
_cell_length_a 16.976869
_cell_length_b 10.105801
_cell_length_c 11.245935
_cell_angle_alpha 90.000000
_cell_angle_beta 76.684895
_cell_angle_gamma 90.000000
_cell_volume 1877.541302
_symmetry_space_group_name_H-M "C 2/C"
_symmetry_group_IT_number 15
_symmetry_cell_setting 'monoclinic'
loop_
_space_group_symop_operation_xyz
x,y,z
-x,y,1/2-z
-x,-y,-z
x,-y,1/2+z
1/2+x,1/2+y,z
1/2-x,1/2+y,1/2-z
1/2-x,1/2-y,-z
1/2+x,1/2-y,1/2+z
loop_
_atom_site_type_symbol
_atom_site_label
_atom_site_fract_x
_atom_site_fract_y
_atom_site_fract_z
Si Si1 0.100941 0.916997 0.556020
Si Si2 0.568665 0.302022 0.134251
Si Si3 0.500000 0.781252 0.250000
Si Si4 0.076256 0.417674 0.436085
Si Si5 0.758989 0.564939 0.147620
Si Si6 0.181886 0.840772 0.301255
O O1 0.055779 0.805747 0.645789
O O2 0.107049 0.867002 0.417632
O O3 0.050044 0.052805 0.585366
O O4 0.193201 0.941873 0.565732
O O5 0.500000 0.253512 0.250000
O O6 0.650438 0.304939 0.181672
O O7 0.584015 0.206863 0.019270
O O8 0.561948 0.870013 0.305649
O O9 0.154176 0.510967 0.424590
O O10 0.000000 0.500000 0.500000
O O11 0.762289 0.719483 0.178797
O O12 0.732710 0.476904 0.270820
#
# Coordination Sequence:
#
# PCOD8154108 Si02
#       6
#     8   8   4   8   8   8
#     4  11  25  45  76 106 148 193 244 310 368 446
#     4  11  25  44  73 106 142 188 245 304 373 440
#     4  12  26  48  76 112 144 196 256 310 374 440
#     4  12  29  46  75 105 149 195 249 311 370 446
#     4  11  26  46  71 110 148 194 243 305 374 445
#     4  11  26  44  74 104 147 193 241 303 366 446
#
# _framework density 23.434904
#
# number of rings (size 3 to 8) (size 9 to 14) (size 15 to 20)
#    0.000    0.727    0.909    4.909   14.000    2.909 
#    0.000    0.000    0.000    0.000    0.000    0.000 
#    0.000    0.000    0.000    0.000    0.000    0.000 
#
# Total GULP energy -272867.998522 kJ/mol
# GULP energy per Si atom -12403.090842 kJ/mol
# Density = 2.338156 g / cm^3
# Si number density = 23.434904 Si / 1000 Ang^3
#
#
#
# Elastic Constant Matrix: (Units=GPa)
#
#
# Indices 1 2 3 4 5 6 
#
# 1 76.4765 6.0925 13.2310 0.0000 -9.3254 0.0000
# 2 6.0925 92.4617 28.9409 0.0000 0.6440 0.0000
# 3 13.2310 28.9409 107.9193 0.0000 1.6672 0.0000
# 4 0.0000 0.0000 0.0000 33.9640 0.0000 -8.3317
# 5 -9.3254 0.6440 1.6672 0.0000 40.5836 0.0000
# 6 0.0000 0.0000 0.0000 -8.3317 0.0000 37.4873
#
#
#
# Elastic Compliance Matrix: (Units=1/GPa)
#
#
# Indices 1 2 3 4 5 6 
#
# 1 0.013786 -0.000422 -0.001627 0.000000 0.003241 0.000000
# 2 -0.000422 0.011819 -0.003115 0.000000 -0.000156 0.000000
# 3 -0.001627 -0.003115 0.010313 0.000000 -0.000748 0.000000
# 4 0.000000 0.000000 0.000000 0.031141 0.000000 0.006921
# 5 0.003241 -0.000156 -0.000748 0.000000 0.025419 0.000000
# 6 0.000000 0.000000 0.000000 0.006921 0.000000 0.028214
#
#
# Mechanical properties :
#
#
# Convention : Reuss Voigt Hill
#
# Bulk Modulus (GPa) = 39.07840 41.48738 40.28289
# Shear Modulus (GPa) = 35.82941 37.64652 36.73796
#
# Velocity S-wave (km/s) = 3.91435 4.01238 3.96366
# Velocity P-wave (km/s) = 6.09434 6.26157 6.17852
#
# Compressibility (1/GPa) = 0.02558958
#
# Stress axis : x y z
#
# Youngs Moduli (GPa) = 72.53596 84.60719 96.96761
#
# Poissons Ratio (x) = 0.03568 0.15779
# Poissons Ratio (y) = 0.03059 0.30210
# Poissons Ratio (z) = 0.11803 0.26359
#
# Static dielectric constant tensor:
#      x y z
#    x 4.242030 0.000000 0.096540 
#    y 0.000000 4.483300 0.000000 
#    z 0.096540 0.000000 4.267210 
# 
# 
# High freq. dielectric constant tensor:
#      x y z
#    x 1.936270 0.000000 0.004200 
#    y 0.000000 1.940840 0.000000 
#    z 0.004200 0.000000 1.928870 
# 
# From -- ./inp_files/109953.got.cif
#   From: 2010.06.25/outbox.cif.g09.slc.cpg/sg15_55_cif.got.tgz:109953.got - 2010.06.28 07:06:18.
