data_PCOD8154609
_publ_section_title
;
Structure prediction by ZEFSAII (Michael W. Deem and Ramdas Pophale) SiO2 
 PCOD8154609
Probable space group: C 2/C
;
_chemical_formula_sum "Si O2"
_cell_formula_units_Z 44
_cell_length_a 21.705096
_cell_length_b 17.951474
_cell_length_c 14.226827
_cell_angle_alpha 90.000000
_cell_angle_beta 158.832778
_cell_angle_gamma 90.000000
_cell_volume 2001.643416
_symmetry_space_group_name_H-M "C 2/C"
_symmetry_group_IT_number 15
_symmetry_cell_setting 'monoclinic'
loop_
_space_group_symop_operation_xyz
x,y,z
-x,y,1/2-z
-x,-y,-z
x,-y,1/2+z
1/2+x,1/2+y,z
1/2-x,1/2+y,1/2-z
1/2-x,1/2-y,-z
1/2+x,1/2-y,1/2+z
loop_
_atom_site_type_symbol
_atom_site_label
_atom_site_fract_x
_atom_site_fract_y
_atom_site_fract_z
Si Si1 0.150896 0.103415 0.537922
Si Si2 0.500000 0.070833 0.750000
Si Si3 0.048465 0.821961 0.419417
Si Si4 0.335536 0.530266 0.324023
Si Si5 0.657372 0.716739 0.701580
Si Si6 0.372478 0.813677 0.215208
O O1 0.116864 0.139310 0.591600
O O2 0.308707 0.147060 0.718991
O O3 0.182110 0.016630 0.604167
O O4 0.000000 0.114491 0.250000
O O5 0.346462 0.020309 0.488930
O O6 0.601419 0.121909 0.822143
O O7 0.147989 0.883322 0.623078
O O8 0.152110 0.746948 0.541076
O O9 0.000000 0.858566 0.250000
O O10 0.886761 0.794887 0.251299
O O11 0.500000 0.500000 0.500000
O O12 0.549926 0.779408 0.496299
O O13 0.250000 0.750000 0.000000
#
# Coordination Sequence:
#
# PCOD8154609 Si02
#       6
#     8   4   8   8   8   8
#     4  12  24  41  72 104 141 190 241 297 368 430
#     4  12  26  46  72 104 150 192 250 304 364 454
#     4  12  26  48  72 103 145 189 240 299 375 442
#     4  12  26  49  70 104 148 195 242 303 370 447
#     4  12  23  44  71 105 139 183 243 302 360 439
#     4  12  22  41  73 106 139 177 243 313 362 420
#
# _framework density 21.981936999999999
#
# number of rings (size 3 to 8) (size 9 to 14) (size 15 to 20)
#    0.000    0.000    7.273    4.364    0.000    0.727 
#    4.909    0.000    0.000    0.000    0.000    0.000 
#    0.000    0.000    0.000    0.000    0.000    0.000 
#
# Total GULP energy -272719.030009 kJ/mol
# GULP energy per Si atom -12396.319546 kJ/mol
# Density = 2.193190 g / cm^3
# Si number density = 21.981937 Si / 1000 Ang^3
#
#
#
# Elastic Constant Matrix: (Units=GPa)
#
#
# Indices 1 2 3 4 5 6 
#
# 1 144.7262 40.5423 34.5765 0.0000 -1.0075 0.0000
# 2 40.5423 86.1272 18.8493 0.0000 6.8880 0.0000
# 3 34.5765 18.8493 100.4321 0.0000 2.1364 0.0000
# 4 0.0000 0.0000 0.0000 52.9986 0.0000 -3.5275
# 5 -1.0075 6.8880 2.1364 0.0000 29.4105 0.0000
# 6 0.0000 0.0000 0.0000 -3.5275 0.0000 52.7954
#
#
#
# Elastic Compliance Matrix: (Units=1/GPa)
#
#
# Indices 1 2 3 4 5 6 
#
# 1 0.008467 -0.003593 -0.002268 0.000000 0.001296 0.000000
# 2 -0.003593 0.013846 -0.001292 0.000000 -0.003272 0.000000
# 3 -0.002268 -0.001292 0.010993 0.000000 -0.000574 0.000000
# 4 0.000000 0.000000 0.000000 0.018953 0.000000 0.001266
# 5 0.001296 -0.003272 -0.000574 0.000000 0.034854 0.000000
# 6 0.000000 0.000000 0.000000 0.001266 0.000000 0.019026
#
#
# Mechanical properties :
#
#
# Convention : Reuss Voigt Hill
#
# Bulk Modulus (GPa) = 52.63312 57.69130 55.16221
# Shear Modulus (GPa) = 39.43897 42.86205 41.15051
#
# Velocity S-wave (km/s) = 4.24034 4.42053 4.33137
# Velocity P-wave (km/s) = 6.92602 7.23579 7.08260
#
# Compressibility (1/GPa) = 0.01899944
#
# Stress axis : x y z
#
# Youngs Moduli (GPa) = 118.10543 72.22052 90.97021
#
# Poissons Ratio (x) = 0.25948 0.20634
# Poissons Ratio (y) = 0.42434 0.11755
# Poissons Ratio (z) = 0.26789 0.09332
#
# Static dielectric constant tensor:
#      x y z
#    x 4.269680 0.000000 -0.102140 
#    y 0.000000 3.950680 0.000000 
#    z -0.102140 0.000000 3.941890 
# 
# 
# High freq. dielectric constant tensor:
#      x y z
#    x 1.880260 0.000000 -0.001640 
#    y 0.000000 1.864700 0.000000 
#    z -0.001640 0.000000 1.857050 
# 
# From -- ./inp_files/174291.got.cif
#   From: 2010.06.25/outbox.cif.g09.slc.cpg/sg15_88_cif.got.tgz:174291.got - 2010.06.28 07:06:18.
