data_PCOD8154144
_publ_section_title
;
Structure prediction by ZEFSAII (Michael W. Deem and Ramdas Pophale) SiO2 
 PCOD8154144
Probable space group: C 2/C
;
_chemical_formula_sum "Si O2"
_cell_formula_units_Z 56
_cell_length_a 11.327200
_cell_length_b 8.912816
_cell_length_c 26.911134
_cell_angle_alpha 90.000000
_cell_angle_beta 66.127465
_cell_angle_gamma 90.000000
_cell_volume 2484.440211
_symmetry_space_group_name_H-M "C 2/C"
_symmetry_group_IT_number 15
_symmetry_cell_setting 'monoclinic'
loop_
_space_group_symop_operation_xyz
x,y,z
-x,y,1/2-z
-x,-y,-z
x,-y,1/2+z
1/2+x,1/2+y,z
1/2-x,1/2+y,1/2-z
1/2-x,1/2-y,-z
1/2+x,1/2-y,1/2+z
loop_
_atom_site_type_symbol
_atom_site_label
_atom_site_fract_x
_atom_site_fract_y
_atom_site_fract_z
Si Si1 0.368826 0.923506 0.418478
Si Si2 0.719860 0.263021 0.367039
Si Si3 0.405045 0.279092 0.620676
Si Si4 0.629594 0.589868 0.475437
Si Si5 0.192399 0.044375 0.687680
Si Si6 0.076775 0.951203 0.312031
Si Si7 0.002033 0.633257 0.040462
O O1 0.323901 0.885286 0.369890
O O2 0.453472 0.779838 0.422576
O O3 0.245223 0.977619 0.473408
O O4 0.464160 0.065906 0.410336
O O5 0.620434 0.336688 0.346427
O O6 0.639600 0.206744 0.429430
O O7 0.793595 0.129779 0.327742
O O8 0.339731 0.370903 0.587285
O O9 0.315775 0.138800 0.650183
O O10 0.424689 0.381090 0.665713
O O11 0.500000 0.500000 0.500000
O O12 0.612547 0.743364 0.509344
O O13 0.176522 0.055825 0.749533
O O14 0.064715 0.101551 0.681188
O O15 0.000000 0.500000 0.000000
#
# Coordination Sequence:
#
# PCOD8154144 Si02
#       7
#     8   8   8   8   8   8   8
#     4  12  25  43  71  94 138 176 221 274 335 388
#     4  12  24  45  69 100 135 174 226 277 333 402
#     4  12  24  45  69 100 135 174 226 277 333 402
#     4  12  25  45  66 100 137 181 226 274 332 398
#     4  11  25  45  71  99 132 175 222 280 341 401
#     4  11  25  45  71  99 132 175 222 280 341 401
#     4  12  25  45  66 100 137 181 226 274 332 398
#
# _framework density 22.540289000000001
#
# number of rings (size 3 to 8) (size 9 to 14) (size 15 to 20)
#    0.000    0.286    7.143    1.286    2.000    2.286 
#    5.143    0.000    0.000    0.000    0.000    0.000 
#    0.000    0.000    0.000    0.000    0.000    0.000 
#
# Total GULP energy -346961.837693 kJ/mol
# GULP energy per Si atom -12391.494203 kJ/mol
# Density = 2.248899 g / cm^3
# Si number density = 22.540289 Si / 1000 Ang^3
#
#
#
# Elastic Constant Matrix: (Units=GPa)
#
#
# Indices 1 2 3 4 5 6 
#
# 1 96.8758 45.9667 40.3884 0.0000 -2.5540 0.0000
# 2 45.9667 113.0678 54.0270 0.0000 1.3693 0.0000
# 3 40.3884 54.0270 94.4018 0.0000 -0.7661 0.0000
# 4 0.0000 0.0000 0.0000 37.9351 0.0000 0.3485
# 5 -2.5540 1.3693 -0.7661 0.0000 35.3607 0.0000
# 6 0.0000 0.0000 0.0000 0.3485 0.0000 34.3221
#
#
#
# Elastic Compliance Matrix: (Units=1/GPa)
#
#
# Indices 1 2 3 4 5 6 
#
# 1 0.013693 -0.003833 -0.003657 0.000000 0.001058 0.000000
# 2 -0.003833 0.013260 -0.005956 0.000000 -0.000919 0.000000
# 3 -0.003657 -0.005956 0.015569 0.000000 0.000304 0.000000
# 4 0.000000 0.000000 0.000000 0.026363 0.000000 -0.000268
# 5 0.001058 -0.000919 0.000304 0.000000 0.028399 0.000000
# 6 0.000000 0.000000 0.000000 -0.000268 0.000000 0.029138
#
#
# Mechanical properties :
#
#
# Convention : Reuss Voigt Hill
#
# Bulk Modulus (GPa) = 63.97595 65.01217 64.49406
# Shear Modulus (GPa) = 31.54115 32.45445 31.99780
#
# Velocity S-wave (km/s) = 3.74481 3.79864 3.77182
# Velocity P-wave (km/s) = 6.86605 6.93865 6.90245
#
# Compressibility (1/GPa) = 0.01563087
#
# Stress axis : x y z
#
# Youngs Moduli (GPa) = 73.02825 75.41718 64.23134
#
# Poissons Ratio (x) = 0.28904 0.23486
# Poissons Ratio (y) = 0.27988 0.38258
# Poissons Ratio (z) = 0.26703 0.44921
#
# Static dielectric constant tensor:
#      x y z
#    x 4.124080 0.000000 -0.244500 
#    y 0.000000 4.171410 0.000000 
#    z -0.244500 0.000000 3.655630 
# 
# 
# High freq. dielectric constant tensor:
#      x y z
#    x 1.902100 0.000000 -0.000930 
#    y 0.000000 1.903980 0.000000 
#    z -0.000930 0.000000 1.865600 
# 
# From -- ./inp_files/291505.got.cif
#   From: 2010.06.25/outbox.cif.g09.slc.cpg/sg15_146_cif.got.tgz:291505.got - 2010.06.28 07:06:18.
