data_PCOD8154698
_publ_section_title
;
Structure prediction by ZEFSAII (Michael W. Deem and Ramdas Pophale) SiO2 
 PCOD8154698
Probable space group: C 2/C
;
_chemical_formula_sum "Si O2"
_cell_formula_units_Z 48
_cell_length_a 30.066836
_cell_length_b 13.218163
_cell_length_c 8.534998
_cell_angle_alpha 90.000000
_cell_angle_beta 40.091483
_cell_angle_gamma 90.000000
_cell_volume 2184.513891
_symmetry_space_group_name_H-M "C 2/C"
_symmetry_group_IT_number 15
_symmetry_cell_setting 'monoclinic'
loop_
_space_group_symop_operation_xyz
x,y,z
-x,y,1/2-z
-x,-y,-z
x,-y,1/2+z
1/2+x,1/2+y,z
1/2-x,1/2+y,1/2-z
1/2-x,1/2-y,-z
1/2+x,1/2-y,1/2+z
loop_
_atom_site_type_symbol
_atom_site_label
_atom_site_fract_x
_atom_site_fract_y
_atom_site_fract_z
Si Si1 0.743734 0.971010 0.074490
Si Si2 0.428143 0.649842 0.865143
Si Si3 0.305211 0.183366 0.250677
Si Si4 0.572008 0.721504 0.976277
Si Si5 0.343677 0.450351 0.064440
Si Si6 0.324672 0.783301 0.346318
O O1 0.677988 0.899780 0.210823
O O2 0.718331 0.071510 0.233082
O O3 0.810265 0.917602 0.984864
O O4 0.773089 0.017007 0.836147
O O5 0.500000 0.620567 0.750000
O O6 0.444452 0.704414 0.659546
O O7 0.391678 0.546964 0.912748
O O8 0.384814 0.721807 0.097260
O O9 0.250000 0.250000 0.500000
O O10 0.376480 0.182100 0.157871
O O11 0.328266 0.233415 0.023263
O O12 0.613307 0.632100 0.955056
O O13 0.500000 0.746482 0.250000
O O14 0.250000 0.750000 0.500000
#
# Coordination Sequence:
#
# PCOD8154698 Si02
#       6
#     8   8   8   8   8   8
#     4  12  24  41  69 104 131 168 222 273 330 383
#     4  12  27  44  65  97 135 179 220 270 334 395
#     4  12  24  42  67  97 132 174 221 271 324 391
#     4  12  27  43  66  96 137 178 219 272 331 396
#     4  12  23  41  68 100 136 169 216 276 333 391
#     4  12  24  41  68  96 134 173 220 273 323 392
#
# _framework density 21.972850999999999
#
# number of rings (size 3 to 8) (size 9 to 14) (size 15 to 20)
#    0.000    0.000    6.667    3.500    4.667    1.333 
#    0.000    0.833    0.000    4.000    0.000    0.000 
#    0.000    0.000    0.000    0.000    0.000    0.000 
#
# Total GULP energy -297326.632655 kJ/mol
# GULP energy per Si atom -12388.609694 kJ/mol
# Density = 2.192284 g / cm^3
# Si number density = 21.972851 Si / 1000 Ang^3
#
#
#
# Elastic Constant Matrix: (Units=GPa)
#
#
# Indices 1 2 3 4 5 6 
#
# 1 92.1736 7.3862 29.1504 0.0000 -6.1208 0.0000
# 2 7.3862 57.8022 10.9477 0.0000 -5.3156 0.0000
# 3 29.1504 10.9477 122.0743 0.0000 0.2150 0.0000
# 4 0.0000 0.0000 0.0000 16.4557 0.0000 7.0371
# 5 -6.1208 -5.3156 0.2150 0.0000 40.8743 0.0000
# 6 0.0000 0.0000 0.0000 7.0371 0.0000 22.2652
#
#
#
# Elastic Compliance Matrix: (Units=1/GPa)
#
#
# Indices 1 2 3 4 5 6 
#
# 1 0.011905 -0.000841 -0.002770 0.000000 0.001688 0.000000
# 2 -0.000841 0.017877 -0.001406 0.000000 0.002206 0.000000
# 3 -0.002770 -0.001406 0.008981 0.000000 -0.000645 0.000000
# 4 0.000000 0.000000 0.000000 0.070266 0.000000 -0.022208
# 5 0.001688 0.002206 -0.000645 0.000000 0.025008 0.000000
# 6 0.000000 0.000000 0.000000 -0.022208 0.000000 0.051932
#
#
# Mechanical properties :
#
#
# Convention : Reuss Voigt Hill
#
# Bulk Modulus (GPa) = 34.81079 40.77984 37.79532
# Shear Modulus (GPa) = 24.32141 30.89010 27.60575
#
# Velocity S-wave (km/s) = 3.33060 3.75351 3.54836
# Velocity P-wave (km/s) = 5.53783 6.11429 5.83319
#
# Compressibility (1/GPa) = 0.02872672
#
# Stress axis : x y z
#
# Youngs Moduli (GPa) = 84.00041 55.93739 111.35236
#
# Poissons Ratio (x) = 0.04706 0.30848
# Poissons Ratio (y) = 0.07067 0.15659
# Poissons Ratio (z) = 0.23270 0.07866
#
# Static dielectric constant tensor:
#      x y z
#    x 4.805030 0.000000 -0.011140 
#    y 0.000000 5.932800 0.000000 
#    z -0.011140 0.000000 3.981680 
# 
# 
# High freq. dielectric constant tensor:
#      x y z
#    x 1.880790 0.000000 0.019560 
#    y 0.000000 1.863750 0.000000 
#    z 0.019560 0.000000 1.859670 
# 
# From -- ./inp_files/66468.got.cif
#   From: 2010.06.25/outbox.cif.g09.slc.cpg/sg15_34_cif.got.tgz:66468.got - 2010.06.28 07:06:18.
