data_PCOD8154051
_publ_section_title
;
Structure prediction by ZEFSAII (Michael W. Deem and Ramdas Pophale) SiO2 
 PCOD8154051
Probable space group: C 2/C
;
_chemical_formula_sum "Si O2"
_cell_formula_units_Z 48
_cell_length_a 10.625950
_cell_length_b 15.006966
_cell_length_c 16.844349
_cell_angle_alpha 90.000000
_cell_angle_beta 128.470121
_cell_angle_gamma 90.000000
_cell_volume 2103.000233
_symmetry_space_group_name_H-M "C 2/C"
_symmetry_group_IT_number 15
_symmetry_cell_setting 'monoclinic'
loop_
_space_group_symop_operation_xyz
x,y,z
-x,y,1/2-z
-x,-y,-z
x,-y,1/2+z
1/2+x,1/2+y,z
1/2-x,1/2+y,1/2-z
1/2-x,1/2-y,-z
1/2+x,1/2-y,1/2+z
loop_
_atom_site_type_symbol
_atom_site_label
_atom_site_fract_x
_atom_site_fract_y
_atom_site_fract_z
Si Si1 0.187100 0.823425 0.320136
Si Si2 0.176979 0.487655 0.602404
Si Si3 0.377311 0.327293 0.634275
Si Si4 0.085477 0.171168 0.061763
Si Si5 0.330400 0.970896 0.714264
Si Si6 0.784782 0.162877 0.849371
O O1 0.219961 0.921992 0.366911
O O2 0.295530 0.753310 0.411193
O O3 0.243444 0.809336 0.252019
O O4 0.000000 0.800302 0.250000
O O5 0.253235 0.409461 0.578830
O O6 0.175105 0.459507 0.693437
O O7 0.000000 0.500000 0.500000
O O8 0.500000 0.357242 0.750000
O O9 0.463742 0.308925 0.585632
O O10 0.290194 0.235691 0.622031
O O11 0.187385 0.084057 0.119367
O O12 0.975960 0.153848 0.941119
O O13 0.500000 0.933721 0.750000
O O14 0.307612 0.070611 0.673187
#
# Coordination Sequence:
#
# PCOD8154051 Si02
#       6
#     8   8   8   8   8   8
#     4  11  25  43  67  96 135 170 214 271 326 383
#     4  11  25  42  66  97 130 172 216 266 327 385
#     4  12  22  44  70  94 132 171 218 267 318 387
#     4  12  25  43  69  97 130 174 216 265 325 385
#     4  11  25  42  64  96 134 166 214 271 322 379
#     4  11  25  42  67 100 128 169 219 266 322 383
#
# _framework density 22.824532000000001
#
# number of rings (size 3 to 8) (size 9 to 14) (size 15 to 20)
#    0.000    0.667    3.333    3.500    7.000    2.000 
#    0.000    0.000    0.000    0.000    0.000    0.000 
#    0.000    0.000    0.000    0.000    0.000    0.000 
#
# Total GULP energy -297751.224971 kJ/mol
# GULP energy per Si atom -12406.301040 kJ/mol
# Density = 2.277258 g / cm^3
# Si number density = 22.824532 Si / 1000 Ang^3
#
#
#
# Elastic Constant Matrix: (Units=GPa)
#
#
# Indices 1 2 3 4 5 6 
#
# 1 65.3004 41.9229 -0.0862 0.0000 29.4879 0.0000
# 2 41.9229 121.0170 21.7611 0.0000 12.2961 0.0000
# 3 -0.0862 21.7611 112.3594 0.0000 25.6597 0.0000
# 4 0.0000 0.0000 0.0000 26.9587 0.0000 23.6951
# 5 29.4879 12.2961 25.6597 0.0000 34.0700 0.0000
# 6 0.0000 0.0000 0.0000 23.6951 0.0000 24.2227
#
#
#
# Elastic Compliance Matrix: (Units=1/GPa)
#
#
# Indices 1 2 3 4 5 6 
#
# 1 0.041304 -0.012322 0.011554 0.000000 -0.040004 0.000000
# 2 -0.012322 0.012379 -0.004616 0.000000 0.009673 0.000000
# 3 0.011554 -0.004616 0.014138 0.000000 -0.018982 0.000000
# 4 0.000000 0.000000 0.000000 0.264568 0.000000 -0.258805
# 5 -0.040004 0.009673 -0.018982 0.000000 0.074780 0.000000
# 6 0.000000 0.000000 0.000000 -0.258805 0.000000 0.294452
#
#
# Mechanical properties :
#
#
# Convention : Reuss Voigt Hill
#
# Bulk Modulus (GPa) = 17.52742 47.31917 32.42329
# Shear Modulus (GPa) = 6.83614 32.72222 19.77918
#
# Velocity S-wave (km/s) = 1.73251 3.79046 2.94696
# Velocity P-wave (km/s) = 3.42023 6.31929 5.08092
#
# Compressibility (1/GPa) = 0.05705345
#
# Stress axis : x y z
#
# Youngs Moduli (GPa) = 24.21050 80.78229 70.73243
#
# Poissons Ratio (x) = 0.99537 -0.81723
# Poissons Ratio (y) = 0.29831 0.32651
# Poissons Ratio (z) = -0.27972 0.37290
#
# Static dielectric constant tensor:
#      x y z
#    x 3.979760 0.000000 0.097300 
#    y 0.000000 4.089970 0.000000 
#    z 0.097300 0.000000 4.369420 
# 
# 
# High freq. dielectric constant tensor:
#      x y z
#    x 1.893540 0.000000 0.014360 
#    y 0.000000 1.910630 0.000000 
#    z 0.014360 0.000000 1.918190 
# 
# From -- ./inp_files/182529.got.cif
#   From: 2010.06.25/outbox.cif.g09.slc.cpg/sg15_92_cif.got.tgz:182529.got - 2010.06.28 07:06:18.
