data_PCOD8154285
_publ_section_title
;
Structure prediction by ZEFSAII (Michael W. Deem and Ramdas Pophale) SiO2 
 PCOD8154285
Probable space group: C 2/C
;
_chemical_formula_sum "Si O2"
_cell_formula_units_Z 32
_cell_length_a 11.883196
_cell_length_b 14.354340
_cell_length_c 8.255079
_cell_angle_alpha 90.000000
_cell_angle_beta 71.624310
_cell_angle_gamma 90.000000
_cell_volume 1336.313772
_symmetry_space_group_name_H-M "C 2/C"
_symmetry_group_IT_number 15
_symmetry_cell_setting 'monoclinic'
loop_
_space_group_symop_operation_xyz
x,y,z
-x,y,1/2-z
-x,-y,-z
x,-y,1/2+z
1/2+x,1/2+y,z
1/2-x,1/2+y,1/2-z
1/2-x,1/2-y,-z
1/2+x,1/2-y,1/2+z
loop_
_atom_site_type_symbol
_atom_site_label
_atom_site_fract_x
_atom_site_fract_y
_atom_site_fract_z
Si Si1 0.048377 0.102607 0.495422
Si Si2 0.862588 0.574702 0.844776
Si Si3 0.217149 0.615403 0.259434
Si Si4 0.164391 0.820584 0.257229
O O1 0.138340 0.120108 0.305070
O O2 0.125192 0.115753 0.624642
O O3 0.934147 0.170437 0.554061
O O4 0.000000 0.000000 0.500000
O O5 0.828438 0.467032 0.835128
O O6 0.791191 0.642467 0.757879
O O7 0.000000 0.590950 0.750000
O O8 0.831901 0.602035 0.040302
O O9 0.170771 0.712449 0.204984
#
# Coordination Sequence:
#
# PCOD8154285 Si02
#       4
#     8   8   8   8
#     4  11  25  48  82 110 150 193 268 318 381 446
#     4  12  28  49  74 113 159 202 253 315 389 463
#     4  12  27  49  79 112 156 204 258 314 391 459
#     4  11  27  49  78 115 150 205 253 325 384 459
#
# _framework density 23.946470999999999
#
# number of rings (size 3 to 8) (size 9 to 14) (size 15 to 20)
#    0.000    0.500    2.500    3.750   10.500    1.000 
#    0.000    0.000    0.000    0.000    0.000    0.000 
#    0.000    0.000    0.000    0.000    0.000    0.000 
#
# Total GULP energy -198415.508822 kJ/mol
# GULP energy per Si atom -12400.969301 kJ/mol
# Density = 2.389197 g / cm^3
# Si number density = 23.946471 Si / 1000 Ang^3
#
#
#
# Elastic Constant Matrix: (Units=GPa)
#
#
# Indices 1 2 3 4 5 6 
#
# 1 156.0915 68.1054 48.3715 0.0000 -35.6069 0.0000
# 2 68.1054 163.5261 54.4055 0.0000 -0.9987 0.0000
# 3 48.3715 54.4055 116.1618 0.0000 -29.1722 0.0000
# 4 0.0000 0.0000 0.0000 35.4147 0.0000 -2.8107
# 5 -35.6069 -0.9987 -29.1722 0.0000 62.3220 0.0000
# 6 0.0000 0.0000 0.0000 -2.8107 0.0000 38.9299
#
#
#
# Elastic Compliance Matrix: (Units=1/GPa)
#
#
# Indices 1 2 3 4 5 6 
#
# 1 0.009363 -0.003523 -0.001042 0.000000 0.004805 0.000000
# 2 -0.003523 0.008726 -0.003502 0.000000 -0.003512 0.000000
# 3 -0.001042 -0.003502 0.011920 0.000000 0.004928 0.000000
# 4 0.000000 0.000000 0.000000 0.028400 0.000000 0.002050
# 5 0.004805 -0.003512 0.004928 0.000000 0.021042 0.000000
# 6 0.000000 0.000000 0.000000 0.002050 0.000000 0.025835
#
#
# Mechanical properties :
#
#
# Convention : Reuss Voigt Hill
#
# Bulk Modulus (GPa) = 72.07158 86.39379 79.23268
# Shear Modulus (GPa) = 39.66817 44.99312 42.33065
#
# Velocity S-wave (km/s) = 4.07447 4.33934 4.20899
# Velocity P-wave (km/s) = 7.23169 7.82705 7.53525
#
# Compressibility (1/GPa) = 0.01387510
#
# Stress axis : x y z
#
# Youngs Moduli (GPa) = 106.80503 114.59550 83.88997
#
# Poissons Ratio (x) = 0.40378 0.08740
# Poissons Ratio (y) = 0.37633 0.29378
# Poissons Ratio (z) = 0.11127 0.40131
#
# Static dielectric constant tensor:
#      x y z
#    x 5.253480 0.000000 -1.102630 
#    y 0.000000 4.453200 0.000000 
#    z -1.102630 0.000000 5.114300 
# 
# 
# High freq. dielectric constant tensor:
#      x y z
#    x 1.956490 0.000000 -0.025990 
#    y 0.000000 1.957730 0.000000 
#    z -0.025990 0.000000 1.957960 
# 
# From -- ./inp_files/27876.got.cif
#   From: 2010.06.25/outbox.cif.g09.slc.cpg/sg15_14_cif.got.tgz:27876.got - 2010.06.28 07:06:18.
