data_PCOD8154636
_publ_section_title
;
Structure prediction by ZEFSAII (Michael W. Deem and Ramdas Pophale) SiO2 
 PCOD8154636
Probable space group: C 2/C
;
_chemical_formula_sum "Si O2"
_cell_formula_units_Z 56
_cell_length_a 11.788031
_cell_length_b 8.746288
_cell_length_c 27.634713
_cell_angle_alpha 90.000000
_cell_angle_beta 120.029378
_cell_angle_gamma 90.000000
_cell_volume 2466.732138
_symmetry_space_group_name_H-M "C 2/C"
_symmetry_group_IT_number 15
_symmetry_cell_setting 'monoclinic'
loop_
_space_group_symop_operation_xyz
x,y,z
-x,y,1/2-z
-x,-y,-z
x,-y,1/2+z
1/2+x,1/2+y,z
1/2-x,1/2+y,1/2-z
1/2-x,1/2-y,-z
1/2+x,1/2-y,1/2+z
loop_
_atom_site_type_symbol
_atom_site_label
_atom_site_fract_x
_atom_site_fract_y
_atom_site_fract_z
Si Si1 0.104671 0.434397 0.234119
Si Si2 0.060323 0.848471 0.831624
Si Si3 0.071849 0.403220 0.055778
Si Si4 0.184684 0.607394 0.156607
Si Si5 0.127545 0.930042 0.552345
Si Si6 0.675850 0.829472 0.440599
Si Si7 0.620704 0.434488 0.153588
O O1 0.121311 0.540666 0.191350
O O2 0.243403 0.423270 0.289247
O O3 0.000000 0.505571 0.250000
O O4 0.054681 0.269604 0.205446
O O5 0.155461 0.872850 0.804928
O O6 0.166765 0.780157 0.892416
O O7 0.995152 0.006413 0.836038
O O8 0.177746 0.502237 0.107100
O O9 0.135654 0.252291 0.044967
O O10 0.971505 0.357890 0.075940
O O11 0.000000 0.500000 0.000000
O O12 0.099571 0.762086 0.129804
O O13 0.255269 0.010262 0.557588
O O14 0.124029 0.950985 0.609265
O O15 0.000000 0.000000 0.500000
O O16 0.750000 0.750000 0.500000
#
# Coordination Sequence:
#
# PCOD8154636 Si02
#       7
#     8   8   8   8   8   8   8
#     4  12  25  49  74 103 149 195 244 310 366 438
#     4  12  25  51  73 106 152 194 246 309 374 437
#     4  12  26  43  71 112 151 186 252 307 365 453
#     4  12  26  47  73 111 148 192 252 308 373 441
#     4  12  23  44  74 104 145 196 243 301 379 444
#     4  12  22  43  76 100 145 199 236 301 373 439
#     4  12  25  44  77 105 139 199 247 296 383 439
#
# _framework density 22.702100000000002
#
# number of rings (size 3 to 8) (size 9 to 14) (size 15 to 20)
#    0.000    0.000    7.143    2.571    0.000    1.714 
#    5.143    0.000    0.000    0.000    0.000    0.000 
#    0.000    0.000    0.000    0.000    0.000    0.000 
#
# Total GULP energy -347174.265245 kJ/mol
# GULP energy per Si atom -12399.080902 kJ/mol
# Density = 2.265043 g / cm^3
# Si number density = 22.702100 Si / 1000 Ang^3
#
#
#
# Elastic Constant Matrix: (Units=GPa)
#
#
# Indices 1 2 3 4 5 6 
#
# 1 128.2613 60.8607 10.9468 0.0000 -5.0532 0.0000
# 2 60.8607 167.4514 44.5243 0.0000 0.2560 0.0000
# 3 10.9468 44.5243 122.9325 0.0000 -0.1566 0.0000
# 4 0.0000 0.0000 0.0000 35.4017 0.0000 -2.9065
# 5 -5.0532 0.2560 -0.1566 0.0000 34.7439 0.0000
# 6 0.0000 0.0000 0.0000 -2.9065 0.0000 48.7768
#
#
#
# Elastic Compliance Matrix: (Units=1/GPa)
#
#
# Indices 1 2 3 4 5 6 
#
# 1 0.009512 -0.003579 0.000451 0.000000 0.001412 0.000000
# 2 -0.003579 0.007955 -0.002563 0.000000 -0.000591 0.000000
# 3 0.000451 -0.002563 0.009023 0.000000 0.000125 0.000000
# 4 0.000000 0.000000 0.000000 0.028386 0.000000 0.001691
# 5 0.001412 -0.000591 0.000125 0.000000 0.028992 0.000000
# 6 0.000000 0.000000 0.000000 0.001691 0.000000 0.020602
#
#
# Mechanical properties :
#
#
# Convention : Reuss Voigt Hill
#
# Bulk Modulus (GPa) = 66.19292 72.36761 69.28026
# Shear Modulus (GPa) = 41.36000 43.93871 42.64936
#
# Velocity S-wave (km/s) = 4.27295 4.40414 4.33904
# Velocity P-wave (km/s) = 7.31879 7.60317 7.46234
#
# Compressibility (1/GPa) = 0.01510736
#
# Stress axis : x y z
#
# Youngs Moduli (GPa) = 105.12911 125.70294 110.82883
#
# Poissons Ratio (x) = 0.44993 -0.05000
# Poissons Ratio (y) = 0.37629 0.28409
# Poissons Ratio (z) = -0.04743 0.32221
#
# Static dielectric constant tensor:
#      x y z
#    x 4.455350 0.000000 -0.173160 
#    y 0.000000 4.294480 0.000000 
#    z -0.173160 0.000000 4.198900 
# 
# 
# High freq. dielectric constant tensor:
#      x y z
#    x 1.899100 0.000000 -0.004270 
#    y 0.000000 1.896010 0.000000 
#    z -0.004270 0.000000 1.913020 
# 
# From -- ./inp_files/310389.got.cif
#   From: 2010.06.25/outbox.cif.g09.slc.cpg/sg15_156_cif.got.tgz:310389.got - 2010.06.28 07:06:18.
