data_PCOD8154228
_publ_section_title
;
Structure prediction by ZEFSAII (Michael W. Deem and Ramdas Pophale) SiO2 
 PCOD8154228
Probable space group: C 2/C
;
_chemical_formula_sum "Si O2"
_cell_formula_units_Z 36
_cell_length_a 20.517521
_cell_length_b 6.582447
_cell_length_c 25.123491
_cell_angle_alpha 90.000000
_cell_angle_beta 150.110117
_cell_angle_gamma 90.000000
_cell_volume 1690.882142
_symmetry_space_group_name_H-M "C 2/C"
_symmetry_group_IT_number 15
_symmetry_cell_setting 'monoclinic'
loop_
_space_group_symop_operation_xyz
x,y,z
-x,y,1/2-z
-x,-y,-z
x,-y,1/2+z
1/2+x,1/2+y,z
1/2-x,1/2+y,1/2-z
1/2-x,1/2-y,-z
1/2+x,1/2-y,1/2+z
loop_
_atom_site_type_symbol
_atom_site_label
_atom_site_fract_x
_atom_site_fract_y
_atom_site_fract_z
Si Si1 0.500000 0.377908 0.750000
Si Si2 0.086151 0.805605 0.049803
Si Si3 0.783533 0.205263 0.584027
Si Si4 0.129112 0.547630 0.776464
Si Si5 0.985733 0.546205 0.071097
O O1 0.375860 0.510718 0.646625
O O2 0.538393 0.237260 0.727501
O O3 0.234250 0.870740 0.147660
O O4 0.079549 0.654619 0.095140
O O5 0.034290 0.688865 0.960355
O O6 0.000000 0.000000 0.000000
O O7 0.750000 0.250000 0.500000
O O8 0.855087 0.395696 0.662361
O O9 0.654311 0.157306 0.526553
O O10 0.055101 0.431139 0.676962
#
# Coordination Sequence:
#
# PCOD8154228 Si02
#       5
#     4   8   8   8   8
#     4  12  26  46  70 102 138 186 232 286 352 412
#     4  11  25  47  71 101 142 183 232 289 348 412
#     4  12  26  47  70 103 144 180 237 289 344 422
#     4  12  27  45  74 105 137 190 232 286 356 415
#     4  11  26  45  70 105 139 182 234 288 345 416
#
# _framework density 21.290662000000001
#
# number of rings (size 3 to 8) (size 9 to 14) (size 15 to 20)
#    0.000    0.444    4.444    3.333    6.222    3.556 
#    0.000    0.000    0.000    0.000    0.000    0.000 
#    0.000    0.000    0.000    0.000    0.000    0.000 
#
# Total GULP energy -223324.300618 kJ/mol
# GULP energy per Si atom -12406.905590 kJ/mol
# Density = 2.124220 g / cm^3
# Si number density = 21.290662 Si / 1000 Ang^3
#
#
#
# Elastic Constant Matrix: (Units=GPa)
#
#
# Indices 1 2 3 4 5 6 
#
# 1 106.5988 41.2715 52.6247 0.0004 3.7030 0.0000
# 2 41.2715 113.0779 48.5383 0.0008 0.4592 0.0034
# 3 52.6247 48.5383 112.7720 0.0000 -10.0741 -0.0007
# 4 0.0004 0.0008 0.0000 39.6650 -0.0001 9.8756
# 5 3.7030 0.4592 -10.0741 -0.0001 56.3590 -0.0005
# 6 0.0000 0.0034 -0.0007 9.8756 -0.0005 48.0462
#
#
#
# Elastic Compliance Matrix: (Units=1/GPa)
#
#
# Indices 1 2 3 4 5 6 
#
# 1 0.012940 -0.002523 -0.005108 0.000000 -0.001743 0.000000
# 2 -0.002523 0.011389 -0.003778 0.000000 -0.000602 -0.000001
# 3 -0.005108 -0.003778 0.013120 0.000000 0.002711 0.000000
# 4 0.000000 0.000000 0.000000 0.026571 0.000000 -0.005461
# 5 -0.001743 -0.000602 0.002711 0.000000 0.018347 0.000000
# 6 0.000000 -0.000001 0.000000 -0.005461 0.000000 0.021936
#
#
# Mechanical properties :
#
#
# Convention : Reuss Voigt Hill
#
# Bulk Modulus (GPa) = 68.35604 68.59088 68.47346
# Shear Modulus (GPa) = 37.87941 41.48167 39.68054
#
# Velocity S-wave (km/s) = 4.22258 4.41880 4.32180
# Velocity P-wave (km/s) = 7.47993 7.63680 7.55877
#
# Compressibility (1/GPa) = 0.01462928
#
# Stress axis : x y z
#
# Youngs Moduli (GPa) = 77.27890 87.80716 76.22234
#
# Poissons Ratio (x) = 0.22156 0.38935
# Poissons Ratio (y) = 0.19499 0.28798
# Poissons Ratio (z) = 0.39475 0.33175
#
# Static dielectric constant tensor:
#      x y z
#    x 4.152350 -0.000020 0.243330 
#    y -0.000020 4.088580 -0.000020 
#    z 0.243330 -0.000020 3.711430 
# 
# 
# High freq. dielectric constant tensor:
#      x y z
#    x 1.855800 0.000000 0.014990 
#    y 0.000000 1.847470 0.000000 
#    z 0.014990 0.000000 1.836540 
# 
# From -- ./inp_files/115595.got.cif
#   From: 2010.06.25/outbox.cif.g09.slc.cpg/sg15_58_cif.got.tgz:115595.got - 2010.06.28 07:06:18.
