data_PCOD8154461
_publ_section_title
;
Structure prediction by ZEFSAII (Michael W. Deem and Ramdas Pophale) SiO2 
 PCOD8154461
Probable space group: C 2/C
;
_chemical_formula_sum "Si O2"
_cell_formula_units_Z 28
_cell_length_a 17.926611
_cell_length_b 8.782274
_cell_length_c 7.304669
_cell_angle_alpha 90.000000
_cell_angle_beta 61.154725
_cell_angle_gamma 90.000000
_cell_volume 1007.332858
_symmetry_space_group_name_H-M "C 2/C"
_symmetry_group_IT_number 15
_symmetry_cell_setting 'monoclinic'
loop_
_space_group_symop_operation_xyz
x,y,z
-x,y,1/2-z
-x,-y,-z
x,-y,1/2+z
1/2+x,1/2+y,z
1/2-x,1/2+y,1/2-z
1/2-x,1/2-y,-z
1/2+x,1/2-y,1/2+z
loop_
_atom_site_type_symbol
_atom_site_label
_atom_site_fract_x
_atom_site_fract_y
_atom_site_fract_z
Si Si1 0.683804 0.474504 0.041792
Si Si2 0.227383 0.287470 0.256721
Si Si3 0.000000 0.902039 0.750000
Si Si4 0.966148 0.662545 0.485785
O O1 0.707892 0.354055 0.168033
O O2 0.582333 0.489615 0.152460
O O3 0.728768 0.644506 0.986382
O O4 0.715588 0.395337 0.807903
O O5 0.134892 0.359910 0.387565
O O6 0.001153 0.795308 0.572609
O O7 0.000000 0.710427 0.250000
O O8 0.000000 0.500000 0.500000
#
# Coordination Sequence:
#
# PCOD8154461 Si02
#       4
#     8   8   4   8
#     4  11  28  50  82 115 161 215 266 344 403 497
#     4  11  27  49  79 117 163 208 275 329 422 476
#     4  12  30  52  84 120 166 218 276 338 416 482
#     4  12  27  48  82 120 163 213 271 340 410 491
#
# _framework density 27.796175999999999
#
# number of rings (size 3 to 8) (size 9 to 14) (size 15 to 20)
#    0.000    0.571    1.429    3.429   14.000    4.571 
#    0.000    0.000    0.000    0.000    0.000    0.000 
#    0.000    0.000    0.000    0.000    0.000    0.000 
#
# Total GULP energy -173619.688876 kJ/mol
# GULP energy per Si atom -12401.406348 kJ/mol
# Density = 2.773291 g / cm^3
# Si number density = 27.796176 Si / 1000 Ang^3
#
#
#
# Elastic Constant Matrix: (Units=GPa)
#
#
# Indices 1 2 3 4 5 6 
#
# 1 155.6336 50.8843 17.8175 0.0000 -37.9483 0.0000
# 2 50.8843 157.9417 13.5949 0.0000 -17.2225 0.0000
# 3 17.8175 13.5949 76.7206 0.0000 -2.8743 0.0000
# 4 0.0000 0.0000 0.0000 -166.0306 0.0000 37.1591
# 5 -37.9483 -17.2225 -2.8743 0.0000 61.9371 0.0000
# 6 0.0000 0.0000 0.0000 37.1591 0.0000 46.5345
#
#
#
# Elastic Compliance Matrix: (Units=1/GPa)
#
#
# Indices 1 2 3 4 5 6 
#
# 1 0.008359 -0.002084 -0.001404 0.000000 0.004477 0.000000
# 2 -0.002084 0.007141 -0.000756 0.000000 0.000674 0.000000
# 3 -0.001404 -0.000756 0.013478 0.000000 -0.000445 0.000000
# 4 0.000000 0.000000 0.000000 -0.005110 0.000000 0.004080
# 5 0.004477 0.000674 -0.000445 0.000000 0.019055 0.000000
# 6 0.000000 0.000000 0.000000 0.004080 0.000000 0.018231
#
#
# Mechanical properties :
#
#
# Convention : Reuss Voigt Hill
#
# Bulk Modulus (GPa) = 48.80618 61.65438 55.23028
# Shear Modulus (GPa) = 65.38204 9.02147 37.20175
#
# Velocity S-wave (km/s) = 4.85521 1.80350 3.66235
# Velocity P-wave (km/s) = 7.00196 5.15421 6.14790
#
# Compressibility (1/GPa) = 0.02048921
#
# Stress axis : x y z
#
# Youngs Moduli (GPa) = 119.63028 140.02805 74.19626
#
# Poissons Ratio (x) = 0.29182 0.10419
# Poissons Ratio (y) = 0.24931 0.05611
# Poissons Ratio (z) = 0.16800 0.10589
#
# Static dielectric constant tensor:
#      x y z
#    x 5.287750 0.000000 0.540330 
#    y 0.000000 5.699880 0.000000 
#    z 0.540330 0.000000 5.740850 
# 
# 
# High freq. dielectric constant tensor:
#      x y z
#    x 2.140790 0.000000 0.024890 
#    y 0.000000 2.171780 0.000000 
#    z 0.024890 0.000000 2.155040 
# 
# From -- ./inp_files/45421.got.cif
#   From: 2010.06.25/outbox.cif.g09.slc.cpg/sg15_23_cif.got.tgz:45421.got - 2010.06.28 07:06:18.
