data_PCOD8154141
_publ_section_title
;
Structure prediction by ZEFSAII (Michael W. Deem and Ramdas Pophale) SiO2 
 PCOD8154141
Probable space group: C 2/C
;
_chemical_formula_sum "Si O2"
_cell_formula_units_Z 56
_cell_length_a 23.127956
_cell_length_b 10.657299
_cell_length_c 23.245957
_cell_angle_alpha 90.000000
_cell_angle_beta 157.198399
_cell_angle_gamma 90.000000
_cell_volume 2220.495390
_symmetry_space_group_name_H-M "C 2/C"
_symmetry_group_IT_number 15
_symmetry_cell_setting 'monoclinic'
loop_
_space_group_symop_operation_xyz
x,y,z
-x,y,1/2-z
-x,-y,-z
x,-y,1/2+z
1/2+x,1/2+y,z
1/2-x,1/2+y,1/2-z
1/2-x,1/2-y,-z
1/2+x,1/2-y,1/2+z
loop_
_atom_site_type_symbol
_atom_site_label
_atom_site_fract_x
_atom_site_fract_y
_atom_site_fract_z
Si Si1 0.352706 0.925031 0.889095
Si Si2 0.178570 0.089235 0.121703
Si Si3 0.812308 0.991735 0.153542
Si Si4 0.954592 0.766467 0.345959
Si Si5 0.698020 0.316999 0.092314
Si Si6 0.134097 0.349412 0.915600
Si Si7 0.984906 0.240109 0.301528
O O1 0.206648 0.946330 0.714130
O O2 0.363310 0.773924 0.912067
O O3 0.309760 0.986847 0.909293
O O4 0.500000 0.000000 0.000000
O O5 0.328158 0.167809 0.246247
O O6 0.154929 0.960631 0.064764
O O7 0.031088 0.171963 0.973344
O O8 0.901155 0.866166 0.250256
O O9 0.930397 0.098086 0.250640
O O10 0.724385 0.977053 0.012013
O O11 0.084172 0.692457 0.432925
O O12 0.875893 0.317645 0.244508
O O13 0.641082 0.262589 0.978582
O O14 0.000000 0.378732 0.750000
O O15 0.250000 0.250000 0.000000
O O16 0.000000 0.293239 0.250000
#
# Coordination Sequence:
#
# PCOD8154141 Si02
#       7
#     8   8   8   8   8   8   8
#     4  11  27  49  78 109 151 198 246 316 381 447
#     4  12  27  47  79 106 158 197 251 313 380 450
#     4  11  25  45  71 108 149 188 253 303 365 457
#     4  12  25  46  70 112 147 195 249 307 370 452
#     4  11  26  50  74 115 144 199 256 309 372 461
#     4  12  24  41  71 106 148 197 245 301 380 438
#     4  11  25  47  78 104 150 196 250 312 379 435
#
# _framework density 25.219595999999999
#
# number of rings (size 3 to 8) (size 9 to 14) (size 15 to 20)
#    0.000    0.571    4.286    2.143    4.000    5.143 
#    0.000    5.000    0.000    0.000    0.000    0.000 
#    0.000    0.000    0.000    0.000    0.000    0.000 
#
# Total GULP energy -346942.484410 kJ/mol
# GULP energy per Si atom -12390.803015 kJ/mol
# Density = 2.516220 g / cm^3
# Si number density = 25.219596 Si / 1000 Ang^3
#
#
#
# Elastic Constant Matrix: (Units=GPa)
#
#
# Indices 1 2 3 4 5 6 
#
# 1 83.2685 18.7439 23.6556 0.0032 -2.1239 0.0016
# 2 18.7439 91.4107 10.3647 0.0083 -0.9450 0.0052
# 3 23.6556 10.3647 118.5820 0.0079 -30.0270 0.0049
# 4 0.0032 0.0083 0.0079 38.9651 0.0029 -9.9907
# 5 -2.1239 -0.9450 -30.0270 0.0029 52.9146 0.0015
# 6 0.0016 0.0052 0.0049 -9.9907 0.0015 30.7252
#
#
#
# Elastic Compliance Matrix: (Units=1/GPa)
#
#
# Indices 1 2 3 4 5 6 
#
# 1 0.013298 -0.002431 -0.002705 0.000000 -0.001045 0.000000
# 2 -0.002431 0.011501 -0.000576 -0.000003 -0.000219 -0.000003
# 3 -0.002705 -0.000576 0.010502 -0.000003 0.005841 -0.000003
# 4 0.000000 -0.000003 -0.000003 0.027998 -0.000003 0.009104
# 5 -0.001045 -0.000219 0.005841 -0.000003 0.022167 -0.000003
# 6 0.000000 -0.000003 -0.000003 0.009104 -0.000003 0.035507
#
#
# Mechanical properties :
#
#
# Convention : Reuss Voigt Hill
#
# Bulk Modulus (GPa) = 41.87927 44.30994 43.09461
# Shear Modulus (GPa) = 35.62375 40.55409 38.08892
#
# Velocity S-wave (km/s) = 3.76246 4.01439 3.89046
# Velocity P-wave (km/s) = 5.95959 6.25259 6.10784
#
# Compressibility (1/GPa) = 0.02387816
#
# Stress axis : x y z
#
# Youngs Moduli (GPa) = 75.19740 86.94802 95.22161
#
# Poissons Ratio (x) = 0.21137 0.25756
# Poissons Ratio (y) = 0.18280 0.05482
# Poissons Ratio (z) = 0.20340 0.05006
#
# Static dielectric constant tensor:
#      x y z
#    x 4.483250 -0.000010 -0.164470 
#    y -0.000010 4.748590 0.000000 
#    z -0.164470 0.000000 4.689920 
# 
# 
# High freq. dielectric constant tensor:
#      x y z
#    x 1.999020 0.000000 -0.009050 
#    y 0.000000 2.014090 0.000000 
#    z -0.009050 0.000000 2.025910 
# 
# From -- ./inp_files/303278.got.cif
#   From: 2010.06.25/outbox.cif.g09.slc.cpg/sg15_152_cif.got.tgz:303278.got - 2010.06.28 07:06:18.
