data_PCOD8154882
_publ_section_title
;
Structure prediction by ZEFSAII (Michael W. Deem and Ramdas Pophale) SiO2 
 PCOD8154882
Probable space group: C 2/C
;
_chemical_formula_sum "Si O2"
_cell_formula_units_Z 44
_cell_length_a 16.719459
_cell_length_b 6.930852
_cell_length_c 19.383639
_cell_angle_alpha 90.000000
_cell_angle_beta 65.045321
_cell_angle_gamma 90.000000
_cell_volume 2036.478804
_symmetry_space_group_name_H-M "C 2/C"
_symmetry_group_IT_number 15
_symmetry_cell_setting 'monoclinic'
loop_
_space_group_symop_operation_xyz
x,y,z
-x,y,1/2-z
-x,-y,-z
x,-y,1/2+z
1/2+x,1/2+y,z
1/2-x,1/2+y,1/2-z
1/2-x,1/2-y,-z
1/2+x,1/2-y,1/2+z
loop_
_atom_site_type_symbol
_atom_site_label
_atom_site_fract_x
_atom_site_fract_y
_atom_site_fract_z
Si Si1 0.500000 0.002923 0.250000
Si Si2 0.173244 0.622192 0.496372
Si Si3 0.028886 0.929378 0.563738
Si Si4 0.753979 0.056567 0.839671
Si Si5 0.376199 0.725295 0.213056
Si Si6 0.622179 0.226755 0.106865
O O1 0.422895 0.870699 0.248298
O O2 0.538061 0.135303 0.175423
O O3 0.250000 0.750000 0.500000
O O4 0.080377 0.729363 0.536144
O O5 0.193476 0.581049 0.408965
O O6 0.166894 0.420188 0.537851
O O7 0.943464 0.888931 0.640285
O O8 0.091697 0.084408 0.576993
O O9 0.000000 0.000000 0.500000
O O10 0.693708 0.156848 0.805375
O O11 0.802090 0.220427 0.866519
O O12 0.828846 0.932823 0.776230
#
# Coordination Sequence:
#
# PCOD8154882 Si02
#       6
#     4   8   8   8   8   8
#     4  12  24  46  74  98 148 184 244 294 360 424
#     4  12  26  48  75 109 144 191 240 299 357 429
#     4  12  28  46  77 107 148 186 247 296 357 429
#     4  12  27  45  75 102 150 187 244 292 365 427
#     4  12  27  48  70 111 142 195 237 301 356 432
#     4  12  25  48  73 106 141 196 235 300 360 421
#
# _framework density 21.605920000000001
#
# number of rings (size 3 to 8) (size 9 to 14) (size 15 to 20)
#    0.000    0.000    3.636    6.000    7.636    1.455 
#    0.000    0.000    0.000    0.000    0.000    0.000 
#    0.000    0.000    0.000    0.000    0.000    0.000 
#
# Total GULP energy -273026.037319 kJ/mol
# GULP energy per Si atom -12410.274424 kJ/mol
# Density = 2.155674 g / cm^3
# Si number density = 21.605920 Si / 1000 Ang^3
#
#
#
# Elastic Constant Matrix: (Units=GPa)
#
#
# Indices 1 2 3 4 5 6 
#
# 1 122.7162 51.5264 34.0625 0.0001 9.8196 -0.0001
# 2 51.5264 120.0934 51.7706 0.0002 -7.0596 0.0002
# 3 34.0625 51.7706 140.9964 0.0000 -20.9473 -0.0002
# 4 0.0001 0.0002 0.0000 45.3663 0.0000 -13.9819
# 5 9.8196 -7.0596 -20.9473 0.0000 44.2972 -0.0001
# 6 -0.0001 0.0002 -0.0002 -13.9819 -0.0001 46.4247
#
#
#
# Elastic Compliance Matrix: (Units=1/GPa)
#
#
# Indices 1 2 3 4 5 6 
#
# 1 0.010613 -0.004073 -0.001629 0.000000 -0.003772 0.000000
# 2 -0.004073 0.011457 -0.003030 0.000000 0.001296 0.000000
# 3 -0.001629 -0.003030 0.009229 0.000000 0.004242 0.000000
# 4 0.000000 0.000000 0.000000 0.024298 0.000000 0.007318
# 5 -0.003772 0.001296 0.004242 0.000000 0.025624 0.000000
# 6 0.000000 0.000000 0.000000 0.007318 0.000000 0.023744
#
#
# Mechanical properties :
#
#
# Convention : Reuss Voigt Hill
#
# Bulk Modulus (GPa) = 72.28317 73.16946 72.72631
# Shear Modulus (GPa) = 39.35757 43.64742 41.50249
#
# Velocity S-wave (km/s) = 4.27266 4.49950 4.38755
# Velocity P-wave (km/s) = 7.60715 7.80595 7.70719
#
# Compressibility (1/GPa) = 0.01383448
#
# Stress axis : x y z
#
# Youngs Moduli (GPa) = 94.22348 87.28370 108.35736
#
# Poissons Ratio (x) = 0.35552 0.17649
# Poissons Ratio (y) = 0.38379 0.32834
# Poissons Ratio (z) = 0.15347 0.26448
#
# Static dielectric constant tensor:
#      x y z
#    x 4.032000 0.000000 -0.060470 
#    y 0.000000 4.205140 0.000000 
#    z -0.060470 0.000000 4.193660 
# 
# 
# High freq. dielectric constant tensor:
#      x y z
#    x 1.860840 0.000000 -0.004890 
#    y 0.000000 1.865700 0.000000 
#    z -0.004890 0.000000 1.872640 
# 
# From -- ./inp_files/246436.got.cif
#   From: 2010.06.25/outbox.cif.g09.slc.cpg/sg15_124_cif.got.tgz:246436.got - 2010.06.28 07:06:18.
