data_PCOD8154105
_publ_section_title
;
Structure prediction by ZEFSAII (Michael W. Deem and Ramdas Pophale) SiO2 
 PCOD8154105
Probable space group: C 2/C
;
_chemical_formula_sum "Si O2"
_cell_formula_units_Z 48
_cell_length_a 25.448363
_cell_length_b 14.105309
_cell_length_c 11.378478
_cell_angle_alpha 90.000000
_cell_angle_beta 149.907565
_cell_angle_gamma 90.000000
_cell_volume 2047.896155
_symmetry_space_group_name_H-M "C 2/C"
_symmetry_group_IT_number 15
_symmetry_cell_setting 'monoclinic'
loop_
_space_group_symop_operation_xyz
x,y,z
-x,y,1/2-z
-x,-y,-z
x,-y,1/2+z
1/2+x,1/2+y,z
1/2-x,1/2+y,1/2-z
1/2-x,1/2-y,-z
1/2+x,1/2-y,1/2+z
loop_
_atom_site_type_symbol
_atom_site_label
_atom_site_fract_x
_atom_site_fract_y
_atom_site_fract_z
Si Si1 0.409208 0.760680 0.235407
Si Si2 0.806097 0.697752 0.776870
Si Si3 0.046391 0.465091 0.215518
Si Si4 0.756187 0.983172 0.222827
Si Si5 0.442852 0.593635 0.936111
Si Si6 0.112350 0.853091 0.416781
O O1 0.385484 0.781012 0.325535
O O2 0.472015 0.852030 0.311210
O O3 0.475001 0.664665 0.344850
O O4 0.303802 0.748156 0.958654
O O5 0.794162 0.585559 0.775712
O O6 0.859130 0.746059 0.992703
O O7 0.170659 0.489652 0.457829
O O8 0.000000 0.507678 0.250000
O O9 0.000000 0.500000 0.000000
O O10 0.853909 0.929158 0.356629
O O11 0.796333 0.077853 0.361843
O O12 0.388091 0.647899 0.723639
O O13 0.500000 0.500000 0.000000
O O14 0.000000 0.886810 0.250000
#
# Coordination Sequence:
#
# PCOD8154105 Si02
#       6
#     8   8   8   8   8   8
#     4  11  25  46  72 107 149 199 250 312 380 457
#     4  11  25  44  72 103 151 197 246 308 384 449
#     4  12  30  52  77 110 158 206 261 317 393 468
#     4  12  28  46  77 108 145 199 253 317 381 461
#     4  12  26  44  76 111 146 190 257 317 381 456
#     4  12  24  46  72 109 151 192 248 314 383 459
#
# _framework density 23.438689
#
# number of rings (size 3 to 8) (size 9 to 14) (size 15 to 20)
#    0.000    0.333    5.000    2.000   11.667    1.333 
#    0.000    0.000    0.000    0.000    0.000    0.000 
#    0.000    0.000    0.000    0.000    0.000    0.000 
#
# Total GULP energy -297628.409995 kJ/mol
# GULP energy per Si atom -12401.183750 kJ/mol
# Density = 2.338534 g / cm^3
# Si number density = 23.438689 Si / 1000 Ang^3
#
#
#
# Elastic Constant Matrix: (Units=GPa)
#
#
# Indices 1 2 3 4 5 6 
#
# 1 77.5710 11.7505 31.0309 0.0000 3.2243 0.0000
# 2 11.7505 104.3712 22.7484 0.0000 14.6538 0.0000
# 3 31.0309 22.7484 95.9524 0.0000 -0.4254 0.0000
# 4 0.0000 0.0000 0.0000 48.9296 0.0000 1.5261
# 5 3.2243 14.6538 -0.4254 0.0000 37.8721 0.0000
# 6 0.0000 0.0000 0.0000 1.5261 0.0000 28.7059
#
#
#
# Elastic Compliance Matrix: (Units=1/GPa)
#
#
# Indices 1 2 3 4 5 6 
#
# 1 0.014895 -0.000493 -0.004705 0.000000 -0.001130 0.000000
# 2 -0.000493 0.010743 -0.002406 0.000000 -0.004142 0.000000
# 3 -0.004705 -0.002406 0.012520 0.000000 0.001472 0.000000
# 4 0.000000 0.000000 0.000000 0.020471 0.000000 -0.001088
# 5 -0.001130 -0.004142 0.001472 0.000000 0.028120 0.000000
# 6 0.000000 0.000000 0.000000 -0.001088 0.000000 0.034894
#
#
# Mechanical properties :
#
#
# Convention : Reuss Voigt Hill
#
# Bulk Modulus (GPa) = 43.57208 45.43937 44.50572
# Shear Modulus (GPa) = 34.60171 37.25918 35.93045
#
# Velocity S-wave (km/s) = 3.84639 3.99136 3.91954
# Velocity P-wave (km/s) = 6.19326 6.37729 6.28595
#
# Compressibility (1/GPa) = 0.02295048
#
# Stress axis : x y z
#
# Youngs Moduli (GPa) = 67.13519 93.08802 79.86942
#
# Poissons Ratio (x) = 0.04587 0.37581
# Poissons Ratio (y) = 0.03308 0.19215
# Poissons Ratio (z) = 0.31589 0.22396
#
# Static dielectric constant tensor:
#      x y z
#    x 4.240900 0.000000 -0.027660 
#    y 0.000000 4.317770 0.000000 
#    z -0.027660 0.000000 4.407780 
# 
# 
# High freq. dielectric constant tensor:
#      x y z
#    x 1.920440 0.000000 -0.003260 
#    y 0.000000 1.933440 0.000000 
#    z -0.003260 0.000000 1.941970 
# 
# From -- ./inp_files/123581.got.cif
#   From: 2010.06.25/outbox.cif.g09.slc.cpg/sg15_62_cif.got.tgz:123581.got - 2010.06.28 07:06:18.
