data_PCOD8154417
_publ_section_title
;
Structure prediction by ZEFSAII (Michael W. Deem and Ramdas Pophale) SiO2 
 PCOD8154417
Probable space group: C 2/C
;
_chemical_formula_sum "Si O2"
_cell_formula_units_Z 64
_cell_length_a 8.575449
_cell_length_b 16.229410
_cell_length_c 27.100353
_cell_angle_alpha 90.000000
_cell_angle_beta 128.121468
_cell_angle_gamma 90.000000
_cell_volume 2967.192894
_symmetry_space_group_name_H-M "C 2/C"
_symmetry_group_IT_number 15
_symmetry_cell_setting 'monoclinic'
loop_
_space_group_symop_operation_xyz
x,y,z
-x,y,1/2-z
-x,-y,-z
x,-y,1/2+z
1/2+x,1/2+y,z
1/2-x,1/2+y,1/2-z
1/2-x,1/2-y,-z
1/2+x,1/2-y,1/2+z
loop_
_atom_site_type_symbol
_atom_site_label
_atom_site_fract_x
_atom_site_fract_y
_atom_site_fract_z
Si Si1 0.893702 0.912599 0.477990
Si Si2 0.041568 0.237299 0.180892
Si Si3 0.695894 0.966077 0.065049
Si Si4 0.036434 0.092937 0.106234
Si Si5 0.617664 0.312206 0.443475
Si Si6 0.025214 0.557008 0.312658
Si Si7 0.327805 0.786666 0.823159
Si Si8 0.039156 0.585514 0.634232
O O1 0.665255 0.933549 0.432610
O O2 0.944393 0.865649 0.539163
O O3 0.948588 0.853304 0.443847
O O4 0.000000 0.000000 0.500000
O O5 0.098273 0.162047 0.157091
O O6 0.214839 0.251832 0.254447
O O7 0.043851 0.318903 0.148681
O O8 0.830555 0.211133 0.163105
O O9 0.731937 0.880813 0.044788
O O10 0.691828 0.944681 0.122466
O O11 0.882002 0.027108 0.097364
O O12 0.500000 0.000000 0.000000
O O13 0.241297 0.049115 0.130478
O O14 0.750000 0.250000 0.500000
O O15 0.511656 0.269432 0.375994
O O16 0.916110 0.624822 0.325410
O O17 0.931636 0.469223 0.310529
O O18 0.000000 0.573874 0.250000
#
# Coordination Sequence:
#
# PCOD8154417 Si02
#       8
#     8   8   8   8   8   8   8   8
#     4  12  22  44  70 103 143 185 236 293 362 436
#     4  11  27  48  74 106 144 188 240 311 354 438
#     4  12  27  46  69 109 149 188 243 302 362 440
#     4  12  25  46  74  99 148 188 241 296 368 427
#     4  12  27  43  75 107 147 194 238 304 370 431
#     4  12  26  47  75 101 140 196 244 291 368 445
#     4  11  26  49  72 103 148 183 245 294 370 429
#     4  12  26  44  72 107 141 186 240 299 363 430
#
# _framework density 21.569208
#
# number of rings (size 3 to 8) (size 9 to 14) (size 15 to 20)
#    0.000    0.250    6.250    1.500    8.750    0.500 
#    0.000    1.250    0.000    0.000    0.000    0.000 
#    0.000    0.000    0.000    0.000    0.000    0.000 
#
# Total GULP energy -396761.620145 kJ/mol
# GULP energy per Si atom -12398.800630 kJ/mol
# Density = 2.152012 g / cm^3
# Si number density = 21.569208 Si / 1000 Ang^3
#
#
#
# Elastic Constant Matrix: (Units=GPa)
#
#
# Indices 1 2 3 4 5 6 
#
# 1 110.3240 50.2179 33.0271 0.0000 -7.1566 0.0000
# 2 50.2179 132.1050 41.0461 0.0000 -3.8949 0.0000
# 3 33.0271 41.0461 107.7428 0.0000 0.0085 0.0000
# 4 0.0000 0.0000 0.0000 38.5684 0.0000 -6.9352
# 5 -7.1566 -3.8949 0.0085 0.0000 42.4167 0.0000
# 6 0.0000 0.0000 0.0000 -6.9352 0.0000 39.8276
#
#
#
# Elastic Compliance Matrix: (Units=1/GPa)
#
#
# Indices 1 2 3 4 5 6 
#
# 1 0.011466 -0.003652 -0.002124 0.000000 0.001600 0.000000
# 2 -0.003652 0.009775 -0.002605 0.000000 0.000282 0.000000
# 3 -0.002124 -0.002605 0.010925 0.000000 -0.000600 0.000000
# 4 0.000000 0.000000 0.000000 0.026766 0.000000 0.004661
# 5 0.001600 0.000282 -0.000600 0.000000 0.023872 0.000000
# 6 0.000000 0.000000 0.000000 0.004661 0.000000 0.025920
#
#
# Mechanical properties :
#
#
# Convention : Reuss Voigt Hill
#
# Bulk Modulus (GPa) = 64.91003 66.52822 65.71912
# Shear Modulus (GPa) = 38.27927 39.22124 38.75025
#
# Velocity S-wave (km/s) = 4.21731 4.26889 4.24318
# Velocity P-wave (km/s) = 7.33985 7.43027 7.38520
#
# Compressibility (1/GPa) = 0.01540594
#
# Stress axis : x y z
#
# Youngs Moduli (GPa) = 87.21523 102.29682 91.53536
#
# Poissons Ratio (x) = 0.37354 0.19440
# Poissons Ratio (y) = 0.31847 0.23843
# Poissons Ratio (z) = 0.18522 0.26646
#
# Static dielectric constant tensor:
#      x y z
#    x 3.689370 0.000000 0.091210 
#    y 0.000000 3.798130 0.000000 
#    z 0.091210 0.000000 4.095470 
# 
# 
# High freq. dielectric constant tensor:
#      x y z
#    x 1.860540 0.000000 -0.005250 
#    y 0.000000 1.848160 0.000000 
#    z -0.005250 0.000000 1.857220 
# 
# From -- ./inp_files/308309.got.cif
#   From: 2010.06.25/outbox.cif.g09.slc.cpg/sg15_155_cif.got.tgz:308309.got - 2010.06.28 07:06:18.
