data_PCOD8154263
_publ_section_title
;
Structure prediction by ZEFSAII (Michael W. Deem and Ramdas Pophale) SiO2 
 PCOD8154263
Probable space group: C 2/C
;
_chemical_formula_sum "Si O2"
_cell_formula_units_Z 44
_cell_length_a 15.177718
_cell_length_b 8.755827
_cell_length_c 16.115229
_cell_angle_alpha 90.000000
_cell_angle_beta 62.285436
_cell_angle_gamma 90.000000
_cell_volume 1895.913627
_symmetry_space_group_name_H-M "C 2/C"
_symmetry_group_IT_number 15
_symmetry_cell_setting 'monoclinic'
loop_
_space_group_symop_operation_xyz
x,y,z
-x,y,1/2-z
-x,-y,-z
x,-y,1/2+z
1/2+x,1/2+y,z
1/2-x,1/2+y,1/2-z
1/2-x,1/2-y,-z
1/2+x,1/2-y,1/2+z
loop_
_atom_site_type_symbol
_atom_site_label
_atom_site_fract_x
_atom_site_fract_y
_atom_site_fract_z
Si Si1 0.000000 0.671989 0.250000
Si Si2 0.638757 0.316914 0.058127
Si Si3 0.746426 0.779026 0.142085
Si Si4 0.171343 0.533851 0.275954
Si Si5 0.054134 0.349988 0.443114
Si Si6 0.611123 0.675928 0.066771
O O1 0.085935 0.770911 0.167517
O O2 0.060781 0.573060 0.290445
O O3 0.632439 0.497557 0.055250
O O4 0.750000 0.250000 0.000000
O O5 0.573507 0.255371 0.012441
O O6 0.769836 0.676579 0.212302
O O7 0.642373 0.736026 0.143893
O O8 0.739341 0.955792 0.174767
O O9 0.829293 0.749971 0.036379
O O10 0.155077 0.405897 0.354257
O O11 0.000000 0.500000 0.500000
O O12 0.998849 0.240003 0.400610
#
# Coordination Sequence:
#
# PCOD8154263 Si02
#       6
#     4   8   8   8   8   8
#     4  12  26  46  70 108 148 188 244 302 370 442
#     4  12  27  45  77 107 147 195 247 306 368 439
#     4  11  26  44  73 107 140 187 245 298 365 435
#     4  12  26  44  73 105 145 187 244 303 365 442
#     4  12  24  48  71 101 146 192 236 299 371 430
#     4  11  25  48  71 102 148 192 241 301 367 441
#
# _framework density 23.207809000000001
#
# number of rings (size 3 to 8) (size 9 to 14) (size 15 to 20)
#    0.000    0.364    3.636    3.818   10.182    1.455 
#    0.000    0.000    0.000    0.000    0.000    0.000 
#    0.000    0.000    0.000    0.000    0.000    0.000 
#
# Total GULP energy -272764.913930 kJ/mol
# GULP energy per Si atom -12398.405179 kJ/mol
# Density = 2.315499 g / cm^3
# Si number density = 23.207809 Si / 1000 Ang^3
#
#
#
# Elastic Constant Matrix: (Units=GPa)
#
#
# Indices 1 2 3 4 5 6 
#
# 1 118.2850 47.1802 30.2971 0.0000 19.0143 0.0000
# 2 47.1802 129.1524 23.1268 0.0000 11.2867 0.0000
# 3 30.2971 23.1268 89.8786 0.0000 1.4848 0.0000
# 4 0.0000 0.0000 0.0000 48.0924 0.0000 1.1083
# 5 19.0143 11.2867 1.4848 0.0000 38.8371 0.0000
# 6 0.0000 0.0000 0.0000 1.1083 0.0000 40.2068
#
#
#
# Elastic Compliance Matrix: (Units=1/GPa)
#
#
# Indices 1 2 3 4 5 6 
#
# 1 0.011171 -0.003179 -0.002875 0.000000 -0.004436 0.000000
# 2 -0.003179 0.009228 -0.001285 0.000000 -0.001077 0.000000
# 3 -0.002875 -0.001285 0.012404 0.000000 0.001307 0.000000
# 4 0.000000 0.000000 0.000000 0.020807 0.000000 -0.000574
# 5 -0.004436 -0.001077 0.001307 0.000000 0.028183 0.000000
# 6 0.000000 0.000000 0.000000 -0.000574 0.000000 0.024887
#
#
# Mechanical properties :
#
#
# Convention : Reuss Voigt Hill
#
# Bulk Modulus (GPa) = 55.16664 59.83603 57.50134
# Shear Modulus (GPa) = 39.24655 41.20806 40.22731
#
# Velocity S-wave (km/s) = 4.11675 4.21837 4.16787
# Velocity P-wave (km/s) = 6.81316 7.04024 6.92763
#
# Compressibility (1/GPa) = 0.01812690
#
# Stress axis : x y z
#
# Youngs Moduli (GPa) = 89.51499 108.36383 80.61761
#
# Poissons Ratio (x) = 0.34444 0.23174
# Poissons Ratio (y) = 0.28453 0.10362
# Poissons Ratio (z) = 0.25732 0.13928
#
# Static dielectric constant tensor:
#      x y z
#    x 3.734090 0.000000 0.198410 
#    y 0.000000 3.815540 0.000000 
#    z 0.198410 0.000000 4.379010 
# 
# 
# High freq. dielectric constant tensor:
#      x y z
#    x 1.920320 0.000000 0.015450 
#    y 0.000000 1.924010 0.000000 
#    z 0.015450 0.000000 1.925760 
# 
# From -- ./inp_files/202919.got.cif
#   From: 2010.06.25/outbox.cif.g09.slc.cpg/sg15_102_cif.got.tgz:202919.got - 2010.06.28 07:06:18.
