data_PCOD8154932
_publ_section_title
;
Structure prediction by ZEFSAII (Michael W. Deem and Ramdas Pophale) SiO2 
 PCOD8154932
Probable space group: C 2/C
;
_chemical_formula_sum "Si O2"
_cell_formula_units_Z 36
_cell_length_a 19.496006
_cell_length_b 7.944959
_cell_length_c 17.579613
_cell_angle_alpha 90.000000
_cell_angle_beta 33.611912
_cell_angle_gamma 90.000000
_cell_volume 1507.353147
_symmetry_space_group_name_H-M "C 2/C"
_symmetry_group_IT_number 15
_symmetry_cell_setting 'monoclinic'
loop_
_space_group_symop_operation_xyz
x,y,z
-x,y,1/2-z
-x,-y,-z
x,-y,1/2+z
1/2+x,1/2+y,z
1/2-x,1/2+y,1/2-z
1/2-x,1/2-y,-z
1/2+x,1/2-y,1/2+z
loop_
_atom_site_type_symbol
_atom_site_label
_atom_site_fract_x
_atom_site_fract_y
_atom_site_fract_z
Si Si1 0.000000 0.126452 0.750000
Si Si2 0.624006 0.389282 0.880856
Si Si3 0.936502 0.360361 0.934614
Si Si4 0.755386 0.446607 0.488252
Si Si5 0.345729 0.922580 0.237166
O O1 0.977097 0.242574 0.697716
O O2 0.117594 0.012820 0.624501
O O3 0.633439 0.279136 0.794041
O O4 0.740799 0.514269 0.775270
O O5 0.500000 0.500000 0.000000
O O6 0.634556 0.255091 0.939357
O O7 0.023523 0.487999 0.900807
O O8 0.840345 0.463936 0.972088
O O9 0.750000 0.250000 0.500000
O O10 0.807619 0.478974 0.356456
#
# Coordination Sequence:
#
# PCOD8154932 Si02
#       5
#     4   8   8   8   8
#     4  12  24  48  74 110 150 188 246 306 380 436
#     4  12  29  48  76 109 156 204 247 310 377 456
#     4  12  25  50  78 112 149 195 250 313 380 447
#     4  12  29  44  79 111 147 195 253 315 369 448
#     4  12  27  49  73 110 150 197 253 303 380 447
#
# _framework density 23.882923999999999
#
# number of rings (size 3 to 8) (size 9 to 14) (size 15 to 20)
#    0.000    0.000    4.444    4.000   12.444    0.000 
#    0.000    0.000    0.000    0.000    0.000    0.000 
#    0.000    0.000    0.000    0.000    0.000    0.000 
#
# Total GULP energy -223225.140909 kJ/mol
# GULP energy per Si atom -12401.396717 kJ/mol
# Density = 2.382857 g / cm^3
# Si number density = 23.882924 Si / 1000 Ang^3
#
#
#
# Elastic Constant Matrix: (Units=GPa)
#
#
# Indices 1 2 3 4 5 6 
#
# 1 119.6922 58.7632 51.0319 -0.0001 -25.2800 0.0001
# 2 58.7632 155.5556 55.8073 0.0000 -26.4756 0.0002
# 3 51.0319 55.8073 107.0682 0.0000 -15.2486 0.0001
# 4 -0.0001 0.0000 0.0000 57.4553 0.0001 12.4755
# 5 -25.2800 -26.4756 -15.2486 0.0001 43.8438 -0.0002
# 6 0.0001 0.0002 0.0001 12.4755 -0.0002 9.4797
#
#
#
# Elastic Compliance Matrix: (Units=1/GPa)
#
#
# Indices 1 2 3 4 5 6 
#
# 1 0.012099 -0.002472 -0.003890 0.000000 0.004131 0.000000
# 2 -0.002472 0.008963 -0.003078 0.000000 0.002917 0.000000
# 3 -0.003890 -0.003078 0.012851 0.000000 0.000368 0.000000
# 4 0.000000 0.000000 0.000000 0.024368 0.000000 -0.032069
# 5 0.004131 0.002917 0.000368 0.000000 0.027079 0.000001
# 6 0.000000 0.000000 0.000000 -0.032069 0.000001 0.147692
#
#
# Mechanical properties :
#
#
# Convention : Reuss Voigt Hill
#
# Bulk Modulus (GPa) = 66.52239 79.28008 72.90123
# Shear Modulus (GPa) = 19.45946 36.60334 28.03140
#
# Velocity S-wave (km/s) = 2.85754 3.91911 3.42965
# Velocity P-wave (km/s) = 6.22908 7.33121 6.80250
#
# Compressibility (1/GPa) = 0.01503253
#
# Stress axis : x y z
#
# Youngs Moduli (GPa) = 82.64825 111.56765 77.81594
#
# Poissons Ratio (x) = 0.27580 0.30272
# Poissons Ratio (y) = 0.20431 0.23954
# Poissons Ratio (z) = 0.32152 0.34343
#
# Static dielectric constant tensor:
#      x y z
#    x 3.369560 0.000010 -1.710300 
#    y 0.000010 4.475230 0.000020 
#    z -1.710300 0.000020 0.445780 
# 
# 
# High freq. dielectric constant tensor:
#      x y z
#    x 1.946540 0.000000 0.002870 
#    y 0.000000 1.966610 0.000000 
#    z 0.002870 0.000000 1.961440 
# 
# From -- ./inp_files/102611.got.cif
#   From: 2010.06.25/outbox.cif.g09.slc.cpg/sg15_52_cif.got.tgz:102611.got - 2010.06.28 07:06:18.
