data_PCOD8154872
_publ_section_title
;
Structure prediction by ZEFSAII (Michael W. Deem and Ramdas Pophale) SiO2 
 PCOD8154872
Probable space group: C 2/C
;
_chemical_formula_sum "Si O2"
_cell_formula_units_Z 64
_cell_length_a 11.919234
_cell_length_b 15.408650
_cell_length_c 27.322565
_cell_angle_alpha 90.000000
_cell_angle_beta 36.067792
_cell_angle_gamma 90.000000
_cell_volume 2954.333170
_symmetry_space_group_name_H-M "C 2/C"
_symmetry_group_IT_number 15
_symmetry_cell_setting 'monoclinic'
loop_
_space_group_symop_operation_xyz
x,y,z
-x,y,1/2-z
-x,-y,-z
x,-y,1/2+z
1/2+x,1/2+y,z
1/2-x,1/2+y,1/2-z
1/2-x,1/2-y,-z
1/2+x,1/2-y,1/2+z
loop_
_atom_site_type_symbol
_atom_site_label
_atom_site_fract_x
_atom_site_fract_y
_atom_site_fract_z
Si Si1 0.187388 0.976996 0.403949
Si Si2 0.335511 0.709112 0.838018
Si Si3 0.779222 0.285486 0.345119
Si Si4 0.803194 0.187523 0.437586
Si Si5 0.568619 0.780303 0.592504
Si Si6 0.710767 0.626277 0.318055
Si Si7 0.010069 0.540717 0.356698
Si Si8 0.975839 0.436569 0.054057
O O1 0.189630 0.042003 0.358350
O O2 0.378446 0.981595 0.368999
O O3 0.187549 0.880313 0.383080
O O4 0.000000 0.000000 0.500000
O O5 0.500000 0.657990 0.750000
O O6 0.429190 0.738242 0.855185
O O7 0.288642 0.795624 0.823651
O O8 0.160400 0.644981 0.909431
O O9 0.756082 0.234207 0.403599
O O10 0.641063 0.238399 0.355366
O O11 0.000000 0.287949 0.250000
O O12 0.750000 0.250000 0.500000
O O13 0.686209 0.099949 0.487584
O O14 0.019759 0.159538 0.360957
O O15 0.750000 0.750000 0.500000
O O16 0.613173 0.882980 0.575976
O O17 0.836019 0.595106 0.228394
O O18 0.097113 0.483104 0.370337
O O19 0.000000 0.500000 0.000000
#
# Coordination Sequence:
#
# PCOD8154872 Si02
#       8
#     8   8   8   8   8   8   8   8
#     4  12  25  42  70 107 145 186 247 307 363 424
#     4  12  25  46  76 105 143 196 242 298 377 436
#     4  12  27  45  69 110 146 191 248 310 368 437
#     4  12  25  46  75 101 146 199 242 296 376 441
#     4  12  25  45  74 104 148 191 248 301 362 447
#     4  12  24  46  75 106 143 191 246 306 366 434
#     4  12  24  46  70 104 144 188 242 303 360 433
#     4  12  28  47  71 107 151 192 242 302 369 443
#
# _framework density 21.663094000000001
#
# number of rings (size 3 to 8) (size 9 to 14) (size 15 to 20)
#    0.000    0.000    3.750    7.125    0.000    3.000 
#    0.000    0.625    0.000    0.000    0.000    0.000 
#    0.000    0.000    0.000    0.000    0.000    0.000 
#
# Total GULP energy -396746.636470 kJ/mol
# GULP energy per Si atom -12398.332390 kJ/mol
# Density = 2.161379 g / cm^3
# Si number density = 21.663094 Si / 1000 Ang^3
#
#
#
# Elastic Constant Matrix: (Units=GPa)
#
#
# Indices 1 2 3 4 5 6 
#
# 1 132.8249 39.4393 46.6048 -0.0001 13.1421 -0.0009
# 2 39.4393 99.6025 35.3491 0.0000 23.1683 -0.0003
# 3 46.6048 35.3491 117.1105 -0.0007 2.7253 -0.0020
# 4 -0.0001 0.0000 -0.0007 36.5133 -0.0001 -5.3492
# 5 13.1421 23.1683 2.7253 -0.0001 39.5464 0.0000
# 6 -0.0009 -0.0003 -0.0020 -5.3492 0.0000 31.7913
#
#
#
# Elastic Compliance Matrix: (Units=1/GPa)
#
#
# Indices 1 2 3 4 5 6 
#
# 1 0.009426 -0.002292 -0.003023 0.000000 -0.001582 0.000000
# 2 -0.002292 0.013666 -0.003049 0.000000 -0.007034 0.000000
# 3 -0.003023 -0.003049 0.010614 0.000000 0.002059 0.000001
# 4 0.000000 0.000000 0.000000 0.028079 0.000000 0.004725
# 5 -0.001582 -0.007034 0.002059 0.000000 0.029791 0.000000
# 6 0.000000 0.000000 0.000001 0.004725 0.000000 0.032250
#
#
# Mechanical properties :
#
#
# Convention : Reuss Voigt Hill
#
# Bulk Modulus (GPa) = 58.89641 65.81381 62.35511
# Shear Modulus (GPa) = 34.19634 36.77985 35.48810
#
# Velocity S-wave (km/s) = 3.97741 4.12492 4.05184
# Velocity P-wave (km/s) = 6.95266 7.28925 7.12295
#
# Compressibility (1/GPa) = 0.01697896
#
# Stress axis : x y z
#
# Youngs Moduli (GPa) = 106.08640 73.17527 94.21271
#
# Poissons Ratio (x) = 0.16771 0.28477
# Poissons Ratio (y) = 0.24314 0.28727
# Poissons Ratio (z) = 0.32066 0.22313
#
# Static dielectric constant tensor:
#      x y z
#    x 3.889280 0.000000 -0.298450 
#    y 0.000000 4.255640 0.000010 
#    z -0.298450 0.000010 3.605020 
# 
# 
# High freq. dielectric constant tensor:
#      x y z
#    x 1.862890 0.000000 0.005740 
#    y 0.000000 1.864880 0.000000 
#    z 0.005740 0.000000 1.869570 
# 
# From -- ./inp_files/293041.got.cif
#   From: 2010.06.25/outbox.cif.g09.slc.cpg/sg15_147_cif.got.tgz:293041.got - 2010.06.28 07:06:18.
