data_PCOD8154854
_publ_section_title
;
Structure prediction by ZEFSAII (Michael W. Deem and Ramdas Pophale) SiO2 
 PCOD8154854
Probable space group: C 2/C
;
_chemical_formula_sum "Si O2"
_cell_formula_units_Z 52
_cell_length_a 9.072607
_cell_length_b 17.028963
_cell_length_c 19.696020
_cell_angle_alpha 90.000000
_cell_angle_beta 130.653787
_cell_angle_gamma 90.000000
_cell_volume 2308.585660
_symmetry_space_group_name_H-M "C 2/C"
_symmetry_group_IT_number 15
_symmetry_cell_setting 'monoclinic'
loop_
_space_group_symop_operation_xyz
x,y,z
-x,y,1/2-z
-x,-y,-z
x,-y,1/2+z
1/2+x,1/2+y,z
1/2-x,1/2+y,1/2-z
1/2-x,1/2-y,-z
1/2+x,1/2-y,1/2+z
loop_
_atom_site_type_symbol
_atom_site_label
_atom_site_fract_x
_atom_site_fract_y
_atom_site_fract_z
Si Si1 0.638572 0.458436 0.358112
Si Si2 0.609963 0.713848 0.901541
Si Si3 0.175195 0.727726 0.750619
Si Si4 0.707231 0.331631 0.641693
Si Si5 0.000000 0.537145 0.250000
Si Si6 0.549328 0.071897 0.645472
Si Si7 0.604264 0.558434 0.479783
O O1 0.500000 0.459748 0.250000
O O2 0.632782 0.378598 0.399531
O O3 0.857123 0.465364 0.394251
O O4 0.594908 0.527332 0.398925
O O5 0.382967 0.726763 0.851058
O O6 0.674936 0.758398 0.853057
O O7 0.750000 0.750000 0.000000
O O8 0.167675 0.809706 0.707915
O O9 0.148524 0.655860 0.689920
O O10 0.000000 0.724660 0.750000
O O11 0.501546 0.356284 0.546940
O O12 0.832527 0.409786 0.668150
O O13 0.898909 0.483601 0.276047
O O14 0.319994 0.077108 0.568185
O O15 0.500000 0.500000 0.500000
#
# Coordination Sequence:
#
# PCOD8154854 Si02
#       7
#     8   8   8   8   4   8   8
#     4  12  25  49  76 109 154 204 254 311 391 456
#     4  12  26  46  74 106 149 199 247 310 383 453
#     4  12  27  47  74 109 151 198 250 312 390 452
#     4  12  25  48  72 104 148 190 247 306 371 454
#     4  12  24  44  78 104 144 204 246 304 384 450
#     4  12  26  46  78 107 156 198 255 314 388 457
#     4  12  28  46  75 118 151 193 259 321 377 460
#
# _framework density 22.524612000000001
#
# number of rings (size 3 to 8) (size 9 to 14) (size 15 to 20)
#    0.000    0.000    6.923    2.308    4.308    3.692 
#    0.000    0.000    0.000    0.000    0.000    0.000 
#    0.000    0.000    0.000    0.000    0.000    0.000 
#
# Total GULP energy -322369.216874 kJ/mol
# GULP energy per Si atom -12398.816034 kJ/mol
# Density = 2.247335 g / cm^3
# Si number density = 22.524612 Si / 1000 Ang^3
#
#
#
# Elastic Constant Matrix: (Units=GPa)
#
#
# Indices 1 2 3 4 5 6 
#
# 1 140.3801 17.6568 32.3929 0.0000 14.3081 0.0000
# 2 17.6568 72.8134 18.0411 0.0000 7.1014 0.0000
# 3 32.3929 18.0411 118.3272 0.0000 21.3661 0.0000
# 4 0.0000 0.0000 0.0000 31.7971 0.0000 2.3479
# 5 14.3081 7.1014 21.3661 0.0000 46.0994 0.0000
# 6 0.0000 0.0000 0.0000 2.3479 0.0000 27.4385
#
#
#
# Elastic Compliance Matrix: (Units=1/GPa)
#
#
# Indices 1 2 3 4 5 6 
#
# 1 0.007827 -0.001341 -0.001677 0.000000 -0.001445 0.000000
# 2 -0.001341 0.014574 -0.001664 0.000000 -0.001058 0.000000
# 3 -0.001677 -0.001664 0.009848 0.000000 -0.003787 0.000000
# 4 0.000000 0.000000 0.000000 0.031649 0.000000 -0.002708
# 5 -0.001445 -0.001058 -0.003787 0.000000 0.024059 0.000000
# 6 0.000000 0.000000 0.000000 -0.002708 0.000000 0.036677
#
#
# Mechanical properties :
#
#
# Convention : Reuss Voigt Hill
#
# Bulk Modulus (GPa) = 43.69876 51.96691 47.83283
# Shear Modulus (GPa) = 35.30400 38.62900 36.96650
#
# Velocity S-wave (km/s) = 3.96327 4.14571 4.05552
# Velocity P-wave (km/s) = 6.35499 6.78507 6.57355
#
# Compressibility (1/GPa) = 0.02288395
#
# Stress axis : x y z
#
# Youngs Moduli (GPa) = 127.77059 68.61328 101.54512
#
# Poissons Ratio (x) = 0.09204 0.17030
# Poissons Ratio (y) = 0.17139 0.16897
# Poissons Ratio (z) = 0.21428 0.11417
#
# Static dielectric constant tensor:
#      x y z
#    x 4.589490 0.000000 0.135390 
#    y 0.000000 4.075120 0.000000 
#    z 0.135390 0.000000 3.995570 
# 
# 
# High freq. dielectric constant tensor:
#      x y z
#    x 1.908100 0.000000 0.009750 
#    y 0.000000 1.886560 0.000000 
#    z 0.009750 0.000000 1.888810 
# 
# From -- ./inp_files/233125.got.cif
#   From: 2010.06.25/outbox.cif.g09.slc.cpg/sg15_117_cif.got.tgz:233125.got - 2010.06.28 07:06:18.
