data_PCOD8154048
_publ_section_title
;
Structure prediction by ZEFSAII (Michael W. Deem and Ramdas Pophale) SiO2 
 PCOD8154048
Probable space group: C 2/C
;
_chemical_formula_sum "Si O2"
_cell_formula_units_Z 60
_cell_length_a 16.665853
_cell_length_b 19.822192
_cell_length_c 9.087987
_cell_angle_alpha 90.000000
_cell_angle_beta 57.920997
_cell_angle_gamma 90.000000
_cell_volume 2543.856679
_symmetry_space_group_name_H-M "C 2/C"
_symmetry_group_IT_number 15
_symmetry_cell_setting 'monoclinic'
loop_
_space_group_symop_operation_xyz
x,y,z
-x,y,1/2-z
-x,-y,-z
x,-y,1/2+z
1/2+x,1/2+y,z
1/2-x,1/2+y,1/2-z
1/2-x,1/2-y,-z
1/2+x,1/2-y,1/2+z
loop_
_atom_site_type_symbol
_atom_site_label
_atom_site_fract_x
_atom_site_fract_y
_atom_site_fract_z
Si Si1 0.828840 0.235674 0.718630
Si Si2 0.757352 0.968277 0.572265
Si Si3 0.600920 0.281457 0.672573
Si Si4 0.000000 0.216837 0.750000
Si Si5 0.051902 0.640490 0.844110
Si Si6 0.838816 0.163920 0.105874
Si Si7 0.748492 0.087192 0.764782
Si Si8 0.452040 0.057017 0.142364
O O1 0.847826 0.244484 0.524880
O O2 0.919606 0.255423 0.730864
O O3 0.744266 0.283489 0.861381
O O4 0.803058 0.155728 0.757481
O O5 0.825038 0.912101 0.572185
O O6 0.747252 0.962020 0.407075
O O7 0.658239 0.954605 0.746869
O O8 0.796369 0.042313 0.586760
O O9 0.500000 0.317801 0.750000
O O10 0.580136 0.217646 0.798326
O O11 0.661411 0.331854 0.714740
O O12 0.059606 0.177784 0.567804
O O13 0.144294 0.600092 0.803490
O O14 0.000000 0.610430 0.750000
O O15 0.973594 0.630531 0.048390
O O16 0.500000 0.056875 0.250000
O O17 0.500000 0.000000 0.000000
#
# Coordination Sequence:
#
# PCOD8154048 Si02
#       8
#     8   8   8   4   8   8   8   8
#     4  12  27  51  80 109 152 196 256 313 384 451
#     4  12  28  44  73 109 148 200 249 307 378 446
#     4  11  25  47  75 113 147 198 246 312 376 448
#     4  12  26  50  78 108 154 186 260 326 372 450
#     4  11  25  41  68 107 150 197 247 293 373 451
#     4  12  27  49  79 113 145 200 251 313 384 445
#     4  12  27  48  70 106 149 197 252 313 373 449
#     4  12  23  42  66 100 152 197 240 295 367 453
#
# _framework density 23.586233
#
# number of rings (size 3 to 8) (size 9 to 14) (size 15 to 20)
#    0.000    0.267    6.667    1.200    7.467    0.000 
#    2.400    0.667    2.933    0.000    0.000    0.000 
#    0.000    0.000    0.000    0.000    0.000    0.000 
#
# Total GULP energy -371651.378806 kJ/mol
# GULP energy per Si atom -12388.379294 kJ/mol
# Density = 2.353255 g / cm^3
# Si number density = 23.586233 Si / 1000 Ang^3
#
#
#
# Elastic Constant Matrix: (Units=GPa)
#
#
# Indices 1 2 3 4 5 6 
#
# 1 127.4935 25.0543 25.4154 0.0000 19.3562 0.0000
# 2 25.0543 72.7578 10.2733 0.0000 8.6073 0.0000
# 3 25.4154 10.2733 89.8721 0.0000 8.1661 0.0000
# 4 0.0000 0.0000 0.0000 36.8517 0.0000 5.7502
# 5 19.3562 8.6073 8.1661 0.0000 53.5129 0.0000
# 6 0.0000 0.0000 0.0000 5.7502 0.0000 19.5919
#
#
#
# Elastic Compliance Matrix: (Units=1/GPa)
#
#
# Indices 1 2 3 4 5 6 
#
# 1 0.009148 -0.002554 -0.002060 0.000000 -0.002584 0.000000
# 2 -0.002554 0.014904 -0.000860 0.000000 -0.001342 0.000000
# 3 -0.002060 -0.000860 0.011892 0.000000 -0.000931 0.000000
# 4 0.000000 0.000000 0.000000 0.028438 0.000000 -0.008347
# 5 -0.002584 -0.001342 -0.000931 0.000000 0.019980 0.000000
# 6 0.000000 0.000000 0.000000 -0.008347 0.000000 0.053491
#
#
# Mechanical properties :
#
#
# Convention : Reuss Voigt Hill
#
# Bulk Modulus (GPa) = 40.00416 45.73439 42.86927
# Shear Modulus (GPa) = 31.82008 37.28331 34.55169
#
# Velocity S-wave (km/s) = 3.67699 3.98014 3.83157
# Velocity P-wave (km/s) = 5.91816 6.36824 6.14732
#
# Compressibility (1/GPa) = 0.02499740
#
# Stress axis : x y z
#
# Youngs Moduli (GPa) = 109.30870 67.09714 84.08676
#
# Poissons Ratio (x) = 0.17134 0.17326
# Poissons Ratio (y) = 0.27914 0.07227
# Poissons Ratio (z) = 0.22522 0.05767
#
# Static dielectric constant tensor:
#      x y z
#    x 4.584100 0.000000 -0.236520 
#    y 0.000000 4.300920 0.000000 
#    z -0.236520 0.000000 7.624280 
# 
# 
# High freq. dielectric constant tensor:
#      x y z
#    x 1.944160 0.000000 0.018120 
#    y 0.000000 1.918050 0.000000 
#    z 0.018120 0.000000 1.945600 
# 
# From -- ./inp_files/50642.got.cif
#   From: 2010.06.25/outbox.cif.g09.slc.cpg/sg15_26_cif.got.tgz:50642.got - 2010.06.28 07:06:18.
