data_PCOD8154583
_publ_section_title
;
Structure prediction by ZEFSAII (Michael W. Deem and Ramdas Pophale) SiO2 
 PCOD8154583
Probable space group: C 2/C
;
_chemical_formula_sum "Si O2"
_cell_formula_units_Z 44
_cell_length_a 14.241925
_cell_length_b 5.761939
_cell_length_c 23.953248
_cell_angle_alpha 90.000000
_cell_angle_beta 63.819095
_cell_angle_gamma 90.000000
_cell_volume 1763.967054
_symmetry_space_group_name_H-M "C 2/C"
_symmetry_group_IT_number 15
_symmetry_cell_setting 'monoclinic'
loop_
_space_group_symop_operation_xyz
x,y,z
-x,y,1/2-z
-x,-y,-z
x,-y,1/2+z
1/2+x,1/2+y,z
1/2-x,1/2+y,1/2-z
1/2-x,1/2-y,-z
1/2+x,1/2-y,1/2+z
loop_
_atom_site_type_symbol
_atom_site_label
_atom_site_fract_x
_atom_site_fract_y
_atom_site_fract_z
Si Si1 0.749054 0.410373 0.611326
Si Si2 0.040467 0.051156 0.620819
Si Si3 0.678962 0.057932 0.714784
Si Si4 0.035335 0.250391 0.966108
Si Si5 0.865196 0.743247 0.657972
Si Si6 0.000000 0.778334 0.250000
O O1 0.665755 0.507383 0.588042
O O2 0.678332 0.292281 0.678394
O O3 0.836867 0.236524 0.563478
O O4 0.816514 0.622464 0.617011
O O5 0.008936 0.259047 0.586552
O O6 0.988000 0.075156 0.696356
O O7 0.983230 0.819557 0.611760
O O8 0.633467 0.081666 0.788513
O O9 0.797615 0.972996 0.688461
O O10 0.602998 0.869464 0.706844
O O11 0.000000 0.500000 0.000000
O O12 0.000000 0.000000 0.000000
#
# Coordination Sequence:
#
# PCOD8154583 Si02
#       6
#     8   8   8   8   8   4
#     4  12  26  47  76 108 149 206 266 326 402 466
#     4  12  26  49  79 113 157 202 258 328 400 483
#     4  12  22  39  70 107 165 203 244 314 390 486
#     4  12  30  55  81 112 154 211 280 342 394 462
#     4  12  22  44  68 112 163 202 249 312 392 484
#     4  12  24  42  74 122 160 196 252 316 402 488
#
# _framework density 24.943777999999998
#
# number of rings (size 3 to 8) (size 9 to 14) (size 15 to 20)
#    0.000    0.000    5.455    5.455    0.000    2.909 
#    0.000    0.000    0.000    0.000    0.000    0.000 
#    0.000    0.000    0.000    0.000    0.000    0.000 
#
# Total GULP energy -272687.002550 kJ/mol
# GULP energy per Si atom -12394.863752 kJ/mol
# Density = 2.488700 g / cm^3
# Si number density = 24.943778 Si / 1000 Ang^3
#
#
#
# Elastic Constant Matrix: (Units=GPa)
#
#
# Indices 1 2 3 4 5 6 
#
# 1 186.1857 50.1911 42.6547 -0.0009 -19.3128 0.0002
# 2 50.1911 118.0887 39.9408 -0.0012 -0.1860 0.0007
# 3 42.6547 39.9408 92.1539 -0.0012 -2.4223 -0.0005
# 4 -0.0009 -0.0012 -0.0012 47.6332 -0.0010 -5.5676
# 5 -19.3128 -0.1860 -2.4223 -0.0010 34.4242 -0.0007
# 6 0.0002 0.0007 -0.0005 -5.5676 -0.0007 49.1898
#
#
#
# Elastic Compliance Matrix: (Units=1/GPa)
#
#
# Indices 1 2 3 4 5 6 
#
# 1 0.006824 -0.002178 -0.002118 0.000000 0.003668 0.000000
# 2 -0.002178 0.010620 -0.003632 0.000000 -0.001420 0.000000
# 3 -0.002118 -0.003632 0.013399 0.000000 -0.000265 0.000000
# 4 0.000000 0.000000 0.000000 0.021275 0.000001 0.002408
# 5 0.003668 -0.001420 -0.000265 0.000001 0.031081 0.000001
# 6 0.000000 0.000000 0.000000 0.002408 0.000001 0.020602
#
#
# Mechanical properties :
#
#
# Convention : Reuss Voigt Hill
#
# Bulk Modulus (GPa) = 66.72695 73.55572 70.14133
# Shear Modulus (GPa) = 40.11137 43.82557 41.96847
#
# Velocity S-wave (km/s) = 4.01443 4.19617 4.10631
# Velocity P-wave (km/s) = 6.94957 7.28216 7.11781
#
# Compressibility (1/GPa) = 0.01498645
#
# Stress axis : x y z
#
# Youngs Moduli (GPa) = 146.54520 94.15988 74.63232
#
# Poissons Ratio (x) = 0.20510 0.15808
# Poissons Ratio (y) = 0.31920 0.27107
# Poissons Ratio (z) = 0.31039 0.34200
#
# Static dielectric constant tensor:
#      x y z
#    x 4.857060 0.000000 -0.077340 
#    y 0.000000 4.412980 0.000000 
#    z -0.077340 0.000000 4.624020 
# 
# 
# High freq. dielectric constant tensor:
#      x y z
#    x 2.007250 0.000000 -0.004930 
#    y 0.000000 1.996380 0.000000 
#    z -0.004930 0.000000 1.978660 
# 
# From -- ./inp_files/271914.got.cif
#   From: 2010.06.25/outbox.cif.g09.slc.cpg/sg15_136_cif.got.tgz:271914.got - 2010.06.28 07:06:18.
