data_PCOD8154508
_publ_section_title
;
Structure prediction by ZEFSAII (Michael W. Deem and Ramdas Pophale) SiO2 
 PCOD8154508
Probable space group: C 2/C
;
_chemical_formula_sum "Si O2"
_cell_formula_units_Z 48
_cell_length_a 23.193335
_cell_length_b 19.774841
_cell_length_c 5.390113
_cell_angle_alpha 90.000000
_cell_angle_beta 130.459590
_cell_angle_gamma 90.000000
_cell_volume 1880.966266
_symmetry_space_group_name_H-M "C 2/C"
_symmetry_group_IT_number 15
_symmetry_cell_setting 'monoclinic'
loop_
_space_group_symop_operation_xyz
x,y,z
-x,y,1/2-z
-x,-y,-z
x,-y,1/2+z
1/2+x,1/2+y,z
1/2-x,1/2+y,1/2-z
1/2-x,1/2-y,-z
1/2+x,1/2-y,1/2+z
loop_
_atom_site_type_symbol
_atom_site_label
_atom_site_fract_x
_atom_site_fract_y
_atom_site_fract_z
Si Si1 0.666778 0.536231 0.812089
Si Si2 0.606960 0.149638 0.405819
Si Si3 0.000000 0.724145 0.750000
Si Si4 0.379151 0.275937 0.763483
Si Si5 0.000000 0.934299 0.750000
Si Si6 0.000000 0.458362 0.750000
Si Si7 0.741018 0.671286 0.885940
Si Si8 0.500000 0.359775 0.250000
O O1 0.698443 0.502565 0.645084
O O2 0.574906 0.525504 0.548454
O O3 0.692603 0.615643 0.908431
O O4 0.642069 0.201517 0.703570
O O5 0.578693 0.083581 0.470292
O O6 0.676781 0.136554 0.414262
O O7 0.532269 0.176530 0.057242
O O8 0.932812 0.771016 0.668696
O O9 0.304582 0.319554 0.498977
O O10 0.426990 0.313285 0.114616
O O11 0.025472 0.896783 0.570394
O O12 0.000000 0.500000 0.500000
O O13 0.750000 0.750000 0.000000
#
# Coordination Sequence:
#
# PCOD8154508 Si02
#       8
#     8   8   4   8   4   4   8   4
#     4  12  29  53  79 114 163 218 266 321 401 484
#     4  12  26  46  73 112 151 196 259 338 400 468
#     4  12  20  44  72 106 158 193 243 320 404 461
#     4  12  24  42  75 113 158 199 248 329 406 469
#     4  12  25  47  81 111 158 207 277 316 376 484
#     4  12  28  50  83 107 142 212 278 326 394 478
#     4  12  29  48  80 119 163 211 267 335 412 483
#     4  12  23  39  78 116 150 202 258 318 380 461
#
# _framework density 25.518799999999999
#
# number of rings (size 3 to 8) (size 9 to 14) (size 15 to 20)
#    0.000    0.000    6.667    3.000    2.333    2.667 
#    0.000    0.000    0.000    0.000    0.000    0.000 
#    0.000    0.000    0.000    0.000    0.000    0.000 
#
# Total GULP energy -297359.319129 kJ/mol
# GULP energy per Si atom -12389.971630 kJ/mol
# Density = 2.546072 g / cm^3
# Si number density = 25.518800 Si / 1000 Ang^3
#
#
#
# Elastic Constant Matrix: (Units=GPa)
#
#
# Indices 1 2 3 4 5 6 
#
# 1 110.9645 43.1531 30.4628 0.0000 -0.5709 0.0000
# 2 43.1531 127.6266 37.8217 0.0000 -2.2842 0.0000
# 3 30.4628 37.8217 87.8003 0.0000 -3.1458 0.0000
# 4 0.0000 0.0000 0.0000 41.3639 0.0000 -17.3108
# 5 -0.5709 -2.2842 -3.1458 0.0000 49.0227 0.0000
# 6 0.0000 0.0000 0.0000 -17.3108 0.0000 5.5994
#
#
#
# Elastic Compliance Matrix: (Units=1/GPa)
#
#
# Indices 1 2 3 4 5 6 
#
# 1 0.010836 -0.002924 -0.002506 0.000000 -0.000171 0.000000
# 2 -0.002924 0.009773 -0.003187 0.000000 0.000217 0.000000
# 3 -0.002506 -0.003187 0.013657 0.000000 0.000699 0.000000
# 4 0.000000 0.000000 0.000000 -0.082284 0.000000 -0.254384
# 5 -0.000171 0.000217 0.000699 0.000000 0.020452 0.000000
# 6 0.000000 0.000000 0.000000 -0.254384 0.000000 -0.607845
#
#
# Mechanical properties :
#
#
# Convention : Reuss Voigt Hill
#
# Bulk Modulus (GPa) = 58.71894 61.02964 59.87429
# Shear Modulus (GPa) = -8.16327 33.52746 12.68209
#
# Velocity S-wave (km/s) = -1.79049 3.62862 2.23170
# Velocity P-wave (km/s) = 4.33423 6.44386 5.49130
#
# Compressibility (1/GPa) = 0.01703028
#
# Stress axis : x y z
#
# Youngs Moduli (GPa) = 92.28285 102.32723 73.22232
#
# Poissons Ratio (x) = 0.29924 0.18350
# Poissons Ratio (y) = 0.26987 0.23339
# Poissons Ratio (z) = 0.23127 0.32615
#
# Static dielectric constant tensor:
#      x y z
#    x 4.847970 0.000000 0.318570 
#    y 0.000000 4.737540 0.000000 
#    z 0.318570 0.000000 4.760290 
# 
# 
# High freq. dielectric constant tensor:
#      x y z
#    x 2.017250 0.000000 -0.002580 
#    y 0.000000 2.014720 0.000000 
#    z -0.002580 0.000000 2.017450 
# 
# From -- ./inp_files/15927.got.cif
#   From: 2010.06.25/outbox.cif.g09.slc.cpg/sg15_8_cif.got.tgz:15927.got - 2010.06.28 07:06:18.
