data_PCOD8154336
_publ_section_title
;
Structure prediction by ZEFSAII (Michael W. Deem and Ramdas Pophale) SiO2 
 PCOD8154336
Probable space group: C 2/C
;
_chemical_formula_sum "Si O2"
_cell_formula_units_Z 56
_cell_length_a 24.688506
_cell_length_b 5.122592
_cell_length_c 18.635435
_cell_angle_alpha 90.000000
_cell_angle_beta 111.375050
_cell_angle_gamma 90.000000
_cell_volume 2194.693593
_symmetry_space_group_name_H-M "C 2/C"
_symmetry_group_IT_number 15
_symmetry_cell_setting 'monoclinic'
loop_
_space_group_symop_operation_xyz
x,y,z
-x,y,1/2-z
-x,-y,-z
x,-y,1/2+z
1/2+x,1/2+y,z
1/2-x,1/2+y,1/2-z
1/2-x,1/2-y,-z
1/2+x,1/2-y,1/2+z
loop_
_atom_site_type_symbol
_atom_site_label
_atom_site_fract_x
_atom_site_fract_y
_atom_site_fract_z
Si Si1 0.941116 0.514858 0.687917
Si Si2 0.155428 0.202512 0.929788
Si Si3 0.953516 0.808200 0.402054
Si Si4 0.900168 0.316364 0.310192
Si Si5 0.936313 0.867516 0.554393
Si Si6 0.277961 0.062377 0.290820
Si Si7 0.769370 0.550129 0.448752
O O1 0.893908 0.291121 0.649870
O O2 0.911111 0.716774 0.730019
O O3 0.958726 0.666220 0.624458
O O4 0.000000 0.389955 0.750000
O O5 0.130041 0.952139 0.960102
O O6 0.215282 0.151594 0.916378
O O7 0.170034 0.418122 0.997523
O O8 0.944346 0.542117 0.355745
O O9 0.939273 0.740368 0.477649
O O10 0.911720 0.043594 0.355668
O O11 0.021124 0.880465 0.423323
O O12 0.835760 0.415400 0.294289
O O13 0.270225 0.333054 0.243238
O O14 0.279532 0.160785 0.374207
O O15 0.750000 0.750000 0.500000
#
# Coordination Sequence:
#
# PCOD8154336 Si02
#       7
#     8   8   8   8   8   8   8
#     4  12  26  46  75 114 153 207 252 323 380 477
#     4  11  26  45  78 109 153 200 267 322 382 467
#     4  11  27  48  74 112 152 204 252 322 378 481
#     4  12  27  49  76 108 157 200 257 315 402 452
#     4  11  26  44  77 108 153 198 259 308 396 454
#     4  12  29  49  78 112 156 201 258 330 395 461
#     4  11  27  49  78 111 151 205 269 321 392 466
#
# _framework density 25.516090999999999
#
# number of rings (size 3 to 8) (size 9 to 14) (size 15 to 20)
#    0.000    0.571    1.429    4.286   16.000    1.714 
#    0.000    0.000    0.000    0.000    0.000    0.000 
#    0.000    0.000    0.000    0.000    0.000    0.000 
#
# Total GULP energy -347245.626620 kJ/mol
# GULP energy per Si atom -12401.629522 kJ/mol
# Density = 2.545801 g / cm^3
# Si number density = 25.516091 Si / 1000 Ang^3
#
#
#
# Elastic Constant Matrix: (Units=GPa)
#
#
# Indices 1 2 3 4 5 6 
#
# 1 94.6172 -6.7204 37.5253 -0.0003 6.3143 0.0000
# 2 -6.7204 79.8751 41.7867 -0.0016 -3.2230 0.0009
# 3 37.5253 41.7867 134.6389 -0.0004 -12.1918 0.0002
# 4 -0.0003 -0.0016 -0.0004 38.1724 0.0001 5.5856
# 5 6.3143 -3.2230 -12.1918 0.0001 44.0496 0.0000
# 6 0.0000 0.0009 0.0002 5.5856 0.0000 35.4787
#
#
#
# Elastic Compliance Matrix: (Units=1/GPa)
#
#
# Indices 1 2 3 4 5 6 
#
# 1 0.013012 0.003597 -0.005014 0.000000 -0.002990 0.000000
# 2 0.003597 0.015942 -0.006043 0.000001 -0.001022 0.000000
# 3 -0.005014 -0.006043 0.011001 0.000000 0.003321 0.000000
# 4 0.000000 0.000001 0.000000 0.026815 0.000000 -0.004222
# 5 -0.002990 -0.001022 0.003321 0.000000 0.023975 0.000000
# 6 0.000000 0.000000 0.000000 -0.004222 0.000000 0.028851
#
#
# Mechanical properties :
#
#
# Convention : Reuss Voigt Hill
#
# Bulk Modulus (GPa) = 39.94181 50.47938 45.21059
# Shear Modulus (GPa) = 34.99917 39.30944 37.15431
#
# Velocity S-wave (km/s) = 3.70760 3.92927 3.82004
# Velocity P-wave (km/s) = 5.83232 6.35703 6.10032
#
# Compressibility (1/GPa) = 0.02503642
#
# Stress axis : x y z
#
# Youngs Moduli (GPa) = 76.84962 62.72592 90.90119
#
# Poissons Ratio (x) = -0.22564 0.45577
# Poissons Ratio (y) = -0.27644 0.54931
# Poissons Ratio (z) = 0.38531 0.37905
#
# Static dielectric constant tensor:
#      x y z
#    x 4.820050 0.000000 0.073830 
#    y 0.000000 4.356290 0.000000 
#    z 0.073830 0.000000 4.866100 
# 
# 
# High freq. dielectric constant tensor:
#      x y z
#    x 2.040210 0.000000 0.001180 
#    y 0.000000 2.006880 0.000000 
#    z 0.001180 0.000000 2.027490 
# 
# From -- ./inp_files/221304.got.cif
#   From: 2010.06.25/outbox.cif.g09.slc.cpg/sg15_111_cif.got.tgz:221304.got - 2010.06.28 07:06:18.
