data_PCOD8154729
_publ_section_title
;
Structure prediction by ZEFSAII (Michael W. Deem and Ramdas Pophale) SiO2 
 PCOD8154729
Probable space group: C 2/C
;
_chemical_formula_sum "Si O2"
_cell_formula_units_Z 64
_cell_length_a 27.593689
_cell_length_b 14.956562
_cell_length_c 8.575629
_cell_angle_alpha 90.000000
_cell_angle_beta 128.430480
_cell_angle_gamma 90.000000
_cell_volume 2772.493460
_symmetry_space_group_name_H-M "C 2/C"
_symmetry_group_IT_number 15
_symmetry_cell_setting 'monoclinic'
loop_
_space_group_symop_operation_xyz
x,y,z
-x,y,1/2-z
-x,-y,-z
x,-y,1/2+z
1/2+x,1/2+y,z
1/2-x,1/2+y,1/2-z
1/2-x,1/2-y,-z
1/2+x,1/2-y,1/2+z
loop_
_atom_site_type_symbol
_atom_site_label
_atom_site_fract_x
_atom_site_fract_y
_atom_site_fract_z
Si Si1 0.377194 0.413965 0.618391
Si Si2 0.434759 0.935227 0.185478
Si Si3 0.622806 0.913965 0.109614
Si Si4 0.750000 0.368501 0.670423
Si Si5 0.565241 0.435226 0.446443
Si Si6 0.377362 0.266942 0.079464
Si Si7 0.877362 0.733058 0.429986
Si Si8 0.750000 0.537950 0.488990
O O1 0.382600 0.494268 0.505016
O O2 0.385932 0.320711 0.549997
O O3 0.309748 0.414502 0.558605
O O4 0.429952 0.427682 0.856743
O O5 0.500000 0.970693 0.250000
O O6 0.429952 0.927682 0.363064
O O7 0.424022 0.838641 0.091719
O O8 0.382600 0.005732 0.025383
O O9 0.690252 0.914502 0.319611
O O10 0.614068 0.820711 0.006268
O O11 0.692317 0.302691 0.562597
O O12 0.807683 0.302692 0.793330
O O13 0.750000 0.429761 0.513404
O O14 0.750000 0.442784 0.805659
O O15 0.500000 0.470693 0.250000
O O16 0.575978 0.338641 0.395633
O O17 0.398980 0.250000 0.297959
#
# Coordination Sequence:
#
# PCOD8154729 Si02
#       8
#     8   8   8   8   8   8   8   8
#     4  12  25  47  75 106 148 191 245 307 372 435
#     4  12  27  48  73 105 144 197 252 302 360 434
#     4  12  25  47  75 106 148 191 245 307 372 435
#     4  12  26  45  72 113 147 187 243 301 380 442
#     4  12  27  48  73 105 144 197 252 302 360 434
#     4  12  27  45  72 107 149 190 243 305 373 436
#     4  12  27  45  72 107 149 190 243 305 373 436
#     4  12  23  43  79 102 145 186 237 300 380 428
#
# _framework density 23.083912999999999
#
# number of rings (size 3 to 8) (size 9 to 14) (size 15 to 20)
#    0.000    0.000    5.000    4.125    3.500    4.000 
#    0.000    0.000    0.000    0.000    0.000    0.000 
#    0.000    0.000    0.000    0.000    0.000    0.000 
#
# Total GULP energy -397022.444254 kJ/mol
# GULP energy per Si atom -12406.951383 kJ/mol
# Density = 2.303137 g / cm^3
# Si number density = 23.083913 Si / 1000 Ang^3
#
#
#
# Elastic Constant Matrix: (Units=GPa)
#
#
# Indices 1 2 3 4 5 6 
#
# 1 68.9133 28.3306 24.6137 0.0000 -13.0204 0.0000
# 2 28.3306 152.5860 42.1056 0.0000 -29.3186 0.0000
# 3 24.6137 42.1056 84.7029 0.0000 -20.5860 0.0000
# 4 0.0000 0.0000 0.0000 29.4957 0.0000 -21.9372
# 5 -13.0204 -29.3186 -20.5860 0.0000 41.3110 0.0000
# 6 0.0000 0.0000 0.0000 -21.9372 0.0000 19.1888
#
#
#
# Elastic Compliance Matrix: (Units=1/GPa)
#
#
# Indices 1 2 3 4 5 6 
#
# 1 0.016911 -0.001724 -0.003481 0.000000 0.002372 0.000000
# 2 -0.001724 0.008398 -0.002682 0.000000 0.004080 0.000000
# 3 -0.003481 -0.002682 0.015271 0.000000 0.004609 0.000000
# 4 0.000000 0.000000 0.000000 0.226438 0.000000 0.258872
# 5 0.002372 0.004080 0.004609 0.000000 0.030147 0.000000
# 6 0.000000 0.000000 0.000000 0.258872 0.000000 0.348065
#
#
# Mechanical properties :
#
#
# Convention : Reuss Voigt Hill
#
# Bulk Modulus (GPa) = 40.31133 55.14465 47.72799
# Shear Modulus (GPa) = 7.47081 32.07588 19.77335
#
# Velocity S-wave (km/s) = 1.80094 3.73169 2.92992
# Velocity P-wave (km/s) = 4.67177 6.51981 5.67157
#
# Compressibility (1/GPa) = 0.02480692
#
# Stress axis : x y z
#
# Youngs Moduli (GPa) = 59.13309 119.07912 65.48395
#
# Poissons Ratio (x) = 0.20524 0.22794
# Poissons Ratio (y) = 0.10192 0.17563
# Poissons Ratio (z) = 0.20583 0.31937
#
# Static dielectric constant tensor:
#      x y z
#    x 4.219960 0.000000 -0.162710 
#    y 0.000000 3.997180 0.000000 
#    z -0.162710 0.000000 4.296410 
# 
# 
# High freq. dielectric constant tensor:
#      x y z
#    x 1.917760 0.000000 -0.007560 
#    y 0.000000 1.922320 0.000000 
#    z -0.007560 0.000000 1.921310 
# 
# From -- ./inp_files/70178.got.cif
#   From: 2010.06.25/outbox.cif.g09.slc.cpg/sg15_36_cif.got.tgz:70178.got - 2010.06.28 07:06:18.
