data_PCOD8154606
_publ_section_title
;
Structure prediction by ZEFSAII (Michael W. Deem and Ramdas Pophale) SiO2 
 PCOD8154606
Probable space group: C 2/C
;
_chemical_formula_sum "Si O2"
_cell_formula_units_Z 44
_cell_length_a 15.503756
_cell_length_b 21.311263
_cell_length_c 10.199992
_cell_angle_alpha 90.000000
_cell_angle_beta 139.018378
_cell_angle_gamma 90.000000
_cell_volume 2210.184658
_symmetry_space_group_name_H-M "C 2/C"
_symmetry_group_IT_number 15
_symmetry_cell_setting 'monoclinic'
loop_
_space_group_symop_operation_xyz
x,y,z
-x,y,1/2-z
-x,-y,-z
x,-y,1/2+z
1/2+x,1/2+y,z
1/2-x,1/2+y,1/2-z
1/2-x,1/2-y,-z
1/2+x,1/2-y,1/2+z
loop_
_atom_site_type_symbol
_atom_site_label
_atom_site_fract_x
_atom_site_fract_y
_atom_site_fract_z
Si Si1 0.232738 0.113248 0.469489
Si Si2 0.000000 0.681278 0.750000
Si Si3 0.700260 0.374094 0.229178
Si Si4 0.950430 0.207730 0.381863
Si Si5 0.591610 0.492029 0.228745
Si Si6 0.140823 0.269598 0.977499
O O1 0.375162 0.136166 0.586917
O O2 0.230413 0.097884 0.620924
O O3 0.126210 0.167280 0.315071
O O4 0.193822 0.049669 0.350276
O O5 0.014381 0.724733 0.638653
O O6 0.672586 0.428243 0.303422
O O7 0.827238 0.337997 0.428063
O O8 0.579446 0.326356 0.081379
O O9 0.858678 0.219301 0.403154
O O10 0.500000 0.489000 0.250000
O O11 0.500000 0.500000 0.000000
O O12 0.000000 0.273222 0.750000
O O13 0.250000 0.250000 0.000000
#
# Coordination Sequence:
#
# PCOD8154606 Si02
#       6
#     8   4   8   8   8   8
#     4  12  24  44  69 101 136 177 234 285 347 415
#     4  12  24  40  70 104 130 174 222 290 350 408
#     4  12  24  44  69  99 136 176 234 290 339 414
#     4  12  22  41  72 102 135 173 225 287 348 419
#     4  12  25  46  71  96 130 182 236 283 335 412
#     4  12  27  43  64 102 145 184 222 280 361 425
#
# _framework density 19.90784
#
# number of rings (size 3 to 8) (size 9 to 14) (size 15 to 20)
#    0.000    0.000    9.091    1.636    2.545    0.000 
#    1.636    0.909    0.000    0.000    0.000    0.000 
#    0.000    0.000    0.000    0.000    0.000    0.000 
#
# Total GULP energy -272916.744334 kJ/mol
# GULP energy per Si atom -12405.306561 kJ/mol
# Density = 1.986253 g / cm^3
# Si number density = 19.907840 Si / 1000 Ang^3
#
#
#
# Elastic Constant Matrix: (Units=GPa)
#
#
# Indices 1 2 3 4 5 6 
#
# 1 123.3064 42.1807 51.6214 0.0000 -4.9362 0.0000
# 2 42.1807 119.6552 66.9241 0.0000 1.1702 0.0000
# 3 51.6214 66.9241 112.0203 0.0000 9.8185 0.0000
# 4 0.0000 0.0000 0.0000 40.8310 0.0000 0.1649
# 5 -4.9362 1.1702 9.8185 0.0000 34.4999 0.0000
# 6 0.0000 0.0000 0.0000 0.1649 0.0000 39.8612
#
#
#
# Elastic Compliance Matrix: (Units=1/GPa)
#
#
# Indices 1 2 3 4 5 6 
#
# 1 0.010462 -0.001327 -0.004270 0.000000 0.002757 0.000000
# 2 -0.001327 0.012824 -0.007174 0.000000 0.001417 0.000000
# 3 -0.004270 -0.007174 0.015602 0.000000 -0.004808 0.000000
# 4 0.000000 0.000000 0.000000 0.024492 0.000000 -0.000101
# 5 0.002757 0.001417 -0.004808 0.000000 0.030700 0.000000
# 6 0.000000 0.000000 0.000000 -0.000101 0.000000 0.025087
#
#
# Mechanical properties :
#
#
# Convention : Reuss Voigt Hill
#
# Bulk Modulus (GPa) = 74.92923 75.15934 75.04429
# Shear Modulus (GPa) = 33.52172 35.98881 34.75527
#
# Velocity S-wave (km/s) = 4.10792 4.25640 4.18282
# Velocity P-wave (km/s) = 7.76014 7.87347 7.81701
#
# Compressibility (1/GPa) = 0.01334593
#
# Stress axis : x y z
#
# Youngs Moduli (GPa) = 95.58674 77.98088 64.09392
#
# Poissons Ratio (x) = 0.10345 0.27369
# Poissons Ratio (y) = 0.12681 0.45981
# Poissons Ratio (z) = 0.40816 0.55944
#
# Static dielectric constant tensor:
#      x y z
#    x 3.918230 0.000000 -0.173700 
#    y 0.000000 3.865150 0.000000 
#    z -0.173700 0.000000 3.533070 
# 
# 
# High freq. dielectric constant tensor:
#      x y z
#    x 1.789680 0.000000 -0.007840 
#    y 0.000000 1.772110 0.000000 
#    z -0.007840 0.000000 1.778870 
# 
# From -- ./inp_files/99888.got.cif
#   From: 2010.06.25/outbox.cif.g09.slc.cpg/sg15_50_cif.got.tgz:99888.got - 2010.06.28 07:06:18.
