data_PCOD8154976
_publ_section_title
;
Structure prediction by ZEFSAII (Michael W. Deem and Ramdas Pophale) SiO2 
 PCOD8154976
Probable space group: C 2/C
;
_chemical_formula_sum "Si O2"
_cell_formula_units_Z 32
_cell_length_a 18.883910
_cell_length_b 4.852142
_cell_length_c 24.039623
_cell_angle_alpha 90.000000
_cell_angle_beta 141.462054
_cell_angle_gamma 90.000000
_cell_volume 1372.347177
_symmetry_space_group_name_H-M "C 2/C"
_symmetry_group_IT_number 15
_symmetry_cell_setting 'monoclinic'
loop_
_space_group_symop_operation_xyz
x,y,z
-x,y,1/2-z
-x,-y,-z
x,-y,1/2+z
1/2+x,1/2+y,z
1/2-x,1/2+y,1/2-z
1/2-x,1/2-y,-z
1/2+x,1/2-y,1/2+z
loop_
_atom_site_type_symbol
_atom_site_label
_atom_site_fract_x
_atom_site_fract_y
_atom_site_fract_z
Si Si1 0.126110 0.159392 0.312018
Si Si2 0.484712 0.254116 0.030499
Si Si3 0.257268 0.825735 0.568122
Si Si4 0.317377 0.475705 0.275533
O O1 0.215622 0.358477 0.398934
O O2 0.000000 0.262212 0.250000
O O3 0.140839 0.852344 0.343877
O O4 0.150561 0.138227 0.261275
O O5 0.577330 0.299623 0.135957
O O6 0.500000 0.500000 0.000000
O O7 0.361941 0.232095 0.981103
O O8 0.500000 0.000000 0.000000
O O9 0.250000 0.750000 0.500000
O O10 0.277077 0.730930 0.290833
#
# Coordination Sequence:
#
# PCOD8154976 Si02
#       4
#     8   8   8   8
#     4  12  26  46  70 101 137 181 230 282 341 407
#     4  12  25  44  70 102 138 180 227 282 343 407
#     4  12  26  46  69 100 138 181 228 282 342 408
#     4  12  25  44  70 101 137 180 229 284 342 408
#
# _framework density 23.317713000000001
#
# number of rings (size 3 to 8) (size 9 to 14) (size 15 to 20)
#    0.000    0.000    0.000   12.000    0.000    4.000 
#    0.000    0.000    0.000    0.000    0.000    0.000 
#    0.000    0.000    0.000    0.000    0.000    0.000 
#
# Total GULP energy -198318.690760 kJ/mol
# GULP energy per Si atom -12394.918172 kJ/mol
# Density = 2.326464 g / cm^3
# Si number density = 23.317713 Si / 1000 Ang^3
#
#
#
# Elastic Constant Matrix: (Units=GPa)
#
#
# Indices 1 2 3 4 5 6 
#
# 1 174.5708 60.6467 64.3756 -0.0514 1.7339 0.1643
# 2 60.6467 144.9851 39.9998 -0.0730 -2.4924 0.1505
# 3 64.3756 39.9998 116.1749 -0.0120 -5.2986 0.0218
# 4 -0.0514 -0.0730 -0.0120 53.5768 0.0085 -7.0075
# 5 1.7339 -2.4924 -5.2986 0.0085 46.4033 -0.0227
# 6 0.1643 0.1505 0.0218 -7.0075 -0.0227 40.6852
#
#
#
# Elastic Compliance Matrix: (Units=1/GPa)
#
#
# Indices 1 2 3 4 5 6 
#
# 1 0.007868 -0.002312 -0.003602 0.000001 -0.000829 -0.000022
# 2 -0.002312 0.008301 -0.001561 0.000006 0.000354 -0.000019
# 3 -0.003602 -0.001561 0.011202 -0.000001 0.001330 0.000015
# 4 0.000001 0.000006 -0.000001 0.019095 -0.000002 0.003289
# 5 -0.000829 0.000354 0.001330 -0.000002 0.021752 0.000013
# 6 -0.000022 -0.000019 0.000015 0.003289 0.000013 0.025146
#
#
# Mechanical properties :
#
#
# Convention : Reuss Voigt Hill
#
# Bulk Modulus (GPa) = 80.50375 85.08609 82.79492
# Shear Modulus (GPa) = 44.46330 46.18032 45.32181
#
# Velocity S-wave (km/s) = 4.37148 4.45509 4.41348
# Velocity P-wave (km/s) = 7.75110 7.93932 7.84577
#
# Compressibility (1/GPa) = 0.01242178
#
# Stress axis : x y z
#
# Youngs Moduli (GPa) = 127.09951 120.46770 89.27286
#
# Poissons Ratio (x) = 0.27848 0.32153
# Poissons Ratio (y) = 0.29381 0.13935
# Poissons Ratio (z) = 0.45777 0.18805
#
# Static dielectric constant tensor:
#      x y z
#    x 4.231830 0.000170 -0.109920 
#    y 0.000170 4.290130 0.000290 
#    z -0.109920 0.000290 4.187000 
# 
# 
# High freq. dielectric constant tensor:
#      x y z
#    x 1.935310 -0.000020 0.002020 
#    y -0.000020 1.944770 0.000010 
#    z 0.002020 0.000010 1.927920 
# 
# From -- ./inp_files/275774.got.cif
#   From: 2010.06.25/outbox.cif.g09.slc.cpg/sg15_138_cif.got.tgz:275774.got - 2010.06.28 07:06:18.
