data_PCOD8154241
_publ_section_title
;
Structure prediction by ZEFSAII (Michael W. Deem and Ramdas Pophale) SiO2 
 PCOD8154241
Probable space group: C 2/C
;
_chemical_formula_sum "Si O2"
_cell_formula_units_Z 32
_cell_length_a 9.761505
_cell_length_b 15.706030
_cell_length_c 8.316530
_cell_angle_alpha 90.000000
_cell_angle_beta 94.188107
_cell_angle_gamma 90.000000
_cell_volume 1271.639754
_symmetry_space_group_name_H-M "C 2/C"
_symmetry_group_IT_number 15
_symmetry_cell_setting 'monoclinic'
loop_
_space_group_symop_operation_xyz
x,y,z
-x,y,1/2-z
-x,-y,-z
x,-y,1/2+z
1/2+x,1/2+y,z
1/2-x,1/2+y,1/2-z
1/2-x,1/2-y,-z
1/2+x,1/2-y,1/2+z
loop_
_atom_site_type_symbol
_atom_site_label
_atom_site_fract_x
_atom_site_fract_y
_atom_site_fract_z
Si Si1 0.676754 0.127813 0.410289
Si Si2 0.076900 0.077866 0.592707
Si Si3 0.150188 0.469858 0.226475
Si Si4 0.043046 0.770988 0.580458
O O1 0.696294 0.056902 0.552699
O O2 0.815001 0.178532 0.390913
O O3 0.558079 0.193938 0.454019
O O4 0.641244 0.073487 0.246470
O O5 0.237145 0.062360 0.636575
O O6 0.000000 0.098399 0.750000
O O7 0.072838 0.162855 0.485114
O O8 0.000000 0.000000 0.500000
O O9 0.000000 0.430784 0.250000
O O10 0.000000 0.733551 0.750000
#
# Coordination Sequence:
#
# PCOD8154241 Si02
#       4
#     8   8   8   8
#     4  11  26  47  72 112 150 194 249 315 376 450
#     4  12  23  44  75 111 146 200 253 303 367 457
#     4  12  25  46  74 108 151 194 252 305 382 442
#     4  11  25  47  74 110 153 193 253 312 372 448
#
# _framework density 25.164359000000001
#
# number of rings (size 3 to 8) (size 9 to 14) (size 15 to 20)
#    0.000    0.500    5.000    2.250    3.500    1.000 
#    0.000    2.500    0.000    0.000    0.000    0.000 
#    0.000    0.000    0.000    0.000    0.000    0.000 
#
# Total GULP energy -198335.185347 kJ/mol
# GULP energy per Si atom -12395.949084 kJ/mol
# Density = 2.510708 g / cm^3
# Si number density = 25.164359 Si / 1000 Ang^3
#
#
#
# Elastic Constant Matrix: (Units=GPa)
#
#
# Indices 1 2 3 4 5 6 
#
# 1 145.6571 23.9118 18.8884 0.0000 13.1002 0.0000
# 2 23.9118 153.5915 35.2794 0.0000 -0.1400 0.0000
# 3 18.8884 35.2794 58.2802 0.0000 -12.3953 0.0000
# 4 0.0000 0.0000 0.0000 55.3001 0.0000 -9.7325
# 5 13.1002 -0.1400 -12.3953 0.0000 43.7042 0.0000
# 6 0.0000 0.0000 0.0000 -9.7325 0.0000 31.2400
#
#
#
# Elastic Compliance Matrix: (Units=1/GPa)
#
#
# Indices 1 2 3 4 5 6 
#
# 1 0.007592 -0.000546 -0.002782 0.000000 -0.003066 0.000000
# 2 -0.000546 0.007678 -0.004715 0.000000 -0.001149 0.000000
# 3 -0.002782 -0.004715 0.022442 0.000000 0.007184 0.000000
# 4 0.000000 0.000000 0.000000 0.019132 0.000000 0.005960
# 5 -0.003066 -0.001149 0.007184 0.000000 0.025834 0.000000
# 6 0.000000 0.000000 0.000000 0.005960 0.000000 0.033867
#
#
# Mechanical properties :
#
#
# Convention : Reuss Voigt Hill
#
# Bulk Modulus (GPa) = 46.24171 57.07645 51.65908
# Shear Modulus (GPa) = 35.75515 44.67881 40.21698
#
# Velocity S-wave (km/s) = 3.77353 4.21822 4.00205
# Velocity P-wave (km/s) = 6.11570 6.81580 6.47522
#
# Compressibility (1/GPa) = 0.02162550
#
# Stress axis : x y z
#
# Youngs Moduli (GPa) = 131.72451 130.24662 44.55840
#
# Poissons Ratio (x) = 0.07106 0.12398
# Poissons Ratio (y) = 0.07187 0.21010
# Poissons Ratio (z) = 0.36650 0.61414
#
# Static dielectric constant tensor:
#      x y z
#    x 4.606710 0.000000 0.069120 
#    y 0.000000 4.830190 0.000000 
#    z 0.069120 0.000000 4.629790 
# 
# 
# High freq. dielectric constant tensor:
#      x y z
#    x 2.007260 0.000000 -0.009060 
#    y 0.000000 2.012660 0.000000 
#    z -0.009060 0.000000 1.993950 
# 
# From -- ./inp_files/28491.got.cif
#   From: 2010.06.25/outbox.cif.g09.slc.cpg/sg15_15_cif.got.tgz:28491.got - 2010.06.28 07:06:18.
