data_PCOD8154039
_publ_section_title
;
Structure prediction by ZEFSAII (Michael W. Deem and Ramdas Pophale) SiO2 
 PCOD8154039
Probable space group: C 2/C
;
_chemical_formula_sum "Si O2"
_cell_formula_units_Z 32
_cell_length_a 13.361297
_cell_length_b 18.692219
_cell_length_c 5.464690
_cell_angle_alpha 90.000000
_cell_angle_beta 68.298743
_cell_angle_gamma 90.000000
_cell_volume 1268.086567
_symmetry_space_group_name_H-M "C 2/C"
_symmetry_group_IT_number 15
_symmetry_cell_setting 'monoclinic'
loop_
_space_group_symop_operation_xyz
x,y,z
-x,y,1/2-z
-x,-y,-z
x,-y,1/2+z
1/2+x,1/2+y,z
1/2-x,1/2+y,1/2-z
1/2-x,1/2-y,-z
1/2+x,1/2-y,1/2+z
loop_
_atom_site_type_symbol
_atom_site_label
_atom_site_fract_x
_atom_site_fract_y
_atom_site_fract_z
Si Si1 0.500000 0.911164 0.250000
Si Si2 0.000000 0.952432 0.250000
Si Si3 0.606583 0.195172 0.995248
Si Si4 0.678690 0.348719 0.921457
Si Si5 0.713503 0.961864 0.932961
O O1 0.588917 0.861555 0.298160
O O2 0.417345 0.958560 0.485445
O O3 0.896917 0.899807 0.346378
O O4 0.000000 0.000000 0.500000
O O5 0.500000 0.190190 0.250000
O O6 0.713544 0.169728 0.029731
O O7 0.618432 0.276524 0.889865
O O8 0.719767 0.387694 0.637434
O O9 0.750851 0.002539 0.651320
#
# Coordination Sequence:
#
# PCOD8154039 Si02
#       5
#     4   4   8   8   8
#     4  12  26  45  78 111 150 196 254 320 394 452
#     4  12  28  51  78 113 158 210 254 308 374 470
#     4  11  24  50  75 112 150 197 257 330 381 449
#     4  11  25  49  79 107 156 199 260 312 389 452
#     4  12  26  46  73 109 149 196 245 307 375 455
#
# _framework density 25.234870000000001
#
# number of rings (size 3 to 8) (size 9 to 14) (size 15 to 20)
#    0.000    0.500    3.750    3.750    0.000    4.000 
#    4.500    0.000    0.000    0.000    0.000    0.000 
#    0.000    0.000    0.000    0.000    0.000    0.000 
#
# Total GULP energy -198262.296085 kJ/mol
# GULP energy per Si atom -12391.393505 kJ/mol
# Density = 2.517743 g / cm^3
# Si number density = 25.234870 Si / 1000 Ang^3
#
#
#
# Elastic Constant Matrix: (Units=GPa)
#
#
# Indices 1 2 3 4 5 6 
#
# 1 96.5495 15.4216 14.0206 0.0000 -26.0791 0.0000
# 2 15.4216 65.5252 25.1828 0.0000 -9.0738 0.0000
# 3 14.0206 25.1828 115.6869 0.0000 -8.1662 0.0000
# 4 0.0000 0.0000 0.0000 -140.7595 0.0000 203.9897
# 5 -26.0791 -9.0738 -8.1662 0.0000 48.9023 0.0000
# 6 0.0000 0.0000 0.0000 203.9897 0.0000 -237.7850
#
#
#
# Elastic Compliance Matrix: (Units=1/GPa)
#
#
# Indices 1 2 3 4 5 6 
#
# 1 0.012411 -0.001807 -0.000675 0.000000 0.006171 0.000000
# 2 -0.001807 0.017229 -0.003414 0.000000 0.001663 0.000000
# 3 -0.000675 -0.003414 0.009511 0.000000 0.000595 0.000000
# 4 0.000000 0.000000 0.000000 0.029207 0.000000 0.025056
# 5 0.006171 0.001663 0.000595 0.000000 0.024148 0.000000
# 6 0.000000 0.000000 0.000000 0.025056 0.000000 0.017290
#
#
# Mechanical properties :
#
#
# Convention : Reuss Voigt Hill
#
# Bulk Modulus (GPa) = 36.55184 43.00128 39.77656
# Shear Modulus (GPa) = 38.25355 -51.05267 -6.39956
#
# Velocity S-wave (km/s) = 3.89768 -4.50277 -1.59421
# Velocity P-wave (km/s) = 5.89678 3.15528 3.52251
#
# Compressibility (1/GPa) = 0.02735840
#
# Stress axis : x y z
#
# Youngs Moduli (GPa) = 80.57511 58.04183 105.14147
#
# Poissons Ratio (x) = 0.10488 0.07099
# Poissons Ratio (y) = 0.14559 0.35895
# Poissons Ratio (z) = 0.05441 0.19816
#
# Static dielectric constant tensor:
#      x y z
#    x 4.624070 0.000000 -0.683000 
#    y 0.000000 5.396680 0.000000 
#    z -0.683000 0.000000 4.282260 
# 
# 
# High freq. dielectric constant tensor:
#      x y z
#    x 2.019610 0.000000 -0.038080 
#    y 0.000000 2.029200 0.000000 
#    z -0.038080 0.000000 2.003420 
# 
# From -- ./inp_files/6516.got.cif
#   From: 2010.06.25/outbox.cif.g09.slc.cpg/sg15_4_cif.got.tgz:6516.got - 2010.06.28 07:06:18.
