data_PCOD8154227
_publ_section_title
;
Structure prediction by ZEFSAII (Michael W. Deem and Ramdas Pophale) SiO2 
 PCOD8154227
Probable space group: C 2/C
;
_chemical_formula_sum "Si O2"
_cell_formula_units_Z 52
_cell_length_a 8.469553
_cell_length_b 29.641063
_cell_length_c 14.509809
_cell_angle_alpha 90.000000
_cell_angle_beta 37.953395
_cell_angle_gamma 90.000000
_cell_volume 2240.296022
_symmetry_space_group_name_H-M "C 2/C"
_symmetry_group_IT_number 15
_symmetry_cell_setting 'monoclinic'
loop_
_space_group_symop_operation_xyz
x,y,z
-x,y,1/2-z
-x,-y,-z
x,-y,1/2+z
1/2+x,1/2+y,z
1/2-x,1/2+y,1/2-z
1/2-x,1/2-y,-z
1/2+x,1/2-y,1/2+z
loop_
_atom_site_type_symbol
_atom_site_label
_atom_site_fract_x
_atom_site_fract_y
_atom_site_fract_z
Si Si1 0.769367 0.540461 0.684766
Si Si2 0.125273 0.202052 0.420501
Si Si3 0.135510 0.789632 0.273386
Si Si4 0.000000 0.412226 0.250000
Si Si5 0.093558 0.437608 0.870350
Si Si6 0.834605 0.662108 0.951532
Si Si7 0.500000 0.379077 0.750000
Si Si8 0.000000 0.620962 0.250000
O O1 0.500000 0.540614 0.750000
O O2 0.797457 0.561515 0.774904
O O3 0.866083 0.490393 0.662417
O O4 0.962225 0.568694 0.530905
O O5 0.291285 0.239185 0.291312
O O6 0.257222 0.153527 0.343362
O O7 0.079123 0.213894 0.548490
O O8 0.842951 0.201573 0.506708
O O9 0.376381 0.820372 0.187017
O O10 0.000000 0.814477 0.250000
O O11 0.187925 0.382334 0.100750
O O12 0.366404 0.412260 0.738312
O O13 0.927611 0.412887 0.867524
O O14 0.725457 0.651731 0.103444
#
# Coordination Sequence:
#
# PCOD8154227 Si02
#       8
#     8   8   8   4   8   8   4   4
#     4  11  26  46  77 110 155 198 249 312 387 452
#     4  12  27  48  71 107 146 191 255 300 384 447
#     4  12  28  47  74 104 147 191 246 316 373 452
#     4  12  25  48  69 116 146 192 254 311 371 456
#     4  11  25  47  70 111 146 198 249 305 378 458
#     4  12  27  46  72 104 146 193 250 305 382 442
#     4  12  24  46  71 100 149 187 244 307 364 460
#     4  12  27  46  76 106 151 201 254 318 369 448
#
# _framework density 23.211217999999999
#
# number of rings (size 3 to 8) (size 9 to 14) (size 15 to 20)
#    0.000    0.308    6.154    1.385    6.462    0.615 
#    0.000    3.077    0.000    0.000    0.000    0.000 
#    0.000    0.000    0.000    0.000    0.000    0.000 
#
# Total GULP energy -322155.040762 kJ/mol
# GULP energy per Si atom -12390.578491 kJ/mol
# Density = 2.315839 g / cm^3
# Si number density = 23.211218 Si / 1000 Ang^3
#
#
#
# Elastic Constant Matrix: (Units=GPa)
#
#
# Indices 1 2 3 4 5 6 
#
# 1 120.5926 47.8024 26.2115 0.0000 6.0938 0.0000
# 2 47.8024 103.3386 52.8965 0.0000 18.6438 0.0000
# 3 26.2115 52.8965 107.7681 0.0000 18.0880 0.0000
# 4 0.0000 0.0000 0.0000 30.0814 0.0000 3.8910
# 5 6.0938 18.6438 18.0880 0.0000 43.4080 0.0000
# 6 0.0000 0.0000 0.0000 3.8910 0.0000 40.9888
#
#
#
# Elastic Compliance Matrix: (Units=1/GPa)
#
#
# Indices 1 2 3 4 5 6 
#
# 1 0.010178 -0.004685 -0.000295 0.000000 0.000706 0.000000
# 2 -0.004685 0.015487 -0.005867 0.000000 -0.003550 0.000000
# 3 -0.000295 -0.005867 0.012688 0.000000 -0.002726 0.000000
# 4 0.000000 0.000000 0.000000 0.033656 0.000000 -0.003195
# 5 0.000706 -0.003550 -0.002726 0.000000 0.025599 0.000000
# 6 0.000000 0.000000 0.000000 -0.003195 0.000000 0.024700
#
#
# Mechanical properties :
#
#
# Convention : Reuss Voigt Hill
#
# Bulk Modulus (GPa) = 60.01887 65.05777 62.53832
# Shear Modulus (GPa) = 33.43292 36.54824 34.99058
#
# Velocity S-wave (km/s) = 3.79935 3.97242 3.88685
# Velocity P-wave (km/s) = 6.72016 7.00925 6.86623
#
# Compressibility (1/GPa) = 0.01666143
#
# Stress axis : x y z
#
# Youngs Moduli (GPa) = 98.25420 64.56920 78.81543
#
# Poissons Ratio (x) = 0.30248 0.02322
# Poissons Ratio (y) = 0.46028 0.46237
# Poissons Ratio (z) = 0.02894 0.37880
#
# Static dielectric constant tensor:
#      x y z
#    x 4.471970 0.000000 0.049400 
#    y 0.000000 4.075210 0.000000 
#    z 0.049400 0.000000 4.153930 
# 
# 
# High freq. dielectric constant tensor:
#      x y z
#    x 1.930220 0.000000 0.002640 
#    y 0.000000 1.920890 0.000000 
#    z 0.002640 0.000000 1.918200 
# 
# From -- ./inp_files/139753.got.cif
#   From: 2010.06.25/outbox.cif.g09.slc.cpg/sg15_70_cif.got.tgz:139753.got - 2010.06.28 07:06:18.
