data_PCOD8154304
_publ_section_title
;
Structure prediction by ZEFSAII (Michael W. Deem and Ramdas Pophale) SiO2 
 PCOD8154304
Probable space group: C 2/C
;
_chemical_formula_sum "Si O2"
_cell_formula_units_Z 44
_cell_length_a 21.826752
_cell_length_b 11.145100
_cell_length_c 13.147541
_cell_angle_alpha 90.000000
_cell_angle_beta 36.889836
_cell_angle_gamma 90.000000
_cell_volume 1919.863277
_symmetry_space_group_name_H-M "C 2/C"
_symmetry_group_IT_number 15
_symmetry_cell_setting 'monoclinic'
loop_
_space_group_symop_operation_xyz
x,y,z
-x,y,1/2-z
-x,-y,-z
x,-y,1/2+z
1/2+x,1/2+y,z
1/2-x,1/2+y,1/2-z
1/2-x,1/2-y,-z
1/2+x,1/2-y,1/2+z
loop_
_atom_site_type_symbol
_atom_site_label
_atom_site_fract_x
_atom_site_fract_y
_atom_site_fract_z
Si Si1 0.037993 0.858858 0.053254
Si Si2 0.859581 0.692308 0.367035
Si Si3 0.695012 0.167609 0.848560
Si Si4 0.000000 0.311538 0.250000
Si Si5 0.092018 0.535423 0.808142
Si Si6 0.422026 0.629242 0.506103
O O1 0.152245 0.803961 0.905216
O O2 0.054693 0.995705 0.066887
O O3 0.951347 0.790601 0.236236
O O4 0.008142 0.844442 0.974963
O O5 0.750000 0.750000 0.500000
O O6 0.863741 0.621269 0.471173
O O7 0.861515 0.592431 0.279112
O O8 0.671195 0.105280 0.773463
O O9 0.815142 0.150691 0.705752
O O10 0.936277 0.391059 0.255392
O O11 0.923474 0.224557 0.412720
O O12 0.000000 0.500000 0.000000
#
# Coordination Sequence:
#
# PCOD8154304 Si02
#       6
#     8   8   8   4   8   8
#     4  11  25  50  74 110 156 194 254 316 378 446
#     4  12  26  47  80 112 148 205 255 305 386 454
#     4  12  26  47  76 110 144 205 256 303 379 460
#     4  12  26  50  72 110 156 196 250 314 396 438
#     4  12  26  47  75 106 152 199 250 317 370 455
#     4  11  27  48  75 111 154 197 250 320 375 462
#
# _framework density 22.918298
#
# number of rings (size 3 to 8) (size 9 to 14) (size 15 to 20)
#    0.000    0.364    5.455    1.636    5.091    2.182 
#    0.000    0.000    0.000    0.000    0.000    0.000 
#    0.000    0.000    0.000    0.000    0.000    0.000 
#
# Total GULP energy -272590.631398 kJ/mol
# GULP energy per Si atom -12390.483245 kJ/mol
# Density = 2.286613 g / cm^3
# Si number density = 22.918298 Si / 1000 Ang^3
#
#
#
# Elastic Constant Matrix: (Units=GPa)
#
#
# Indices 1 2 3 4 5 6 
#
# 1 97.2907 39.7537 28.1124 0.0000 9.6531 0.0000
# 2 39.7537 126.4624 72.8811 0.0000 -0.1634 0.0000
# 3 28.1124 72.8811 133.2556 0.0000 7.7701 0.0000
# 4 0.0000 0.0000 0.0000 41.4507 0.0000 6.7443
# 5 9.6531 -0.1634 7.7701 0.0000 38.7216 0.0000
# 6 0.0000 0.0000 0.0000 6.7443 0.0000 38.4576
#
#
#
# Elastic Compliance Matrix: (Units=1/GPa)
#
#
# Indices 1 2 3 4 5 6 
#
# 1 0.012159 -0.003573 -0.000438 0.000000 -0.002958 0.000000
# 2 -0.003573 0.012666 -0.006302 0.000000 0.002209 0.000000
# 3 -0.000438 -0.006302 0.011169 0.000000 -0.002159 0.000000
# 4 0.000000 0.000000 0.000000 0.024834 0.000000 -0.004355
# 5 -0.002958 0.002209 -0.002159 0.000000 0.027005 0.000000
# 6 0.000000 0.000000 0.000000 -0.004355 0.000000 0.026766
#
#
# Mechanical properties :
#
#
# Convention : Reuss Voigt Hill
#
# Bulk Modulus (GPa) = 65.07698 70.94479 68.01088
# Shear Modulus (GPa) = 35.62554 38.14341 36.88448
#
# Velocity S-wave (km/s) = 3.94694 4.08404 4.01607
# Velocity P-wave (km/s) = 7.01626 7.29807 7.15855
#
# Compressibility (1/GPa) = 0.01536642
#
# Stress axis : x y z
#
# Youngs Moduli (GPa) = 82.24551 78.95409 89.52967
#
# Poissons Ratio (x) = 0.28214 0.03923
# Poissons Ratio (y) = 0.29390 0.56422
# Poissons Ratio (z) = 0.03604 0.49758
#
# Static dielectric constant tensor:
#      x y z
#    x 3.891830 0.000000 0.151520 
#    y 0.000000 4.214270 0.000000 
#    z 0.151520 0.000000 4.131580 
# 
# 
# High freq. dielectric constant tensor:
#      x y z
#    x 1.925820 0.000000 0.015570 
#    y 0.000000 1.907040 0.000000 
#    z 0.015570 0.000000 1.905540 
# 
# From -- ./inp_files/177511.got.cif
#   From: 2010.06.25/outbox.cif.g09.slc.cpg/sg15_89_cif.got.tgz:177511.got - 2010.06.28 07:06:18.
