data_PCOD8154559
_publ_section_title
;
Structure prediction by ZEFSAII (Michael W. Deem and Ramdas Pophale) SiO2 
 PCOD8154559
Probable space group: C 2/C
;
_chemical_formula_sum "Si O2"
_cell_formula_units_Z 44
_cell_length_a 20.086590
_cell_length_b 9.144233
_cell_length_c 14.213548
_cell_angle_alpha 90.000000
_cell_angle_beta 130.032525
_cell_angle_gamma 90.000000
_cell_volume 1998.954822
_symmetry_space_group_name_H-M "C 2/C"
_symmetry_group_IT_number 15
_symmetry_cell_setting 'monoclinic'
loop_
_space_group_symop_operation_xyz
x,y,z
-x,y,1/2-z
-x,-y,-z
x,-y,1/2+z
1/2+x,1/2+y,z
1/2-x,1/2+y,1/2-z
1/2-x,1/2-y,-z
1/2+x,1/2-y,1/2+z
loop_
_atom_site_type_symbol
_atom_site_label
_atom_site_fract_x
_atom_site_fract_y
_atom_site_fract_z
Si Si1 0.987202 0.641438 0.549723
Si Si2 0.679149 0.834957 0.272246
Si Si3 0.447895 0.610596 0.887038
Si Si4 0.500000 0.239756 0.250000
Si Si5 0.132505 0.503017 0.911770
Si Si6 0.237204 0.014900 0.311454
O O1 0.081386 0.710885 0.655035
O O2 0.000000 0.500000 0.500000
O O3 0.927843 0.751189 0.435489
O O4 0.940542 0.602559 0.604516
O O5 0.738389 0.691019 0.317617
O O6 0.680126 0.898492 0.377874
O O7 0.718296 0.963713 0.244142
O O8 0.503975 0.659886 0.846994
O O9 0.359737 0.544179 0.767028
O O10 0.500000 0.500000 0.000000
O O11 0.413457 0.139184 0.175060
O O12 0.205759 0.449996 0.051454
#
# Coordination Sequence:
#
# PCOD8154559 Si02
#       6
#     8   8   8   4   8   8
#     4  12  21  48  75 100 140 197 240 288 362 435
#     4  12  25  46  72 106 146 193 237 302 365 425
#     4  12  27  47  72 107 150 185 242 306 361 427
#     4  12  26  46  78 108 138 204 240 294 370 440
#     4  12  25  46  78 103 142 194 249 291 358 445
#     4  12  28  45  72 109 147 185 242 305 360 427
#
# _framework density 22.011503999999999
#
# number of rings (size 3 to 8) (size 9 to 14) (size 15 to 20)
#    0.000    0.000    7.273    1.636    2.545    3.636 
#    0.000    0.000    0.000    0.000    0.000    0.000 
#    0.000    0.000    0.000    0.000    0.000    0.000 
#
# Total GULP energy -272910.779488 kJ/mol
# GULP energy per Si atom -12405.035431 kJ/mol
# Density = 2.196140 g / cm^3
# Si number density = 22.011504 Si / 1000 Ang^3
#
#
#
# Elastic Constant Matrix: (Units=GPa)
#
#
# Indices 1 2 3 4 5 6 
#
# 1 114.4711 56.7813 39.0148 0.0000 -20.6015 0.0000
# 2 56.7813 124.8024 49.6006 0.0000 -16.6907 0.0000
# 3 39.0148 49.6006 116.5927 0.0000 -1.4787 0.0000
# 4 0.0000 0.0000 0.0000 45.2652 0.0000 -3.0345
# 5 -20.6015 -16.6907 -1.4787 0.0000 53.8003 0.0000
# 6 0.0000 0.0000 0.0000 -3.0345 0.0000 40.4302
#
#
#
# Elastic Compliance Matrix: (Units=1/GPa)
#
#
# Indices 1 2 3 4 5 6 
#
# 1 0.012182 -0.004210 -0.002244 0.000000 0.003297 0.000000
# 2 -0.004210 0.011566 -0.003488 0.000000 0.001880 0.000000
# 3 -0.002244 -0.003488 0.010791 0.000000 -0.001645 0.000000
# 4 0.000000 0.000000 0.000000 0.022204 0.000000 0.001667
# 5 0.003297 0.001880 -0.001645 0.000000 0.020388 0.000000
# 6 0.000000 0.000000 0.000000 0.001667 0.000000 0.024859
#
#
# Mechanical properties :
#
#
# Convention : Reuss Voigt Hill
#
# Bulk Modulus (GPa) = 68.23199 71.85107 70.04153
# Shear Modulus (GPa) = 39.44570 41.93044 40.68807
#
# Velocity S-wave (km/s) = 4.23785 4.36929 4.30407
# Velocity P-wave (km/s) = 7.41697 7.62677 7.52260
#
# Compressibility (1/GPa) = 0.01465588
#
# Stress axis : x y z
#
# Youngs Moduli (GPa) = 82.08737 86.46366 92.67400
#
# Poissons Ratio (x) = 0.36400 0.20793
# Poissons Ratio (y) = 0.34557 0.32321
# Poissons Ratio (z) = 0.18418 0.30155
#
# Static dielectric constant tensor:
#      x y z
#    x 4.037950 0.000000 0.228250 
#    y 0.000000 3.719540 0.000000 
#    z 0.228250 0.000000 4.296680 
# 
# 
# High freq. dielectric constant tensor:
#      x y z
#    x 1.865670 0.000000 -0.001380 
#    y 0.000000 1.866470 0.000000 
#    z -0.001380 0.000000 1.882910 
# 
# From -- ./inp_files/159802.got.cif
#   From: 2010.06.25/outbox.cif.g09.slc.cpg/sg15_80_cif.got.tgz:159802.got - 2010.06.28 07:06:18.
