data_PCOD8154558
_publ_section_title
;
Structure prediction by ZEFSAII (Michael W. Deem and Ramdas Pophale) SiO2 
 PCOD8154558
Probable space group: C 2/C
;
_chemical_formula_sum "Si O2"
_cell_formula_units_Z 52
_cell_length_a 8.947461
_cell_length_b 16.103045
_cell_length_c 19.186032
_cell_angle_alpha 90.000000
_cell_angle_beta 120.752173
_cell_angle_gamma 90.000000
_cell_volume 2375.646267
_symmetry_space_group_name_H-M "C 2/C"
_symmetry_group_IT_number 15
_symmetry_cell_setting 'monoclinic'
loop_
_space_group_symop_operation_xyz
x,y,z
-x,y,1/2-z
-x,-y,-z
x,-y,1/2+z
1/2+x,1/2+y,z
1/2-x,1/2+y,1/2-z
1/2-x,1/2-y,-z
1/2+x,1/2-y,1/2+z
loop_
_atom_site_type_symbol
_atom_site_label
_atom_site_fract_x
_atom_site_fract_y
_atom_site_fract_z
Si Si1 0.000000 0.724602 0.250000
Si Si2 0.965364 0.017818 0.071726
Si Si3 0.631630 0.130438 0.151562
Si Si4 0.166689 0.681247 0.653893
Si Si5 0.354570 0.298309 0.584210
Si Si6 0.622554 0.075854 0.513814
Si Si7 0.826764 0.972109 0.250791
O O1 0.895036 0.670921 0.280471
O O2 0.851426 0.778338 0.177414
O O3 0.907109 0.112366 0.066415
O O4 0.820231 0.952574 0.060854
O O5 0.133965 0.998309 0.159944
O O6 0.000000 0.000000 0.000000
O O7 0.739709 0.190879 0.126272
O O8 0.736696 0.045547 0.186304
O O9 0.439522 0.114100 0.074428
O O10 0.089788 0.644313 0.564681
O O11 0.200330 0.608530 0.719412
O O12 0.026545 0.747590 0.648599
O O13 0.250000 0.250000 0.500000
O O14 0.500000 0.000000 0.500000
O O15 0.000000 0.949617 0.250000
#
# Coordination Sequence:
#
# PCOD8154558 Si02
#       7
#     4   8   8   8   8   8   8
#     4  12  30  44  66 112 144 190 238 304 364 422
#     4  12  27  45  72 106 145 192 244 289 364 442
#     4  12  27  47  73 102 147 192 243 290 367 436
#     4  12  24  45  74 104 141 185 242 298 373 418
#     4  12  25  46  73 110 145 185 239 308 369 425
#     4  12  21  47  74 100 136 191 241 292 348 439
#     4  12  22  49  76  97 140 199 238 292 358 434
#
# _framework density 21.888781000000002
#
# number of rings (size 3 to 8) (size 9 to 14) (size 15 to 20)
#    0.000    0.000    8.462    0.923    4.308    3.077 
#    0.000    3.077    0.000    0.000    0.000    0.000 
#    0.000    0.000    0.000    0.000    0.000    0.000 
#
# Total GULP energy -322461.541731 kJ/mol
# GULP energy per Si atom -12402.366990 kJ/mol
# Density = 2.183896 g / cm^3
# Si number density = 21.888781 Si / 1000 Ang^3
#
#
#
# Elastic Constant Matrix: (Units=GPa)
#
#
# Indices 1 2 3 4 5 6 
#
# 1 97.7528 55.9083 42.0491 0.0000 -5.0469 0.0000
# 2 55.9083 121.1183 48.5697 0.0000 -0.2559 0.0000
# 3 42.0491 48.5697 145.6123 0.0000 1.3322 0.0000
# 4 0.0000 0.0000 0.0000 44.8697 0.0000 14.7241
# 5 -5.0469 -0.2559 1.3322 0.0000 44.6874 0.0000
# 6 0.0000 0.0000 0.0000 14.7241 0.0000 33.4865
#
#
#
# Elastic Compliance Matrix: (Units=1/GPa)
#
#
# Indices 1 2 3 4 5 6 
#
# 1 0.014642 -0.005834 -0.002298 0.000000 0.001689 0.000000
# 2 -0.005834 0.011857 -0.002265 0.000000 -0.000523 0.000000
# 3 -0.002298 -0.002265 0.008291 0.000000 -0.000520 0.000000
# 4 0.000000 0.000000 0.000000 0.026045 0.000000 -0.011452
# 5 0.001689 -0.000523 -0.000520 0.000000 0.022581 0.000000
# 6 0.000000 0.000000 0.000000 -0.011452 0.000000 0.034898
#
#
# Mechanical properties :
#
#
# Convention : Reuss Voigt Hill
#
# Bulk Modulus (GPa) = 71.44805 73.05972 72.25388
# Shear Modulus (GPa) = 34.77699 39.13915 36.95807
#
# Velocity S-wave (km/s) = 3.99031 4.23317 4.11353
# Velocity P-wave (km/s) = 7.34454 7.57253 7.45941
#
# Compressibility (1/GPa) = 0.01399618
#
# Stress axis : x y z
#
# Youngs Moduli (GPa) = 68.29657 84.34120 120.60559
#
# Poissons Ratio (x) = 0.49203 0.27713
# Poissons Ratio (y) = 0.39843 0.27322
# Poissons Ratio (z) = 0.15693 0.19107
#
# Static dielectric constant tensor:
#      x y z
#    x 4.979170 0.000000 1.113440 
#    y 0.000000 4.173950 0.000000 
#    z 1.113440 0.000000 4.838740 
# 
# 
# High freq. dielectric constant tensor:
#      x y z
#    x 1.843570 0.000000 0.018350 
#    y 0.000000 1.874180 0.000000 
#    z 0.018350 0.000000 1.881730 
# 
# From -- ./inp_files/191149.got.cif
#   From: 2010.06.25/outbox.cif.g09.slc.cpg/sg15_96_cif.got.tgz:191149.got - 2010.06.28 07:06:18.
