data_PCOD8154406
_publ_section_title
;
Structure prediction by ZEFSAII (Michael W. Deem and Ramdas Pophale) SiO2 
 PCOD8154406
Probable space group: C 2/C
;
_chemical_formula_sum "Si O2"
_cell_formula_units_Z 44
_cell_length_a 16.029946
_cell_length_b 8.207618
_cell_length_c 13.966860
_cell_angle_alpha 90.000000
_cell_angle_beta 77.555266
_cell_angle_gamma 90.000000
_cell_volume 1794.411920
_symmetry_space_group_name_H-M "C 2/C"
_symmetry_group_IT_number 15
_symmetry_cell_setting 'monoclinic'
loop_
_space_group_symop_operation_xyz
x,y,z
-x,y,1/2-z
-x,-y,-z
x,-y,1/2+z
1/2+x,1/2+y,z
1/2-x,1/2+y,1/2-z
1/2-x,1/2-y,-z
1/2+x,1/2-y,1/2+z
loop_
_atom_site_type_symbol
_atom_site_label
_atom_site_fract_x
_atom_site_fract_y
_atom_site_fract_z
Si Si1 0.262333 0.126606 0.203172
Si Si2 0.230455 0.025206 0.896181
Si Si3 0.929034 0.570090 0.644013
Si Si4 0.000000 0.167780 0.250000
Si Si5 0.899792 0.603345 0.431949
Si Si6 0.370499 0.468083 0.398580
O O1 0.221517 0.120334 0.320306
O O2 0.266117 0.307863 0.163131
O O3 0.357903 0.058319 0.192770
O O4 0.210619 0.008734 0.146211
O O5 0.315805 0.007525 0.938889
O O6 0.149221 0.021317 0.986968
O O7 0.926902 0.725507 0.715508
O O8 0.917245 0.630422 0.539138
O O9 0.021269 0.487046 0.636888
O O10 0.045051 0.060014 0.157546
O O11 0.885818 0.776563 0.385582
#
# Coordination Sequence:
#
# PCOD8154406 Si02
#       6
#     8   8   8   4   8   8
#     4  12  26  46  80 110 151 201 253 302 380 446
#     4  12  27  48  78 113 155 199 252 311 373 452
#     4  11  26  49  74 108 151 199 246 312 373 448
#     4  12  30  50  76 112 154 198 260 308 384 446
#     4  11  26  48  76 105 153 198 246 309 382 432
#     4  12  28  49  77 111 150 199 254 316 366 452
#
# _framework density 24.520568000000001
#
# number of rings (size 3 to 8) (size 9 to 14) (size 15 to 20)
#    0.000    0.364    1.818    5.455   10.182    4.364 
#    0.000    0.000    0.000    0.000    0.000    0.000 
#    0.000    0.000    0.000    0.000    0.000    0.000 
#
# Total GULP energy -272982.008459 kJ/mol
# GULP energy per Si atom -12408.273112 kJ/mol
# Density = 2.446476 g / cm^3
# Si number density = 24.520568 Si / 1000 Ang^3
#
#
#
# Elastic Constant Matrix: (Units=GPa)
#
#
# Indices 1 2 3 4 5 6 
#
# 1 91.8968 55.1000 44.3883 0.0000 -9.9100 0.0000
# 2 55.1000 130.6097 52.5292 0.0000 -8.2690 0.0000
# 3 44.3883 52.5292 163.5218 0.0000 -28.9595 0.0000
# 4 0.0000 0.0000 0.0000 35.1585 0.0000 4.9273
# 5 -9.9100 -8.2690 -28.9595 0.0000 31.0444 0.0000
# 6 0.0000 0.0000 0.0000 4.9273 0.0000 34.8677
#
#
#
# Elastic Compliance Matrix: (Units=1/GPa)
#
#
# Indices 1 2 3 4 5 6 
#
# 1 0.015395 -0.005541 -0.002144 0.000000 0.001438 0.000000
# 2 -0.005541 0.010790 -0.002116 0.000000 -0.000869 0.000000
# 3 -0.002144 -0.002116 0.008572 0.000000 0.006749 0.000000
# 4 0.000000 0.000000 0.000000 0.029017 0.000000 -0.004101
# 5 0.001438 -0.000869 0.006749 0.000000 0.038735 0.000000
# 6 0.000000 0.000000 0.000000 -0.004101 0.000000 0.029259
#
#
# Mechanical properties :
#
#
# Convention : Reuss Voigt Hill
#
# Bulk Modulus (GPa) = 65.98583 76.67369 71.32976
# Shear Modulus (GPa) = 31.96461 35.81485 33.88973
#
# Velocity S-wave (km/s) = 3.61443 3.82593 3.72169
# Velocity P-wave (km/s) = 6.66241 7.13120 6.90079
#
# Compressibility (1/GPa) = 0.01515477
#
# Stress axis : x y z
#
# Youngs Moduli (GPa) = 64.95605 92.67838 116.65508
#
# Poissons Ratio (x) = 0.51355 0.25014
# Poissons Ratio (y) = 0.35994 0.24682
# Poissons Ratio (z) = 0.13928 0.19609
#
# Static dielectric constant tensor:
#      x y z
#    x 4.457750 0.000000 0.014860 
#    y 0.000000 4.268350 0.000000 
#    z 0.014860 0.000000 4.708960 
# 
# 
# High freq. dielectric constant tensor:
#      x y z
#    x 1.980180 0.000000 0.002620 
#    y 0.000000 1.976310 0.000000 
#    z 0.002620 0.000000 1.998360 
# 
# From -- ./inp_files/159288.got.cif
#   From: 2010.06.25/outbox.cif.g09.slc.cpg/sg15_80_cif.got.tgz:159288.got - 2010.06.28 07:06:18.
