data_PCOD8154960
_publ_section_title
;
Structure prediction by ZEFSAII (Michael W. Deem and Ramdas Pophale) SiO2 
 PCOD8154960
Probable space group: C 2/C
;
_chemical_formula_sum "Si O2"
_cell_formula_units_Z 36
_cell_length_a 16.145909
_cell_length_b 8.349973
_cell_length_c 10.854011
_cell_angle_alpha 90.000000
_cell_angle_beta 107.665092
_cell_angle_gamma 90.000000
_cell_volume 1394.314648
_symmetry_space_group_name_H-M "C 2/C"
_symmetry_group_IT_number 15
_symmetry_cell_setting 'monoclinic'
loop_
_space_group_symop_operation_xyz
x,y,z
-x,y,1/2-z
-x,-y,-z
x,-y,1/2+z
1/2+x,1/2+y,z
1/2-x,1/2+y,1/2-z
1/2-x,1/2-y,-z
1/2+x,1/2-y,1/2+z
loop_
_atom_site_type_symbol
_atom_site_label
_atom_site_fract_x
_atom_site_fract_y
_atom_site_fract_z
Si Si1 0.625312 0.685170 0.201319
Si Si2 0.500000 0.930555 0.250000
Si Si3 0.296567 0.830829 0.905622
Si Si4 0.386263 0.865149 0.540454
Si Si5 0.092422 0.174339 0.733522
O O1 0.585852 0.824305 0.269447
O O2 0.729046 0.679691 0.261814
O O3 0.591353 0.515584 0.233482
O O4 0.593239 0.724531 0.048774
O O5 0.525796 0.035982 0.381706
O O6 0.382598 0.738217 0.892847
O O7 0.250000 0.750000 0.000000
O O8 0.316634 0.014459 0.948051
O O9 0.345589 0.770529 0.640719
O O10 0.000000 0.228106 0.750000
#
# Coordination Sequence:
#
# PCOD8154960 Si02
#       5
#     8   4   8   8   8
#     4  12  28  49  81 119 169 220 278 339 413 497
#     4  12  24  50  80 126 156 226 268 348 416 494
#     4  12  29  52  81 121 167 219 279 338 419 494
#     4  12  28  51  83 117 169 215 279 338 421 492
#     4  12  30  52  83 125 161 223 275 344 419 491
#
# _framework density 25.819136
#
# number of rings (size 3 to 8) (size 9 to 14) (size 15 to 20)
#    0.000    0.000    4.444    3.333    9.333    2.667 
#    0.000    0.000    0.000    0.000    0.000    0.000 
#    0.000    0.000    0.000    0.000    0.000    0.000 
#
# Total GULP energy -223004.044598 kJ/mol
# GULP energy per Si atom -12389.113589 kJ/mol
# Density = 2.576037 g / cm^3
# Si number density = 25.819136 Si / 1000 Ang^3
#
#
#
# Elastic Constant Matrix: (Units=GPa)
#
#
# Indices 1 2 3 4 5 6 
#
# 1 126.7350 56.1818 60.0856 0.0000 -19.4875 0.0000
# 2 56.1818 195.2495 78.2565 0.0000 0.0663 0.0000
# 3 60.0856 78.2565 136.1496 0.0000 -10.7724 0.0000
# 4 0.0000 0.0000 0.0000 60.7398 0.0000 0.1853
# 5 -19.4875 0.0663 -10.7724 0.0000 52.1500 0.0000
# 6 0.0000 0.0000 0.0000 0.1853 0.0000 31.7260
#
#
#
# Elastic Compliance Matrix: (Units=1/GPa)
#
#
# Indices 1 2 3 4 5 6 
#
# 1 0.010833 -0.001699 -0.003542 0.000000 0.003319 0.000000
# 2 -0.001699 0.006955 -0.003354 0.000000 -0.001336 0.000000
# 3 -0.003542 -0.003354 0.010910 0.000000 0.000934 0.000000
# 4 0.000000 0.000000 0.000000 0.016464 0.000000 -0.000096
# 5 0.003319 -0.001336 0.000934 0.000000 0.020610 0.000000
# 6 0.000000 0.000000 0.000000 -0.000096 0.000000 0.031520
#
#
# Mechanical properties :
#
#
# Convention : Reuss Voigt Hill
#
# Bulk Modulus (GPa) = 86.88802 94.13133 90.50968
# Shear Modulus (GPa) = 42.25924 46.49716 44.37820
#
# Velocity S-wave (km/s) = 4.05005 4.24828 4.15035
# Velocity P-wave (km/s) = 7.45629 7.78466 7.62224
#
# Compressibility (1/GPa) = 0.01150907
#
# Stress axis : x y z
#
# Youngs Moduli (GPa) = 92.31037 143.77994 91.66263
#
# Poissons Ratio (x) = 0.24423 0.32466
# Poissons Ratio (y) = 0.15680 0.30741
# Poissons Ratio (z) = 0.32695 0.48220
#
# Static dielectric constant tensor:
#      x y z
#    x 4.613050 0.000000 0.079470 
#    y 0.000000 4.856290 0.000000 
#    z 0.079470 0.000000 5.000290 
# 
# 
# High freq. dielectric constant tensor:
#      x y z
#    x 2.022140 0.000000 -0.004990 
#    y 0.000000 2.052860 0.000000 
#    z -0.004990 0.000000 2.037230 
# 
# From -- ./inp_files/102526.got.cif
#   From: 2010.06.25/outbox.cif.g09.slc.cpg/sg15_52_cif.got.tgz:102526.got - 2010.06.28 07:06:18.
