data_PCOD8154625
_publ_section_title
;
Structure prediction by ZEFSAII (Michael W. Deem and Ramdas Pophale) SiO2 
 PCOD8154625
Probable space group: C 2/C
;
_chemical_formula_sum "Si O2"
_cell_formula_units_Z 48
_cell_length_a 18.923724
_cell_length_b 16.218248
_cell_length_c 16.798287
_cell_angle_alpha 90.000000
_cell_angle_beta 152.856669
_cell_angle_gamma 90.000000
_cell_volume 2352.057701
_symmetry_space_group_name_H-M "C 2/C"
_symmetry_group_IT_number 15
_symmetry_cell_setting 'monoclinic'
loop_
_space_group_symop_operation_xyz
x,y,z
-x,y,1/2-z
-x,-y,-z
x,-y,1/2+z
1/2+x,1/2+y,z
1/2-x,1/2+y,1/2-z
1/2-x,1/2-y,-z
1/2+x,1/2-y,1/2+z
loop_
_atom_site_type_symbol
_atom_site_label
_atom_site_fract_x
_atom_site_fract_y
_atom_site_fract_z
Si Si1 0.851056 0.704424 0.933400
Si Si2 0.910879 0.419340 0.883929
Si Si3 0.590091 0.489719 0.507834
Si Si4 0.761402 0.715367 0.335391
Si Si5 0.458355 0.658687 0.116468
Si Si6 0.044796 0.840426 0.205633
O O1 0.771141 0.718545 0.767526
O O2 0.723386 0.682417 0.871200
O O3 0.974982 0.630324 0.060218
O O4 0.934972 0.789419 0.036999
O O5 0.754240 0.444420 0.682318
O O6 0.874195 0.358371 0.920628
O O7 0.000000 0.500000 0.000000
O O8 0.500000 0.500000 0.500000
O O9 0.622114 0.575837 0.496265
O O10 0.481541 0.436137 0.340862
O O11 0.608047 0.672829 0.212939
O O12 0.841983 0.764863 0.488033
O O13 0.500000 0.650129 0.250000
O O14 0.000000 0.818919 0.250000
#
# Coordination Sequence:
#
# PCOD8154625 Si02
#       6
#     8   8   8   8   8   8
#     4  12  22  43  68  98 129 178 228 273 329 415
#     4  12  24  40  69  99 124 169 237 281 317 390
#     4  12  23  44  68  96 131 180 228 276 329 408
#     4  12  22  44  70  95 127 178 229 273 325 411
#     4  12  26  43  67  99 138 174 221 285 345 388
#     4  12  24  41  66 100 138 173 217 283 346 394
#
# _framework density 20.407661999999998
#
# number of rings (size 3 to 8) (size 9 to 14) (size 15 to 20)
#    0.000    0.000    6.667    4.500    0.000    0.000 
#    0.000    0.000    0.000    0.000    0.000    0.000 
#    0.000    0.000    0.000    0.000    0.000    0.000 
#
# Total GULP energy -297743.661547 kJ/mol
# GULP energy per Si atom -12405.985898 kJ/mol
# Density = 2.036121 g / cm^3
# Si number density = 20.407662 Si / 1000 Ang^3
#
#
#
# Elastic Constant Matrix: (Units=GPa)
#
#
# Indices 1 2 3 4 5 6 
#
# 1 115.8738 30.3175 41.2331 0.0001 10.4492 0.0003
# 2 30.3175 131.2887 45.2788 0.0002 3.3274 0.0011
# 3 41.2331 45.2788 86.3787 -0.0002 5.2985 0.0018
# 4 0.0001 0.0002 -0.0002 48.7775 -0.0003 11.1939
# 5 10.4492 3.3274 5.2985 -0.0003 43.0835 0.0014
# 6 0.0003 0.0011 0.0018 11.1939 0.0014 27.2247
#
#
#
# Elastic Compliance Matrix: (Units=1/GPa)
#
#
# Indices 1 2 3 4 5 6 
#
# 1 0.010634 -0.000851 -0.004510 0.000000 -0.001959 0.000000
# 2 -0.000851 0.009366 -0.004506 0.000000 0.000037 0.000000
# 3 -0.004510 -0.004506 0.016125 0.000000 -0.000541 -0.000001
# 4 0.000000 0.000000 0.000000 0.022637 0.000000 -0.009308
# 5 -0.001959 0.000037 -0.000541 0.000000 0.023749 -0.000001
# 6 0.000000 0.000000 -0.000001 -0.009308 -0.000001 0.040558
#
#
# Mechanical properties :
#
#
# Convention : Reuss Voigt Hill
#
# Bulk Modulus (GPa) = 61.00527 63.02223 62.01375
# Shear Modulus (GPa) = 33.72267 38.26460 35.99364
#
# Velocity S-wave (km/s) = 4.06945 4.33484 4.20424
# Velocity P-wave (km/s) = 7.21379 7.48352 7.34989
#
# Compressibility (1/GPa) = 0.01639203
#
# Stress axis : x y z
#
# Youngs Moduli (GPa) = 94.03618 106.76593 62.01517
#
# Poissons Ratio (x) = 0.09081 0.27971
# Poissons Ratio (y) = 0.07998 0.27944
# Poissons Ratio (z) = 0.42413 0.48108
#
# Static dielectric constant tensor:
#      x y z
#    x 3.760200 -0.000020 0.211740 
#    y -0.000020 4.042550 -0.000010 
#    z 0.211740 -0.000010 3.810930 
# 
# 
# High freq. dielectric constant tensor:
#      x y z
#    x 1.792410 0.000000 0.017420 
#    y 0.000000 1.815950 0.000000 
#    z 0.017420 0.000000 1.799510 
# 
# From -- ./inp_files/163320.got.cif
#   From: 2010.06.25/outbox.cif.g09.slc.cpg/sg15_82_cif.got.tgz:163320.got - 2010.06.28 07:06:18.
