data_PCOD8154280
_publ_section_title
;
Structure prediction by ZEFSAII (Michael W. Deem and Ramdas Pophale) SiO2 
 PCOD8154280
Probable space group: C 2/C
;
_chemical_formula_sum "Si O2"
_cell_formula_units_Z 24
_cell_length_a 12.944515
_cell_length_b 5.383565
_cell_length_c 18.112957
_cell_angle_alpha 90.000000
_cell_angle_beta 133.137617
_cell_angle_gamma 90.000000
_cell_volume 921.080302
_symmetry_space_group_name_H-M "C 2/C"
_symmetry_group_IT_number 15
_symmetry_cell_setting 'monoclinic'
loop_
_space_group_symop_operation_xyz
x,y,z
-x,y,1/2-z
-x,-y,-z
x,-y,1/2+z
1/2+x,1/2+y,z
1/2-x,1/2+y,1/2-z
1/2-x,1/2-y,-z
1/2+x,1/2-y,1/2+z
loop_
_atom_site_type_symbol
_atom_site_label
_atom_site_fract_x
_atom_site_fract_y
_atom_site_fract_z
Si Si1 0.425826 0.524462 0.137437
Si Si2 0.874450 0.622432 0.483695
Si Si3 0.822223 0.166510 0.813157
O O1 0.500000 0.599667 0.250000
O O2 0.262057 0.441840 0.069910
O O3 0.516140 0.309190 0.140169
O O4 0.428532 0.769677 0.087136
O O5 0.000000 0.500000 0.500000
O O6 0.178850 0.158711 0.598245
O O7 0.762194 0.906274 0.755534
#
# Coordination Sequence:
#
# PCOD8154280 Si02
#       3
#     8   8   8
#     4  11  25  48  76 118 150 209 261 320 386 469
#     4  11  26  51  79 115 159 206 260 324 389 464
#     4  12  26  52  80 114 159 206 259 324 390 463
#
# _framework density 26.056360999999999
#
# number of rings (size 3 to 8) (size 9 to 14) (size 15 to 20)
#    0.000    0.667    3.333    3.000    0.000    1.333 
#   18.000    0.000    0.000    0.000    0.000    0.000 
#    0.000    0.000    0.000    0.000    0.000    0.000 
#
# Total GULP energy -148723.646468 kJ/mol
# GULP energy per Si atom -12393.637206 kJ/mol
# Density = 2.599706 g / cm^3
# Si number density = 26.056361 Si / 1000 Ang^3
#
#
#
# Elastic Constant Matrix: (Units=GPa)
#
#
# Indices 1 2 3 4 5 6 
#
# 1 183.1620 8.4745 17.0284 0.0000 31.1832 0.0000
# 2 8.4745 59.3585 -5.5612 -0.0001 12.1148 0.0002
# 3 17.0284 -5.5612 56.1312 0.0000 -16.0222 0.0000
# 4 0.0000 -0.0001 0.0000 9.7615 0.0000 0.1834
# 5 31.1832 12.1148 -16.0222 0.0000 69.3016 0.0000
# 6 0.0000 0.0002 0.0000 0.1834 0.0000 36.4605
#
#
#
# Elastic Compliance Matrix: (Units=1/GPa)
#
#
# Indices 1 2 3 4 5 6 
#
# 1 0.006345 -0.000478 -0.002959 0.000000 -0.003456 0.000000
# 2 -0.000478 0.017551 0.001145 0.000000 -0.002588 0.000000
# 3 -0.002959 0.001145 0.020502 0.000000 0.005871 0.000000
# 4 0.000000 0.000000 0.000000 0.102452 0.000000 -0.000515
# 5 -0.003456 -0.002588 0.005871 0.000000 0.017794 0.000000
# 6 0.000000 0.000000 0.000000 -0.000515 0.000000 0.027430
#
#
# Mechanical properties :
#
#
# Convention : Reuss Voigt Hill
#
# Bulk Modulus (GPa) = 25.11619 37.61502 31.36561
# Shear Modulus (GPa) = 23.81759 41.68539 32.75149
#
# Velocity S-wave (km/s) = 3.02665 4.00411 3.54919
# Velocity P-wave (km/s) = 4.67700 5.98703 5.37210
#
# Compressibility (1/GPa) = 0.03981496
#
# Stress axis : x y z
#
# Youngs Moduli (GPa) = 157.60137 56.97833 48.77511
#
# Poissons Ratio (x) = 0.02722 0.14431
# Poissons Ratio (y) = 0.07530 -0.05584
# Poissons Ratio (z) = 0.46628 -0.06524
#
# Static dielectric constant tensor:
#      x y z
#    x 5.953120 0.000000 -0.047850 
#    y 0.000000 4.166050 0.000000 
#    z -0.047850 0.000000 5.531680 
# 
# 
# High freq. dielectric constant tensor:
#      x y z
#    x 2.082830 0.000000 0.002930 
#    y 0.000000 1.992390 0.000000 
#    z 0.002930 0.000000 2.072490 
# 
# From -- ./inp_files/149353.got.cif
#   From: 2010.06.25/outbox.cif.g09.slc.cpg/sg15_75_cif.got.tgz:149353.got - 2010.06.28 07:06:18.
