data_PCOD8154649
_publ_section_title
;
Structure prediction by ZEFSAII (Michael W. Deem and Ramdas Pophale) SiO2 
 PCOD8154649
Probable space group: C 2/C
;
_chemical_formula_sum "Si O2"
_cell_formula_units_Z 36
_cell_length_a 13.205006
_cell_length_b 8.081221
_cell_length_c 15.995258
_cell_angle_alpha 90.000000
_cell_angle_beta 55.177907
_cell_angle_gamma 90.000000
_cell_volume 1401.239845
_symmetry_space_group_name_H-M "C 2/C"
_symmetry_group_IT_number 15
_symmetry_cell_setting 'monoclinic'
loop_
_space_group_symop_operation_xyz
x,y,z
-x,y,1/2-z
-x,-y,-z
x,-y,1/2+z
1/2+x,1/2+y,z
1/2-x,1/2+y,1/2-z
1/2-x,1/2-y,-z
1/2+x,1/2-y,1/2+z
loop_
_atom_site_type_symbol
_atom_site_label
_atom_site_fract_x
_atom_site_fract_y
_atom_site_fract_z
Si Si1 0.601650 0.626903 0.487866
Si Si2 0.679910 0.215017 0.788740
Si Si3 0.101057 0.627402 0.391730
Si Si4 0.309850 0.927554 0.468750
Si Si5 0.500000 0.832303 0.250000
O O1 0.500000 0.500000 0.500000
O O2 0.687281 0.688049 0.371438
O O3 0.533803 0.789448 0.558610
O O4 0.695096 0.555555 0.513663
O O5 0.805799 0.223726 0.676435
O O6 0.572520 0.290368 0.779391
O O7 0.637404 0.023277 0.814454
O O8 0.112593 0.558021 0.481245
O O9 0.250000 0.750000 0.500000
O O10 0.403601 0.947082 0.347210
#
# Coordination Sequence:
#
# PCOD8154649 Si02
#       5
#     8   8   8   8   4
#     4  12  24  47  75 108 151 204 260 320 390 474
#     4  12  26  46  74 109 153 200 260 321 393 464
#     4  12  26  49  73 112 155 203 257 329 386 472
#     4  12  24  45  76 110 150 203 254 315 398 460
#     4  12  22  44  74 104 146 198 250 312 384 466
#
# _framework density 25.691534000000001
#
# number of rings (size 3 to 8) (size 9 to 14) (size 15 to 20)
#    0.000    0.000    6.667    3.333    0.000    0.889 
#    4.000    0.000    0.000    0.000    0.000    0.000 
#    0.000    0.000    0.000    0.000    0.000    0.000 
#
# Total GULP energy -223106.122210 kJ/mol
# GULP energy per Si atom -12394.784567 kJ/mol
# Density = 2.563306 g / cm^3
# Si number density = 25.691534 Si / 1000 Ang^3
#
#
#
# Elastic Constant Matrix: (Units=GPa)
#
#
# Indices 1 2 3 4 5 6 
#
# 1 141.4752 28.1299 35.3990 0.0000 -5.0735 0.0000
# 2 28.1299 111.6180 52.1704 0.0000 -6.8674 0.0000
# 3 35.3990 52.1704 170.7576 0.0000 -15.6441 0.0000
# 4 0.0000 0.0000 0.0000 41.7153 0.0000 -1.0674
# 5 -5.0735 -6.8674 -15.6441 0.0000 39.4907 0.0000
# 6 0.0000 0.0000 0.0000 -1.0674 0.0000 41.7928
#
#
#
# Elastic Compliance Matrix: (Units=1/GPa)
#
#
# Indices 1 2 3 4 5 6 
#
# 1 0.007637 -0.001376 -0.001136 0.000000 0.000292 0.000000
# 2 -0.001376 0.010712 -0.002940 0.000000 0.000521 0.000000
# 3 -0.001136 -0.002940 0.007191 0.000000 0.002191 0.000000
# 4 0.000000 0.000000 0.000000 0.023988 0.000000 0.000613
# 5 0.000292 0.000521 0.002191 0.000000 0.026319 0.000000
# 6 0.000000 0.000000 0.000000 0.000613 0.000000 0.023943
#
#
# Mechanical properties :
#
#
# Convention : Reuss Voigt Hill
#
# Bulk Modulus (GPa) = 68.32338 72.80549 70.56443
# Shear Modulus (GPa) = 43.26355 45.14319 44.20337
#
# Velocity S-wave (km/s) = 4.10806 4.19635 4.15244
# Velocity P-wave (km/s) = 7.01092 7.20271 7.10746
#
# Compressibility (1/GPa) = 0.01463628
#
# Stress axis : x y z
#
# Youngs Moduli (GPa) = 130.94789 93.35361 139.06815
#
# Poissons Ratio (x) = 0.12842 0.15800
# Poissons Ratio (y) = 0.18013 0.40883
# Poissons Ratio (z) = 0.14877 0.27444
#
# Static dielectric constant tensor:
#      x y z
#    x 5.138490 0.000000 0.011850 
#    y 0.000000 4.655560 0.000000 
#    z 0.011850 0.000000 4.927020 
# 
# 
# High freq. dielectric constant tensor:
#      x y z
#    x 2.035880 0.000000 -0.011750 
#    y 0.000000 2.018560 0.000000 
#    z -0.011750 0.000000 2.042370 
# 
# From -- ./inp_files/202457.got.cif
#   From: 2010.06.25/outbox.cif.g09.slc.cpg/sg15_102_cif.got.tgz:202457.got - 2010.06.28 07:06:18.
