data_PCOD8154332
_publ_section_title
;
Structure prediction by ZEFSAII (Michael W. Deem and Ramdas Pophale) SiO2 
 PCOD8154332
Probable space group: C 2/C
;
_chemical_formula_sum "Si O2"
_cell_formula_units_Z 32
_cell_length_a 19.294676
_cell_length_b 9.424035
_cell_length_c 16.198525
_cell_angle_alpha 90.000000
_cell_angle_beta 27.296361
_cell_angle_gamma 90.000000
_cell_volume 1350.757481
_symmetry_space_group_name_H-M "C 2/C"
_symmetry_group_IT_number 15
_symmetry_cell_setting 'monoclinic'
loop_
_space_group_symop_operation_xyz
x,y,z
-x,y,1/2-z
-x,-y,-z
x,-y,1/2+z
1/2+x,1/2+y,z
1/2-x,1/2+y,1/2-z
1/2-x,1/2-y,-z
1/2+x,1/2-y,1/2+z
loop_
_atom_site_type_symbol
_atom_site_label
_atom_site_fract_x
_atom_site_fract_y
_atom_site_fract_z
Si Si1 0.792653 0.431462 0.761644
Si Si2 0.175441 0.599423 0.084151
Si Si3 0.639058 0.355191 0.662133
Si Si4 0.913720 0.273795 0.105269
O O1 0.803313 0.461013 0.847038
O O2 0.804588 0.588652 0.709806
O O3 0.636412 0.353180 0.903156
O O4 0.919591 0.323962 0.594256
O O5 0.000000 0.606092 0.250000
O O6 0.250000 0.750000 0.000000
O O7 0.263187 0.498329 0.926359
O O8 0.500000 0.391040 0.750000
O O9 0.750000 0.250000 0.500000
O O10 0.580325 0.289537 0.809204
#
# Coordination Sequence:
#
# PCOD8154332 Si02
#       4
#     8   8   8   8
#     4  11  26  47  70 107 141 189 236 296 360 427
#     4  12  27  48  75 106 148 188 241 301 363 432
#     4  12  25  46  74 106 141 192 244 297 357 430
#     4  11  26  44  75 101 145 185 239 295 357 429
#
# _framework density 23.69041
#
# number of rings (size 3 to 8) (size 9 to 14) (size 15 to 20)
#    0.000    0.500    2.500    4.500   10.500    1.000 
#    0.000    0.000    0.000    0.000    0.000    0.000 
#    0.000    0.000    0.000    0.000    0.000    0.000 
#
# Total GULP energy -198441.142688 kJ/mol
# GULP energy per Si atom -12402.571418 kJ/mol
# Density = 2.363649 g / cm^3
# Si number density = 23.690410 Si / 1000 Ang^3
#
#
#
# Elastic Constant Matrix: (Units=GPa)
#
#
# Indices 1 2 3 4 5 6 
#
# 1 105.2252 15.5628 15.9678 -0.0001 -8.8380 0.0001
# 2 15.5628 125.1644 27.2121 -0.0002 -19.4026 0.0003
# 3 15.9678 27.2121 84.9455 -0.0002 -6.0653 0.0003
# 4 -0.0001 -0.0002 -0.0002 225.0151 0.0000 -254.7919
# 5 -8.8380 -19.4026 -6.0653 0.0000 45.4881 -0.0001
# 6 0.0001 0.0003 0.0003 -254.7919 -0.0001 404.0030
#
#
#
# Elastic Compliance Matrix: (Units=1/GPa)
#
#
# Indices 1 2 3 4 5 6 
#
# 1 0.009960 -0.000678 -0.001552 0.000000 0.001439 0.000000
# 2 -0.000678 0.009163 -0.002563 0.000000 0.003435 0.000000
# 3 -0.001552 -0.002563 0.012908 0.000000 0.000326 0.000000
# 4 0.000000 0.000000 0.000000 0.015546 0.000000 0.009804
# 5 0.001439 0.003435 0.000326 0.000000 0.023772 0.000000
# 6 0.000000 0.000000 0.000000 0.009804 0.000000 0.008658
#
#
# Mechanical properties :
#
#
# Convention : Reuss Voigt Hill
#
# Bulk Modulus (GPa) = 44.55157 48.09117 46.32137
# Shear Modulus (GPa) = 51.50584 152.00742 101.75663
#
# Velocity S-wave (km/s) = 4.66781 8.01894 6.56094
# Velocity P-wave (km/s) = 6.92082 10.29960 8.77438
#
# Compressibility (1/GPa) = 0.02244590
#
# Stress axis : x y z
#
# Youngs Moduli (GPa) = 100.40039 109.12900 77.46919
#
# Poissons Ratio (x) = 0.07397 0.12026
# Poissons Ratio (y) = 0.06806 0.19854
# Poissons Ratio (z) = 0.15586 0.27968
#
# Static dielectric constant tensor:
#      x y z
#    x 4.081630 0.000000 0.184280 
#    y 0.000000 4.457510 0.000000 
#    z 0.184280 0.000000 3.975630 
# 
# 
# High freq. dielectric constant tensor:
#      x y z
#    x 1.934690 0.000000 -0.000350 
#    y 0.000000 1.963620 0.000000 
#    z -0.000350 0.000000 1.944410 
# 
# From -- ./inp_files/213634.got.cif
#   From: 2010.06.25/outbox.cif.g09.slc.cpg/sg15_107_cif.got.tgz:213634.got - 2010.06.28 07:06:18.
