data_PCOD8154066
_publ_section_title
;
Structure prediction by ZEFSAII (Michael W. Deem and Ramdas Pophale) SiO2 
 PCOD8154066
Probable space group: C 2/C
;
_chemical_formula_sum "Si O2"
_cell_formula_units_Z 36
_cell_length_a 8.763112
_cell_length_b 11.289677
_cell_length_c 18.157557
_cell_angle_alpha 90.000000
_cell_angle_beta 65.027907
_cell_angle_gamma 90.000000
_cell_volume 1628.439330
_symmetry_space_group_name_H-M "C 2/C"
_symmetry_group_IT_number 15
_symmetry_cell_setting 'monoclinic'
loop_
_space_group_symop_operation_xyz
x,y,z
-x,y,1/2-z
-x,-y,-z
x,-y,1/2+z
1/2+x,1/2+y,z
1/2-x,1/2+y,1/2-z
1/2-x,1/2-y,-z
1/2+x,1/2-y,1/2+z
loop_
_atom_site_type_symbol
_atom_site_label
_atom_site_fract_x
_atom_site_fract_y
_atom_site_fract_z
Si Si1 0.797836 0.410682 0.922898
Si Si2 0.941530 0.391990 0.154865
Si Si3 0.500000 0.701079 0.250000
Si Si4 0.167606 0.009888 0.298974
Si Si5 0.856418 0.148823 0.895788
O O1 0.679279 0.433486 0.877072
O O2 0.901598 0.287791 0.893960
O O3 0.929900 0.516094 0.906484
O O4 0.676023 0.407762 0.017910
O O5 0.840017 0.441922 0.246400
O O6 0.812551 0.357143 0.117631
O O7 0.041844 0.278556 0.168145
O O8 0.653898 0.614185 0.240624
O O9 0.009150 0.920403 0.326256
#
# Coordination Sequence:
#
# PCOD8154066 Si02
#       5
#     8   8   4   8   8
#     4  11  25  43  65  94 129 167 208 259 316 373
#     4  12  24  42  66  93 127 166 213 258 310 371
#     4  12  24  40  64  96 126 160 216 258 314 360
#     4  12  24  42  66  93 127 166 213 258 310 371
#     4  11  25  43  65  94 129 167 208 259 316 373
#
# _framework density 22.107056
#
# number of rings (size 3 to 8) (size 9 to 14) (size 15 to 20)
#    0.000    0.444    6.667    1.333    3.111    1.778 
#    0.000    1.111    0.000    0.000    0.000    0.000 
#    0.000    0.000    0.000    0.000    0.000    0.000 
#
# Total GULP energy -223214.575917 kJ/mol
# GULP energy per Si atom -12400.809773 kJ/mol
# Density = 2.205674 g / cm^3
# Si number density = 22.107056 Si / 1000 Ang^3
#
#
#
# Elastic Constant Matrix: (Units=GPa)
#
#
# Indices 1 2 3 4 5 6 
#
# 1 82.5275 28.9049 15.6862 0.0000 7.7888 0.0000
# 2 28.9049 109.6461 29.2119 0.0000 -15.5643 0.0000
# 3 15.6862 29.2119 70.1886 0.0000 16.4059 0.0000
# 4 0.0000 0.0000 0.0000 37.8501 0.0000 9.2495
# 5 7.7888 -15.5643 16.4059 0.0000 33.7838 0.0000
# 6 0.0000 0.0000 0.0000 9.2495 0.0000 27.0285
#
#
#
# Elastic Compliance Matrix: (Units=1/GPa)
#
#
# Indices 1 2 3 4 5 6 
#
# 1 0.014199 -0.004477 -0.000071 0.000000 -0.005302 0.000000
# 2 -0.004477 0.013796 -0.007296 0.000000 0.010931 0.000000
# 3 -0.000071 -0.007296 0.020397 0.000000 -0.013250 0.000000
# 4 0.000000 0.000000 0.000000 0.028831 0.000000 -0.009866
# 5 -0.005302 0.010931 -0.013250 0.000000 0.042293 0.000000
# 6 0.000000 0.000000 0.000000 -0.009866 0.000000 0.040374
#
#
# Mechanical properties :
#
#
# Convention : Reuss Voigt Hill
#
# Bulk Modulus (GPa) = 40.47947 45.55202 43.01575
# Shear Modulus (GPa) = 26.06711 32.30310 29.18511
#
# Velocity S-wave (km/s) = 3.43757 3.82673 3.63736
# Velocity P-wave (km/s) = 5.84006 6.33838 6.09431
#
# Compressibility (1/GPa) = 0.02470388
#
# Stress axis : x y z
#
# Youngs Moduli (GPa) = 70.42758 72.48484 49.02702
#
# Poissons Ratio (x) = 0.32450 0.00347
# Poissons Ratio (y) = 0.31529 0.35772
# Poissons Ratio (z) = 0.00499 0.52887
#
# Static dielectric constant tensor:
#      x y z
#    x 3.789200 0.000000 0.346510 
#    y 0.000000 4.250470 0.000000 
#    z 0.346510 0.000000 3.799940 
# 
# 
# High freq. dielectric constant tensor:
#      x y z
#    x 1.868730 0.000000 0.034640 
#    y 0.000000 1.888390 0.000000 
#    z 0.034640 0.000000 1.857870 
# 
# From -- ./inp_files/46020.got.cif
#   From: 2010.06.25/outbox.cif.g09.slc.cpg/sg15_24_cif.got.tgz:46020.got - 2010.06.28 07:06:18.
