data_PCOD8154985
_publ_section_title
;
Structure prediction by ZEFSAII (Michael W. Deem and Ramdas Pophale) SiO2 
 PCOD8154985
Probable space group: C 2/C
;
_chemical_formula_sum "Si O2"
_cell_formula_units_Z 32
_cell_length_a 19.164026
_cell_length_b 4.832610
_cell_length_c 29.251283
_cell_angle_alpha 90.000000
_cell_angle_beta 150.708332
_cell_angle_gamma 90.000000
_cell_volume 1325.406972
_symmetry_space_group_name_H-M "C 2/C"
_symmetry_group_IT_number 15
_symmetry_cell_setting 'monoclinic'
loop_
_space_group_symop_operation_xyz
x,y,z
-x,y,1/2-z
-x,-y,-z
x,-y,1/2+z
1/2+x,1/2+y,z
1/2-x,1/2+y,1/2-z
1/2-x,1/2-y,-z
1/2+x,1/2-y,1/2+z
loop_
_atom_site_type_symbol
_atom_site_label
_atom_site_fract_x
_atom_site_fract_y
_atom_site_fract_z
Si Si1 0.844727 0.772936 0.009478
Si Si2 0.778481 0.933986 0.697759
Si Si3 0.547785 0.785441 0.119585
Si Si4 0.150631 0.414670 0.817297
O O1 0.951755 0.530525 0.082194
O O2 0.750000 0.750000 0.000000
O O3 0.741485 0.747728 0.906982
O O4 0.938317 0.038356 0.050118
O O5 0.833376 0.800766 0.775877
O O6 0.763220 0.679589 0.653334
O O7 0.628515 0.097358 0.620436
O O8 0.883674 0.175670 0.739760
O O9 0.000000 0.527385 0.750000
#
# Coordination Sequence:
#
# PCOD8154985 Si02
#       4
#     8   8   8   8
#     4  12  26  45  70 102 141 183 232 287 345 412
#     4  12  25  45  71 101 139 184 232 284 348 417
#     4  12  25  45  71 101 139 184 231 283 347 414
#     4  12  26  45  70 102 141 183 233 290 348 413
#
# _framework density 24.143529999999998
#
# number of rings (size 3 to 8) (size 9 to 14) (size 15 to 20)
#    0.000    0.000    0.000   12.000    0.000    6.000 
#    0.000    0.000    0.000    0.000    0.000    0.000 
#    0.000    0.000    0.000    0.000    0.000    0.000 
#
# Total GULP energy -198258.408756 kJ/mol
# GULP energy per Si atom -12391.150547 kJ/mol
# Density = 2.408858 g / cm^3
# Si number density = 24.143530 Si / 1000 Ang^3
#
#
#
# Elastic Constant Matrix: (Units=GPa)
#
#
# Indices 1 2 3 4 5 6 
#
# 1 143.9346 68.0369 36.1503 -0.0201 17.7169 0.0056
# 2 68.0369 178.9523 33.2863 -0.0847 15.2173 0.1090
# 3 36.1503 33.2863 81.1669 0.0972 13.4750 0.0317
# 4 -0.0201 -0.0847 0.0972 51.9715 -0.0606 8.4882
# 5 17.7169 15.2173 13.4750 -0.0606 32.9119 -0.0142
# 6 0.0056 0.1090 0.0317 8.4882 -0.0142 60.8697
#
#
#
# Elastic Compliance Matrix: (Units=1/GPa)
#
#
# Indices 1 2 3 4 5 6 
#
# 1 0.009238 -0.002819 -0.002520 0.000000 -0.002637 0.000005
# 2 -0.002819 0.007024 -0.001435 0.000014 -0.001142 -0.000014
# 3 -0.002520 -0.001435 0.014695 -0.000035 -0.003996 -0.000001
# 4 0.000000 0.000014 -0.000035 0.019690 0.000043 -0.002746
# 5 -0.002637 -0.001142 -0.003996 0.000043 0.033968 0.000006
# 6 0.000005 -0.000014 -0.000001 -0.002746 0.000006 0.016811
#
#
# Mechanical properties :
#
#
# Convention : Reuss Voigt Hill
#
# Bulk Modulus (GPa) = 57.44758 75.44453 66.44606
# Shear Modulus (GPa) = 41.39810 46.92265 44.16038
#
# Velocity S-wave (km/s) = 4.14535 4.41328 4.28141
# Velocity P-wave (km/s) = 6.83796 7.56873 7.21260
#
# Compressibility (1/GPa) = 0.01740717
#
# Stress axis : x y z
#
# Youngs Moduli (GPa) = 108.25056 142.36846 68.05078
#
# Poissons Ratio (x) = 0.40135 0.17151
# Poissons Ratio (y) = 0.30517 0.09767
# Poissons Ratio (z) = 0.27283 0.20434
#
# Static dielectric constant tensor:
#      x y z
#    x 4.545700 -0.000330 0.129360 
#    y -0.000330 4.573100 0.000160 
#    z 0.129360 0.000160 4.268080 
# 
# 
# High freq. dielectric constant tensor:
#      x y z
#    x 1.973900 -0.000020 0.012560 
#    y -0.000020 1.982370 0.000010 
#    z 0.012560 0.000010 1.947590 
# 
# From -- ./inp_files/164972.got.cif
#   From: 2010.06.25/outbox.cif.g09.slc.cpg/sg15_83_cif.got.tgz:164972.got - 2010.06.28 07:06:18.
