data_PCOD8154433
_publ_section_title
;
Structure prediction by ZEFSAII (Michael W. Deem and Ramdas Pophale) SiO2 
 PCOD8154433
Probable space group: C 2/C
;
_chemical_formula_sum "Si O2"
_cell_formula_units_Z 36
_cell_length_a 27.774952
_cell_length_b 12.206412
_cell_length_c 13.913599
_cell_angle_alpha 90.000000
_cell_angle_beta 160.717982
_cell_angle_gamma 90.000000
_cell_volume 1557.692717
_symmetry_space_group_name_H-M "C 2/C"
_symmetry_group_IT_number 15
_symmetry_cell_setting 'monoclinic'
loop_
_space_group_symop_operation_xyz
x,y,z
-x,y,1/2-z
-x,-y,-z
x,-y,1/2+z
1/2+x,1/2+y,z
1/2-x,1/2+y,1/2-z
1/2-x,1/2-y,-z
1/2+x,1/2-y,1/2+z
loop_
_atom_site_type_symbol
_atom_site_label
_atom_site_fract_x
_atom_site_fract_y
_atom_site_fract_z
Si Si1 0.079706 0.401900 0.202495
Si Si2 0.500000 0.812459 0.250000
Si Si3 0.873539 0.039667 0.330758
Si Si4 0.761124 0.663546 0.813580
Si Si5 0.517737 0.765061 0.916452
O O1 0.252059 0.421445 0.525935
O O2 0.035957 0.393233 0.230824
O O3 0.000000 0.500000 0.000000
O O4 0.037075 0.290989 0.065788
O O5 0.635292 0.739159 0.535149
O O6 0.932234 0.139995 0.506753
O O7 0.810119 0.949769 0.285278
O O8 0.000000 0.000000 0.500000
O O9 0.848738 0.719859 0.067421
O O10 0.879302 0.650956 0.950090
#
# Coordination Sequence:
#
# PCOD8154433 Si02
#       5
#     8   4   8   8   8
#     4  12  27  48  77 107 153 202 255 318 394 465
#     4  12  28  48  74 110 150 196 260 322 388 464
#     4  12  27  47  75 113 150 206 261 322 390 470
#     4  11  27  48  75 112 152 201 257 320 388 469
#     4  11  26  51  75 110 157 202 261 318 398 468
#
# _framework density 23.111104000000001
#
# number of rings (size 3 to 8) (size 9 to 14) (size 15 to 20)
#    0.000    0.444    4.444    2.000    9.333    3.556 
#    0.000    0.000    0.000    0.000    0.000    0.000 
#    0.000    0.000    0.000    0.000    0.000    0.000 
#
# Total GULP energy -223190.626360 kJ/mol
# GULP energy per Si atom -12399.479242 kJ/mol
# Density = 2.305850 g / cm^3
# Si number density = 23.111104 Si / 1000 Ang^3
#
#
#
# Elastic Constant Matrix: (Units=GPa)
#
#
# Indices 1 2 3 4 5 6 
#
# 1 147.5143 61.8022 58.6842 0.0000 -9.1793 0.0000
# 2 61.8022 144.0408 55.5031 0.0000 -8.3374 0.0000
# 3 58.6842 55.5031 166.2304 0.0000 -15.2477 0.0000
# 4 0.0000 0.0000 0.0000 39.3324 0.0000 -3.0685
# 5 -9.1793 -8.3374 -15.2477 0.0000 36.8774 0.0000
# 6 0.0000 0.0000 0.0000 -3.0685 0.0000 50.1709
#
#
#
# Elastic Compliance Matrix: (Units=1/GPa)
#
#
# Indices 1 2 3 4 5 6 
#
# 1 0.008897 -0.002974 -0.002085 0.000000 0.000680 0.000000
# 2 -0.002974 0.008981 -0.001902 0.000000 0.000503 0.000000
# 3 -0.002085 -0.001902 0.007588 0.000000 0.002188 0.000000
# 4 0.000000 0.000000 0.000000 0.025546 0.000000 0.001562
# 5 0.000680 0.000503 0.002188 0.000000 0.028305 0.000000
# 6 0.000000 0.000000 0.000000 0.001562 0.000000 0.020027
#
#
# Mechanical properties :
#
#
# Convention : Reuss Voigt Hill
#
# Bulk Modulus (GPa) = 86.64538 89.97382 88.30960
# Shear Modulus (GPa) = 42.69275 44.06253 43.37764
#
# Velocity S-wave (km/s) = 4.30267 4.37115 4.33704
# Velocity P-wave (km/s) = 7.89025 8.03065 7.96076
#
# Compressibility (1/GPa) = 0.01154130
#
# Stress axis : x y z
#
# Youngs Moduli (GPa) = 112.39607 111.34744 131.78923
#
# Poissons Ratio (x) = 0.33120 0.27484
# Poissons Ratio (y) = 0.33432 0.25072
# Poissons Ratio (z) = 0.23439 0.21183
#
# Static dielectric constant tensor:
#      x y z
#    x 4.250430 0.000000 -0.075220 
#    y 0.000000 4.529370 0.000000 
#    z -0.075220 0.000000 4.614820 
# 
# 
# High freq. dielectric constant tensor:
#      x y z
#    x 1.913850 0.000000 -0.003490 
#    y 0.000000 1.911100 0.000000 
#    z -0.003490 0.000000 1.941560 
# 
# From -- ./inp_files/181862.got.cif
#   From: 2010.06.25/outbox.cif.g09.slc.cpg/sg15_91_cif.got.tgz:181862.got - 2010.06.28 07:06:18.
