data_PCOD8154791
_publ_section_title
;
Structure prediction by ZEFSAII (Michael W. Deem and Ramdas Pophale) SiO2 
 PCOD8154791
Probable space group: C 2/C
;
_chemical_formula_sum "Si O2"
_cell_formula_units_Z 32
_cell_length_a 7.733195
_cell_length_b 12.870632
_cell_length_c 13.177883
_cell_angle_alpha 90.000000
_cell_angle_beta 84.218490
_cell_angle_gamma 90.000000
_cell_volume 1304.937480
_symmetry_space_group_name_H-M "C 2/C"
_symmetry_group_IT_number 15
_symmetry_cell_setting 'monoclinic'
loop_
_space_group_symop_operation_xyz
x,y,z
-x,y,1/2-z
-x,-y,-z
x,-y,1/2+z
1/2+x,1/2+y,z
1/2-x,1/2+y,1/2-z
1/2-x,1/2-y,-z
1/2+x,1/2-y,1/2+z
loop_
_atom_site_type_symbol
_atom_site_label
_atom_site_fract_x
_atom_site_fract_y
_atom_site_fract_z
Si Si1 0.944723 0.268489 0.026658
Si Si2 0.351480 0.747753 0.689172
Si Si3 0.606553 0.071985 0.653150
Si Si4 0.862137 0.905713 0.680020
O O1 0.973672 0.175883 0.105927
O O2 0.981781 0.384903 0.069953
O O3 0.750000 0.250000 0.000000
O O4 0.083028 0.261570 0.929019
O O5 0.500000 0.696806 0.750000
O O6 0.187656 0.673501 0.699423
O O7 0.291595 0.853520 0.746111
O O8 0.500000 0.017275 0.750000
O O9 0.762845 0.991377 0.614219
O O10 0.000000 0.957959 0.750000
#
# Coordination Sequence:
#
# PCOD8154791 Si02
#       4
#     8   8   8   8
#     4  12  25  47  76 107 155 199 248 309 376 442
#     4  12  23  48  72 105 154 197 241 317 371 437
#     4  12  25  47  75 110 149 198 249 306 378 445
#     4  12  26  48  74 111 151 196 253 310 373 446
#
# _framework density 24.522248999999999
#
# number of rings (size 3 to 8) (size 9 to 14) (size 15 to 20)
#    0.000    0.000    7.500    2.250    0.000    2.000 
#    4.500    0.000    0.000    0.000    0.000    0.000 
#    0.000    0.000    0.000    0.000    0.000    0.000 
#
# Total GULP energy -198267.787583 kJ/mol
# GULP energy per Si atom -12391.736724 kJ/mol
# Density = 2.446643 g / cm^3
# Si number density = 24.522249 Si / 1000 Ang^3
#
#
#
# Elastic Constant Matrix: (Units=GPa)
#
#
# Indices 1 2 3 4 5 6 
#
# 1 93.3061 28.9843 30.1467 0.0000 15.6433 0.0000
# 2 28.9843 108.9000 31.1062 0.0000 3.8281 0.0000
# 3 30.1467 31.1062 128.7500 0.0000 -14.7189 0.0000
# 4 0.0000 0.0000 0.0000 16.4953 0.0000 5.3325
# 5 15.6433 3.8281 -14.7189 0.0000 52.0153 0.0000
# 6 0.0000 0.0000 0.0000 5.3325 0.0000 56.8526
#
#
#
# Elastic Compliance Matrix: (Units=1/GPa)
#
#
# Indices 1 2 3 4 5 6 
#
# 1 0.013255 -0.002498 -0.003033 0.000000 -0.004661 0.000000
# 2 -0.002498 0.010441 -0.002004 0.000000 -0.000584 0.000000
# 3 -0.003033 -0.002004 0.009386 0.000000 0.003716 0.000000
# 4 0.000000 0.000000 0.000000 0.062519 0.000000 -0.005864
# 5 -0.004661 -0.000584 0.003716 0.000000 0.021721 0.000000
# 6 0.000000 0.000000 0.000000 -0.005864 0.000000 0.018139
#
#
# Mechanical properties :
#
#
# Convention : Reuss Voigt Hill
#
# Bulk Modulus (GPa) = 55.52052 56.82561 56.17307
# Shear Modulus (GPa) = 31.94179 41.12056 36.53117
#
# Velocity S-wave (km/s) = 3.61302 4.09940 3.86387
# Velocity P-wave (km/s) = 6.33208 6.75501 6.54696
#
# Compressibility (1/GPa) = 0.01801136
#
# Stress axis : x y z
#
# Youngs Moduli (GPa) = 75.44562 95.77999 106.53921
#
# Poissons Ratio (x) = 0.23922 0.32313
# Poissons Ratio (y) = 0.18843 0.21355
# Poissons Ratio (z) = 0.22882 0.19199
#
# Static dielectric constant tensor:
#      x y z
#    x 4.691470 0.000000 0.079190 
#    y 0.000000 4.299810 0.000000 
#    z 0.079190 0.000000 4.937640 
# 
# 
# High freq. dielectric constant tensor:
#      x y z
#    x 1.998280 0.000000 0.009930 
#    y 0.000000 1.961130 0.000000 
#    z 0.009930 0.000000 1.969460 
# 
# From -- ./inp_files/75329.got.cif
#   From: 2010.06.25/outbox.cif.g09.slc.cpg/sg15_38_cif.got.tgz:75329.got - 2010.06.28 07:06:18.
