data_PCOD8154458
_publ_section_title
;
Structure prediction by ZEFSAII (Michael W. Deem and Ramdas Pophale) SiO2 
 PCOD8154458
Probable space group: C 2/C
;
_chemical_formula_sum "Si O2"
_cell_formula_units_Z 48
_cell_length_a 27.205648
_cell_length_b 6.623116
_cell_length_c 14.329321
_cell_angle_alpha 90.000000
_cell_angle_beta 54.816444
_cell_angle_gamma 90.000000
_cell_volume 2110.250544
_symmetry_space_group_name_H-M "C 2/C"
_symmetry_group_IT_number 15
_symmetry_cell_setting 'monoclinic'
loop_
_space_group_symop_operation_xyz
x,y,z
-x,y,1/2-z
-x,-y,-z
x,-y,1/2+z
1/2+x,1/2+y,z
1/2-x,1/2+y,1/2-z
1/2-x,1/2-y,-z
1/2+x,1/2-y,1/2+z
loop_
_atom_site_type_symbol
_atom_site_label
_atom_site_fract_x
_atom_site_fract_y
_atom_site_fract_z
Si Si1 0.757953 0.750212 0.365386
Si Si2 0.381297 0.472575 0.253844
Si Si3 0.800888 0.118456 0.491245
Si Si4 0.517291 0.855116 0.837731
Si Si5 0.080388 0.345265 0.402540
Si Si6 0.311553 0.907767 0.636759
O O1 0.731585 0.602090 0.473368
O O2 0.711422 0.933025 0.414208
O O3 0.757248 0.622283 0.269667
O O4 0.827073 0.819246 0.293143
O O5 0.361967 0.605310 0.364687
O O6 0.440024 0.340637 0.209199
O O7 0.391576 0.630685 0.158425
O O8 0.750000 0.250000 0.500000
O O9 0.822586 0.200179 0.567819
O O10 0.500000 0.907016 0.750000
O O11 0.545269 0.056979 0.853292
O O12 0.459847 0.796883 0.963048
O O13 0.128914 0.512286 0.378722
#
# Coordination Sequence:
#
# PCOD8154458 Si02
#       6
#     8   8   8   8   8   8
#     4  12  24  43  68 107 145 189 230 291 366 443
#     4  12  26  46  73 103 152 186 244 305 365 437
#     4  12  27  41  69 110 146 190 238 290 367 448
#     4  11  28  50  76 104 142 195 253 309 364 432
#     4  11  27  49  75 105 147 190 252 307 366 434
#     4  12  24  42  73 101 149 191 232 296 365 437
#
# _framework density 22.746116000000001
#
# number of rings (size 3 to 8) (size 9 to 14) (size 15 to 20)
#    0.000    0.333    5.000    3.000    4.667    0.667 
#    3.000    0.000    0.000    0.000    0.000    0.000 
#    0.000    0.000    0.000    0.000    0.000    0.000 
#
# Total GULP energy -297583.482573 kJ/mol
# GULP energy per Si atom -12399.311774 kJ/mol
# Density = 2.269434 g / cm^3
# Si number density = 22.746116 Si / 1000 Ang^3
#
#
#
# Elastic Constant Matrix: (Units=GPa)
#
#
# Indices 1 2 3 4 5 6 
#
# 1 90.4882 37.5881 40.9201 -0.0001 6.1883 0.0001
# 2 37.5881 99.3790 43.8813 0.0004 -4.5708 -0.0001
# 3 40.9201 43.8813 150.5679 -0.0001 -12.2323 0.0000
# 4 -0.0001 0.0004 -0.0001 51.6434 0.0001 3.1461
# 5 6.1883 -4.5708 -12.2323 0.0001 31.9672 0.0002
# 6 0.0001 -0.0001 0.0000 3.1461 0.0002 42.3801
#
#
#
# Elastic Compliance Matrix: (Units=1/GPa)
#
#
# Indices 1 2 3 4 5 6 
#
# 1 0.014566 -0.004370 -0.003060 0.000000 -0.004615 0.000000
# 2 -0.004370 0.012864 -0.002418 0.000000 0.001760 0.000000
# 3 -0.003060 -0.002418 0.008461 0.000000 0.003484 0.000000
# 4 0.000000 0.000000 0.000000 0.019452 0.000000 -0.001444
# 5 -0.004615 0.001760 0.003484 0.000000 0.033760 0.000000
# 6 0.000000 0.000000 0.000000 -0.001444 0.000000 0.023703
#
#
# Mechanical properties :
#
#
# Convention : Reuss Voigt Hill
#
# Bulk Modulus (GPa) = 61.75198 65.02380 63.38789
# Shear Modulus (GPa) = 36.25767 39.73452 37.99610
#
# Velocity S-wave (km/s) = 3.99684 4.18409 4.09154
# Velocity P-wave (km/s) = 6.96470 7.21048 7.08865
#
# Compressibility (1/GPa) = 0.01619381
#
# Stress axis : x y z
#
# Youngs Moduli (GPa) = 68.65312 77.73425 118.18956
#
# Poissons Ratio (x) = 0.33973 0.36164
# Poissons Ratio (y) = 0.30005 0.28583
# Poissons Ratio (z) = 0.21007 0.18799
#
# Static dielectric constant tensor:
#      x y z
#    x 4.018380 0.000000 0.091360 
#    y 0.000000 4.350820 0.000000 
#    z 0.091360 0.000000 4.422240 
# 
# 
# High freq. dielectric constant tensor:
#      x y z
#    x 1.885620 0.000000 0.007740 
#    y 0.000000 1.913890 0.000000 
#    z 0.007740 0.000000 1.919000 
# 
# From -- ./inp_files/179956.got.cif
#   From: 2010.06.25/outbox.cif.g09.slc.cpg/sg15_90_cif.got.tgz:179956.got - 2010.06.28 07:06:18.
