data_PCOD8154904
_publ_section_title
;
Structure prediction by ZEFSAII (Michael W. Deem and Ramdas Pophale) SiO2 
 PCOD8154904
Probable space group: C 2/C
;
_chemical_formula_sum "Si O2"
_cell_formula_units_Z 28
_cell_length_a 6.214602
_cell_length_b 18.367153
_cell_length_c 13.425821
_cell_angle_alpha 90.000000
_cell_angle_beta 135.211287
_cell_angle_gamma 90.000000
_cell_volume 1079.626587
_symmetry_space_group_name_H-M "C 2/C"
_symmetry_group_IT_number 15
_symmetry_cell_setting 'monoclinic'
loop_
_space_group_symop_operation_xyz
x,y,z
-x,y,1/2-z
-x,-y,-z
x,-y,1/2+z
1/2+x,1/2+y,z
1/2-x,1/2+y,1/2-z
1/2-x,1/2-y,-z
1/2+x,1/2-y,1/2+z
loop_
_atom_site_type_symbol
_atom_site_label
_atom_site_fract_x
_atom_site_fract_y
_atom_site_fract_z
Si Si1 0.345434 0.497741 0.846214
Si Si2 0.481359 0.222458 0.991991
Si Si3 0.810564 0.836042 0.788246
Si Si4 0.500000 0.617824 0.750000
O O1 0.401749 0.420421 0.811501
O O2 0.495302 0.565656 0.842080
O O3 0.000000 0.515662 0.750000
O O4 0.500000 0.500000 0.000000
O O5 0.561345 0.289612 0.939081
O O6 0.306461 0.165040 0.863865
O O7 0.250000 0.250000 0.000000
O O8 0.760571 0.189039 0.153191
O O9 0.500000 0.825271 0.750000
#
# Coordination Sequence:
#
# PCOD8154904 Si02
#       4
#     8   8   8   4
#     4  12  28  48  75 109 153 196 248 307 377 441
#     4  12  24  47  73 106 146 194 243 306 367 443
#     4  12  26  46  74 109 147 192 250 304 370 440
#     4  12  26  46  78 106 146 192 246 304 374 438
#
# _framework density 25.934892000000001
#
# number of rings (size 3 to 8) (size 9 to 14) (size 15 to 20)
#    0.000    0.000    4.286    6.000    4.000    3.429 
#    0.000    0.000    0.000    0.000    0.000    0.000 
#    0.000    0.000    0.000    0.000    0.000    0.000 
#
# Total GULP energy -173594.566636 kJ/mol
# GULP energy per Si atom -12399.611903 kJ/mol
# Density = 2.587586 g / cm^3
# Si number density = 25.934892 Si / 1000 Ang^3
#
#
#
# Elastic Constant Matrix: (Units=GPa)
#
#
# Indices 1 2 3 4 5 6 
#
# 1 72.1576 23.4766 51.1068 0.0002 -31.7067 0.0001
# 2 23.4766 128.1806 37.1627 0.0000 -15.2332 0.0000
# 3 51.1068 37.1627 191.9965 0.0003 -9.6346 0.0002
# 4 0.0002 0.0000 0.0003 50.7447 0.0002 -9.8571
# 5 -31.7067 -15.2332 -9.6346 0.0002 67.2653 0.0002
# 6 0.0001 0.0000 0.0002 -9.8571 0.0002 39.9968
#
#
#
# Elastic Compliance Matrix: (Units=1/GPa)
#
#
# Indices 1 2 3 4 5 6 
#
# 1 0.022061 -0.001445 -0.005124 0.000000 0.009338 0.000000
# 2 -0.001445 0.008547 -0.001215 0.000000 0.001080 0.000000
# 3 -0.005124 -0.001215 0.006721 0.000000 -0.001728 0.000000
# 4 0.000000 0.000000 0.000000 0.020697 0.000000 0.005101
# 5 0.009338 0.001080 -0.001728 0.000000 0.019265 0.000000
# 6 0.000000 0.000000 0.000000 0.005101 0.000000 0.026259
#
#
# Mechanical properties :
#
#
# Convention : Reuss Voigt Hill
#
# Bulk Modulus (GPa) = 45.95700 68.42521 57.19110
# Shear Modulus (GPa) = 39.56544 50.30726 44.93635
#
# Velocity S-wave (km/s) = 3.91009 4.40904 4.16704
# Velocity P-wave (km/s) = 6.17606 7.23604 6.72696
#
# Compressibility (1/GPa) = 0.02175947
#
# Stress axis : x y z
#
# Youngs Moduli (GPa) = 45.32888 117.00075 148.78912
#
# Poissons Ratio (x) = 0.16910 0.76240
# Poissons Ratio (y) = 0.06551 0.18084
# Poissons Ratio (z) = 0.23227 0.14221
#
# Static dielectric constant tensor:
#      x y z
#    x 5.862790 -0.000040 0.219300 
#    y -0.000040 74.405970 0.000000 
#    z 0.219300 0.000000 5.418990 
# 
# 
# High freq. dielectric constant tensor:
#      x y z
#    x 2.100450 0.000000 -0.005160 
#    y 0.000000 2.044900 0.000000 
#    z -0.005160 0.000000 2.073050 
# 
# From -- ./inp_files/21510.got.cif
#   From: 2010.06.25/outbox.cif.g09.slc.cpg/sg15_11_cif.got.tgz:21510.got - 2010.06.28 07:06:18.
