data_PCOD8154825
_publ_section_title
;
Structure prediction by ZEFSAII (Michael W. Deem and Ramdas Pophale) SiO2 
 PCOD8154825
Probable space group: C 2/C
;
_chemical_formula_sum "Si O2"
_cell_formula_units_Z 60
_cell_length_a 14.993635
_cell_length_b 11.929217
_cell_length_c 17.353884
_cell_angle_alpha 90.000000
_cell_angle_beta 66.968724
_cell_angle_gamma 90.000000
_cell_volume 2856.544146
_symmetry_space_group_name_H-M "C 2/C"
_symmetry_group_IT_number 15
_symmetry_cell_setting 'monoclinic'
loop_
_space_group_symop_operation_xyz
x,y,z
-x,y,1/2-z
-x,-y,-z
x,-y,1/2+z
1/2+x,1/2+y,z
1/2-x,1/2+y,1/2-z
1/2-x,1/2-y,-z
1/2+x,1/2-y,1/2+z
loop_
_atom_site_type_symbol
_atom_site_label
_atom_site_fract_x
_atom_site_fract_y
_atom_site_fract_z
Si Si1 0.000000 0.189712 0.250000
Si Si2 0.461199 0.755007 0.561343
Si Si3 0.662978 0.952959 0.835313
Si Si4 0.259530 0.363115 0.653133
Si Si5 0.390983 0.461959 0.022309
Si Si6 0.651015 0.475463 0.640400
Si Si7 0.926160 0.308866 0.129447
Si Si8 0.916585 0.778969 0.336765
O O1 0.094590 0.111575 0.213708
O O2 0.008538 0.266841 0.322102
O O3 0.408177 0.850428 0.626857
O O4 0.382774 0.658077 0.568012
O O5 0.509478 0.802586 0.468495
O O6 0.546104 0.709014 0.588256
O O7 0.724820 0.933183 0.737938
O O8 0.734429 0.963894 0.884110
O O9 0.599301 0.063098 0.845940
O O10 0.314797 0.449341 0.579548
O O11 0.328791 0.262837 0.655550
O O12 0.169432 0.311790 0.636594
O O13 0.500000 0.500000 0.000000
O O14 0.372250 0.444975 0.939071
O O15 0.620763 0.599679 0.676377
O O16 0.000000 0.739308 0.250000
#
# Coordination Sequence:
#
# PCOD8154825 Si02
#       8
#     4   8   8   8   8   8   8   8
#     4  12  24  44  74 104 138 192 234 296 360 428
#     4  12  27  49  73 103 145 190 239 296 362 431
#     4  12  29  46  71 105 146 189 238 297 360 433
#     4  12  26  45  73 110 142 185 245 304 355 424
#     4  12  25  45  74 108 142 182 241 305 352 425
#     4  12  24  43  74 105 137 187 240 287 361 432
#     4  12  26  48  70 102 149 187 235 297 363 428
#     4  12  25  43  75 104 140 188 239 291 357 432
#
# _framework density 21.004401999999999
#
# number of rings (size 3 to 8) (size 9 to 14) (size 15 to 20)
#    0.000    0.000    8.667    0.400    5.600    2.667 
#    2.400    0.000    0.000    0.000    0.000    0.000 
#    0.000    0.000    0.000    0.000    0.000    0.000 
#
# Total GULP energy -372235.862701 kJ/mol
# GULP energy per Si atom -12407.862090 kJ/mol
# Density = 2.095659 g / cm^3
# Si number density = 21.004402 Si / 1000 Ang^3
#
#
#
# Elastic Constant Matrix: (Units=GPa)
#
#
# Indices 1 2 3 4 5 6 
#
# 1 94.1132 29.6427 20.1776 0.0000 3.6427 0.0000
# 2 29.6427 130.0701 20.7023 0.0000 -12.8536 0.0000
# 3 20.1776 20.7023 93.5696 0.0000 2.5006 0.0000
# 4 0.0000 0.0000 0.0000 29.5516 0.0000 -1.4075
# 5 3.6427 -12.8536 2.5006 0.0000 33.6902 0.0000
# 6 0.0000 0.0000 0.0000 -1.4075 0.0000 29.7108
#
#
#
# Elastic Compliance Matrix: (Units=1/GPa)
#
#
# Indices 1 2 3 4 5 6 
#
# 1 0.011952 -0.002628 -0.001938 0.000000 -0.002151 0.000000
# 2 -0.002628 0.008901 -0.001504 0.000000 0.003792 0.000000
# 3 -0.001938 -0.001504 0.011470 0.000000 -0.001216 0.000000
# 4 0.000000 0.000000 0.000000 0.033916 0.000000 0.001607
# 5 -0.002151 0.003792 -0.001216 0.000000 0.031452 0.000000
# 6 0.000000 0.000000 0.000000 0.001607 0.000000 0.033734
#
#
# Mechanical properties :
#
#
# Convention : Reuss Voigt Hill
#
# Bulk Modulus (GPa) = 49.54680 50.97757 50.26219
# Shear Modulus (GPa) = 33.26828 35.07254 34.17041
#
# Velocity S-wave (km/s) = 3.98411 4.09072 4.03776
# Velocity P-wave (km/s) = 6.69359 6.82895 6.76161
#
# Compressibility (1/GPa) = 0.02018294
#
# Stress axis : x y z
#
# Youngs Moduli (GPa) = 83.66757 112.34515 87.18018
#
# Poissons Ratio (x) = 0.29523 0.16900
# Poissons Ratio (y) = 0.21987 0.13112
# Poissons Ratio (z) = 0.16219 0.16897
#
# Static dielectric constant tensor:
#      x y z
#    x 3.904700 0.000000 0.105370 
#    y 0.000000 3.959610 0.000000 
#    z 0.105370 0.000000 3.509150 
# 
# 
# High freq. dielectric constant tensor:
#      x y z
#    x 1.827570 0.000000 0.005690 
#    y 0.000000 1.834810 0.000000 
#    z 0.005690 0.000000 1.830720 
# 
# From -- ./inp_files/204423.got.cif
#   From: 2010.06.25/outbox.cif.g09.slc.cpg/sg15_103_cif.got.tgz:204423.got - 2010.06.28 07:06:18.
