data_PCOD8154717
_publ_section_title
;
Structure prediction by ZEFSAII (Michael W. Deem and Ramdas Pophale) SiO2 
 PCOD8154717
Probable space group: C 2/C
;
_chemical_formula_sum "Si O2"
_cell_formula_units_Z 40
_cell_length_a 15.612579
_cell_length_b 11.588704
_cell_length_c 8.700478
_cell_angle_alpha 90.000000
_cell_angle_beta 86.324340
_cell_angle_gamma 90.000000
_cell_volume 1570.935462
_symmetry_space_group_name_H-M "C 2/C"
_symmetry_group_IT_number 15
_symmetry_cell_setting 'monoclinic'
loop_
_space_group_symop_operation_xyz
x,y,z
-x,y,1/2-z
-x,-y,-z
x,-y,1/2+z
1/2+x,1/2+y,z
1/2-x,1/2+y,1/2-z
1/2-x,1/2-y,-z
1/2+x,1/2-y,1/2+z
loop_
_atom_site_type_symbol
_atom_site_label
_atom_site_fract_x
_atom_site_fract_y
_atom_site_fract_z
Si Si1 0.821304 0.345090 0.697568
Si Si2 0.362522 0.438034 0.739407
Si Si3 0.584847 0.656560 0.953120
Si Si4 0.560657 0.949242 0.366963
Si Si5 0.894877 0.235082 0.973968
O O1 0.731488 0.409656 0.682112
O O2 0.847600 0.264569 0.547949
O O3 0.886843 0.449031 0.719659
O O4 0.831705 0.254479 0.837125
O O5 0.384698 0.568610 0.686948
O O6 0.366001 0.372015 0.578337
O O7 0.424577 0.401601 0.875340
O O8 0.493733 0.711937 0.914868
O O9 0.500000 0.887376 0.250000
O O10 0.500000 0.000000 0.500000
O O11 0.620960 0.849849 0.424531
#
# Coordination Sequence:
#
# PCOD8154717 Si02
#       5
#     8   8   8   8   8
#     4  12  27  46  74 108 149 190 244 309 362 432
#     4  12  29  45  76 108 150 192 240 309 372 431
#     4  12  26  50  72 109 146 196 244 297 367 445
#     4  12  23  43  71 105 139 190 242 301 358 434
#     4  12  26  48  75 104 146 195 249 296 365 440
#
# _framework density 25.462534000000002
#
# number of rings (size 3 to 8) (size 9 to 14) (size 15 to 20)
#    0.000    0.000    4.000    5.400    5.600    1.600 
#    0.000    0.000    0.000    0.000    0.000    0.000 
#    0.000    0.000    0.000    0.000    0.000    0.000 
#
# Total GULP energy -247872.726310 kJ/mol
# GULP energy per Si atom -12393.636315 kJ/mol
# Density = 2.540458 g / cm^3
# Si number density = 25.462534 Si / 1000 Ang^3
#
#
#
# Elastic Constant Matrix: (Units=GPa)
#
#
# Indices 1 2 3 4 5 6 
#
# 1 35.9207 1.3644 -4.7811 0.0000 -4.2058 0.0000
# 2 1.3644 117.4882 6.5747 0.0000 -6.0720 0.0000
# 3 -4.7811 6.5747 73.6433 0.0000 8.0585 0.0000
# 4 0.0000 0.0000 0.0000 49.7442 0.0000 -6.2609
# 5 -4.2058 -6.0720 8.0585 0.0000 36.5780 0.0000
# 6 0.0000 0.0000 0.0000 -6.2609 0.0000 33.8047
#
#
#
# Elastic Compliance Matrix: (Units=1/GPa)
#
#
# Indices 1 2 3 4 5 6 
#
# 1 0.028393 -0.000268 0.001552 0.000000 0.002878 0.000000
# 2 -0.000268 0.008652 -0.000967 0.000000 0.001619 0.000000
# 3 0.001552 -0.000967 0.014104 0.000000 -0.003089 0.000000
# 4 0.000000 0.000000 0.000000 0.020583 0.000000 0.003812
# 5 0.002878 0.001619 -0.003089 0.000000 0.028619 0.000000
# 6 0.000000 0.000000 0.000000 0.003812 0.000000 0.030288
#
#
# Mechanical properties :
#
#
# Convention : Reuss Voigt Hill
#
# Bulk Modulus (GPa) = 19.31086 25.92981 22.62033
# Shear Modulus (GPa) = 33.95236 38.95169 36.45202
#
# Velocity S-wave (km/s) = 3.65557 3.91546 3.78775
# Velocity P-wave (km/s) = 5.04163 5.53595 5.29457
#
# Compressibility (1/GPa) = 0.05178434
#
# Stress axis : x y z
#
# Youngs Moduli (GPa) = 35.22007 115.57540 70.90128
#
# Poissons Ratio (x) = 0.03096 -0.11006
# Poissons Ratio (y) = 0.00943 0.06856
# Poissons Ratio (z) = -0.05467 0.11176
#
# Static dielectric constant tensor:
#      x y z
#    x 4.344940 0.000000 -0.359110 
#    y 0.000000 4.327510 0.000000 
#    z -0.359110 0.000000 4.305490 
# 
# 
# High freq. dielectric constant tensor:
#      x y z
#    x 1.999460 0.000000 -0.003110 
#    y 0.000000 2.035780 0.000000 
#    z -0.003110 0.000000 2.025050 
# 
# From -- ./inp_files/46201.got.cif
#   From: 2010.06.25/outbox.cif.g09.slc.cpg/sg15_24_cif.got.tgz:46201.got - 2010.06.28 07:06:18.
