data_PCOD8154072
_publ_section_title
;
Structure prediction by ZEFSAII (Michael W. Deem and Ramdas Pophale) SiO2 
 PCOD8154072
Probable space group: C 2/C
;
_chemical_formula_sum "Si O2"
_cell_formula_units_Z 56
_cell_length_a 14.591905
_cell_length_b 19.864478
_cell_length_c 18.346202
_cell_angle_alpha 90.000000
_cell_angle_beta 151.383478
_cell_angle_gamma 90.000000
_cell_volume 2546.953288
_symmetry_space_group_name_H-M "C 2/C"
_symmetry_group_IT_number 15
_symmetry_cell_setting 'monoclinic'
loop_
_space_group_symop_operation_xyz
x,y,z
-x,y,1/2-z
-x,-y,-z
x,-y,1/2+z
1/2+x,1/2+y,z
1/2-x,1/2+y,1/2-z
1/2-x,1/2-y,-z
1/2+x,1/2-y,1/2+z
loop_
_atom_site_type_symbol
_atom_site_label
_atom_site_fract_x
_atom_site_fract_y
_atom_site_fract_z
Si Si1 0.000000 0.489671 0.250000
Si Si2 0.661450 0.089826 0.471695
Si Si3 0.500000 0.510319 0.750000
Si Si4 0.912358 0.195435 0.610309
Si Si5 0.221513 0.707513 0.731218
Si Si6 0.897722 0.661441 0.395214
Si Si7 0.868098 0.960042 0.803905
Si Si8 0.305463 0.423787 0.369322
O O1 0.032037 0.535603 0.342635
O O2 0.177317 0.445288 0.348790
O O3 0.801081 0.126515 0.510333
O O4 0.535182 0.147886 0.422013
O O5 0.804491 0.052255 0.627448
O O6 0.509828 0.469522 0.833117
O O7 0.750000 0.250000 0.500000
O O8 0.000000 0.184316 0.750000
O O9 0.077922 0.209264 0.670288
O O10 0.224054 0.784534 0.762826
O O11 0.239750 0.651918 0.806415
O O12 0.031613 0.690512 0.553184
O O13 0.802384 0.588520 0.344288
O O14 0.788416 0.030046 0.783929
O O15 0.979375 0.924138 0.948577
#
# Coordination Sequence:
#
# PCOD8154072 Si02
#       8
#     4   8   4   8   8   8   8   8
#     4  12  26  42  70 102 132 188 230 298 334 418
#     4  12  23  40  64  99 134 176 229 285 351 413
#     4  12  24  44  68  98 140 172 236 298 358 414
#     4  12  23  38  60  94 136 180 221 276 347 420
#     4  12  25  43  66 100 145 185 235 284 352 428
#     4  12  25  43  69 100 140 189 234 288 352 418
#     4  11  25  43  69 100 137 183 231 297 352 416
#     4  11  25  45  68 101 142 183 237 289 354 415
#
# _framework density 21.987053
#
# number of rings (size 3 to 8) (size 9 to 14) (size 15 to 20)
#    0.000    0.286    6.429    2.571    5.000    2.286 
#    0.000    0.714    0.000    3.429    0.000    0.000 
#    0.000    0.000    0.000    0.000    0.000    0.000 
#
# Total GULP energy -346949.467060 kJ/mol
# GULP energy per Si atom -12391.052395 kJ/mol
# Density = 2.193701 g / cm^3
# Si number density = 21.987053 Si / 1000 Ang^3
#
#
#
# Elastic Constant Matrix: (Units=GPa)
#
#
# Indices 1 2 3 4 5 6 
#
# 1 67.8995 21.5649 18.7063 0.0027 -5.8382 0.0090
# 2 21.5649 111.3423 44.2847 -0.0097 -3.0043 0.0072
# 3 18.7063 44.2847 103.0786 -0.0098 4.0917 0.0166
# 4 0.0027 -0.0097 -0.0098 45.4787 0.0055 8.5461
# 5 -5.8382 -3.0043 4.0917 0.0055 26.9896 0.0088
# 6 0.0090 0.0072 0.0166 8.5461 0.0088 34.6368
#
#
#
# Elastic Compliance Matrix: (Units=1/GPa)
#
#
# Indices 1 2 3 4 5 6 
#
# 1 0.016334 -0.002207 -0.002160 -0.000002 0.003615 -0.000003
# 2 -0.002207 0.011231 -0.004482 0.000001 0.001452 0.000000
# 3 -0.002160 -0.004482 0.012130 0.000003 -0.002805 -0.000004
# 4 -0.000002 0.000001 0.000003 0.023057 -0.000004 -0.005689
# 5 0.003615 0.001452 -0.002805 -0.000004 0.038420 -0.000009
# 6 -0.000003 0.000000 -0.000004 -0.005689 -0.000009 0.030275
#
#
# Mechanical properties :
#
#
# Convention : Reuss Voigt Hill
#
# Bulk Modulus (GPa) = 45.45924 50.15913 47.80919
# Shear Modulus (GPa) = 31.95345 34.60532 33.27939
#
# Velocity S-wave (km/s) = 3.81633 3.97154 3.89471
# Velocity P-wave (km/s) = 6.33558 6.62521 6.48201
#
# Compressibility (1/GPa) = 0.02199773
#
# Stress axis : x y z
#
# Youngs Moduli (GPa) = 61.22028 89.04215 82.43928
#
# Poissons Ratio (x) = 0.19653 0.17803
# Poissons Ratio (y) = 0.13513 0.36949
# Poissons Ratio (z) = 0.13221 0.39909
#
# Static dielectric constant tensor:
#      x y z
#    x 3.701650 -0.000050 0.099730 
#    y -0.000050 4.185580 -0.000050 
#    z 0.099730 -0.000050 4.024570 
# 
# 
# High freq. dielectric constant tensor:
#      x y z
#    x 1.834600 0.000000 0.006490 
#    y 0.000000 1.869850 -0.000010 
#    z 0.006490 -0.000010 1.875950 
# 
# From -- ./inp_files/207029.got.cif
#   From: 2010.06.25/outbox.cif.g09.slc.cpg/sg15_104_cif.got.tgz:207029.got - 2010.06.28 07:06:18.
