data_PCOD8154736
_publ_section_title
;
Structure prediction by ZEFSAII (Michael W. Deem and Ramdas Pophale) SiO2 
 PCOD8154736
Probable space group: C 2/C
;
_chemical_formula_sum "Si O2"
_cell_formula_units_Z 60
_cell_length_a 16.048930
_cell_length_b 13.154893
_cell_length_c 18.514566
_cell_angle_alpha 90.000000
_cell_angle_beta 43.964266
_cell_angle_gamma 90.000000
_cell_volume 2713.548288
_symmetry_space_group_name_H-M "C 2/C"
_symmetry_group_IT_number 15
_symmetry_cell_setting 'monoclinic'
loop_
_space_group_symop_operation_xyz
x,y,z
-x,y,1/2-z
-x,-y,-z
x,-y,1/2+z
1/2+x,1/2+y,z
1/2-x,1/2+y,1/2-z
1/2-x,1/2-y,-z
1/2+x,1/2-y,1/2+z
loop_
_atom_site_type_symbol
_atom_site_label
_atom_site_fract_x
_atom_site_fract_y
_atom_site_fract_z
Si Si1 0.472528 0.480442 0.433602
Si Si2 0.000000 0.632587 0.250000
Si Si3 0.897490 0.874392 0.757449
Si Si4 0.475021 0.116591 0.533940
Si Si5 0.191933 0.345133 0.993060
Si Si6 0.967726 0.753417 0.127427
Si Si7 0.704732 0.970199 0.115455
Si Si8 0.792379 0.316735 0.254620
O O1 0.500000 0.500000 0.500000
O O2 0.567298 0.538208 0.322186
O O3 0.476956 0.363461 0.412470
O O4 0.336088 0.507708 0.501938
O O5 0.000914 0.708897 0.183559
O O6 0.879149 0.565756 0.314105
O O7 0.780805 0.898579 0.879351
O O8 0.882664 0.770823 0.722723
O O9 0.000000 0.853741 0.750000
O O10 0.574191 0.177805 0.519566
O O11 0.461956 0.178235 0.469089
O O12 0.347963 0.120576 0.653845
O O13 0.500000 0.000000 0.500000
O O14 0.250000 0.250000 0.000000
O O15 0.140719 0.418565 0.087029
O O16 0.827205 0.759936 0.196695
O O17 0.727543 0.896321 0.168652
#
# Coordination Sequence:
#
# PCOD8154736 Si02
#       8
#     8   4   8   8   8   8   8   8
#     4  12  28  47  75 108 150 196 258 306 374 448
#     4  12  32  50  76 106 156 204 250 310 394 448
#     4  12  25  43  76 111 143 191 246 315 371 440
#     4  12  27  47  74 109 148 196 247 305 384 451
#     4  12  23  44  72 110 147 182 247 308 372 437
#     4  12  28  52  72 111 146 202 252 310 375 463
#     4  12  25  49  73 111 151 198 244 314 374 456
#     4  12  26  45  81 107 154 193 248 312 377 452
#
# _framework density 22.111270000000001
#
# number of rings (size 3 to 8) (size 9 to 14) (size 15 to 20)
#    0.000    0.000    5.333    4.000    7.467    0.533 
#    0.000    0.000    0.000    0.000    0.000    0.000 
#    0.000    0.000    0.000    0.000    0.000    0.000 
#
# Total GULP energy -371903.163935 kJ/mol
# GULP energy per Si atom -12396.772131 kJ/mol
# Density = 2.206094 g / cm^3
# Si number density = 22.111270 Si / 1000 Ang^3
#
#
#
# Elastic Constant Matrix: (Units=GPa)
#
#
# Indices 1 2 3 4 5 6 
#
# 1 97.0390 26.9677 25.0672 0.0000 21.6146 0.0000
# 2 26.9677 147.0652 49.0032 0.0000 22.9723 0.0000
# 3 25.0672 49.0032 141.4130 0.0000 21.5981 0.0000
# 4 0.0000 0.0000 0.0000 41.2140 0.0000 -0.4662
# 5 21.6146 22.9723 21.5981 0.0000 36.9472 0.0000
# 6 0.0000 0.0000 0.0000 -0.4662 0.0000 24.2788
#
#
#
# Elastic Compliance Matrix: (Units=1/GPa)
#
#
# Indices 1 2 3 4 5 6 
#
# 1 0.012141 -0.000997 -0.000897 0.000000 -0.005959 0.000000
# 2 -0.000997 0.008215 -0.002173 0.000000 -0.003254 0.000000
# 3 -0.000897 -0.002173 0.008452 0.000000 -0.003065 0.000000
# 4 0.000000 0.000000 0.000000 0.024269 0.000000 0.000466
# 5 -0.005959 -0.003254 -0.003065 0.000000 0.034367 0.000000
# 6 0.000000 0.000000 0.000000 0.000466 0.000000 0.041197
#
#
# Mechanical properties :
#
#
# Convention : Reuss Voigt Hill
#
# Bulk Modulus (GPa) = 48.36833 65.28815 56.82824
# Shear Modulus (GPa) = 34.80336 39.45328 37.12832
#
# Velocity S-wave (km/s) = 3.97168 4.22869 4.10220
# Velocity P-wave (km/s) = 6.55399 7.30983 6.94220
#
# Compressibility (1/GPa) = 0.02067468
#
# Stress axis : x y z
#
# Youngs Moduli (GPa) = 82.36525 121.73055 118.32210
#
# Poissons Ratio (x) = 0.12134 0.10609
# Poissons Ratio (y) = 0.08210 0.25711
# Poissons Ratio (z) = 0.07385 0.26451
#
# Static dielectric constant tensor:
#      x y z
#    x 0.000000 0.000000 0.000000 
#    y 0.000000 0.000000 0.000000 
#    z 0.000000 0.000000 0.000000 
# 
# 
# High freq. dielectric constant tensor:
#      x y z
#    x 1.878720 0.000000 0.009860 
#    y 0.000000 1.871830 0.000000 
#    z 0.009860 0.000000 1.891440 
# 
# From -- ./inp_files/248753.got.cif
#   From: 2010.06.25/outbox.cif.g09.slc.cpg/sg15_125_cif.got.tgz:248753.got - 2010.06.28 07:06:18.
