data_PCOD8154956
_publ_section_title
;
Structure prediction by ZEFSAII (Michael W. Deem and Ramdas Pophale) SiO2 
 PCOD8154956
Probable space group: C 2/C
;
_chemical_formula_sum "Si O2"
_cell_formula_units_Z 44
_cell_length_a 22.465196
_cell_length_b 5.135489
_cell_length_c 16.089715
_cell_angle_alpha 90.000000
_cell_angle_beta 79.756404
_cell_angle_gamma 90.000000
_cell_volume 1826.678856
_symmetry_space_group_name_H-M "C 2/C"
_symmetry_group_IT_number 15
_symmetry_cell_setting 'monoclinic'
loop_
_space_group_symop_operation_xyz
x,y,z
-x,y,1/2-z
-x,-y,-z
x,-y,1/2+z
1/2+x,1/2+y,z
1/2-x,1/2+y,1/2-z
1/2-x,1/2-y,-z
1/2+x,1/2-y,1/2+z
loop_
_atom_site_type_symbol
_atom_site_label
_atom_site_fract_x
_atom_site_fract_y
_atom_site_fract_z
Si Si1 0.800935 0.316677 0.923219
Si Si2 0.876980 0.199194 0.386710
Si Si3 0.729922 0.466754 0.290730
Si Si4 0.000000 0.288921 0.750000
Si Si5 0.497637 0.867917 0.410632
Si Si6 0.401545 0.586230 0.205730
O O1 0.837422 0.576048 0.940747
O O2 0.764661 0.358654 0.848331
O O3 0.846645 0.080563 0.900873
O O4 0.750000 0.250000 0.000000
O O5 0.884591 0.280012 0.286445
O O6 0.940758 0.170922 0.420816
O O7 0.755613 0.170344 0.289209
O O8 0.657481 0.458440 0.322189
O O9 0.016544 0.444026 0.662872
O O10 0.940898 0.126054 0.743701
O O11 0.561257 0.724115 0.377452
O O12 0.500000 0.000000 0.500000
#
# Coordination Sequence:
#
# PCOD8154956 Si02
#       6
#     8   8   8   4   8   8
#     4  12  27  47  74 108 153 197 252 317 389 459
#     4  12  24  50  76 105 151 208 249 318 395 465
#     4  12  26  45  72 110 141 195 256 305 375 467
#     4  12  24  50  78 102 162 206 256 322 404 458
#     4  12  29  47  77 118 154 205 271 331 392 473
#     4  12  25  46  76 107 150 206 256 318 396 466
#
# _framework density 24.087430000000001
#
# number of rings (size 3 to 8) (size 9 to 14) (size 15 to 20)
#    0.000    0.000    7.273    1.636    5.091    2.182 
#    0.000    0.000    0.000    0.000    0.000    0.000 
#    0.000    0.000    0.000    0.000    0.000    0.000 
#
# Total GULP energy -272680.359095 kJ/mol
# GULP energy per Si atom -12394.561777 kJ/mol
# Density = 2.403261 g / cm^3
# Si number density = 24.087430 Si / 1000 Ang^3
#
#
#
# Elastic Constant Matrix: (Units=GPa)
#
#
# Indices 1 2 3 4 5 6 
#
# 1 166.0708 32.4566 5.0058 0.0000 -8.1092 0.0000
# 2 32.4566 98.4441 4.0917 0.0000 0.2845 0.0000
# 3 5.0058 4.0917 89.7581 0.0000 -4.0023 0.0000
# 4 0.0000 0.0000 0.0000 17.5073 0.0000 -12.3231
# 5 -8.1092 0.2845 -4.0023 0.0000 34.2004 0.0000
# 6 0.0000 0.0000 0.0000 -12.3231 0.0000 -0.1627
#
#
#
# Elastic Compliance Matrix: (Units=1/GPa)
#
#
# Indices 1 2 3 4 5 6 
#
# 1 0.006522 -0.002147 -0.000197 0.000000 0.001541 0.000000
# 2 -0.002147 0.010884 -0.000405 0.000000 -0.000647 0.000000
# 3 -0.000197 -0.000405 0.011227 0.000000 0.001270 0.000000
# 4 0.000000 0.000000 0.000000 0.001051 0.000000 -0.079654
# 5 0.001541 -0.000647 0.001270 0.000000 0.029759 0.000000
# 6 0.000000 0.000000 0.000000 -0.079654 0.000000 -0.113164
#
#
# Mechanical properties :
#
#
# Convention : Reuss Voigt Hill
#
# Bulk Modulus (GPa) = 43.22315 48.59791 45.91053
# Shear Modulus (GPa) = -123.42822 31.15693 -46.13565
#
# Velocity S-wave (km/s) = -7.16610 3.60042 -4.38121
# Velocity P-wave (km/s) = 7.10545 6.12401 2.54794
#
# Compressibility (1/GPa) = 0.02313575
#
# Stress axis : x y z
#
# Youngs Moduli (GPa) = 153.32108 91.87384 89.06956
#
# Poissons Ratio (x) = 0.19722 0.01756
# Poissons Ratio (y) = 0.32912 0.03610
# Poissons Ratio (z) = 0.03023 0.03724
#
# Static dielectric constant tensor:
#      x y z
#    x 5.053750 0.000000 -0.371010 
#    y 0.000000 4.440450 0.000000 
#    z -0.371010 0.000000 4.429300 
# 
# 
# High freq. dielectric constant tensor:
#      x y z
#    x 1.988250 0.000000 -0.004450 
#    y 0.000000 1.956630 0.000000 
#    z -0.004450 0.000000 1.935360 
# 
# From -- ./inp_files/212886.got.cif
#   From: 2010.06.25/outbox.cif.g09.slc.cpg/sg15_107_cif.got.tgz:212886.got - 2010.06.28 07:06:18.
