data_PCOD8154687
_publ_section_title
;
Structure prediction by ZEFSAII (Michael W. Deem and Ramdas Pophale) SiO2 
 PCOD8154687
Probable space group: C 2/C
;
_chemical_formula_sum "Si O2"
_cell_formula_units_Z 32
_cell_length_a 16.702835
_cell_length_b 9.566299
_cell_length_c 8.283403
_cell_angle_alpha 90.000000
_cell_angle_beta 124.176089
_cell_angle_gamma 90.000000
_cell_volume 1094.999372
_symmetry_space_group_name_H-M "C 2/C"
_symmetry_group_IT_number 15
_symmetry_cell_setting 'monoclinic'
loop_
_space_group_symop_operation_xyz
x,y,z
-x,y,1/2-z
-x,-y,-z
x,-y,1/2+z
1/2+x,1/2+y,z
1/2-x,1/2+y,1/2-z
1/2-x,1/2-y,-z
1/2+x,1/2-y,1/2+z
loop_
_atom_site_type_symbol
_atom_site_label
_atom_site_fract_x
_atom_site_fract_y
_atom_site_fract_z
Si Si1 0.142284 0.410268 0.545055
Si Si2 0.896727 0.922769 0.054092
Si Si3 0.050519 0.709546 0.656912
Si Si4 0.782435 0.854543 0.234551
O O1 0.132819 0.387487 0.339091
O O2 0.224457 0.305296 0.710275
O O3 0.176389 0.570334 0.614234
O O4 0.038672 0.384285 0.517728
O O5 0.822466 0.857392 0.098040
O O6 0.000000 0.948451 0.250000
O O7 0.902816 0.812933 0.915910
O O8 0.857717 0.068037 0.938571
O O9 0.000000 0.795136 0.750000
#
# Coordination Sequence:
#
# PCOD8154687 Si02
#       4
#     8   8   8   8
#     4   9  23  46  72 109 144 196 241 310 371 437
#     4  12  23  39  72 109 141 189 256 298 354 439
#     4   8  20  46  73  98 146 201 239 289 374 458
#     4  12  25  41  75 112 147 184 254 314 361 434
#
# _framework density 29.223762000000001
#
# number of rings (size 3 to 8) (size 9 to 14) (size 15 to 20)
#    1.500    0.000    2.500    2.250    3.500    5.000 
#    0.000    2.500    5.500    7.500    6.500    0.000 
#    0.000    0.000    0.000    0.000    0.000    0.000 
#
# Total GULP energy -198312.070021 kJ/mol
# GULP energy per Si atom -12394.504376 kJ/mol
# Density = 2.915725 g / cm^3
# Si number density = 29.223762 Si / 1000 Ang^3
#
#
#
# Elastic Constant Matrix: (Units=GPa)
#
#
# Indices 1 2 3 4 5 6 
#
# 1 99.6120 3.3950 15.2364 0.0000 -3.5916 0.0000
# 2 3.3950 118.1490 14.7944 0.0000 3.0185 0.0000
# 3 15.2364 14.7944 110.4895 0.0000 3.3216 0.0000
# 4 0.0000 0.0000 0.0000 5.4122 0.0000 -4.6413
# 5 -3.5916 3.0185 3.3216 0.0000 53.4536 0.0000
# 6 0.0000 0.0000 0.0000 -4.6413 0.0000 45.7478
#
#
#
# Elastic Compliance Matrix: (Units=1/GPa)
#
#
# Indices 1 2 3 4 5 6 
#
# 1 0.010290 -0.000137 -0.001424 0.000000 0.000788 0.000000
# 2 -0.000137 0.008619 -0.001122 0.000000 -0.000426 0.000000
# 3 -0.001424 -0.001122 0.009416 0.000000 -0.000617 0.000000
# 4 0.000000 0.000000 0.000000 0.202376 0.000000 0.020532
# 5 0.000788 -0.000426 -0.000617 0.000000 0.018823 0.000000
# 6 0.000000 0.000000 0.000000 0.020532 0.000000 0.023942
#
#
# Mechanical properties :
#
#
# Convention : Reuss Voigt Hill
#
# Bulk Modulus (GPa) = 43.55980 43.90024 43.73002
# Shear Modulus (GPa) = 17.45284 40.57769 29.01526
#
# Velocity S-wave (km/s) = 2.44645 3.73032 3.15440
# Velocity P-wave (km/s) = 4.78729 5.79728 5.31632
#
# Compressibility (1/GPa) = 0.02295695
#
# Stress axis : x y z
#
# Youngs Moduli (GPa) = 97.18278 116.01916 106.20357
#
# Poissons Ratio (x) = 0.01595 0.15126
# Poissons Ratio (y) = 0.01336 0.11920
# Poissons Ratio (z) = 0.13841 0.13021
#
# Static dielectric constant tensor:
#      x y z
#    x 5.513180 0.000000 0.016720 
#    y 0.000000 4.933200 0.000000 
#    z 0.016720 0.000000 5.635560 
# 
# 
# High freq. dielectric constant tensor:
#      x y z
#    x 2.197730 0.000000 0.009880 
#    y 0.000000 2.181030 0.000000 
#    z 0.009880 0.000000 2.212950 
# 
# From -- ./inp_files/45965.got.cif
#   From: 2010.06.25/outbox.cif.g09.slc.cpg/sg15_23_cif.got.tgz:45965.got - 2010.06.28 07:06:18.
