data_PCOD8154261
_publ_section_title
;
Structure prediction by ZEFSAII (Michael W. Deem and Ramdas Pophale) SiO2 
 PCOD8154261
Probable space group: C 2/C
;
_chemical_formula_sum "Si O2"
_cell_formula_units_Z 48
_cell_length_a 14.089955
_cell_length_b 11.101627
_cell_length_c 15.428249
_cell_angle_alpha 90.000000
_cell_angle_beta 58.885860
_cell_angle_gamma 90.000000
_cell_volume 2066.129098
_symmetry_space_group_name_H-M "C 2/C"
_symmetry_group_IT_number 15
_symmetry_cell_setting 'monoclinic'
loop_
_space_group_symop_operation_xyz
x,y,z
-x,y,1/2-z
-x,-y,-z
x,-y,1/2+z
1/2+x,1/2+y,z
1/2-x,1/2+y,1/2-z
1/2-x,1/2-y,-z
1/2+x,1/2-y,1/2+z
loop_
_atom_site_type_symbol
_atom_site_label
_atom_site_fract_x
_atom_site_fract_y
_atom_site_fract_z
Si Si1 0.273912 0.832472 0.289304
Si Si2 0.811024 0.237664 0.099353
Si Si3 0.153144 0.419684 0.555880
Si Si4 0.777003 0.147068 0.419095
Si Si5 0.588776 0.514188 0.384136
Si Si6 0.000000 0.558250 0.750000
Si Si7 0.500000 0.554061 0.250000
O O1 0.255035 0.828686 0.194531
O O2 0.234750 0.703242 0.347583
O O3 0.195931 0.938073 0.362655
O O4 0.399960 0.861369 0.259762
O O5 0.727014 0.147369 0.092317
O O6 0.888553 0.157323 0.125013
O O7 0.880823 0.317038 0.997792
O O8 0.220623 0.522231 0.472231
O O9 0.043643 0.473766 0.651117
O O10 0.750000 0.250000 0.500000
O O11 0.908774 0.131169 0.345063
O O12 0.500000 0.500000 0.500000
O O13 0.553054 0.474613 0.303302
#
# Coordination Sequence:
#
# PCOD8154261 Si02
#       7
#     8   8   8   8   8   4   4
#     4  12  26  45  78 108 149 193 255 306 380 448
#     4  11  25  48  70 108 154 192 253 312 371 461
#     4  11  26  46  75 106 155 202 246 311 384 447
#     4  12  23  44  75 107 146 196 244 307 371 451
#     4  12  26  48  75 110 148 199 259 316 376 455
#     4  12  25  48  75 112 152 199 244 317 376 456
#     4  12  25  44  75 108 148 197 254 307 374 448
#
# _framework density 23.231847999999999
#
# number of rings (size 3 to 8) (size 9 to 14) (size 15 to 20)
#    0.000    0.333    5.000    3.500    0.000    4.667 
#    0.000    3.333    0.000    0.000    0.000    0.000 
#    0.000    0.000    0.000    0.000    0.000    0.000 
#
# Total GULP energy -297409.973136 kJ/mol
# GULP energy per Si atom -12392.082214 kJ/mol
# Density = 2.317897 g / cm^3
# Si number density = 23.231848 Si / 1000 Ang^3
#
#
#
# Elastic Constant Matrix: (Units=GPa)
#
#
# Indices 1 2 3 4 5 6 
#
# 1 96.0737 54.1689 65.7320 0.0000 2.8382 0.0000
# 2 54.1689 109.1476 55.4010 0.0000 -2.6660 0.0000
# 3 65.7320 55.4010 172.7031 0.0000 -4.5136 0.0000
# 4 0.0000 0.0000 0.0000 44.9364 0.0000 4.8224
# 5 2.8382 -2.6660 -4.5136 0.0000 49.4800 0.0000
# 6 0.0000 0.0000 0.0000 4.8224 0.0000 14.7847
#
#
#
# Elastic Compliance Matrix: (Units=1/GPa)
#
#
# Indices 1 2 3 4 5 6 
#
# 1 0.017073 -0.006204 -0.004553 0.000000 -0.001729 0.000000
# 2 -0.006204 0.013202 -0.001850 0.000000 0.000898 0.000000
# 3 -0.004553 -0.001850 0.008140 0.000000 0.000904 0.000000
# 4 0.000000 0.000000 0.000000 0.023061 0.000000 -0.007522
# 5 -0.001729 0.000898 0.000904 0.000000 0.020440 0.000000
# 6 0.000000 0.000000 0.000000 -0.007522 0.000000 0.070091
#
#
# Mechanical properties :
#
#
# Convention : Reuss Voigt Hill
#
# Bulk Modulus (GPa) = 75.75553 80.94760 78.35156
# Shear Modulus (GPa) = 27.52956 35.34838 31.43897
#
# Velocity S-wave (km/s) = 3.44611 3.90493 3.68267
# Velocity P-wave (km/s) = 6.96516 7.43306 7.20291
#
# Compressibility (1/GPa) = 0.01320036
#
# Stress axis : x y z
#
# Youngs Moduli (GPa) = 58.57181 75.74525 122.84518
#
# Poissons Ratio (x) = 0.46995 0.55932
# Poissons Ratio (y) = 0.36340 0.22728
# Poissons Ratio (z) = 0.26668 0.14014
#
# Static dielectric constant tensor:
#      x y z
#    x 3.865870 0.000000 0.126230 
#    y 0.000000 5.079700 0.000000 
#    z 0.126230 0.000000 4.707830 
# 
# 
# High freq. dielectric constant tensor:
#      x y z
#    x 1.894250 0.000000 0.012090 
#    y 0.000000 1.927540 0.000000 
#    z 0.012090 0.000000 1.948580 
# 
# From -- ./inp_files/152513.got.cif
#   From: 2010.06.25/outbox.cif.g09.slc.cpg/sg15_77_cif.got.tgz:152513.got - 2010.06.28 07:06:18.
