data_PCOD8154370
_publ_section_title
;
Structure prediction by ZEFSAII (Michael W. Deem and Ramdas Pophale) SiO2 
 PCOD8154370
Probable space group: C 2/C
;
_chemical_formula_sum "Si O2"
_cell_formula_units_Z 36
_cell_length_a 13.339337
_cell_length_b 4.708318
_cell_length_c 18.991611
_cell_angle_alpha 90.000000
_cell_angle_beta 98.068528
_cell_angle_gamma 90.000000
_cell_volume 1180.976607
_symmetry_space_group_name_H-M "C 2/C"
_symmetry_group_IT_number 15
_symmetry_cell_setting 'monoclinic'
loop_
_space_group_symop_operation_xyz
x,y,z
-x,y,1/2-z
-x,-y,-z
x,-y,1/2+z
1/2+x,1/2+y,z
1/2-x,1/2+y,1/2-z
1/2-x,1/2-y,-z
1/2+x,1/2-y,1/2+z
loop_
_atom_site_type_symbol
_atom_site_label
_atom_site_fract_x
_atom_site_fract_y
_atom_site_fract_z
Si Si1 0.103767 0.188506 0.512489
Si Si2 0.060903 0.646732 0.398912
Si Si3 0.000000 0.576510 0.750000
Si Si4 0.813325 0.103326 0.274625
Si Si5 0.283680 0.796815 0.419045
O O1 0.078645 0.336418 0.435597
O O2 0.176133 0.387267 0.566871
O O3 0.998791 0.150646 0.548860
O O4 0.175385 0.901584 0.510710
O O5 0.996993 0.617043 0.320511
O O6 0.165466 0.797042 0.389391
O O7 0.903364 0.782580 0.734635
O O8 0.709688 0.274497 0.243854
O O9 0.841913 0.153662 0.358874
#
# Coordination Sequence:
#
# PCOD8154370 Si02
#       5
#     8   8   4   8   8
#     4  11  27  49  74 110 143 189 245 299 355 433
#     4  11  26  46  77 107 148 190 242 296 366 423
#     4  12  26  48  74 108 148 194 236 302 360 434
#     4  12  27  48  71 106 148 189 241 294 361 431
#     4  12  25  48  78 102 145 191 241 298 358 427
#
# _framework density 30.483246999999999
#
# number of rings (size 3 to 8) (size 9 to 14) (size 15 to 20)
#    0.000    0.444    4.444    2.667    0.000    8.000 
#    0.000    0.000    0.000    0.000    0.000    0.000 
#    0.000    0.000    0.000    0.000    0.000    0.000 
#
# Total GULP energy -223403.930176 kJ/mol
# GULP energy per Si atom -12411.329454 kJ/mol
# Density = 3.041387 g / cm^3
# Si number density = 30.483247 Si / 1000 Ang^3
#
#
#
# Elastic Constant Matrix: (Units=GPa)
#
#
# Indices 1 2 3 4 5 6 
#
# 1 150.7554 23.0310 12.4848 0.0000 15.4786 0.0000
# 2 23.0310 110.5724 -3.9342 0.0000 15.0529 0.0000
# 3 12.4848 -3.9342 141.8986 0.0000 9.5718 0.0000
# 4 0.0000 0.0000 0.0000 37.9338 0.0000 1.4004
# 5 15.4786 15.0529 9.5718 0.0000 45.5240 0.0000
# 6 0.0000 0.0000 0.0000 1.4004 0.0000 46.2808
#
#
#
# Elastic Compliance Matrix: (Units=1/GPa)
#
#
# Indices 1 2 3 4 5 6 
#
# 1 0.007059 -0.001233 -0.000528 0.000000 -0.001881 0.000000
# 2 -0.001233 0.009718 0.000575 0.000000 -0.002915 0.000000
# 3 -0.000528 0.000575 0.007213 0.000000 -0.001527 0.000000
# 4 0.000000 0.000000 0.000000 0.026391 0.000000 -0.000799
# 5 -0.001881 -0.002915 -0.001527 0.000000 0.023891 0.000000
# 6 0.000000 0.000000 0.000000 -0.000799 0.000000 0.021631
#
#
# Mechanical properties :
#
#
# Convention : Reuss Voigt Hill
#
# Bulk Modulus (GPa) = 46.26260 51.82107 49.04183
# Shear Modulus (GPa) = 47.40177 50.72404 49.06290
#
# Velocity S-wave (km/s) = 3.94764 4.08364 4.01621
# Velocity P-wave (km/s) = 5.99899 6.26670 6.13430
#
# Compressibility (1/GPa) = 0.02161573
#
# Stress axis : x y z
#
# Youngs Moduli (GPa) = 141.67276 102.90274 138.64445
#
# Poissons Ratio (x) = 0.12687 0.07325
# Poissons Ratio (y) = 0.17467 -0.07966
# Poissons Ratio (z) = 0.07485 -0.05912
#
# Static dielectric constant tensor:
#      x y z
#    x 5.943040 0.000000 -0.215910 
#    y 0.000000 5.422800 0.000000 
#    z -0.215910 0.000000 5.763220 
# 
# 
# High freq. dielectric constant tensor:
#      x y z
#    x 2.271590 0.000000 0.002740 
#    y 0.000000 2.250880 0.000000 
#    z 0.002740 0.000000 2.269890 
# 
# From -- ./inp_files/241435.got.cif
#   From: 2010.06.25/outbox.cif.g09.slc.cpg/sg15_121_cif.got.tgz:241435.got - 2010.06.28 07:06:18.
