data_PCOD8154307
_publ_section_title
;
Structure prediction by ZEFSAII (Michael W. Deem and Ramdas Pophale) SiO2 
 PCOD8154307
Probable space group: C 2/C
;
_chemical_formula_sum "Si O2"
_cell_formula_units_Z 32
_cell_length_a 5.898276
_cell_length_b 17.148254
_cell_length_c 13.515682
_cell_angle_alpha 90.000000
_cell_angle_beta 109.198332
_cell_angle_gamma 90.000000
_cell_volume 1291.018537
_symmetry_space_group_name_H-M "C 2/C"
_symmetry_group_IT_number 15
_symmetry_cell_setting 'monoclinic'
loop_
_space_group_symop_operation_xyz
x,y,z
-x,y,1/2-z
-x,-y,-z
x,-y,1/2+z
1/2+x,1/2+y,z
1/2-x,1/2+y,1/2-z
1/2-x,1/2-y,-z
1/2+x,1/2-y,1/2+z
loop_
_atom_site_type_symbol
_atom_site_label
_atom_site_fract_x
_atom_site_fract_y
_atom_site_fract_z
Si Si1 0.500000 0.621278 0.250000
Si Si2 0.726778 0.655076 0.890864
Si Si3 0.115749 0.281318 0.577597
Si Si4 0.500000 0.116265 0.750000
Si Si5 0.580537 0.485043 0.121469
O O1 0.711061 0.673222 0.324447
O O2 0.609883 0.567329 0.180037
O O3 0.497837 0.710724 0.875319
O O4 0.632395 0.566972 0.860804
O O5 0.865158 0.673998 0.807935
O O6 0.902415 0.661630 0.010566
O O7 0.250000 0.250000 0.500000
O O8 0.671107 0.061792 0.840753
O O9 0.500000 0.500000 0.000000
#
# Coordination Sequence:
#
# PCOD8154307 Si02
#       5
#     4   8   8   4   8
#     4  12  26  51  80 119 154 210 272 334 415 472
#     4  11  25  50  76 112 159 211 261 327 404 474
#     4  11  27  50  79 115 160 209 269 339 397 487
#     4  12  24  45  80 107 160 210 260 320 405 480
#     4  12  27  47  76 115 155 207 265 331 397 483
#
# _framework density 24.786631
#
# number of rings (size 3 to 8) (size 9 to 14) (size 15 to 20)
#    0.000    0.500    2.500    4.500    3.500    8.000 
#    0.000    2.500    0.000    0.000    0.000    0.000 
#    0.000    0.000    0.000    0.000    0.000    0.000 
#
# Total GULP energy -198456.553374 kJ/mol
# GULP energy per Si atom -12403.534586 kJ/mol
# Density = 2.473022 g / cm^3
# Si number density = 24.786631 Si / 1000 Ang^3
#
#
#
# Elastic Constant Matrix: (Units=GPa)
#
#
# Indices 1 2 3 4 5 6 
#
# 1 150.0548 74.0928 74.0474 0.0000 -14.2797 0.0000
# 2 74.0928 131.5867 86.1544 0.0000 9.7482 0.0000
# 3 74.0474 86.1544 189.1974 0.0000 15.5048 0.0000
# 4 0.0000 0.0000 0.0000 57.0847 0.0000 6.5134
# 5 -14.2797 9.7482 15.5048 0.0000 69.8022 0.0000
# 6 0.0000 0.0000 0.0000 6.5134 0.0000 31.8220
#
#
#
# Elastic Compliance Matrix: (Units=1/GPa)
#
#
# Indices 1 2 3 4 5 6 
#
# 1 0.010346 -0.004617 -0.002213 0.000000 0.003253 0.000000
# 2 -0.004617 0.012901 -0.003914 0.000000 -0.001877 0.000000
# 3 -0.002213 -0.003914 0.008073 0.000000 -0.001699 0.000000
# 4 0.000000 0.000000 0.000000 0.017937 0.000000 -0.003671
# 5 0.003253 -0.001877 -0.001699 0.000000 0.015631 0.000000
# 6 0.000000 0.000000 0.000000 -0.003671 0.000000 0.032176
#
#
# Mechanical properties :
#
#
# Convention : Reuss Voigt Hill
#
# Bulk Modulus (GPa) = 101.71445 104.38088 103.04767
# Shear Modulus (GPa) = 41.04086 47.51141 44.27613
#
# Velocity S-wave (km/s) = 4.07352 4.38290 4.23104
# Velocity P-wave (km/s) = 7.95298 8.23506 8.09525
#
# Compressibility (1/GPa) = 0.00983144
#
# Stress axis : x y z
#
# Youngs Moduli (GPa) = 96.65724 77.51325 123.86867
#
# Poissons Ratio (x) = 0.35792 0.27413
# Poissons Ratio (y) = 0.44631 0.48479
# Poissons Ratio (z) = 0.21391 0.30337
#
# Static dielectric constant tensor:
#      x y z
#    x 4.762810 0.000000 0.180440 
#    y 0.000000 4.589830 0.000000 
#    z 0.180440 0.000000 4.796420 
# 
# 
# High freq. dielectric constant tensor:
#      x y z
#    x 1.995640 0.000000 0.013170 
#    y 0.000000 1.982240 0.000000 
#    z 0.013170 0.000000 2.017920 
# 
# From -- ./inp_files/128370.got.cif
#   From: 2010.06.25/outbox.cif.g09.slc.cpg/sg15_65_cif.got.tgz:128370.got - 2010.06.28 07:06:18.
