data_PCOD8154595
_publ_section_title
;
Structure prediction by ZEFSAII (Michael W. Deem and Ramdas Pophale) SiO2 
 PCOD8154595
Probable space group: C 2/C
;
_chemical_formula_sum "Si O2"
_cell_formula_units_Z 48
_cell_length_a 14.647310
_cell_length_b 5.014128
_cell_length_c 30.697408
_cell_angle_alpha 90.000000
_cell_angle_beta 70.648179
_cell_angle_gamma 90.000000
_cell_volume 2127.147728
_symmetry_space_group_name_H-M "C 2/C"
_symmetry_group_IT_number 15
_symmetry_cell_setting 'monoclinic'
loop_
_space_group_symop_operation_xyz
x,y,z
-x,y,1/2-z
-x,-y,-z
x,-y,1/2+z
1/2+x,1/2+y,z
1/2-x,1/2+y,1/2-z
1/2-x,1/2-y,-z
1/2+x,1/2-y,1/2+z
loop_
_atom_site_type_symbol
_atom_site_label
_atom_site_fract_x
_atom_site_fract_y
_atom_site_fract_z
Si Si1 0.416988 0.062972 0.430815
Si Si2 0.903328 0.059602 0.490159
Si Si3 0.551548 0.980246 0.336448
Si Si4 0.261003 0.940284 0.147930
Si Si5 0.263329 0.554596 0.591344
Si Si6 0.967035 0.021983 0.803020
O O1 0.406448 0.860695 0.472473
O O2 0.521561 0.052028 0.391284
O O3 0.348814 0.994125 0.400888
O O4 0.392629 0.359160 0.451377
O O5 0.815035 0.023516 0.536762
O O6 0.000000 0.000000 0.500000
O O7 0.669336 0.977569 0.320689
O O8 0.506228 0.696270 0.330608
O O9 0.515682 0.197252 0.307491
O O10 0.294485 0.658998 0.122447
O O11 0.149184 0.952834 0.179399
O O12 0.282100 0.155703 0.107340
O O13 0.000000 0.935937 0.750000
#
# Coordination Sequence:
#
# PCOD8154595 Si02
#       6
#     8   8   8   8   8   8
#     4  12  22  41  63  91 133 177 220 269 324 382
#     4  12  24  38  59  96 132 174 228 269 314 382
#     4  12  25  45  72  99 134 178 218 270 337 396
#     4  12  24  45  70  99 135 177 220 271 332 397
#     4  12  23  42  65  96 135 178 225 269 324 385
#     4  12  26  47  71 101 134 168 218 280 335 404
#
# _framework density 22.565427
#
# number of rings (size 3 to 8) (size 9 to 14) (size 15 to 20)
#    0.000    0.000    3.333    8.000    0.000    1.333 
#    0.000    0.000    0.000    0.000    0.000    0.000 
#    0.000    0.000    0.000    0.000    0.000    0.000 
#
# Total GULP energy -297733.151626 kJ/mol
# GULP energy per Si atom -12405.547984 kJ/mol
# Density = 2.251407 g / cm^3
# Si number density = 22.565427 Si / 1000 Ang^3
#
#
#
# Elastic Constant Matrix: (Units=GPa)
#
#
# Indices 1 2 3 4 5 6 
#
# 1 140.5163 20.8925 28.4605 0.0028 17.9569 0.0054
# 2 20.8925 78.5200 15.0447 0.0165 -5.8417 0.0223
# 3 28.4605 15.0447 97.5793 0.0010 -17.6728 0.0016
# 4 0.0028 0.0165 0.0010 29.3174 0.0014 -0.1389
# 5 17.9569 -5.8417 -17.6728 0.0014 29.2431 0.0009
# 6 0.0054 0.0223 0.0016 -0.1389 0.0009 25.6934
#
#
#
# Elastic Compliance Matrix: (Units=1/GPa)
#
#
# Indices 1 2 3 4 5 6 
#
# 1 0.009363 -0.002379 -0.003920 0.000001 -0.008594 0.000001
# 2 -0.002379 0.013793 -0.000751 -0.000008 0.003762 -0.000012
# 3 -0.003920 -0.000751 0.013381 0.000000 0.010344 0.000000
# 4 0.000001 -0.000008 0.000000 0.034110 -0.000004 0.000184
# 5 -0.008594 0.003762 0.010344 -0.000004 0.046476 -0.000004
# 6 0.000001 -0.000012 0.000000 0.000184 -0.000004 0.038922
#
#
# Mechanical properties :
#
#
# Convention : Reuss Voigt Hill
#
# Bulk Modulus (GPa) = 44.57482 49.49009 47.03246
# Shear Modulus (GPa) = 28.14945 33.66531 30.90738
#
# Velocity S-wave (km/s) = 3.53577 3.86670 3.70493
# Velocity P-wave (km/s) = 6.03866 6.47415 6.26019
#
# Compressibility (1/GPa) = 0.02243419
#
# Stress axis : x y z
#
# Youngs Moduli (GPa) = 106.80753 72.50290 74.73453
#
# Poissons Ratio (x) = 0.17251 0.29298
# Poissons Ratio (y) = 0.25414 0.05613
# Poissons Ratio (z) = 0.41872 0.05446
#
# Static dielectric constant tensor:
#      x y z
#    x 4.055990 0.000180 0.264770 
#    y 0.000180 4.935430 -0.000470 
#    z 0.264770 -0.000470 3.474930 
# 
# 
# High freq. dielectric constant tensor:
#      x y z
#    x 1.906990 0.000000 0.004280 
#    y 0.000000 1.904180 0.000000 
#    z 0.004280 0.000000 1.878070 
# 
# From -- ./inp_files/294418.got.cif
#   From: 2010.06.25/outbox.cif.g09.slc.cpg/sg15_148_cif.got.tgz:294418.got - 2010.06.28 07:06:18.
