data_PCOD8154513
_publ_section_title
;
Structure prediction by ZEFSAII (Michael W. Deem and Ramdas Pophale) SiO2 
 PCOD8154513
Probable space group: C 2/C
;
_chemical_formula_sum "Si O2"
_cell_formula_units_Z 36
_cell_length_a 14.702750
_cell_length_b 16.590423
_cell_length_c 9.230252
_cell_angle_alpha 90.000000
_cell_angle_beta 138.681212
_cell_angle_gamma 90.000000
_cell_volume 1486.540248
_symmetry_space_group_name_H-M "C 2/C"
_symmetry_group_IT_number 15
_symmetry_cell_setting 'monoclinic'
loop_
_space_group_symop_operation_xyz
x,y,z
-x,y,1/2-z
-x,-y,-z
x,-y,1/2+z
1/2+x,1/2+y,z
1/2-x,1/2+y,1/2-z
1/2-x,1/2-y,-z
1/2+x,1/2-y,1/2+z
loop_
_atom_site_type_symbol
_atom_site_label
_atom_site_fract_x
_atom_site_fract_y
_atom_site_fract_z
Si Si1 0.500000 0.569272 0.750000
Si Si2 0.767545 0.697866 0.873821
Si Si3 0.301082 0.439267 0.587558
Si Si4 0.857196 0.467158 0.390874
Si Si5 0.049407 0.180691 0.056755
O O1 0.399716 0.515938 0.726626
O O2 0.586141 0.623676 0.963975
O O3 0.844883 0.610213 0.987070
O O4 0.614435 0.691590 0.623478
O O5 0.750000 0.750000 0.000000
O O6 0.868716 0.737546 0.876574
O O7 0.240811 0.437327 0.355372
O O8 0.187677 0.452856 0.576012
O O9 0.388155 0.358183 0.722116
O O10 0.000000 0.500000 0.500000
#
# Coordination Sequence:
#
# PCOD8154513 Si02
#       5
#     4   8   8   8   8
#     4  12  20  46  76 108 138 200 262 314 380 478
#     4  12  26  47  76 112 158 206 262 323 396 475
#     4  12  25  47  77 110 153 199 266 323 396 475
#     4  12  28  48  78 115 157 206 264 333 398 475
#     4  12  25  44  76 110 150 203 258 320 389 466
#
# _framework density 24.217306000000001
#
# number of rings (size 3 to 8) (size 9 to 14) (size 15 to 20)
#    0.000    0.000    6.667    2.667    3.111    2.667 
#    0.000    0.000    0.000    0.000    0.000    0.000 
#    0.000    0.000    0.000    0.000    0.000    0.000 
#
# Total GULP energy -223038.616316 kJ/mol
# GULP energy per Si atom -12391.034240 kJ/mol
# Density = 2.416219 g / cm^3
# Si number density = 24.217306 Si / 1000 Ang^3
#
#
#
# Elastic Constant Matrix: (Units=GPa)
#
#
# Indices 1 2 3 4 5 6 
#
# 1 126.9617 39.5538 10.6975 0.0000 26.1848 0.0000
# 2 39.5538 97.9763 22.7915 0.0000 19.6222 0.0000
# 3 10.6975 22.7915 84.7279 0.0000 -11.2384 0.0000
# 4 0.0000 0.0000 0.0000 38.2503 0.0000 -1.5171
# 5 26.1848 19.6222 -11.2384 0.0000 40.0361 0.0000
# 6 0.0000 0.0000 0.0000 -1.5171 0.0000 60.7742
#
#
#
# Elastic Compliance Matrix: (Units=1/GPa)
#
#
# Indices 1 2 3 4 5 6 
#
# 1 0.009949 -0.002592 -0.001302 0.000000 -0.005602 0.000000
# 2 -0.002592 0.013407 -0.004078 0.000000 -0.006021 0.000000
# 3 -0.001302 -0.004078 0.013962 0.000000 0.006769 0.000000
# 4 0.000000 0.000000 0.000000 0.026169 0.000000 0.000653
# 5 -0.005602 -0.006021 0.006769 0.000000 0.033493 0.000000
# 6 0.000000 0.000000 0.000000 0.000653 0.000000 0.016471
#
#
# Mechanical properties :
#
#
# Convention : Reuss Voigt Hill
#
# Bulk Modulus (GPa) = 46.78417 50.63905 48.71161
# Shear Modulus (GPa) = 36.62510 43.58702 40.10606
#
# Velocity S-wave (km/s) = 3.89312 4.24704 4.07392
# Velocity P-wave (km/s) = 6.29038 6.70861 6.50286
#
# Compressibility (1/GPa) = 0.02137475
#
# Stress axis : x y z
#
# Youngs Moduli (GPa) = 100.51370 74.58682 71.62442
#
# Poissons Ratio (x) = 0.19330 0.09326
# Poissons Ratio (y) = 0.26049 0.29208
# Poissons Ratio (z) = 0.13088 0.30416
#
# Static dielectric constant tensor:
#      x y z
#    x 4.701870 0.000000 0.386220 
#    y 0.000000 4.509740 0.000000 
#    z 0.386220 0.000000 4.772010 
# 
# 
# High freq. dielectric constant tensor:
#      x y z
#    x 1.980490 0.000000 0.003960 
#    y 0.000000 1.962080 0.000000 
#    z 0.003960 0.000000 1.947110 
# 
# From -- ./inp_files/39479.got.cif
#   From: 2010.06.25/outbox.cif.g09.slc.cpg/sg15_20_cif.got.tgz:39479.got - 2010.06.28 07:06:18.
