data_PCOD8154994
_publ_section_title
;
Structure prediction by ZEFSAII (Michael W. Deem and Ramdas Pophale) SiO2 
 PCOD8154994
Probable space group: C 2/C
;
_chemical_formula_sum "Si O2"
_cell_formula_units_Z 52
_cell_length_a 14.428523
_cell_length_b 15.647347
_cell_length_c 10.970017
_cell_angle_alpha 90.000000
_cell_angle_beta 111.691652
_cell_angle_gamma 90.000000
_cell_volume 2301.297421
_symmetry_space_group_name_H-M "C 2/C"
_symmetry_group_IT_number 15
_symmetry_cell_setting 'monoclinic'
loop_
_space_group_symop_operation_xyz
x,y,z
-x,y,1/2-z
-x,-y,-z
x,-y,1/2+z
1/2+x,1/2+y,z
1/2-x,1/2+y,1/2-z
1/2-x,1/2-y,-z
1/2+x,1/2-y,1/2+z
loop_
_atom_site_type_symbol
_atom_site_label
_atom_site_fract_x
_atom_site_fract_y
_atom_site_fract_z
Si Si1 0.239914 0.543717 0.491120
Si Si2 0.571126 0.925126 0.503931
Si Si3 0.500000 0.185330 0.750000
Si Si4 0.676641 0.304685 0.873623
Si Si5 0.903415 0.940111 0.480764
Si Si6 0.831921 0.334332 0.742232
Si Si7 0.112252 0.853155 0.267828
O O1 0.177529 0.463998 0.514934
O O2 0.314304 0.506816 0.426704
O O3 0.173467 0.609008 0.382345
O O4 0.305602 0.587810 0.627965
O O5 0.515501 0.871781 0.375195
O O6 0.579223 0.867364 0.628569
O O7 0.500000 0.000000 0.500000
O O8 0.597493 0.241088 0.776471
O O9 0.734792 0.335826 0.781621
O O10 0.750000 0.250000 0.000000
O O11 0.613297 0.384741 0.901848
O O12 0.886129 0.866882 0.374791
O O13 0.000000 0.000000 0.500000
O O14 0.859360 0.244159 0.696106
O O15 0.000000 0.877446 0.250000
#
# Coordination Sequence:
#
# PCOD8154994 Si02
#       7
#     8   8   4   8   8   8   8
#     4  12  27  47  72 108 146 192 243 307 377 434
#     4  12  27  47  73 104 142 192 247 306 361 440
#     4  12  26  44  76 104 138 190 248 288 370 436
#     4  12  25  49  75 106 146 197 246 302 366 454
#     4  12  25  46  72 108 149 187 246 310 377 447
#     4  12  27  48  73 101 151 191 245 304 363 452
#     4  12  27  46  73 107 148 193 244 305 379 452
#
# _framework density 22.595949999999998
#
# number of rings (size 3 to 8) (size 9 to 14) (size 15 to 20)
#    0.000    0.000    6.154    2.308    6.462    1.231 
#    0.000    0.000    0.000    0.000    0.000    0.000 
#    0.000    0.000    0.000    0.000    0.000    0.000 
#
# Total GULP energy -322192.675803 kJ/mol
# GULP energy per Si atom -12392.025992 kJ/mol
# Density = 2.254452 g / cm^3
# Si number density = 22.595950 Si / 1000 Ang^3
#
#
#
# Elastic Constant Matrix: (Units=GPa)
#
#
# Indices 1 2 3 4 5 6 
#
# 1 78.8833 12.7597 16.6605 0.0000 15.4651 0.0000
# 2 12.7597 101.9088 27.2307 0.0000 15.5868 0.0000
# 3 16.6605 27.2307 104.2381 0.0000 18.5348 0.0000
# 4 0.0000 0.0000 0.0000 54.4697 0.0000 5.7057
# 5 15.4651 15.5868 18.5348 0.0000 32.5026 0.0000
# 6 0.0000 0.0000 0.0000 5.7057 0.0000 46.6800
#
#
#
# Elastic Compliance Matrix: (Units=1/GPa)
#
#
# Indices 1 2 3 4 5 6 
#
# 1 0.014143 -0.000593 -0.001068 0.000000 -0.005836 0.000000
# 2 -0.000593 0.011033 -0.002111 0.000000 -0.003805 0.000000
# 3 -0.001068 -0.002111 0.011179 0.000000 -0.004854 0.000000
# 4 0.000000 0.000000 0.000000 0.018597 0.000000 -0.002273
# 5 -0.005836 -0.003805 -0.004854 0.000000 0.038137 0.000000
# 6 0.000000 0.000000 0.000000 -0.002273 0.000000 0.021700
#
#
# Mechanical properties :
#
#
# Convention : Reuss Voigt Hill
#
# Bulk Modulus (GPa) = 34.70883 44.25909 39.48396
# Shear Modulus (GPa) = 37.89754 41.95573 39.92663
#
# Velocity S-wave (km/s) = 4.09979 4.31371 4.20811
# Velocity P-wave (km/s) = 6.14857 6.66637 6.41270
#
# Compressibility (1/GPa) = 0.02881111
#
# Stress axis : x y z
#
# Youngs Moduli (GPa) = 70.70876 90.63767 89.45593
#
# Poissons Ratio (x) = 0.05373 0.09553
# Poissons Ratio (y) = 0.04192 0.18883
# Poissons Ratio (z) = 0.07551 0.19132
#
# Static dielectric constant tensor:
#      x y z
#    x 4.158830 0.000000 0.061690 
#    y 0.000000 4.259790 0.000000 
#    z 0.061690 0.000000 4.044300 
# 
# 
# High freq. dielectric constant tensor:
#      x y z
#    x 1.900790 0.000000 0.001210 
#    y 0.000000 1.916500 0.000000 
#    z 0.001210 0.000000 1.889970 
# 
# From -- ./inp_files/98451.got.cif
#   From: 2010.06.25/outbox.cif.g09.slc.cpg/sg15_50_cif.got.tgz:98451.got - 2010.06.28 07:06:18.
