data_PCOD8154338
_publ_section_title
;
Structure prediction by ZEFSAII (Michael W. Deem and Ramdas Pophale) SiO2 
 PCOD8154338
Probable space group: C 2/C
;
_chemical_formula_sum "Si O2"
_cell_formula_units_Z 40
_cell_length_a 5.018923
_cell_length_b 36.202925
_cell_length_c 9.702518
_cell_angle_alpha 90.000000
_cell_angle_beta 108.681167
_cell_angle_gamma 90.000000
_cell_volume 1670.064886
_symmetry_space_group_name_H-M "C 2/C"
_symmetry_group_IT_number 15
_symmetry_cell_setting 'monoclinic'
loop_
_space_group_symop_operation_xyz
x,y,z
-x,y,1/2-z
-x,-y,-z
x,-y,1/2+z
1/2+x,1/2+y,z
1/2-x,1/2+y,1/2-z
1/2-x,1/2-y,-z
1/2+x,1/2-y,1/2+z
loop_
_atom_site_type_symbol
_atom_site_label
_atom_site_fract_x
_atom_site_fract_y
_atom_site_fract_z
Si Si1 0.144752 0.822297 0.000930
Si Si2 0.500000 0.078311 0.250000
Si Si3 0.500000 0.283632 0.250000
Si Si4 0.500000 0.375837 0.750000
Si Si5 0.753231 0.973755 0.001766
Si Si6 0.500000 0.733600 0.250000
Si Si7 0.500000 0.865471 0.250000
Si Si8 0.000000 0.083096 0.750000
O O1 0.968061 0.852994 0.887157
O O2 0.178128 0.789446 0.893982
O O3 0.977934 0.809038 0.109518
O O4 0.444348 0.838989 0.106583
O O5 0.291397 0.101832 0.312259
O O6 0.296881 0.051762 0.135312
O O7 0.221332 0.258727 0.205818
O O8 0.820113 0.944487 0.129340
O O9 0.500000 0.000000 0.000000
O O10 0.000000 0.000000 0.000000
O O11 0.778504 0.890409 0.288638
#
# Coordination Sequence:
#
# PCOD8154338 Si02
#       8
#     8   4   4   4   8   4   4   4
#     4  11  26  46  71 102 138 181 230 284 345 412
#     4  12  24  44  68  98 136 180 227 280 339 406
#     4  12  25  45  72 104 137 179 229 288 345 411
#     4  11  26  45  69 100 137 182 229 282 341 410
#     4  12  24  42  67  97 133 176 224 278 335 400
#     4  11  27  46  72 101 139 180 229 284 347 414
#     4  12  25  43  67  98 134 175 223 278 335 399
#     4  12  25  43  66  97 133 174 221 276 333 396
#
# _framework density 23.951163999999999
#
# number of rings (size 3 to 8) (size 9 to 14) (size 15 to 20)
#    0.000    0.400    0.000    8.400    0.000    9.600 
#    0.000    0.000    0.000    0.000    0.000    0.000 
#    0.000    0.000    0.000    0.000    0.000    0.000 
#
# Total GULP energy -247884.574615 kJ/mol
# GULP energy per Si atom -12394.228731 kJ/mol
# Density = 2.389665 g / cm^3
# Si number density = 23.951164 Si / 1000 Ang^3
#
#
#
# Elastic Constant Matrix: (Units=GPa)
#
#
# Indices 1 2 3 4 5 6 
#
# 1 151.4370 73.7810 30.0245 0.0000 -0.5650 0.0000
# 2 73.7810 156.4897 74.3890 0.0000 1.2111 0.0000
# 3 30.0245 74.3890 173.5525 0.0000 0.6494 0.0000
# 4 0.0000 0.0000 0.0000 20.5403 0.0000 2.0021
# 5 -0.5650 1.2111 0.6494 0.0000 37.0846 0.0000
# 6 0.0000 0.0000 0.0000 2.0021 0.0000 35.4359
#
#
#
# Elastic Compliance Matrix: (Units=1/GPa)
#
#
# Indices 1 2 3 4 5 6 
#
# 1 0.008589 -0.004200 0.000314 0.000000 0.000263 0.000000
# 2 -0.004200 0.010081 -0.003593 0.000000 -0.000330 0.000000
# 3 0.000314 -0.003593 0.007248 0.000000 -0.000005 0.000000
# 4 0.000000 0.000000 0.000000 0.048954 0.000000 -0.002766
# 5 0.000263 -0.000330 -0.000005 0.000000 0.026980 0.000000
# 6 0.000000 0.000000 0.000000 -0.002766 0.000000 0.028376
#
#
# Mechanical properties :
#
#
# Convention : Reuss Voigt Hill
#
# Bulk Modulus (GPa) = 91.25991 93.09646 92.17818
# Shear Modulus (GPa) = 33.59285 38.83114 36.21199
#
# Velocity S-wave (km/s) = 3.74913 4.03086 3.89255
# Velocity P-wave (km/s) = 7.54497 7.78572 7.66629
#
# Compressibility (1/GPa) = 0.01095771
#
# Stress axis : x y z
#
# Youngs Moduli (GPa) = 116.43206 99.19446 137.97253
#
# Poissons Ratio (x) = 0.41666 -0.04327
# Poissons Ratio (y) = 0.48907 0.49576
# Poissons Ratio (z) = -0.03651 0.35642
#
# Static dielectric constant tensor:
#      x y z
#    x 4.113200 0.000000 0.125720 
#    y 0.000000 4.860640 0.000000 
#    z 0.125720 0.000000 4.492680 
# 
# 
# High freq. dielectric constant tensor:
#      x y z
#    x 1.939940 0.000000 0.008350 
#    y 0.000000 1.983520 0.000000 
#    z 0.008350 0.000000 1.963470 
# 
# From -- ./inp_files/74132.got.cif
#   From: 2010.06.25/outbox.cif.g09.slc.cpg/sg15_38_cif.got.tgz:74132.got - 2010.06.28 07:06:18.
