data_PCOD8154789
_publ_section_title
;
Structure prediction by ZEFSAII (Michael W. Deem and Ramdas Pophale) SiO2 
 PCOD8154789
Probable space group: C 2/C
;
_chemical_formula_sum "Si O2"
_cell_formula_units_Z 40
_cell_length_a 8.788030
_cell_length_b 14.491929
_cell_length_c 13.922049
_cell_angle_alpha 90.000000
_cell_angle_beta 108.051958
_cell_angle_gamma 90.000000
_cell_volume 1685.772830
_symmetry_space_group_name_H-M "C 2/C"
_symmetry_group_IT_number 15
_symmetry_cell_setting 'monoclinic'
loop_
_space_group_symop_operation_xyz
x,y,z
-x,y,1/2-z
-x,-y,-z
x,-y,1/2+z
1/2+x,1/2+y,z
1/2-x,1/2+y,1/2-z
1/2-x,1/2-y,-z
1/2+x,1/2-y,1/2+z
loop_
_atom_site_type_symbol
_atom_site_label
_atom_site_fract_x
_atom_site_fract_y
_atom_site_fract_z
Si Si1 0.932149 0.750147 0.007169
Si Si2 0.122126 0.579111 0.046664
Si Si3 0.859592 0.233740 0.284354
Si Si4 0.814306 0.446172 0.737803
Si Si5 0.303003 0.381497 0.387729
O O1 0.942883 0.726222 0.895950
O O2 0.750000 0.750000 0.000000
O O3 0.027624 0.666060 0.074773
O O4 0.016175 0.845651 0.057843
O O5 0.226236 0.541608 0.156635
O O6 0.224294 0.614362 0.977395
O O7 0.000000 0.500000 0.000000
O O8 0.732748 0.158549 0.298654
O O9 0.785551 0.315132 0.205396
O O10 0.000000 0.185403 0.250000
O O11 0.699667 0.515998 0.656967
O O12 0.000000 0.467092 0.750000
#
# Coordination Sequence:
#
# PCOD8154789 Si02
#       5
#     8   8   8   8   8
#     4  12  27  47  75 109 151 199 252 316 384 451
#     4  12  23  47  79 105 148 203 254 309 385 458
#     4  12  25  48  75 106 148 199 253 309 386 459
#     4  12  25  46  75 109 150 200 253 313 382 458
#     4  12  26  50  75 110 154 202 255 314 382 464
#
# _framework density 23.727989000000001
#
# number of rings (size 3 to 8) (size 9 to 14) (size 15 to 20)
#    0.000    0.000    6.000    4.800    0.000    0.800 
#    7.200    0.000    0.000    0.000    0.000    0.000 
#    0.000    0.000    0.000    0.000    0.000    0.000 
#
# Total GULP energy -247933.380968 kJ/mol
# GULP energy per Si atom -12396.669048 kJ/mol
# Density = 2.367398 g / cm^3
# Si number density = 23.727989 Si / 1000 Ang^3
#
#
#
# Elastic Constant Matrix: (Units=GPa)
#
#
# Indices 1 2 3 4 5 6 
#
# 1 111.2606 36.6012 34.5192 0.0000 -1.1060 0.0000
# 2 36.6012 99.1377 21.3718 0.0000 -10.4554 0.0000
# 3 34.5192 21.3718 135.3860 0.0000 -10.9466 0.0000
# 4 0.0000 0.0000 0.0000 50.5403 0.0000 5.2592
# 5 -1.1060 -10.4554 -10.9466 0.0000 25.3250 0.0000
# 6 0.0000 0.0000 0.0000 5.2592 0.0000 37.3395
#
#
#
# Elastic Compliance Matrix: (Units=1/GPa)
#
#
# Indices 1 2 3 4 5 6 
#
# 1 0.010934 -0.003747 -0.002365 0.000000 -0.002092 0.000000
# 2 -0.003747 0.012078 -0.000582 0.000000 0.004571 0.000000
# 3 -0.002365 -0.000582 0.008345 0.000000 0.003264 0.000000
# 4 0.000000 0.000000 0.000000 0.020080 0.000000 -0.002828
# 5 -0.002092 0.004571 0.003264 0.000000 0.042693 0.000000
# 6 0.000000 0.000000 0.000000 -0.002828 0.000000 0.027180
#
#
# Mechanical properties :
#
#
# Convention : Reuss Voigt Hill
#
# Bulk Modulus (GPa) = 55.65381 58.97432 57.31407
# Shear Modulus (GPa) = 35.53957 39.52710 37.53334
#
# Velocity S-wave (km/s) = 3.87433 4.08590 3.98152
# Velocity P-wave (km/s) = 6.59695 6.86788 6.73378
#
# Compressibility (1/GPa) = 0.01796822
#
# Stress axis : x y z
#
# Youngs Moduli (GPa) = 91.45987 82.79527 119.83129
#
# Poissons Ratio (x) = 0.31027 0.28344
# Poissons Ratio (y) = 0.34274 0.06968
# Poissons Ratio (z) = 0.21634 0.04815
#
# Static dielectric constant tensor:
#      x y z
#    x 3.889500 0.000000 -0.138620 
#    y 0.000000 4.352850 0.000000 
#    z -0.138620 0.000000 5.406890 
# 
# 
# High freq. dielectric constant tensor:
#      x y z
#    x 1.922930 0.000000 -0.001750 
#    y 0.000000 1.940120 0.000000 
#    z -0.001750 0.000000 1.970330 
# 
# From -- ./inp_files/133098.got.cif
#   From: 2010.06.25/outbox.cif.g09.slc.cpg/sg15_67_cif.got.tgz:133098.got - 2010.06.28 07:06:18.
