data_PCOD8154627
_publ_section_title
;
Structure prediction by ZEFSAII (Michael W. Deem and Ramdas Pophale) SiO2 
 PCOD8154627
Probable space group: C 2/C
;
_chemical_formula_sum "Si O2"
_cell_formula_units_Z 32
_cell_length_a 4.868380
_cell_length_b 19.510973
_cell_length_c 15.013052
_cell_angle_alpha 90.000000
_cell_angle_beta 109.957507
_cell_angle_gamma 90.000000
_cell_volume 1340.402716
_symmetry_space_group_name_H-M "C 2/C"
_symmetry_group_IT_number 15
_symmetry_cell_setting 'monoclinic'
loop_
_space_group_symop_operation_xyz
x,y,z
-x,y,1/2-z
-x,-y,-z
x,-y,1/2+z
1/2+x,1/2+y,z
1/2-x,1/2+y,1/2-z
1/2-x,1/2-y,-z
1/2+x,1/2-y,1/2+z
loop_
_atom_site_type_symbol
_atom_site_label
_atom_site_fract_x
_atom_site_fract_y
_atom_site_fract_z
Si Si1 0.348114 0.348864 0.147904
Si Si2 0.836628 0.894809 0.644930
Si Si3 0.689926 0.756957 0.390918
Si Si4 0.712866 0.565310 0.027754
O O1 0.500000 0.385324 0.250000
O O2 0.576041 0.309127 0.115885
O O3 0.232601 0.405501 0.065806
O O4 0.118785 0.293740 0.160690
O O5 0.760113 0.815116 0.654398
O O6 0.000000 0.925178 0.750000
O O7 0.051853 0.888325 0.583418
O O8 0.550440 0.943358 0.597896
O O9 0.750000 0.750000 0.500000
O O10 0.500000 0.500000 0.000000
#
# Coordination Sequence:
#
# PCOD8154627 Si02
#       4
#     8   8   8   8
#     4  12  24  42  69 103 139 183 229 286 356 423
#     4  12  25  44  71 103 137 181 231 290 357 421
#     4  12  22  43  70 103 143 178 220 289 365 428
#     4  12  26  46  68  97 139 187 239 287 338 411
#
# _framework density 23.873422000000001
#
# number of rings (size 3 to 8) (size 9 to 14) (size 15 to 20)
#    0.000    0.000    5.000    6.000    0.000    1.000 
#    0.000    5.000    0.000    0.000    0.000    0.000 
#    0.000    0.000    0.000    0.000    0.000    0.000 
#
# Total GULP energy -198254.688600 kJ/mol
# GULP energy per Si atom -12390.918037 kJ/mol
# Density = 2.381908 g / cm^3
# Si number density = 23.873422 Si / 1000 Ang^3
#
#
#
# Elastic Constant Matrix: (Units=GPa)
#
#
# Indices 1 2 3 4 5 6 
#
# 1 134.6584 18.5951 37.6585 0.0000 19.8543 0.0000
# 2 18.5951 74.2952 30.6372 0.0000 16.2854 0.0000
# 3 37.6585 30.6372 193.7717 0.0000 26.7862 0.0000
# 4 0.0000 0.0000 0.0000 14.1388 0.0000 4.5592
# 5 19.8543 16.2854 26.7862 0.0000 48.3283 0.0000
# 6 0.0000 0.0000 0.0000 4.5592 0.0000 39.6569
#
#
#
# Elastic Compliance Matrix: (Units=1/GPa)
#
#
# Indices 1 2 3 4 5 6 
#
# 1 0.008238 -0.001081 -0.001097 0.000000 -0.002412 0.000000
# 2 -0.001081 0.015248 -0.001681 0.000000 -0.003763 0.000000
# 3 -0.001097 -0.001681 0.005955 0.000000 -0.002284 0.000000
# 4 0.000000 0.000000 0.000000 0.073450 0.000000 -0.008444
# 5 -0.002412 -0.003763 -0.002284 0.000000 0.024217 0.000000
# 6 0.000000 0.000000 0.000000 -0.008444 0.000000 0.026187
#
#
# Mechanical properties :
#
#
# Convention : Reuss Voigt Hill
#
# Bulk Modulus (GPa) = 46.03002 64.05634 55.04318
# Shear Modulus (GPa) = 29.71710 41.48042 35.59876
#
# Velocity S-wave (km/s) = 3.53197 4.17287 3.86573
# Velocity P-wave (km/s) = 5.99631 7.07863 6.55983
#
# Compressibility (1/GPa) = 0.02172495
#
# Stress axis : x y z
#
# Youngs Moduli (GPa) = 121.39164 65.58154 167.91805
#
# Poissons Ratio (x) = 0.07088 0.18414
# Poissons Ratio (y) = 0.13121 0.28222
# Poissons Ratio (z) = 0.13312 0.11022
#
# Static dielectric constant tensor:
#      x y z
#    x 4.675620 0.000000 0.049360 
#    y 0.000000 4.166030 0.000000 
#    z 0.049360 0.000000 4.098600 
# 
# 
# High freq. dielectric constant tensor:
#      x y z
#    x 1.961810 0.000000 -0.000440 
#    y 0.000000 1.922820 0.000000 
#    z -0.000440 0.000000 1.968780 
# 
# From -- ./inp_files/128391.got.cif
#   From: 2010.06.25/outbox.cif.g09.slc.cpg/sg15_65_cif.got.tgz:128391.got - 2010.06.28 07:06:18.
