data_PCOD8154286
_publ_section_title
;
Structure prediction by ZEFSAII (Michael W. Deem and Ramdas Pophale) SiO2 
 PCOD8154286
Probable space group: C 2/C
;
_chemical_formula_sum "Si O2"
_cell_formula_units_Z 52
_cell_length_a 14.057055
_cell_length_b 13.513110
_cell_length_c 14.867308
_cell_angle_alpha 90.000000
_cell_angle_beta 63.996569
_cell_angle_gamma 90.000000
_cell_volume 2538.221371
_symmetry_space_group_name_H-M "C 2/C"
_symmetry_group_IT_number 15
_symmetry_cell_setting 'monoclinic'
loop_
_space_group_symop_operation_xyz
x,y,z
-x,y,1/2-z
-x,-y,-z
x,-y,1/2+z
1/2+x,1/2+y,z
1/2-x,1/2+y,1/2-z
1/2-x,1/2-y,-z
1/2+x,1/2-y,1/2+z
loop_
_atom_site_type_symbol
_atom_site_label
_atom_site_fract_x
_atom_site_fract_y
_atom_site_fract_z
Si Si1 0.008076 0.836139 0.140244
Si Si2 0.665476 0.982834 0.415393
Si Si3 0.487297 0.837478 0.524179
Si Si4 0.150871 0.005869 0.804917
Si Si5 0.500000 0.374825 0.750000
Si Si6 0.136430 0.198552 0.050206
Si Si7 0.182778 0.979482 0.989559
O O1 0.000000 0.833968 0.250000
O O2 0.014546 0.723089 0.103284
O O3 0.901498 0.888623 0.147340
O O4 0.111278 0.895839 0.065082
O O5 0.602514 0.082289 0.417869
O O6 0.758742 0.975368 0.305266
O O7 0.707211 0.984745 0.501056
O O8 0.590585 0.887971 0.438598
O O9 0.449730 0.759712 0.467097
O O10 0.055304 0.941322 0.803569
O O11 0.198304 0.956181 0.876492
O O12 0.406892 0.306532 0.829640
O O13 0.250000 0.250000 0.000000
O O14 0.132548 0.087702 0.014989
#
# Coordination Sequence:
#
# PCOD8154286 Si02
#       7
#     8   8   8   8   4   8   8
#     4  12  22  42  69 103 136 173 229 291 340 410
#     4  11  25  49  63  96 142 179 221 291 343 413
#     4  11  26  44  67  94 141 179 224 282 352 406
#     4  12  21  41  71  98 133 182 224 280 348 404
#     4  12  22  40  68 102 136 170 232 290 336 406
#     4  12  22  41  68  98 129 177 225 281 333 406
#     4  12  23  41  72  99 136 173 225 284 341 404
#
# _framework density 20.486787
#
# number of rings (size 3 to 8) (size 9 to 14) (size 15 to 20)
#    0.000    0.308    8.462    1.385    0.000    3.077 
#    5.538    1.538    0.000    0.000    0.000    0.000 
#    0.000    0.000    0.000    0.000    0.000    0.000 
#
# Total GULP energy -322367.384410 kJ/mol
# GULP energy per Si atom -12398.745554 kJ/mol
# Density = 2.044016 g / cm^3
# Si number density = 20.486787 Si / 1000 Ang^3
#
#
#
# Elastic Constant Matrix: (Units=GPa)
#
#
# Indices 1 2 3 4 5 6 
#
# 1 107.7268 47.5574 48.6882 0.0000 3.0645 0.0000
# 2 47.5574 115.3775 23.2738 0.0000 -3.2326 0.0000
# 3 48.6882 23.2738 94.0930 0.0000 2.1981 0.0000
# 4 0.0000 0.0000 0.0000 16.1811 0.0000 5.8538
# 5 3.0645 -3.2326 2.1981 0.0000 42.6757 0.0000
# 6 0.0000 0.0000 0.0000 5.8538 0.0000 33.7587
#
#
#
# Elastic Compliance Matrix: (Units=1/GPa)
#
#
# Indices 1 2 3 4 5 6 
#
# 1 0.014126 -0.004612 -0.006144 0.000000 -0.001047 0.000000
# 2 -0.004612 0.010656 -0.000276 0.000000 0.001153 0.000000
# 3 -0.006144 -0.000276 0.013882 0.000000 -0.000295 0.000000
# 4 0.000000 0.000000 0.000000 0.065937 0.000000 -0.011434
# 5 -0.001047 0.001153 -0.000295 0.000000 0.023610 0.000000
# 6 0.000000 0.000000 0.000000 -0.011434 0.000000 0.031605
#
#
# Mechanical properties :
#
#
# Convention : Reuss Voigt Hill
#
# Bulk Modulus (GPa) = 60.24373 61.80403 61.02388
# Shear Modulus (GPa) = 26.67899 31.70164 29.19031
#
# Velocity S-wave (km/s) = 3.61259 3.93799 3.77880
# Velocity P-wave (km/s) = 6.84624 7.13514 6.99219
#
# Compressibility (1/GPa) = 0.01659924
#
# Stress axis : x y z
#
# Youngs Moduli (GPa) = 70.79384 93.84063 72.03525
#
# Poissons Ratio (x) = 0.43283 0.44258
# Poissons Ratio (y) = 0.32653 0.01989
# Poissons Ratio (z) = 0.43495 0.02591
#
# Static dielectric constant tensor:
#      x y z
#    x 3.835080 0.000000 0.116550 
#    y 0.000000 3.928700 0.000000 
#    z 0.116550 0.000000 3.800130 
# 
# 
# High freq. dielectric constant tensor:
#      x y z
#    x 1.804800 0.000000 0.003840 
#    y 0.000000 1.799460 0.000000 
#    z 0.003840 0.000000 1.805000 
# 
# From -- ./inp_files/153865.got.cif
#   From: 2010.06.25/outbox.cif.g09.slc.cpg/sg15_77_cif.got.tgz:153865.got - 2010.06.28 07:06:18.
