data_PCOD8154431
_publ_section_title
;
Structure prediction by ZEFSAII (Michael W. Deem and Ramdas Pophale) SiO2 
 PCOD8154431
Probable space group: C 2/C
;
_chemical_formula_sum "Si O2"
_cell_formula_units_Z 44
_cell_length_a 23.479871
_cell_length_b 6.505063
_cell_length_c 13.178310
_cell_angle_alpha 90.000000
_cell_angle_beta 110.787646
_cell_angle_gamma 90.000000
_cell_volume 1881.798530
_symmetry_space_group_name_H-M "C 2/C"
_symmetry_group_IT_number 15
_symmetry_cell_setting 'monoclinic'
loop_
_space_group_symop_operation_xyz
x,y,z
-x,y,1/2-z
-x,-y,-z
x,-y,1/2+z
1/2+x,1/2+y,z
1/2-x,1/2+y,1/2-z
1/2-x,1/2-y,-z
1/2+x,1/2-y,1/2+z
loop_
_atom_site_type_symbol
_atom_site_label
_atom_site_fract_x
_atom_site_fract_y
_atom_site_fract_z
Si Si1 0.000000 0.771243 0.250000
Si Si2 0.808825 0.290740 0.160820
Si Si3 0.367577 0.201633 0.901616
Si Si4 0.482889 0.606391 0.387021
Si Si5 0.790885 0.944731 0.000897
Si Si6 0.416977 0.938588 0.097885
O O1 0.044680 0.638044 0.347084
O O2 0.037571 0.924864 0.201239
O O3 0.812300 0.310242 0.285661
O O4 0.745097 0.393980 0.091374
O O5 0.865688 0.410728 0.149324
O O6 0.810106 0.056777 0.118055
O O7 0.425281 0.250611 0.868206
O O8 0.350715 0.372486 0.976207
O O9 0.383400 0.987189 0.969031
O O10 0.500000 0.500000 0.500000
O O11 0.539192 0.741492 0.380281
O O12 0.750000 0.750000 0.000000
#
# Coordination Sequence:
#
# PCOD8154431 Si02
#       6
#     4   8   8   8   8   8
#     4  12  26  46  72 102 152 192 222 302 348 434
#     4  11  27  46  74 100 143 186 236 300 354 430
#     4  12  26  45  75 103 141 191 236 299 361 426
#     4  12  26  45  71 108 145 188 239 286 364 433
#     4  11  26  51  67 103 140 184 243 295 358 425
#     4  12  26  48  70 110 146 184 246 293 359 438
#
# _framework density 23.381888
#
# number of rings (size 3 to 8) (size 9 to 14) (size 15 to 20)
#    0.000    0.364    3.636    4.364    7.636    0.000 
#    0.000    0.000    0.000    0.000    0.000    0.000 
#    0.000    0.000    0.000    0.000    0.000    0.000 
#
# Total GULP energy -272798.863335 kJ/mol
# GULP energy per Si atom -12399.948333 kJ/mol
# Density = 2.332867 g / cm^3
# Si number density = 23.381888 Si / 1000 Ang^3
#
#
#
# Elastic Constant Matrix: (Units=GPa)
#
#
# Indices 1 2 3 4 5 6 
#
# 1 73.7803 12.7490 -9.4967 0.0000 -3.1520 0.0000
# 2 12.7490 106.4655 40.9450 0.0000 1.7482 0.0000
# 3 -9.4967 40.9450 133.3428 0.0000 6.2905 0.0000
# 4 0.0000 0.0000 0.0000 40.6297 0.0000 -8.1248
# 5 -3.1520 1.7482 6.2905 0.0000 29.7949 0.0000
# 6 0.0000 0.0000 0.0000 -8.1248 0.0000 35.3928
#
#
#
# Elastic Compliance Matrix: (Units=1/GPa)
#
#
# Indices 1 2 3 4 5 6 
#
# 1 0.014235 -0.002372 0.001681 0.000000 0.001290 0.000000
# 2 -0.002372 0.011046 -0.003554 0.000000 -0.000149 0.000000
# 3 0.001681 -0.003554 0.008780 0.000000 -0.001467 0.000000
# 4 0.000000 0.000000 0.000000 0.025797 0.000000 0.005922
# 5 0.001290 -0.000149 -0.001467 0.000000 0.034018 0.000000
# 6 0.000000 0.000000 0.000000 0.005922 0.000000 0.029614
#
#
# Mechanical properties :
#
#
# Convention : Reuss Voigt Hill
#
# Bulk Modulus (GPa) = 39.10629 44.66479 41.88554
# Shear Modulus (GPa) = 35.58652 39.12289 37.35470
#
# Velocity S-wave (km/s) = 3.90547 4.09493 4.00132
# Velocity P-wave (km/s) = 6.09084 6.44218 6.26897
#
# Compressibility (1/GPa) = 0.02557134
#
# Stress axis : x y z
#
# Youngs Moduli (GPa) = 70.24809 90.53054 113.89930
#
# Poissons Ratio (x) = 0.21478 -0.19152
# Poissons Ratio (y) = 0.16666 0.40477
# Poissons Ratio (z) = -0.11812 0.32173
#
# Static dielectric constant tensor:
#      x y z
#    x 4.337100 0.000000 0.202350 
#    y 0.000000 4.234480 0.000000 
#    z 0.202350 0.000000 4.747500 
# 
# 
# High freq. dielectric constant tensor:
#      x y z
#    x 1.923050 0.000000 -0.000250 
#    y 0.000000 1.927580 0.000000 
#    z -0.000250 0.000000 1.939940 
# 
# From -- ./inp_files/175517.got.cif
#   From: 2010.06.25/outbox.cif.g09.slc.cpg/sg15_88_cif.got.tgz:175517.got - 2010.06.28 07:06:18.
