data_PCOD8154912
_publ_section_title
;
Structure prediction by ZEFSAII (Michael W. Deem and Ramdas Pophale) SiO2 
 PCOD8154912
Probable space group: C 2/C
;
_chemical_formula_sum "Si O2"
_cell_formula_units_Z 44
_cell_length_a 6.675899
_cell_length_b 13.103232
_cell_length_c 23.578534
_cell_angle_alpha 90.000000
_cell_angle_beta 95.172216
_cell_angle_gamma 90.000000
_cell_volume 2054.154147
_symmetry_space_group_name_H-M "C 2/C"
_symmetry_group_IT_number 15
_symmetry_cell_setting 'monoclinic'
loop_
_space_group_symop_operation_xyz
x,y,z
-x,y,1/2-z
-x,-y,-z
x,-y,1/2+z
1/2+x,1/2+y,z
1/2-x,1/2+y,1/2-z
1/2-x,1/2-y,-z
1/2+x,1/2-y,1/2+z
loop_
_atom_site_type_symbol
_atom_site_label
_atom_site_fract_x
_atom_site_fract_y
_atom_site_fract_z
Si Si1 0.393824 0.259738 0.846725
Si Si2 0.903895 0.879041 0.107817
Si Si3 0.787497 0.256642 0.935490
Si Si4 0.000000 0.609974 0.750000
Si Si5 0.730736 0.488531 0.660661
Si Si6 0.456347 0.976801 0.933739
O O1 0.190660 0.224956 0.871669
O O2 0.587385 0.245005 0.892220
O O3 0.405481 0.185454 0.793358
O O4 0.351429 0.375603 0.828400
O O5 0.065059 0.839856 0.066397
O O6 0.030492 0.943607 0.155882
O O7 0.730675 0.950129 0.080305
O O8 0.893631 0.361250 0.921098
O O9 0.750000 0.250000 0.000000
O O10 0.151828 0.530760 0.782456
O O11 0.859571 0.498712 0.605133
O O12 0.500000 0.000000 0.000000
#
# Coordination Sequence:
#
# PCOD8154912 Si02
#       6
#     8   8   8   4   8   8
#     4  12  27  48  74 109 145 193 248 302 371 439
#     4  12  24  47  76 106 152 190 239 302 368 433
#     4  12  26  45  76 114 150 192 243 301 371 445
#     4  12  28  50  72 110 146 188 258 306 364 448
#     4  12  27  48  74 109 145 193 248 302 371 439
#     4  12  26  45  76 114 150 192 243 301 371 445
#
# _framework density 21.420009
#
# number of rings (size 3 to 8) (size 9 to 14) (size 15 to 20)
#    0.000    0.000    7.273    2.182    2.545    8.000 
#    0.000    0.000    0.000    0.000    0.000    0.000 
#    0.000    0.000    0.000    0.000    0.000    0.000 
#
# Total GULP energy -272614.217116 kJ/mol
# GULP energy per Si atom -12391.555323 kJ/mol
# Density = 2.137126 g / cm^3
# Si number density = 21.420009 Si / 1000 Ang^3
#
#
#
# Elastic Constant Matrix: (Units=GPa)
#
#
# Indices 1 2 3 4 5 6 
#
# 1 114.5909 43.4837 37.2600 0.0000 17.2838 0.0000
# 2 43.4837 95.3188 6.8241 0.0000 22.3084 0.0000
# 3 37.2600 6.8241 106.9136 0.0000 12.9186 0.0000
# 4 0.0000 0.0000 0.0000 29.3897 0.0000 0.8551
# 5 17.2838 22.3084 12.9186 0.0000 12.2416 0.0000
# 6 0.0000 0.0000 0.0000 0.8551 0.0000 51.6533
#
#
#
# Elastic Compliance Matrix: (Units=1/GPa)
#
#
# Indices 1 2 3 4 5 6 
#
# 1 0.012237 -0.003646 -0.003149 0.000000 -0.007309 0.000000
# 2 -0.003646 0.020440 0.004407 0.000000 -0.036752 0.000000
# 3 -0.003149 0.004407 0.012152 0.000000 -0.016410 0.000000
# 4 0.000000 0.000000 0.000000 0.034042 0.000000 -0.000564
# 5 -0.007309 -0.036752 -0.016410 0.000000 0.176301 0.000000
# 6 0.000000 0.000000 0.000000 -0.000564 0.000000 0.019369
#
#
# Mechanical properties :
#
#
# Convention : Reuss Voigt Hill
#
# Bulk Modulus (GPa) = 24.96664 54.66210 39.81437
# Shear Modulus (GPa) = 17.08422 33.94060 25.51241
#
# Velocity S-wave (km/s) = 2.82721 3.98493 3.45491
# Velocity P-wave (km/s) = 4.72637 6.83721 5.87733
#
# Compressibility (1/GPa) = 0.04005344
#
# Stress axis : x y z
#
# Youngs Moduli (GPa) = 81.72240 48.92278 82.28989
#
# Poissons Ratio (x) = 0.17838 0.25910
# Poissons Ratio (y) = 0.29797 -0.36264
# Poissons Ratio (z) = 0.25731 -0.21559
#
# Static dielectric constant tensor:
#      x y z
#    x 4.535320 0.000000 -0.656430 
#    y 0.000000 4.339950 0.000000 
#    z -0.656430 0.000000 4.648250 
# 
# 
# High freq. dielectric constant tensor:
#      x y z
#    x 1.858180 0.000000 0.004590 
#    y 0.000000 1.874960 0.000000 
#    z 0.004590 0.000000 1.833280 
# 
# From -- ./inp_files/260425.got.cif
#   From: 2010.06.25/outbox.cif.g09.slc.cpg/sg15_131_cif.got.tgz:260425.got - 2010.06.28 07:06:18.
