data_PCOD8154619
_publ_section_title
;
Structure prediction by ZEFSAII (Michael W. Deem and Ramdas Pophale) SiO2 
 PCOD8154619
Probable space group: C 2/C
;
_chemical_formula_sum "Si O2"
_cell_formula_units_Z 52
_cell_length_a 23.659255
_cell_length_b 12.311330
_cell_length_c 10.132230
_cell_angle_alpha 90.000000
_cell_angle_beta 53.831882
_cell_angle_gamma 90.000000
_cell_volume 2382.539005
_symmetry_space_group_name_H-M "C 2/C"
_symmetry_group_IT_number 15
_symmetry_cell_setting 'monoclinic'
loop_
_space_group_symop_operation_xyz
x,y,z
-x,y,1/2-z
-x,-y,-z
x,-y,1/2+z
1/2+x,1/2+y,z
1/2-x,1/2+y,1/2-z
1/2-x,1/2-y,-z
1/2+x,1/2-y,1/2+z
loop_
_atom_site_type_symbol
_atom_site_label
_atom_site_fract_x
_atom_site_fract_y
_atom_site_fract_z
Si Si1 0.500000 0.547404 0.250000
Si Si2 0.219546 0.971100 0.233529
Si Si3 0.994214 0.779928 0.533407
Si Si4 0.389910 0.382028 0.479315
Si Si5 0.460228 0.946968 0.175091
Si Si6 0.194191 0.471854 0.642555
Si Si7 0.351380 0.732093 0.776406
O O1 0.499164 0.614957 0.384970
O O2 0.430611 0.474094 0.340318
O O3 0.182829 0.853326 0.278001
O O4 0.163477 0.064333 0.344206
O O5 0.279612 0.967159 0.262201
O O6 0.252455 0.001282 0.047543
O O7 0.944409 0.805513 0.479351
O O8 0.961045 0.683214 0.664054
O O9 0.069126 0.743654 0.374827
O O10 0.347263 0.311323 0.432119
O O11 0.500000 0.986918 0.250000
O O12 0.381013 0.984512 0.294455
O O13 0.500000 0.000000 0.000000
O O14 0.192462 0.342743 0.669411
#
# Coordination Sequence:
#
# PCOD8154619 Si02
#       7
#     4   8   8   8   8   8   8
#     4  12  22  42  66 110 150 182 242 308 356 414
#     4  12  27  48  71 107 147 195 235 294 359 443
#     4  12  25  42  76 110 141 187 247 307 364 413
#     4  12  25  43  74 109 145 193 241 298 363 432
#     4  12  27  49  75 108 146 186 244 308 357 428
#     4  12  29  48  76 104 150 192 241 293 366 442
#     4  12  25  48  75 105 145 192 247 297 363 431
#
# _framework density 21.825454000000001
#
# number of rings (size 3 to 8) (size 9 to 14) (size 15 to 20)
#    0.000    0.000    6.923    2.769    4.308    0.000 
#    0.000    1.538    0.000    0.000    0.000    0.000 
#    0.000    0.000    0.000    0.000    0.000    0.000 
#
# Total GULP energy -322652.728386 kJ/mol
# GULP energy per Si atom -12409.720323 kJ/mol
# Density = 2.177578 g / cm^3
# Si number density = 21.825454 Si / 1000 Ang^3
#
#
#
# Elastic Constant Matrix: (Units=GPa)
#
#
# Indices 1 2 3 4 5 6 
#
# 1 145.5218 48.4928 24.6322 0.0000 9.0295 0.0000
# 2 48.4928 99.2415 30.8856 0.0000 0.5809 0.0000
# 3 24.6322 30.8856 111.1138 0.0000 -4.4094 0.0000
# 4 0.0000 0.0000 0.0000 33.7071 0.0000 -3.0923
# 5 9.0295 0.5809 -4.4094 0.0000 42.0110 0.0000
# 6 0.0000 0.0000 0.0000 -3.0923 0.0000 23.5327
#
#
#
# Elastic Compliance Matrix: (Units=1/GPa)
#
#
# Indices 1 2 3 4 5 6 
#
# 1 0.008409 -0.003826 -0.000874 0.000000 -0.001846 0.000000
# 2 -0.003826 0.012781 -0.002690 0.000000 0.000363 0.000000
# 3 -0.000874 -0.002690 0.009992 0.000000 0.001274 0.000000
# 4 0.000000 0.000000 0.000000 0.030029 0.000000 0.003946
# 5 -0.001846 0.000363 0.001274 0.000000 0.024329 0.000000
# 6 0.000000 0.000000 0.000000 0.003946 0.000000 0.043013
#
#
# Mechanical properties :
#
#
# Convention : Reuss Voigt Hill
#
# Bulk Modulus (GPa) = 60.96905 62.65537 61.81221
# Shear Modulus (GPa) = 33.60199 36.64128 35.12164
#
# Velocity S-wave (km/s) = 3.92800 4.10180 4.01584
# Velocity P-wave (km/s) = 6.96906 7.15561 7.06295
#
# Compressibility (1/GPa) = 0.01640176
#
# Stress axis : x y z
#
# Youngs Moduli (GPa) = 118.91512 78.24019 100.08214
#
# Poissons Ratio (x) = 0.29937 0.08746
# Poissons Ratio (y) = 0.45501 0.26923
# Poissons Ratio (z) = 0.10392 0.21047
#
# Static dielectric constant tensor:
#      x y z
#    x 4.029020 0.000000 -0.123560 
#    y 0.000000 4.062540 0.000000 
#    z -0.123560 0.000000 4.036660 
# 
# 
# High freq. dielectric constant tensor:
#      x y z
#    x 1.870590 0.000000 -0.005310 
#    y 0.000000 1.859260 0.000000 
#    z -0.005310 0.000000 1.871140 
# 
# From -- ./inp_files/117937.got.cif
#   From: 2010.06.25/outbox.cif.g09.slc.cpg/sg15_59_cif.got.tgz:117937.got - 2010.06.28 07:06:18.
