data_PCOD8154334
_publ_section_title
;
Structure prediction by ZEFSAII (Michael W. Deem and Ramdas Pophale) SiO2 
 PCOD8154334
Probable space group: C 2/C
;
_chemical_formula_sum "Si O2"
_cell_formula_units_Z 48
_cell_length_a 23.660054
_cell_length_b 5.203357
_cell_length_c 21.329899
_cell_angle_alpha 90.000000
_cell_angle_beta 128.087119
_cell_angle_gamma 90.000000
_cell_volume 2066.824337
_symmetry_space_group_name_H-M "C 2/C"
_symmetry_group_IT_number 15
_symmetry_cell_setting 'monoclinic'
loop_
_space_group_symop_operation_xyz
x,y,z
-x,y,1/2-z
-x,-y,-z
x,-y,1/2+z
1/2+x,1/2+y,z
1/2-x,1/2+y,1/2-z
1/2-x,1/2-y,-z
1/2+x,1/2-y,1/2+z
loop_
_atom_site_type_symbol
_atom_site_label
_atom_site_fract_x
_atom_site_fract_y
_atom_site_fract_z
Si Si1 0.265575 0.545627 0.725706
Si Si2 0.420466 0.646582 0.801511
Si Si3 0.811057 0.297843 0.445783
Si Si4 0.297382 0.050125 0.566158
Si Si5 0.072365 0.355147 0.266697
Si Si6 0.474092 0.252928 0.018698
O O1 0.276609 0.261994 0.762736
O O2 0.343366 0.682096 0.780143
O O3 0.227714 0.510896 0.631062
O O4 0.424073 0.343846 0.788215
O O5 0.486718 0.741392 0.888163
O O6 0.423719 0.841834 0.745402
O O7 0.826263 0.378296 0.528154
O O8 0.888223 0.224661 0.469277
O O9 0.751110 0.075745 0.412126
O O10 0.250000 0.250000 0.500000
O O11 0.362655 0.202646 0.641901
O O12 0.000000 0.279247 0.250000
O O13 0.500000 0.500000 0.000000
O O14 0.500000 0.000000 0.000000
#
# Coordination Sequence:
#
# PCOD8154334 Si02
#       6
#     8   8   8   8   8   8
#     4  12  25  44  71 101 139 185 235 297 350 422
#     4  12  25  46  68 102 143 181 242 287 355 432
#     4  11  26  46  72 108 144 188 246 296 368 430
#     4  11  26  44  76 104 146 190 237 307 362 440
#     4  12  26  45  71 104 142 186 233 293 366 430
#     4  12  27  47  73 106 146 196 245 298 361 430
#
# _framework density 23.224034
#
# number of rings (size 3 to 8) (size 9 to 14) (size 15 to 20)
#    0.000    0.333    1.667    6.500    9.333    0.000 
#    0.000    0.000    0.000    0.000    0.000    0.000 
#    0.000    0.000    0.000    0.000    0.000    0.000 
#
# Total GULP energy -297400.574399 kJ/mol
# GULP energy per Si atom -12391.690600 kJ/mol
# Density = 2.317118 g / cm^3
# Si number density = 23.224034 Si / 1000 Ang^3
#
#
#
# Elastic Constant Matrix: (Units=GPa)
#
#
# Indices 1 2 3 4 5 6 
#
# 1 136.3352 34.6181 44.1216 -0.0050 16.1447 0.0086
# 2 34.6181 118.2278 19.9172 -0.0301 -4.0506 0.0511
# 3 44.1216 19.9172 122.1572 0.0076 19.7491 -0.0065
# 4 -0.0050 -0.0301 0.0076 42.7372 -0.0045 -1.3204
# 5 16.1447 -4.0506 19.7491 -0.0045 38.4527 -0.0035
# 6 0.0086 0.0511 -0.0065 -1.3204 -0.0035 31.9031
#
#
#
# Elastic Compliance Matrix: (Units=1/GPa)
#
#
# Indices 1 2 3 4 5 6 
#
# 1 0.009047 -0.002334 -0.002435 0.000000 -0.002793 0.000000
# 2 -0.002334 0.009414 -0.001102 0.000006 0.002538 -0.000014
# 3 -0.002435 -0.001102 0.009923 -0.000003 -0.004190 0.000004
# 4 0.000000 0.000006 -0.000003 0.023429 0.000005 0.000970
# 5 -0.002793 0.002538 -0.004190 0.000005 0.029598 -0.000001
# 6 0.000000 -0.000014 0.000004 0.000970 -0.000001 0.031385
#
#
# Mechanical properties :
#
#
# Convention : Reuss Voigt Hill
#
# Bulk Modulus (GPa) = 60.09525 63.78156 61.93841
# Shear Modulus (GPa) = 38.43616 41.15617 39.79617
#
# Velocity S-wave (km/s) = 4.07260 4.21424 4.14403
# Velocity P-wave (km/s) = 6.93162 7.15563 7.04451
#
# Compressibility (1/GPa) = 0.01664025
#
# Stress axis : x y z
#
# Youngs Moduli (GPa) = 110.53997 106.22038 100.77760
#
# Poissons Ratio (x) = 0.24795 0.24542
# Poissons Ratio (y) = 0.25804 0.11107
# Poissons Ratio (z) = 0.26919 0.11707
#
# Static dielectric constant tensor:
#      x y z
#    x 4.136500 -0.000110 0.304650 
#    y -0.000110 3.922740 -0.000010 
#    z 0.304650 -0.000010 4.264900 
# 
# 
# High freq. dielectric constant tensor:
#      x y z
#    x 1.930730 0.000000 0.007200 
#    y 0.000000 1.916460 0.000000 
#    z 0.007200 0.000000 1.934900 
# 
# From -- ./inp_files/254462.got.cif
#   From: 2010.06.25/outbox.cif.g09.slc.cpg/sg15_128_cif.got.tgz:254462.got - 2010.06.28 07:06:18.
