data_PCOD8154669
_publ_section_title
;
Structure prediction by ZEFSAII (Michael W. Deem and Ramdas Pophale) SiO2 
 PCOD8154669
Probable space group: C 2/C
;
_chemical_formula_sum "Si O2"
_cell_formula_units_Z 44
_cell_length_a 17.306049
_cell_length_b 13.979072
_cell_length_c 9.631936
_cell_angle_alpha 90.000000
_cell_angle_beta 129.230561
_cell_angle_gamma 90.000000
_cell_volume 1804.975961
_symmetry_space_group_name_H-M "C 2/C"
_symmetry_group_IT_number 15
_symmetry_cell_setting 'monoclinic'
loop_
_space_group_symop_operation_xyz
x,y,z
-x,y,1/2-z
-x,-y,-z
x,-y,1/2+z
1/2+x,1/2+y,z
1/2-x,1/2+y,1/2-z
1/2-x,1/2-y,-z
1/2+x,1/2-y,1/2+z
loop_
_atom_site_type_symbol
_atom_site_label
_atom_site_fract_x
_atom_site_fract_y
_atom_site_fract_z
Si Si1 0.843018 0.707497 0.190529
Si Si2 0.292553 0.921700 0.236292
Si Si3 0.389718 0.991083 0.603765
Si Si4 0.000000 0.163357 0.750000
Si Si5 0.275551 0.713445 0.182251
Si Si6 0.394907 0.456330 0.921527
O O1 0.876045 0.610121 0.158894
O O2 0.940913 0.775064 0.298032
O O3 0.816994 0.684048 0.322783
O O4 0.750000 0.750000 0.000000
O O5 0.365293 0.986800 0.412923
O O6 0.313412 0.811403 0.300542
O O7 0.314785 0.935815 0.097160
O O8 0.179787 0.954968 0.142234
O O9 0.500000 0.031550 0.750000
O O10 0.912005 0.098996 0.584960
O O11 0.354485 0.625553 0.268413
O O12 0.250000 0.750000 0.000000
O O13 0.500000 0.500000 0.000000
#
# Coordination Sequence:
#
# PCOD8154669 Si02
#       6
#     8   8   8   4   8   8
#     4  12  22  47  75 105 148 203 259 321 384 473
#     4  12  26  49  74 112 157 204 258 332 397 472
#     4  12  25  46  76 107 148 200 268 319 398 471
#     4  12  24  46  82 114 142 210 282 318 390 476
#     4  12  27  49  75 114 159 207 256 330 405 459
#     4  12  28  47  78 116 158 208 261 326 397 479
#
# _framework density 24.377054000000001
#
# number of rings (size 3 to 8) (size 9 to 14) (size 15 to 20)
#    0.000    0.000    6.364    2.727    5.091    0.000 
#    0.000    0.000    0.000    0.000    0.000    0.000 
#    0.000    0.000    0.000    0.000    0.000    0.000 
#
# Total GULP energy -272702.137624 kJ/mol
# GULP energy per Si atom -12395.551710 kJ/mol
# Density = 2.432157 g / cm^3
# Si number density = 24.377054 Si / 1000 Ang^3
#
#
#
# Elastic Constant Matrix: (Units=GPa)
#
#
# Indices 1 2 3 4 5 6 
#
# 1 136.4111 37.2829 32.9461 0.0000 10.4444 0.0000
# 2 37.2829 126.2554 -3.7237 0.0000 14.7887 0.0000
# 3 32.9461 -3.7237 83.6857 0.0000 -5.2121 0.0000
# 4 0.0000 0.0000 0.0000 22.0416 0.0000 5.9865
# 5 10.4444 14.7887 -5.2121 0.0000 45.4108 0.0000
# 6 0.0000 0.0000 0.0000 5.9865 0.0000 40.8449
#
#
#
# Elastic Compliance Matrix: (Units=1/GPa)
#
#
# Indices 1 2 3 4 5 6 
#
# 1 0.009087 -0.002599 -0.003798 0.000000 -0.001680 0.000000
# 2 -0.002599 0.008981 0.001287 0.000000 -0.002179 0.000000
# 3 -0.003798 0.001287 0.013628 0.000000 0.002018 0.000000
# 4 0.000000 0.000000 0.000000 0.047250 0.000000 -0.006925
# 5 -0.001680 -0.002179 0.002018 0.000000 0.023349 0.000000
# 6 0.000000 0.000000 0.000000 -0.006925 0.000000 0.025498
#
#
# Mechanical properties :
#
#
# Convention : Reuss Voigt Hill
#
# Bulk Modulus (GPa) = 46.56178 53.26251 49.91214
# Shear Modulus (GPa) = 34.44255 40.31592 37.37923
#
# Velocity S-wave (km/s) = 3.76295 4.07116 3.92008
# Velocity P-wave (km/s) = 6.16618 6.63295 6.40382
#
# Compressibility (1/GPa) = 0.02147684
#
# Stress axis : x y z
#
# Youngs Moduli (GPa) = 110.04971 111.34553 73.38092
#
# Poissons Ratio (x) = 0.28934 0.27867
# Poissons Ratio (y) = 0.28597 -0.09444
# Poissons Ratio (z) = 0.41792 -0.14329
#
# Static dielectric constant tensor:
#      x y z
#    x 4.675160 0.000000 -0.157040 
#    y 0.000000 5.105130 0.000000 
#    z -0.157040 0.000000 4.548100 
# 
# 
# High freq. dielectric constant tensor:
#      x y z
#    x 1.963830 0.000000 -0.008860 
#    y 0.000000 1.992740 0.000000 
#    z -0.008860 0.000000 1.963080 
# 
# From -- ./inp_files/47562.got.cif
#   From: 2010.06.25/outbox.cif.g09.slc.cpg/sg15_24_cif.got.tgz:47562.got - 2010.06.28 07:06:18.
