data_PCOD8154482
_publ_section_title
;
Structure prediction by ZEFSAII (Michael W. Deem and Ramdas Pophale) SiO2 
 PCOD8154482
Probable space group: C 2/C
;
_chemical_formula_sum "Si O2"
_cell_formula_units_Z 52
_cell_length_a 9.083639
_cell_length_b 31.753404
_cell_length_c 13.631685
_cell_angle_alpha 90.000000
_cell_angle_beta 45.708324
_cell_angle_gamma 90.000000
_cell_volume 2814.413257
_symmetry_space_group_name_H-M "C 2/C"
_symmetry_group_IT_number 15
_symmetry_cell_setting 'monoclinic'
loop_
_space_group_symop_operation_xyz
x,y,z
-x,y,1/2-z
-x,-y,-z
x,-y,1/2+z
1/2+x,1/2+y,z
1/2-x,1/2+y,1/2-z
1/2-x,1/2-y,-z
1/2+x,1/2-y,1/2+z
loop_
_atom_site_type_symbol
_atom_site_label
_atom_site_fract_x
_atom_site_fract_y
_atom_site_fract_z
Si Si1 0.722848 0.271402 0.115740
Si Si2 0.528477 0.267447 0.626731
Si Si3 0.777087 0.945820 0.705995
Si Si4 0.311341 0.054217 0.475383
Si Si5 0.701640 0.651447 0.310123
Si Si6 0.844699 0.349522 0.960653
Si Si7 0.000000 0.003686 0.750000
O O1 0.500000 0.257832 0.250000
O O2 0.873371 0.256367 0.129228
O O3 0.750000 0.250000 0.000000
O O4 0.746738 0.321554 0.092047
O O5 0.500000 0.252567 0.750000
O O6 0.485425 0.318127 0.637902
O O7 0.750000 0.250000 0.500000
O O8 0.781095 0.956895 0.588532
O O9 0.554728 0.955146 0.857731
O O10 0.852892 0.897529 0.682126
O O11 0.935763 0.975316 0.688016
O O12 0.288649 0.102970 0.511971
O O13 0.191971 0.030609 0.618787
O O14 0.743348 0.661872 0.403902
O O15 0.911449 0.660213 0.153054
#
# Coordination Sequence:
#
# PCOD8154482 Si02
#       7
#     8   8   8   8   8   8   4
#     4  12  23  38  61  85 110 151 201 237 281 347
#     4  12  25  38  56  86 122 153 184 243 302 344
#     4   9  20  37  57  84 113 154 189 232 281 348
#     4   9  20  37  57  84 118 145 190 243 283 330
#     4   9  18  37  61  81 112 151 198 234 281 343
#     4   9  18  36  62  84 106 148 202 246 274 329
#     4  12  20  32  60  90 114 150 192 230 294 344
#
# _framework density 18.476320999999999
#
# number of rings (size 3 to 8) (size 9 to 14) (size 15 to 20)
#    0.000    1.846    1.538    5.538    2.154    0.000 
#    0.000    0.000    0.000    0.000    0.000    0.000 
#    0.000    0.000    0.000    0.000    0.000    0.000 
#
# Total GULP energy -322237.398863 kJ/mol
# GULP energy per Si atom -12393.746110 kJ/mol
# Density = 1.843427 g / cm^3
# Si number density = 18.476321 Si / 1000 Ang^3
#
#
#
# Elastic Constant Matrix: (Units=GPa)
#
#
# Indices 1 2 3 4 5 6 
#
# 1 103.4846 54.8527 43.0163 0.0000 -2.9081 0.0000
# 2 54.8527 100.4273 52.6974 0.0000 -0.5300 0.0000
# 3 43.0163 52.6974 109.6250 0.0000 -2.1785 0.0000
# 4 0.0000 0.0000 0.0000 34.5852 0.0000 -1.1971
# 5 -2.9081 -0.5300 -2.1785 0.0000 29.7441 0.0000
# 6 0.0000 0.0000 0.0000 -1.1971 0.0000 33.2815
#
#
#
# Elastic Compliance Matrix: (Units=1/GPa)
#
#
# Indices 1 2 3 4 5 6 
#
# 1 0.014109 -0.006428 -0.002425 0.000000 0.001087 0.000000
# 2 -0.006428 0.016247 -0.005302 0.000000 -0.000727 0.000000
# 3 -0.002425 -0.005302 0.012634 0.000000 0.000594 0.000000
# 4 0.000000 0.000000 0.000000 0.028950 0.000000 0.001041
# 5 0.001087 -0.000727 0.000594 0.000000 0.033757 0.000000
# 6 0.000000 0.000000 0.000000 0.001041 0.000000 0.030084
#
#
# Mechanical properties :
#
#
# Convention : Reuss Voigt Hill
#
# Bulk Modulus (GPa) = 68.11957 68.29662 68.20810
# Shear Modulus (GPa) = 29.58860 30.38685 29.98772
#
# Velocity S-wave (km/s) = 4.00613 4.05981 4.03306
# Velocity P-wave (km/s) = 7.63855 7.68250 7.66055
#
# Compressibility (1/GPa) = 0.01468007
#
# Stress axis : x y z
#
# Youngs Moduli (GPa) = 70.87657 61.55059 79.15211
#
# Poissons Ratio (x) = 0.39566 0.19191
# Poissons Ratio (y) = 0.45561 0.41966
# Poissons Ratio (z) = 0.17185 0.32634
#
# Static dielectric constant tensor:
#      x y z
#    x 3.487430 0.000000 -0.110330 
#    y 0.000000 3.584200 0.000000 
#    z -0.110330 0.000000 3.674260 
# 
# 
# High freq. dielectric constant tensor:
#      x y z
#    x 1.712460 0.000000 0.003700 
#    y 0.000000 1.724170 0.000000 
#    z 0.003700 0.000000 1.710070 
# 
# From -- ./inp_files/139743.got.cif
#   From: 2010.06.25/outbox.cif.g09.slc.cpg/sg15_70_cif.got.tgz:139743.got - 2010.06.28 07:06:18.
