data_PCOD8154507
_publ_section_title
;
Structure prediction by ZEFSAII (Michael W. Deem and Ramdas Pophale) SiO2 
 PCOD8154507
Probable space group: C 2/C
;
_chemical_formula_sum "Si O2"
_cell_formula_units_Z 44
_cell_length_a 30.577530
_cell_length_b 11.720004
_cell_length_c 18.307641
_cell_angle_alpha 90.000000
_cell_angle_beta 17.775489
_cell_angle_gamma 90.000000
_cell_volume 2002.959754
_symmetry_space_group_name_H-M "C 2/C"
_symmetry_group_IT_number 15
_symmetry_cell_setting 'monoclinic'
loop_
_space_group_symop_operation_xyz
x,y,z
-x,y,1/2-z
-x,-y,-z
x,-y,1/2+z
1/2+x,1/2+y,z
1/2-x,1/2+y,1/2-z
1/2-x,1/2-y,-z
1/2+x,1/2-y,1/2+z
loop_
_atom_site_type_symbol
_atom_site_label
_atom_site_fract_x
_atom_site_fract_y
_atom_site_fract_z
Si Si1 0.978425 0.132861 0.554226
Si Si2 0.500000 0.592025 0.250000
Si Si3 0.285558 0.788300 0.608739
Si Si4 0.330848 0.558553 0.920874
Si Si5 0.355379 0.179608 0.159983
Si Si6 0.157039 0.637296 0.629502
O O1 0.125908 0.203768 0.328776
O O2 0.895954 0.151751 0.762262
O O3 0.880995 0.190012 0.645795
O O4 0.000000 0.000000 0.500000
O O5 0.354917 0.662009 0.499231
O O6 0.534404 0.513135 0.264117
O O7 0.281655 0.831995 0.697946
O O8 0.381241 0.858334 0.396776
O O9 0.241709 0.613004 0.128154
O O10 0.239415 0.477274 0.014816
O O11 0.512151 0.125137 0.905800
O O12 0.250000 0.750000 0.500000
#
# Coordination Sequence:
#
# PCOD8154507 Si02
#       6
#     8   4   8   8   8   8
#     4  12  24  45  71 100 141 191 228 282 360 424
#     4  12  22  44  72 102 128 180 246 284 334 426
#     4  12  23  41  73  98 130 178 246 282 331 421
#     4  12  25  42  68 101 143 182 223 295 366 408
#     4  12  25  42  67 103 143 179 229 293 346 421
#     4  12  20  44  67  98 130 185 237 278 335 420
#
# _framework density 21.967490000000002
#
# number of rings (size 3 to 8) (size 9 to 14) (size 15 to 20)
#    0.000    0.000    7.273    3.273    0.000    0.000 
#    0.000    0.000    0.000    1.091    0.000    0.000 
#    0.000    0.000    0.000    0.000    0.000    0.000 
#
# Total GULP energy -272612.929633 kJ/mol
# GULP energy per Si atom -12391.496801 kJ/mol
# Density = 2.191749 g / cm^3
# Si number density = 21.967490 Si / 1000 Ang^3
#
#
#
# Elastic Constant Matrix: (Units=GPa)
#
#
# Indices 1 2 3 4 5 6 
#
# 1 149.2920 47.0001 44.5409 0.0002 15.2386 -0.0001
# 2 47.0001 80.7260 33.5885 0.0003 0.3355 -0.0002
# 3 44.5409 33.5885 125.1137 0.0003 24.2316 -0.0001
# 4 0.0002 0.0003 0.0003 21.6290 -0.0003 -5.2579
# 5 15.2386 0.3355 24.2316 -0.0003 46.3319 0.0000
# 6 -0.0001 -0.0002 -0.0001 -5.2579 0.0000 32.9211
#
#
#
# Elastic Compliance Matrix: (Units=1/GPa)
#
#
# Indices 1 2 3 4 5 6 
#
# 1 0.008768 -0.004461 -0.001526 0.000000 -0.002053 0.000000
# 2 -0.004461 0.016395 -0.003421 0.000000 0.003138 0.000000
# 3 -0.001526 -0.003421 0.010407 0.000000 -0.004916 0.000000
# 4 0.000000 0.000000 0.000000 0.048102 0.000000 0.007682
# 5 -0.002053 0.003138 -0.004916 0.000000 0.024807 0.000000
# 6 0.000000 0.000000 0.000000 0.007682 0.000000 0.031603
#
#
# Mechanical properties :
#
#
# Convention : Reuss Voigt Hill
#
# Bulk Modulus (GPa) = 59.69068 67.26562 63.47815
# Shear Modulus (GPa) = 30.39850 35.50986 32.95418
#
# Velocity S-wave (km/s) = 3.72397 4.02490 3.87736
# Velocity P-wave (km/s) = 6.76180 7.23096 7.00031
#
# Compressibility (1/GPa) = 0.01675303
#
# Stress axis : x y z
#
# Youngs Moduli (GPa) = 114.05621 60.99285 96.09369
#
# Poissons Ratio (x) = 0.27210 0.14663
# Poissons Ratio (y) = 0.50883 0.32874
# Poissons Ratio (z) = 0.17404 0.20866
#
# Static dielectric constant tensor:
#      x y z
#    x 2.488300 0.000010 -0.684860 
#    y 0.000010 3.739660 0.000000 
#    z -0.684860 0.000000 3.803150 
# 
# 
# High freq. dielectric constant tensor:
#      x y z
#    x 1.888820 0.000000 0.013360 
#    y 0.000000 1.833310 0.000000 
#    z 0.013360 0.000000 1.874740 
# 
# From -- ./inp_files/225114.got.cif
#   From: 2010.06.25/outbox.cif.g09.slc.cpg/sg15_113_cif.got.tgz:225114.got - 2010.06.28 07:06:18.
