data_PCOD8154420
_publ_section_title
;
Structure prediction by ZEFSAII (Michael W. Deem and Ramdas Pophale) SiO2 
 PCOD8154420
Probable space group: C 2/C
;
_chemical_formula_sum "Si O2"
_cell_formula_units_Z 40
_cell_length_a 18.337068
_cell_length_b 6.569679
_cell_length_c 25.955700
_cell_angle_alpha 90.000000
_cell_angle_beta 149.050958
_cell_angle_gamma 90.000000
_cell_volume 1608.061459
_symmetry_space_group_name_H-M "C 2/C"
_symmetry_group_IT_number 15
_symmetry_cell_setting 'monoclinic'
loop_
_space_group_symop_operation_xyz
x,y,z
-x,y,1/2-z
-x,-y,-z
x,-y,1/2+z
1/2+x,1/2+y,z
1/2-x,1/2+y,1/2-z
1/2-x,1/2-y,-z
1/2+x,1/2-y,1/2+z
loop_
_atom_site_type_symbol
_atom_site_label
_atom_site_fract_x
_atom_site_fract_y
_atom_site_fract_z
Si Si1 0.341729 0.438460 0.415679
Si Si2 0.611582 0.921316 0.629631
Si Si3 0.632679 0.153897 0.983558
Si Si4 0.344113 0.719856 0.742507
Si Si5 0.552807 0.373070 0.836102
O O1 0.500000 0.500000 0.500000
O O2 0.317077 0.242512 0.364618
O O3 0.328854 0.371796 0.467270
O O4 0.229126 0.619442 0.340517
O O5 0.573798 0.836418 0.663115
O O6 0.455245 0.024101 0.525735
O O7 0.722029 0.103083 0.699628
O O8 0.543028 0.207661 0.877014
O O9 0.784028 0.046613 0.065410
O O10 0.452607 0.570190 0.780171
O O11 0.500000 0.269145 0.750000
#
# Coordination Sequence:
#
# PCOD8154420 Si02
#       5
#     8   8   8   8   8
#     4  12  25  44  78 113 146 189 250 313 376 443
#     4  12  24  46  76 110 147 185 247 310 370 444
#     4  11  26  49  78 109 154 196 249 315 376 448
#     4  12  25  45  75 110 147 197 247 303 377 447
#     4  11  27  51  71 105 155 201 249 306 374 451
#
# _framework density 24.874670999999999
#
# number of rings (size 3 to 8) (size 9 to 14) (size 15 to 20)
#    0.000    0.400    4.000    4.200    5.600    0.800 
#    7.200    0.000    0.000    0.000    0.000    0.000 
#    0.000    0.000    0.000    0.000    0.000    0.000 
#
# Total GULP energy -247833.786777 kJ/mol
# GULP energy per Si atom -12391.689339 kJ/mol
# Density = 2.481806 g / cm^3
# Si number density = 24.874671 Si / 1000 Ang^3
#
#
#
# Elastic Constant Matrix: (Units=GPa)
#
#
# Indices 1 2 3 4 5 6 
#
# 1 109.7205 43.6796 35.3448 -0.0003 11.3150 0.0005
# 2 43.6796 100.9654 50.4867 -0.0019 8.6676 0.0031
# 3 35.3448 50.4867 119.2316 0.0001 -1.0576 -0.0005
# 4 -0.0003 -0.0019 0.0001 48.0545 0.0000 11.4881
# 5 11.3150 8.6676 -1.0576 0.0000 58.7382 -0.0007
# 6 0.0005 0.0031 -0.0005 11.4881 -0.0007 35.9991
#
#
#
# Elastic Compliance Matrix: (Units=1/GPa)
#
#
# Indices 1 2 3 4 5 6 
#
# 1 0.011405 -0.003926 -0.001733 0.000000 -0.001649 0.000000
# 2 -0.003926 0.014144 -0.004838 0.000001 -0.001418 -0.000002
# 3 -0.001733 -0.004838 0.010960 0.000000 0.001245 0.000001
# 4 0.000000 0.000001 0.000000 0.022528 0.000000 -0.007189
# 5 -0.001649 -0.001418 0.001245 0.000000 0.017574 0.000001
# 6 0.000000 -0.000002 0.000001 -0.007189 0.000001 0.030073
#
#
# Mechanical properties :
#
#
# Convention : Reuss Voigt Hill
#
# Bulk Modulus (GPa) = 64.45130 65.43775 64.94453
# Shear Modulus (GPa) = 37.63648 41.91879 39.77764
#
# Velocity S-wave (km/s) = 3.89401 4.10957 4.00324
# Velocity P-wave (km/s) = 6.79591 6.99158 6.89444
#
# Compressibility (1/GPa) = 0.01551559
#
# Stress axis : x y z
#
# Youngs Moduli (GPa) = 87.67807 70.70360 91.23842
#
# Poissons Ratio (x) = 0.27758 0.15814
# Poissons Ratio (y) = 0.34422 0.44138
# Poissons Ratio (z) = 0.15197 0.34204
#
# Static dielectric constant tensor:
#      x y z
#    x 4.326570 0.000000 -0.038920 
#    y 0.000000 4.439770 0.000030 
#    z -0.038920 0.000030 4.578170 
# 
# 
# High freq. dielectric constant tensor:
#      x y z
#    x 1.995590 0.000000 0.001360 
#    y 0.000000 1.981560 0.000000 
#    z 0.001360 0.000000 2.003360 
# 
# From -- ./inp_files/318316.got.cif
#   From: 2010.06.25/outbox.cif.g09.slc.cpg/sg15_160_cif.got.tgz:318316.got - 2010.06.28 07:06:18.
