data_PCOD8154899
_publ_section_title
;
Structure prediction by ZEFSAII (Michael W. Deem and Ramdas Pophale) SiO2 
 PCOD8154899
Probable space group: C 2/C
;
_chemical_formula_sum "Si O2"
_cell_formula_units_Z 48
_cell_length_a 13.781254
_cell_length_b 18.132744
_cell_length_c 17.055201
_cell_angle_alpha 90.000000
_cell_angle_beta 29.049412
_cell_angle_gamma 90.000000
_cell_volume 2069.451887
_symmetry_space_group_name_H-M "C 2/C"
_symmetry_group_IT_number 15
_symmetry_cell_setting 'monoclinic'
loop_
_space_group_symop_operation_xyz
x,y,z
-x,y,1/2-z
-x,-y,-z
x,-y,1/2+z
1/2+x,1/2+y,z
1/2-x,1/2+y,1/2-z
1/2-x,1/2-y,-z
1/2+x,1/2-y,1/2+z
loop_
_atom_site_type_symbol
_atom_site_label
_atom_site_fract_x
_atom_site_fract_y
_atom_site_fract_z
Si Si1 0.044027 0.028287 0.054275
Si Si2 0.268041 0.307554 0.418168
Si Si3 0.155620 0.554312 0.427248
Si Si4 0.460968 0.792950 0.076054
Si Si5 0.713729 0.173422 0.640760
Si Si6 0.841407 0.454267 0.931622
O O1 0.856039 0.053581 0.236030
O O2 0.213335 0.091645 0.931798
O O3 0.000000 0.000000 0.000000
O O4 0.128493 0.956162 0.038731
O O5 0.500000 0.329262 0.250000
O O6 0.250000 0.250000 0.500000
O O7 0.174759 0.272746 0.404391
O O8 0.139715 0.380809 0.529539
O O9 0.163461 0.528681 0.512017
O O10 0.000000 0.500000 0.500000
O O11 0.100451 0.638744 0.458234
O O12 0.306276 0.816773 0.252043
O O13 0.604244 0.728749 0.009031
O O14 0.500000 0.190628 0.750000
O O15 0.000000 0.457155 0.750000
#
# Coordination Sequence:
#
# PCOD8154899 Si02
#       6
#     8   8   8   8   8   8
#     4  12  27  43  74 106 149 197 249 309 379 449
#     4  12  27  46  72 105 150 196 250 310 379 452
#     4  12  24  47  70 107 146 193 250 309 376 447
#     4  12  26  46  78 105 152 199 252 311 384 452
#     4  12  27  49  75 112 153 199 259 314 384 455
#     4  12  26  46  73 106 146 191 247 312 377 451
#
# _framework density 23.194547
#
# number of rings (size 3 to 8) (size 9 to 14) (size 15 to 20)
#    0.000    0.000    1.667    9.000    4.667    1.333 
#    0.000    0.000    0.000    0.000    0.000    0.000 
#    0.000    0.000    0.000    0.000    0.000    0.000 
#
# Total GULP energy -297512.123632 kJ/mol
# GULP energy per Si atom -12396.338485 kJ/mol
# Density = 2.314175 g / cm^3
# Si number density = 23.194547 Si / 1000 Ang^3
#
#
#
# Elastic Constant Matrix: (Units=GPa)
#
#
# Indices 1 2 3 4 5 6 
#
# 1 148.6680 26.5433 30.7898 0.1121 2.5673 0.0424
# 2 26.5433 84.2654 18.8368 -0.0643 -5.5454 -0.0636
# 3 30.7898 18.8368 144.7622 -0.0571 13.8133 0.0241
# 4 0.1121 -0.0643 -0.0571 72.9754 -0.1261 25.1342
# 5 2.5673 -5.5454 13.8133 -0.1261 44.2260 -0.0627
# 6 0.0424 -0.0636 0.0241 25.1342 -0.0627 60.5721
#
#
#
# Elastic Compliance Matrix: (Units=1/GPa)
#
#
# Indices 1 2 3 4 5 6 
#
# 1 0.007361 -0.002054 -0.001271 -0.000014 -0.000288 -0.000001
# 2 -0.002054 0.012986 -0.001463 0.000013 0.002205 0.000013
# 3 -0.001271 -0.001463 0.007606 0.000005 -0.002485 -0.000008
# 4 -0.000014 0.000013 0.000005 0.015988 0.000037 -0.006634
# 5 -0.000288 0.002205 -0.002485 0.000037 0.023681 0.000013
# 6 -0.000001 0.000013 -0.000008 -0.006634 0.000013 0.019262
#
#
# Mechanical properties :
#
#
# Convention : Reuss Voigt Hill
#
# Bulk Modulus (GPa) = 54.41464 58.89284 56.65374
# Shear Modulus (GPa) = 48.73943 55.65641 52.19792
#
# Velocity S-wave (km/s) = 4.58900 4.90383 4.74903
# Velocity P-wave (km/s) = 7.18259 7.58349 7.38576
#
# Compressibility (1/GPa) = 0.01837741
#
# Stress axis : x y z
#
# Youngs Moduli (GPa) = 135.84630 77.00377 131.47896
#
# Poissons Ratio (x) = 0.15814 0.16711
# Poissons Ratio (y) = 0.27898 0.19241
# Poissons Ratio (z) = 0.17266 0.11269
#
# Static dielectric constant tensor:
#      x y z
#    x 4.640440 0.000930 -0.053010 
#    y 0.000930 5.355920 0.000090 
#    z -0.053010 0.000090 4.504220 
# 
# 
# High freq. dielectric constant tensor:
#      x y z
#    x 1.938030 0.000000 0.006510 
#    y 0.000000 1.918420 0.000020 
#    z 0.006510 0.000020 1.934020 
# 
# From -- ./inp_files/206399.got.cif
#   From: 2010.06.25/outbox.cif.g09.slc.cpg/sg15_104_cif.got.tgz:206399.got - 2010.06.28 07:06:18.
