data_PCOD8154840
_publ_section_title
;
Structure prediction by ZEFSAII (Michael W. Deem and Ramdas Pophale) SiO2 
 PCOD8154840
Probable space group: C 2/C
;
_chemical_formula_sum "Si O2"
_cell_formula_units_Z 48
_cell_length_a 9.344128
_cell_length_b 23.861893
_cell_length_c 13.564708
_cell_angle_alpha 90.000000
_cell_angle_beta 46.775144
_cell_angle_gamma 90.000000
_cell_volume 2203.869929
_symmetry_space_group_name_H-M "C 2/C"
_symmetry_group_IT_number 15
_symmetry_cell_setting 'monoclinic'
loop_
_space_group_symop_operation_xyz
x,y,z
-x,y,1/2-z
-x,-y,-z
x,-y,1/2+z
1/2+x,1/2+y,z
1/2-x,1/2+y,1/2-z
1/2-x,1/2-y,-z
1/2+x,1/2-y,1/2+z
loop_
_atom_site_type_symbol
_atom_site_label
_atom_site_fract_x
_atom_site_fract_y
_atom_site_fract_z
Si Si1 0.680054 0.037844 0.241018
Si Si2 0.679340 0.797753 0.603468
Si Si3 0.666065 0.578864 0.753828
Si Si4 0.818475 0.804167 0.906829
Si Si5 0.986369 0.126662 0.028869
Si Si6 0.497825 0.123740 0.463161
O O1 0.500000 0.030973 0.250000
O O2 0.612591 0.068387 0.373370
O O3 0.861370 0.071147 0.108238
O O4 0.766021 0.978206 0.228457
O O5 0.500000 0.772777 0.750000
O O6 0.750000 0.750000 0.500000
O O7 0.624617 0.854751 0.572640
O O8 0.852392 0.817235 0.593977
O O9 0.500000 0.567696 0.750000
O O10 0.854887 0.609006 0.619549
O O11 0.590640 0.620347 0.874323
O O12 0.860687 0.858305 0.956866
O O13 0.639170 0.825075 0.924545
O O14 0.000000 0.788576 0.750000
O O15 0.750000 0.750000 0.000000
#
# Coordination Sequence:
#
# PCOD8154840 Si02
#       6
#     8   8   8   8   8   8
#     4  12  24  48  73 104 144 190 241 292 363 420
#     4  12  24  44  73 101 134 184 233 293 355 418
#     4  12  28  44  75 110 140 190 241 292 351 432
#     4  12  28  48  75 107 144 190 237 291 359 422
#     4  12  25  47  70 104 149 182 234 297 354 422
#     4  12  25  47  70 104 149 182 234 297 354 422
#
# _framework density 21.779871
#
# number of rings (size 3 to 8) (size 9 to 14) (size 15 to 20)
#    0.000    0.000    6.667    2.000    9.333    0.000 
#    0.000    0.000    0.000    0.000    0.000    0.000 
#    0.000    0.000    0.000    0.000    0.000    0.000 
#
# Total GULP energy -297723.183928 kJ/mol
# GULP energy per Si atom -12405.132664 kJ/mol
# Density = 2.173030 g / cm^3
# Si number density = 21.779871 Si / 1000 Ang^3
#
#
#
# Elastic Constant Matrix: (Units=GPa)
#
#
# Indices 1 2 3 4 5 6 
#
# 1 79.6924 29.8092 27.0453 0.0000 4.8790 0.0000
# 2 29.8092 89.9714 47.6068 0.0000 -3.4685 0.0000
# 3 27.0453 47.6068 189.0668 0.0000 12.4939 0.0000
# 4 0.0000 0.0000 0.0000 35.7551 0.0000 20.7529
# 5 4.8790 -3.4685 12.4939 0.0000 30.0997 0.0000
# 6 0.0000 0.0000 0.0000 20.7529 0.0000 27.2703
#
#
#
# Elastic Compliance Matrix: (Units=1/GPa)
#
#
# Indices 1 2 3 4 5 6 
#
# 1 0.014672 -0.004546 -0.000784 0.000000 -0.002577 0.000000
# 2 -0.004546 0.014482 -0.003244 0.000000 0.003752 0.000000
# 3 -0.000784 -0.003244 0.006410 0.000000 -0.002908 0.000000
# 4 0.000000 0.000000 0.000000 0.050095 0.000000 -0.038123
# 5 -0.002577 0.003752 -0.002908 0.000000 0.035280 0.000000
# 6 0.000000 0.000000 0.000000 -0.038123 0.000000 0.065682
#
#
# Mechanical properties :
#
#
# Convention : Reuss Voigt Hill
#
# Bulk Modulus (GPa) = 54.29818 63.07257 58.68537
# Shear Modulus (GPa) = 23.81992 35.57631 29.69812
#
# Velocity S-wave (km/s) = 3.31065 4.04598 3.69664
# Velocity P-wave (km/s) = 6.29273 7.13082 6.72484
#
# Compressibility (1/GPa) = 0.01841682
#
# Stress axis : x y z
#
# Youngs Moduli (GPa) = 68.15514 69.05104 155.99852
#
# Poissons Ratio (x) = 0.31389 0.12229
# Poissons Ratio (y) = 0.30982 0.50610
# Poissons Ratio (z) = 0.05343 0.22402
#
# Static dielectric constant tensor:
#      x y z
#    x 4.147530 0.000000 0.150800 
#    y 0.000000 3.757730 0.000000 
#    z 0.150800 0.000000 4.038060 
# 
# 
# High freq. dielectric constant tensor:
#      x y z
#    x 1.868960 0.000000 -0.000230 
#    y 0.000000 1.853100 0.000000 
#    z -0.000230 0.000000 1.875160 
# 
# From -- ./inp_files/138910.got.cif
#   From: 2010.06.25/outbox.cif.g09.slc.cpg/sg15_70_cif.got.tgz:138910.got - 2010.06.28 07:06:18.
