data_PCOD8154454
_publ_section_title
;
Structure prediction by ZEFSAII (Michael W. Deem and Ramdas Pophale) SiO2 
 PCOD8154454
Probable space group: C 2/C
;
_chemical_formula_sum "Si O2"
_cell_formula_units_Z 48
_cell_length_a 24.134915
_cell_length_b 12.098403
_cell_length_c 13.304775
_cell_angle_alpha 90.000000
_cell_angle_beta 151.130558
_cell_angle_gamma 90.000000
_cell_volume 1875.696058
_symmetry_space_group_name_H-M "C 2/C"
_symmetry_group_IT_number 15
_symmetry_cell_setting 'monoclinic'
loop_
_space_group_symop_operation_xyz
x,y,z
-x,y,1/2-z
-x,-y,-z
x,-y,1/2+z
1/2+x,1/2+y,z
1/2-x,1/2+y,1/2-z
1/2-x,1/2-y,-z
1/2+x,1/2-y,1/2+z
loop_
_atom_site_type_symbol
_atom_site_label
_atom_site_fract_x
_atom_site_fract_y
_atom_site_fract_z
Si Si1 0.000000 0.533608 0.750000
Si Si2 0.918599 0.632949 0.954074
Si Si3 0.820905 0.201456 0.922715
Si Si4 0.689962 0.132109 0.929358
Si Si5 0.860875 0.282866 0.785606
Si Si6 0.000000 0.985567 0.750000
Si Si7 0.822700 0.925272 0.106386
O O1 0.106272 0.609935 0.890522
O O2 0.964600 0.463992 0.596240
O O3 0.806344 0.686740 0.828632
O O4 0.877567 0.597290 0.778123
O O5 0.025842 0.712373 0.103304
O O6 0.885535 0.282539 0.945832
O O7 0.789284 0.239396 0.991165
O O8 0.893740 0.089451 0.043747
O O9 0.796206 0.047713 0.107741
O O10 0.814302 0.160861 0.684493
O O11 0.772596 0.382633 0.624988
O O12 0.948588 0.065341 0.754738
#
# Coordination Sequence:
#
# PCOD8154454 Si02
#       7
#     4   8   8   8   8   4   8
#     4  12  25  43  76 104 142 194 251 303 374 442
#     4  12  26  47  74 109 149 195 252 310 372 450
#     4  12  28  46  77 111 150 199 250 309 380 447
#     4  12  25  48  74 108 148 196 249 311 370 453
#     4  11  27  49  71 112 151 197 253 311 373 450
#     4  12  27  49  74 110 148 202 251 305 380 448
#     4  11  27  48  75 106 156 197 253 310 378 448
#
# _framework density 25.590501
#
# number of rings (size 3 to 8) (size 9 to 14) (size 15 to 20)
#    0.000    0.333    3.333    4.500    9.333    2.000 
#    0.000    0.000    0.000    0.000    0.000    0.000 
#    0.000    0.000    0.000    0.000    0.000    0.000 
#
# Total GULP energy -297337.954943 kJ/mol
# GULP energy per Si atom -12389.081456 kJ/mol
# Density = 2.553226 g / cm^3
# Si number density = 25.590501 Si / 1000 Ang^3
#
#
#
# Elastic Constant Matrix: (Units=GPa)
#
#
# Indices 1 2 3 4 5 6 
#
# 1 113.6252 13.0603 27.0846 0.0000 15.9362 0.0000
# 2 13.0603 98.7814 18.0649 0.0000 2.7214 0.0000
# 3 27.0846 18.0649 87.0367 0.0000 8.3689 0.0000
# 4 0.0000 0.0000 0.0000 -55.9211 0.0000 -25.9433
# 5 15.9362 2.7214 8.3689 0.0000 56.1648 0.0000
# 6 0.0000 0.0000 0.0000 -25.9433 0.0000 33.9070
#
#
#
# Elastic Compliance Matrix: (Units=1/GPa)
#
#
# Indices 1 2 3 4 5 6 
#
# 1 0.009858 -0.000747 -0.002686 0.000000 -0.002361 0.000000
# 2 -0.000747 0.010581 -0.001963 0.000000 -0.000008 0.000000
# 3 -0.002686 -0.001963 0.012834 0.000000 -0.001055 0.000000
# 4 0.000000 0.000000 0.000000 -0.013198 0.000000 -0.010098
# 5 -0.002361 -0.000008 -0.001055 0.000000 0.018632 0.000000
# 6 0.000000 0.000000 0.000000 -0.010098 0.000000 0.021766
#
#
# Mechanical properties :
#
#
# Convention : Reuss Voigt Hill
#
# Bulk Modulus (GPa) = 44.48011 46.20700 45.34356
# Shear Modulus (GPa) = 63.48437 22.91236 43.19836
#
# Velocity S-wave (km/s) = 4.98615 2.99548 4.11306
# Velocity P-wave (km/s) = 7.11112 5.48264 6.34931
#
# Compressibility (1/GPa) = 0.02248196
#
# Stress axis : x y z
#
# Youngs Moduli (GPa) = 101.44035 94.50588 77.91803
#
# Poissons Ratio (x) = 0.07061 0.20926
# Poissons Ratio (y) = 0.07580 0.15295
# Poissons Ratio (z) = 0.27243 0.18551
#
# Static dielectric constant tensor:
#      x y z
#    x 5.641430 0.000000 0.957890 
#    y 0.000000 4.519500 0.000000 
#    z 0.957890 0.000000 5.567200 
# 
# 
# High freq. dielectric constant tensor:
#      x y z
#    x 2.071000 0.000000 0.015780 
#    y 0.000000 2.024230 0.000000 
#    z 0.015780 0.000000 2.008880 
# 
# From -- ./inp_files/177927.got.cif
#   From: 2010.06.25/outbox.cif.g09.slc.cpg/sg15_89_cif.got.tgz:177927.got - 2010.06.28 07:06:18.
