data_PCOD8154181
_publ_section_title
;
Structure prediction by ZEFSAII (Michael W. Deem and Ramdas Pophale) SiO2 
 PCOD8154181
Probable space group: C 2/C
;
_chemical_formula_sum "Si O2"
_cell_formula_units_Z 64
_cell_length_a 9.135736
_cell_length_b 15.091929
_cell_length_c 25.700787
_cell_angle_alpha 90.000000
_cell_angle_beta 58.666828
_cell_angle_gamma 90.000000
_cell_volume 3026.724427
_symmetry_space_group_name_H-M "C 2/C"
_symmetry_group_IT_number 15
_symmetry_cell_setting 'monoclinic'
loop_
_space_group_symop_operation_xyz
x,y,z
-x,y,1/2-z
-x,-y,-z
x,-y,1/2+z
1/2+x,1/2+y,z
1/2-x,1/2+y,1/2-z
1/2-x,1/2-y,-z
1/2+x,1/2-y,1/2+z
loop_
_atom_site_type_symbol
_atom_site_label
_atom_site_fract_x
_atom_site_fract_y
_atom_site_fract_z
Si Si1 0.066045 0.594148 0.506989
Si Si2 0.578518 0.151727 0.392922
Si Si3 0.686605 0.487059 0.701934
Si Si4 0.429169 0.594281 0.497203
Si Si5 0.735894 0.147611 0.120720
Si Si6 0.761634 0.151686 0.876894
Si Si7 0.423996 0.652831 0.612886
Si Si8 0.313393 0.990683 0.290332
O O1 0.064044 0.659215 0.457907
O O2 0.253014 0.587308 0.497963
O O3 0.000000 0.500000 0.500000
O O4 0.936335 0.633260 0.573541
O O5 0.722958 0.078845 0.355105
O O6 0.395182 0.125037 0.402012
O O7 0.633458 0.247840 0.360730
O O8 0.500000 0.451427 0.750000
O O9 0.678916 0.586226 0.679997
O O10 0.783778 0.481570 0.737340
O O11 0.500000 0.500000 0.500000
O O12 0.569571 0.641609 0.435376
O O13 0.399320 0.646941 0.555854
O O14 0.713162 0.247230 0.147012
O O15 0.698213 0.079295 0.173563
O O16 0.878736 0.135793 0.906691
O O17 0.311031 0.583409 0.664918
O O18 0.500000 0.948525 0.250000
#
# Coordination Sequence:
#
# PCOD8154181 Si02
#       8
#     8   8   8   8   8   8   8   8
#     4  12  25  42  71 104 137 175 221 277 345 404
#     4  11  25  46  71 102 137 177 223 279 341 401
#     4  12  26  45  69  98 134 180 231 278 330 392
#     4  12  25  42  71 104 137 175 221 277 345 404
#     4  11  25  46  72 101 136 179 224 277 340 404
#     4  11  25  46  72 101 136 179 224 277 340 404
#     4  11  25  46  71 102 137 177 223 279 341 401
#     4  12  26  45  69  98 134 180 231 278 330 392
#
# _framework density 21.144971999999999
#
# number of rings (size 3 to 8) (size 9 to 14) (size 15 to 20)
#    0.000    0.500    5.000    3.000    3.500    6.000 
#    0.000    0.000    0.000    0.000    0.000    0.000 
#    0.000    0.000    0.000    0.000    0.000    0.000 
#
# Total GULP energy -396831.824757 kJ/mol
# GULP energy per Si atom -12400.994524 kJ/mol
# Density = 2.109685 g / cm^3
# Si number density = 21.144972 Si / 1000 Ang^3
#
#
#
# Elastic Constant Matrix: (Units=GPa)
#
#
# Indices 1 2 3 4 5 6 
#
# 1 139.7374 31.6430 29.2963 0.0000 -7.5787 0.0000
# 2 31.6430 125.7475 28.4805 0.0000 -7.0106 0.0000
# 3 29.2963 28.4805 87.9050 0.0000 -9.0857 0.0000
# 4 0.0000 0.0000 0.0000 6.2654 0.0000 -1.0082
# 5 -7.5787 -7.0106 -9.0857 0.0000 46.6076 0.0000
# 6 0.0000 0.0000 0.0000 -1.0082 0.0000 28.0097
#
#
#
# Elastic Compliance Matrix: (Units=1/GPa)
#
#
# Indices 1 2 3 4 5 6 
#
# 1 0.007971 -0.001492 -0.002105 0.000000 0.000661 0.000000
# 2 -0.001492 0.008888 -0.002316 0.000000 0.000643 0.000000
# 3 -0.002105 -0.002316 0.013019 0.000000 0.001847 0.000000
# 4 0.000000 0.000000 0.000000 0.160535 0.000000 0.005778
# 5 0.000661 0.000643 0.001847 0.000000 0.022020 0.000000
# 6 0.000000 0.000000 0.000000 0.005778 0.000000 0.035910
#
#
# Mechanical properties :
#
#
# Convention : Reuss Voigt Hill
#
# Bulk Modulus (GPa) = 55.39472 59.13660 57.26566
# Shear Modulus (GPa) = 18.78376 33.77454 26.27915
#
# Velocity S-wave (km/s) = 2.98372 4.00094 3.52917
# Velocity P-wave (km/s) = 6.17451 7.02647 6.61422
#
# Compressibility (1/GPa) = 0.01805226
#
# Stress axis : x y z
#
# Youngs Moduli (GPa) = 125.44916 112.50677 76.81282
#
# Poissons Ratio (x) = 0.16790 0.16167
# Poissons Ratio (y) = 0.18721 0.17790
# Poissons Ratio (z) = 0.26404 0.26056
#
# Static dielectric constant tensor:
#      x y z
#    x 3.876080 0.000000 -0.032600 
#    y 0.000000 3.897760 0.000000 
#    z -0.032600 0.000000 3.841740 
# 
# 
# High freq. dielectric constant tensor:
#      x y z
#    x 1.841970 0.000000 -0.003480 
#    y 0.000000 1.839030 0.000000 
#    z -0.003480 0.000000 1.827590 
# 
# From -- ./inp_files/264731.got.cif
#   From: 2010.06.25/outbox.cif.g09.slc.cpg/sg15_133_cif.got.tgz:264731.got - 2010.06.28 07:06:18.
