data_PCOD8154140
_publ_section_title
;
Structure prediction by ZEFSAII (Michael W. Deem and Ramdas Pophale) SiO2 
 PCOD8154140
Probable space group: C 2/C
;
_chemical_formula_sum "Si O2"
_cell_formula_units_Z 36
_cell_length_a 20.820337
_cell_length_b 10.502484
_cell_length_c 20.826777
_cell_angle_alpha 90.000000
_cell_angle_beta 19.570600
_cell_angle_gamma 90.000000
_cell_volume 1525.475861
_symmetry_space_group_name_H-M "C 2/C"
_symmetry_group_IT_number 15
_symmetry_cell_setting 'monoclinic'
loop_
_space_group_symop_operation_xyz
x,y,z
-x,y,1/2-z
-x,-y,-z
x,-y,1/2+z
1/2+x,1/2+y,z
1/2-x,1/2+y,1/2-z
1/2-x,1/2-y,-z
1/2+x,1/2-y,1/2+z
loop_
_atom_site_type_symbol
_atom_site_label
_atom_site_fract_x
_atom_site_fract_y
_atom_site_fract_z
Si Si1 0.096647 0.606608 0.021855
Si Si2 0.500000 0.939980 0.750000
Si Si3 0.589985 0.430038 0.821522
Si Si4 0.662489 0.375384 0.551353
Si Si5 0.312830 0.639667 0.134263
O O1 0.075283 0.641456 0.118233
O O2 0.891931 0.573352 0.183484
O O3 0.226958 0.480315 0.891536
O O4 0.193730 0.724453 0.894257
O O5 0.670430 0.024670 0.618768
O O6 0.446346 0.345235 0.913259
O O7 0.656392 0.342382 0.818257
O O8 0.483608 0.556385 0.945688
O O9 0.500000 0.436315 0.750000
O O10 0.750000 0.250000 0.500000
#
# Coordination Sequence:
#
# PCOD8154140 Si02
#       5
#     8   4   8   8   8
#     4  12  24  47  73 108 145 193 246 299 369 431
#     4  12  26  44  74 106 148 188 244 302 358 438
#     4  11  25  47  71 102 151 188 244 307 358 437
#     4  12  25  46  72 107 142 190 240 297 372 432
#     4  11  25  45  71 107 142 196 246 296 368 429
#
# _framework density 23.599194000000001
#
# number of rings (size 3 to 8) (size 9 to 14) (size 15 to 20)
#    0.000    0.444    7.778    0.667    0.000    2.667 
#    6.000    0.000    0.000    0.000    0.000    0.000 
#    0.000    0.000    0.000    0.000    0.000    0.000 
#
# Total GULP energy -223226.995485 kJ/mol
# GULP energy per Si atom -12401.499749 kJ/mol
# Density = 2.354548 g / cm^3
# Si number density = 23.599194 Si / 1000 Ang^3
#
#
#
# Elastic Constant Matrix: (Units=GPa)
#
#
# Indices 1 2 3 4 5 6 
#
# 1 230.9968 49.3180 57.2207 -0.0039 -4.3143 0.0016
# 2 49.3180 69.7272 20.9813 0.0133 4.1925 -0.0005
# 3 57.2207 20.9813 122.2724 0.0096 -7.9793 0.0046
# 4 -0.0039 0.0133 0.0096 29.1164 0.0023 -0.4974
# 5 -4.3143 4.1925 -7.9793 0.0023 46.3573 0.0001
# 6 0.0016 -0.0005 0.0046 -0.4974 0.0001 35.8805
#
#
#
# Elastic Compliance Matrix: (Units=1/GPa)
#
#
# Indices 1 2 3 4 5 6 
#
# 1 0.005547 -0.003353 -0.001989 0.000003 0.000477 0.000000
# 2 -0.003353 0.017306 -0.001540 -0.000008 -0.002142 0.000000
# 3 -0.001989 -0.001540 0.009477 -0.000003 0.001585 -0.000001
# 4 0.000003 -0.000008 -0.000003 0.034353 -0.000001 0.000476
# 5 0.000477 -0.002142 0.001585 -0.000001 0.022083 0.000000
# 6 0.000000 0.000000 -0.000001 0.000476 0.000000 0.027877
#
#
# Mechanical properties :
#
#
# Convention : Reuss Voigt Hill
#
# Bulk Modulus (GPa) = 53.86692 75.33736 64.60214
# Shear Modulus (GPa) = 36.60456 41.96928 39.28692
#
# Velocity S-wave (km/s) = 3.94267 4.22171 4.08457
# Velocity P-wave (km/s) = 6.60314 7.46704 7.04834
#
# Compressibility (1/GPa) = 0.01856427
#
# Stress axis : x y z
#
# Youngs Moduli (GPa) = 180.28933 57.78474 105.51775
#
# Poissons Ratio (x) = 0.19377 0.20989
# Poissons Ratio (y) = 0.60456 0.16251
# Poissons Ratio (z) = 0.35863 0.08899
#
# Static dielectric constant tensor:
#      x y z
#    x 4.604510 -0.000010 -0.064580 
#    y -0.000010 3.597100 0.000030 
#    z -0.064580 0.000030 4.671340 
# 
# 
# High freq. dielectric constant tensor:
#      x y z
#    x 1.955270 0.000000 -0.005610 
#    y 0.000000 1.889960 0.000000 
#    z -0.005610 0.000000 1.960610 
# 
# From -- ./inp_files/252662.got.cif
#   From: 2010.06.25/outbox.cif.g09.slc.cpg/sg15_127_cif.got.tgz:252662.got - 2010.06.28 07:06:18.
