data_PCOD8154191
_publ_section_title
;
Structure prediction by ZEFSAII (Michael W. Deem and Ramdas Pophale) SiO2 
 PCOD8154191
Probable space group: C 2/C
;
_chemical_formula_sum "Si O2"
_cell_formula_units_Z 56
_cell_length_a 10.788967
_cell_length_b 20.756860
_cell_length_c 10.513955
_cell_angle_alpha 90.000000
_cell_angle_beta 105.789831
_cell_angle_gamma 90.000000
_cell_volume 2265.702650
_symmetry_space_group_name_H-M "C 2/C"
_symmetry_group_IT_number 15
_symmetry_cell_setting 'monoclinic'
loop_
_space_group_symop_operation_xyz
x,y,z
-x,y,1/2-z
-x,-y,-z
x,-y,1/2+z
1/2+x,1/2+y,z
1/2-x,1/2+y,1/2-z
1/2-x,1/2-y,-z
1/2+x,1/2-y,1/2+z
loop_
_atom_site_type_symbol
_atom_site_label
_atom_site_fract_x
_atom_site_fract_y
_atom_site_fract_z
Si Si1 0.299146 0.644167 0.932327
Si Si2 0.479134 0.732779 0.592848
Si Si3 0.031456 0.358678 0.465779
Si Si4 0.873136 0.436067 0.780212
Si Si5 0.193921 0.874443 0.547310
Si Si6 0.023929 0.948442 0.897812
Si Si7 0.717561 0.928984 0.180261
O O1 0.395993 0.704121 0.945189
O O2 0.310747 0.609159 0.799944
O O3 0.151850 0.667852 0.915474
O O4 0.341294 0.590977 0.050834
O O5 0.500000 0.736663 0.750000
O O6 0.460190 0.803465 0.527587
O O7 0.345742 0.694475 0.524246
O O8 0.094760 0.411119 0.572988
O O9 0.923733 0.395795 0.353968
O O10 0.817690 0.377833 0.675438
O O11 0.779197 0.497175 0.771586
O O12 0.000000 0.464090 0.750000
O O13 0.219401 0.926398 0.442156
O O14 0.078965 0.892733 0.607626
O O15 0.000000 0.977716 0.750000
O O16 0.000000 0.000000 0.000000
#
# Coordination Sequence:
#
# PCOD8154191 Si02
#       7
#     8   8   8   8   8   8   8
#     4  11  25  46  72 104 149 192 249 306 384 443
#     4  11  25  49  74 106 147 194 259 314 380 456
#     4  12  26  45  73 106 145 198 249 309 374 452
#     4  12  25  44  69 108 147 197 244 309 382 460
#     4  11  26  45  72 107 148 191 249 310 380 442
#     4  11  26  43  71 107 149 199 248 307 374 446
#     4  12  26  44  72 109 150 195 246 314 379 454
#
# _framework density 24.716394000000001
#
# number of rings (size 3 to 8) (size 9 to 14) (size 15 to 20)
#    0.000    0.571    2.857    4.286    8.000    1.714 
#    0.000    7.143    0.000    0.000    0.000    0.000 
#    0.000    0.000    0.000    0.000    0.000    0.000 
#
# Total GULP energy -347090.446126 kJ/mol
# GULP energy per Si atom -12396.087362 kJ/mol
# Density = 2.466014 g / cm^3
# Si number density = 24.716394 Si / 1000 Ang^3
#
#
#
# Elastic Constant Matrix: (Units=GPa)
#
#
# Indices 1 2 3 4 5 6 
#
# 1 88.1937 11.2513 5.0079 0.0000 -8.1328 0.0000
# 2 11.2513 91.0425 18.9032 0.0000 3.1771 0.0000
# 3 5.0079 18.9032 103.5867 0.0000 5.7305 0.0000
# 4 0.0000 0.0000 0.0000 30.1538 0.0000 -2.1398
# 5 -8.1328 3.1771 5.7305 0.0000 39.0655 0.0000
# 6 0.0000 0.0000 0.0000 -2.1398 0.0000 33.7614
#
#
#
# Elastic Compliance Matrix: (Units=1/GPa)
#
#
# Indices 1 2 3 4 5 6 
#
# 1 0.011793 -0.001456 -0.000450 0.000000 0.002640 0.000000
# 2 -0.001456 0.011612 -0.001996 0.000000 -0.000955 0.000000
# 3 -0.000450 -0.001996 0.010118 0.000000 -0.001416 0.000000
# 4 0.000000 0.000000 0.000000 0.033313 0.000000 0.002111
# 5 0.002640 -0.000955 -0.001416 0.000000 0.026433 0.000000
# 6 0.000000 0.000000 0.000000 0.002111 0.000000 0.029753
#
#
# Mechanical properties :
#
#
# Convention : Reuss Voigt Hill
#
# Bulk Modulus (GPa) = 38.88259 39.23865 39.06062
# Shear Modulus (GPa) = 35.86807 37.10685 36.48746
#
# Velocity S-wave (km/s) = 3.81358 3.87887 3.84636
# Velocity P-wave (km/s) = 5.92932 5.99757 5.96354
#
# Compressibility (1/GPa) = 0.02571845
#
# Stress axis : x y z
#
# Youngs Moduli (GPa) = 84.79293 86.12137 98.83336
#
# Poissons Ratio (x) = 0.12540 0.04452
# Poissons Ratio (y) = 0.12346 0.19725
# Poissons Ratio (z) = 0.03820 0.17188
#
# Static dielectric constant tensor:
#      x y z
#    x 4.831880 0.000000 0.091390 
#    y 0.000000 4.138020 0.000000 
#    z 0.091390 0.000000 4.439530 
# 
# 
# High freq. dielectric constant tensor:
#      x y z
#    x 2.002390 0.000000 -0.000180 
#    y 0.000000 1.965970 0.000000 
#    z -0.000180 0.000000 1.987950 
# 
# From -- ./inp_files/89034.got.cif
#   From: 2010.06.25/outbox.cif.g09.slc.cpg/sg15_45_cif.got.tgz:89034.got - 2010.06.28 07:06:18.
