data_PCOD8154516
_publ_section_title
;
Structure prediction by ZEFSAII (Michael W. Deem and Ramdas Pophale) SiO2 
 PCOD8154516
Probable space group: C 2/C
;
_chemical_formula_sum "Si O2"
_cell_formula_units_Z 48
_cell_length_a 10.450444
_cell_length_b 20.847894
_cell_length_c 13.883152
_cell_angle_alpha 90.000000
_cell_angle_beta 43.627315
_cell_angle_gamma 90.000000
_cell_volume 2086.949240
_symmetry_space_group_name_H-M "C 2/C"
_symmetry_group_IT_number 15
_symmetry_cell_setting 'monoclinic'
loop_
_space_group_symop_operation_xyz
x,y,z
-x,y,1/2-z
-x,-y,-z
x,-y,1/2+z
1/2+x,1/2+y,z
1/2-x,1/2+y,1/2-z
1/2-x,1/2-y,-z
1/2+x,1/2-y,1/2+z
loop_
_atom_site_type_symbol
_atom_site_label
_atom_site_fract_x
_atom_site_fract_y
_atom_site_fract_z
Si Si1 0.351877 0.841489 0.675984
Si Si2 0.304379 0.603350 0.677296
Si Si3 0.205430 0.731752 0.633336
Si Si4 0.809334 0.073166 0.070762
Si Si5 0.735691 0.857618 0.417662
Si Si6 0.000000 0.526762 0.750000
Si Si7 0.000000 0.252792 0.750000
O O1 0.211338 0.797507 0.692367
O O2 0.249347 0.896046 0.794320
O O3 0.514700 0.869549 0.518612
O O4 0.486135 0.797747 0.666055
O O5 0.326642 0.673684 0.613393
O O6 0.468952 0.557425 0.544183
O O7 0.335742 0.605096 0.775139
O O8 0.101891 0.571793 0.771987
O O9 0.250000 0.750000 0.500000
O O10 0.000000 0.704566 0.750000
O O11 0.668556 0.016551 0.116363
O O12 0.799820 0.123170 0.989033
O O13 0.806843 0.785194 0.364676
#
# Coordination Sequence:
#
# PCOD8154516 Si02
#       7
#     8   8   8   8   8   4   4
#     4  12  24  40  71 103 143 178 226 290 354 409
#     4  12  26  44  73 100 136 187 231 283 349 412
#     4  12  25  44  66 103 146 182 222 277 350 432
#     4  12  24  48  69 101 134 180 238 292 343 404
#     4  12  22  41  67 104 138 173 230 289 349 410
#     4  12  27  50  68  96 144 185 242 280 336 418
#     4  12  21  34  68 106 140 169 220 288 354 406
#
# _framework density 23.000078999999999
#
# number of rings (size 3 to 8) (size 9 to 14) (size 15 to 20)
#    0.000    0.000    7.500    3.000    2.333    0.667 
#    0.000    0.000    0.000    0.000    0.000    0.000 
#    0.000    0.000    0.000    0.000    0.000    0.000 
#
# Total GULP energy -297327.088209 kJ/mol
# GULP energy per Si atom -12388.628675 kJ/mol
# Density = 2.294773 g / cm^3
# Si number density = 23.000079 Si / 1000 Ang^3
#
#
#
# Elastic Constant Matrix: (Units=GPa)
#
#
# Indices 1 2 3 4 5 6 
#
# 1 81.3413 11.0849 27.4593 -0.0002 -0.1121 0.0001
# 2 11.0849 51.1249 18.0840 0.0000 10.6972 0.0001
# 3 27.4593 18.0840 123.2166 0.0001 -6.7197 0.0002
# 4 -0.0002 0.0000 0.0001 12.2499 0.0000 -12.5584
# 5 -0.1121 10.6972 -6.7197 0.0000 48.6229 -0.0002
# 6 0.0001 0.0001 0.0002 -12.5584 -0.0002 34.3416
#
#
#
# Elastic Compliance Matrix: (Units=1/GPa)
#
#
# Indices 1 2 3 4 5 6 
#
# 1 0.013478 -0.001984 -0.002707 0.000000 0.000093 0.000000
# 2 -0.001984 0.022202 -0.003106 0.000000 -0.005318 0.000000
# 3 -0.002707 -0.003106 0.009282 0.000000 0.001960 0.000000
# 4 0.000000 0.000000 0.000000 0.130593 0.000000 0.047757
# 5 0.000093 -0.005318 0.001960 0.000000 0.022008 0.000000
# 6 0.000000 0.000000 0.000000 0.047757 0.000000 0.046584
#
#
# Mechanical properties :
#
#
# Convention : Reuss Voigt Hill
#
# Bulk Modulus (GPa) = 34.05285 40.99326 37.52305
# Shear Modulus (GPa) = 18.55074 32.31318 25.43196
#
# Velocity S-wave (km/s) = 2.84307 3.75229 3.32886
# Velocity P-wave (km/s) = 5.06113 6.05266 5.57897
#
# Compressibility (1/GPa) = 0.02936612
#
# Stress axis : x y z
#
# Youngs Moduli (GPa) = 74.19293 45.04156 107.73624
#
# Poissons Ratio (x) = 0.08937 0.29168
# Poissons Ratio (y) = 0.14722 0.33466
# Poissons Ratio (z) = 0.20087 0.13991
#
# Static dielectric constant tensor:
#      x y z
#    x 3.618690 0.000000 -0.163340 
#    y 0.000000 3.973300 0.000000 
#    z -0.163340 0.000000 4.269260 
# 
# 
# High freq. dielectric constant tensor:
#      x y z
#    x 1.909590 0.000000 -0.013230 
#    y 0.000000 1.890460 0.000000 
#    z -0.013230 0.000000 1.922500 
# 
# From -- ./inp_files/147418.got.cif
#   From: 2010.06.25/outbox.cif.g09.slc.cpg/sg15_74_cif.got.tgz:147418.got - 2010.06.28 07:06:18.
