data_PCOD8154273
_publ_section_title
;
Structure prediction by ZEFSAII (Michael W. Deem and Ramdas Pophale) SiO2 
 PCOD8154273
Probable space group: C 2/C
;
_chemical_formula_sum "Si O2"
_cell_formula_units_Z 40
_cell_length_a 7.693363
_cell_length_b 17.414010
_cell_length_c 12.436998
_cell_angle_alpha 90.000000
_cell_angle_beta 96.658294
_cell_angle_gamma 90.000000
_cell_volume 1654.975141
_symmetry_space_group_name_H-M "C 2/C"
_symmetry_group_IT_number 15
_symmetry_cell_setting 'monoclinic'
loop_
_space_group_symop_operation_xyz
x,y,z
-x,y,1/2-z
-x,-y,-z
x,-y,1/2+z
1/2+x,1/2+y,z
1/2-x,1/2+y,1/2-z
1/2-x,1/2-y,-z
1/2+x,1/2-y,1/2+z
loop_
_atom_site_type_symbol
_atom_site_label
_atom_site_fract_x
_atom_site_fract_y
_atom_site_fract_z
Si Si1 0.192192 0.274548 0.782377
Si Si2 0.807787 0.172332 0.065017
Si Si3 0.688665 0.612536 0.052668
Si Si4 0.304333 0.884567 0.329085
Si Si5 0.186219 0.555282 0.888075
O O1 0.250400 0.324887 0.684516
O O2 0.169285 0.329312 0.885857
O O3 0.334214 0.207062 0.815237
O O4 0.000000 0.237807 0.750000
O O5 0.011562 0.151695 0.080845
O O6 0.750000 0.250000 0.000000
O O7 0.719563 0.100575 0.999913
O O8 0.736804 0.529319 0.099698
O O9 0.680794 0.606683 0.923377
O O10 0.215771 0.911534 0.210819
O O11 0.477671 0.935657 0.358205
#
# Coordination Sequence:
#
# PCOD8154273 Si02
#       5
#     8   8   8   8   8
#     4  12  26  46  75 109 146 203 255 307 370 453
#     4  12  24  47  73 107 149 190 254 308 370 445
#     4  12  27  44  75 111 148 197 246 316 380 444
#     4  11  25  48  74 102 152 197 253 297 384 447
#     4  11  26  45  74 106 150 198 242 316 379 444
#
# _framework density 24.169549
#
# number of rings (size 3 to 8) (size 9 to 14) (size 15 to 20)
#    0.000    0.400    2.000    6.000    8.400    0.000 
#    3.600    0.000    0.000    0.000    0.000    0.000 
#    0.000    0.000    0.000    0.000    0.000    0.000 
#
# Total GULP energy -247838.462154 kJ/mol
# GULP energy per Si atom -12391.923108 kJ/mol
# Density = 2.411454 g / cm^3
# Si number density = 24.169549 Si / 1000 Ang^3
#
#
#
# Elastic Constant Matrix: (Units=GPa)
#
#
# Indices 1 2 3 4 5 6 
#
# 1 94.7322 38.7310 26.6445 0.0000 -5.7116 0.0000
# 2 38.7310 184.2267 51.6182 0.0000 9.0254 0.0000
# 3 26.6445 51.6182 149.3661 0.0000 -25.9289 0.0000
# 4 0.0000 0.0000 0.0000 37.4224 0.0000 2.0163
# 5 -5.7116 9.0254 -25.9289 0.0000 38.6396 0.0000
# 6 0.0000 0.0000 0.0000 2.0163 0.0000 35.8101
#
#
#
# Elastic Compliance Matrix: (Units=1/GPa)
#
#
# Indices 1 2 3 4 5 6 
#
# 1 0.011880 -0.002279 -0.001058 0.000000 0.001579 0.000000
# 2 -0.002279 0.006810 -0.002582 0.000000 -0.003660 0.000000
# 3 -0.001058 -0.002582 0.008889 0.000000 0.006412 0.000000
# 4 0.000000 0.000000 0.000000 0.026803 0.000000 -0.001509
# 5 0.001579 -0.003660 0.006412 0.000000 0.031271 0.000000
# 6 0.000000 0.000000 0.000000 -0.001509 0.000000 0.028010
#
#
# Mechanical properties :
#
#
# Convention : Reuss Voigt Hill
#
# Bulk Modulus (GPa) = 63.52456 73.59026 68.55741
# Shear Modulus (GPa) = 38.24123 43.12982 40.68553
#
# Velocity S-wave (km/s) = 3.98201 4.22888 4.10730
# Velocity P-wave (km/s) = 6.89071 7.37280 7.13583
#
# Compressibility (1/GPa) = 0.01574194
#
# Stress axis : x y z
#
# Youngs Moduli (GPa) = 84.17239 146.84243 112.49707
#
# Poissons Ratio (x) = 0.33460 0.11900
# Poissons Ratio (y) = 0.19180 0.29051
# Poissons Ratio (z) = 0.08904 0.37920
#
# Static dielectric constant tensor:
#      x y z
#    x 4.243390 0.000000 0.183310 
#    y 0.000000 4.342100 0.000000 
#    z 0.183310 0.000000 5.191990 
# 
# 
# High freq. dielectric constant tensor:
#      x y z
#    x 1.946870 0.000000 0.004650 
#    y 0.000000 1.963520 0.000000 
#    z 0.004650 0.000000 1.989510 
# 
# From -- ./inp_files/76909.got.cif
#   From: 2010.06.25/outbox.cif.g09.slc.cpg/sg15_39_cif.got.tgz:76909.got - 2010.06.28 07:06:18.
