data_PCOD8154622
_publ_section_title
;
Structure prediction by ZEFSAII (Michael W. Deem and Ramdas Pophale) SiO2 
 PCOD8154622
Probable space group: C 2/C
;
_chemical_formula_sum "Si O2"
_cell_formula_units_Z 48
_cell_length_a 28.731951
_cell_length_b 14.561486
_cell_length_c 14.264465
_cell_angle_alpha 90.000000
_cell_angle_beta 159.604899
_cell_angle_gamma 90.000000
_cell_volume 2079.787656
_symmetry_space_group_name_H-M "C 2/C"
_symmetry_group_IT_number 15
_symmetry_cell_setting 'monoclinic'
loop_
_space_group_symop_operation_xyz
x,y,z
-x,y,1/2-z
-x,-y,-z
x,-y,1/2+z
1/2+x,1/2+y,z
1/2-x,1/2+y,1/2-z
1/2-x,1/2-y,-z
1/2+x,1/2-y,1/2+z
loop_
_atom_site_type_symbol
_atom_site_label
_atom_site_fract_x
_atom_site_fract_y
_atom_site_fract_z
Si Si1 0.275873 0.902049 0.342476
Si Si2 0.396088 0.278775 0.803087
Si Si3 0.146837 0.336897 0.812127
Si Si4 0.993161 0.950152 0.888382
Si Si5 0.358408 0.284515 0.937111
Si Si6 0.750582 0.950065 0.843018
O O1 0.357788 0.878734 0.591729
O O2 0.272141 0.809534 0.272934
O O3 0.337452 0.981372 0.389685
O O4 0.132878 0.943127 0.099794
O O5 0.250000 0.250000 0.500000
O O6 0.447373 0.346654 0.820717
O O7 0.385477 0.325913 0.885260
O O8 0.498254 0.193729 0.003764
O O9 0.182111 0.422781 0.811844
O O10 0.250000 0.250000 0.000000
O O11 0.891739 0.001313 0.628607
O O12 0.000000 0.000000 0.000000
O O13 0.270608 0.355236 0.828151
O O14 0.500000 0.263177 0.250000
#
# Coordination Sequence:
#
# PCOD8154622 Si02
#       6
#     8   8   8   8   8   8
#     4  12  24  42  72 110 143 194 255 304 367 443
#     4  12  26  45  73 108 145 190 244 307 369 434
#     4  12  22  49  77 103 147 205 245 302 380 446
#     4  12  22  42  73 106 140 187 251 305 363 438
#     4  12  23  44  71 103 146 197 245 299 373 450
#     4  12  25  42  74 112 143 187 255 315 365 448
#
# _framework density 23.079279
#
# number of rings (size 3 to 8) (size 9 to 14) (size 15 to 20)
#    0.000    0.000    6.667    4.500    0.000    0.000 
#    0.000    7.500    0.000    0.000    0.000    0.000 
#    0.000    0.000    0.000    0.000    0.000    0.000 
#
# Total GULP energy -297557.819858 kJ/mol
# GULP energy per Si atom -12398.242494 kJ/mol
# Density = 2.302675 g / cm^3
# Si number density = 23.079279 Si / 1000 Ang^3
#
#
#
# Elastic Constant Matrix: (Units=GPa)
#
#
# Indices 1 2 3 4 5 6 
#
# 1 85.2787 38.6762 6.5972 0.0000 -16.7682 0.0000
# 2 38.6762 130.4029 28.5594 0.0000 -11.5989 0.0000
# 3 6.5972 28.5594 115.5906 0.0000 -6.7517 0.0000
# 4 0.0000 0.0000 0.0000 13.3735 0.0000 14.1726
# 5 -16.7682 -11.5989 -6.7517 0.0000 24.7649 0.0000
# 6 0.0000 0.0000 0.0000 14.1726 0.0000 43.5528
#
#
#
# Elastic Compliance Matrix: (Units=1/GPa)
#
#
# Indices 1 2 3 4 5 6 
#
# 1 0.015115 -0.003848 0.000590 0.000000 0.008593 0.000000
# 2 -0.003848 0.009362 -0.002022 0.000000 0.001228 0.000000
# 3 0.000590 -0.002022 0.009232 0.000000 0.001970 0.000000
# 4 0.000000 0.000000 0.000000 0.114135 0.000000 -0.037141
# 5 0.008593 0.001228 0.001970 0.000000 0.047310 0.000000
# 6 0.000000 0.000000 0.000000 -0.037141 0.000000 0.035047
#
#
# Mechanical properties :
#
#
# Convention : Reuss Voigt Hill
#
# Bulk Modulus (GPa) = 43.19664 53.21531 48.20597
# Shear Modulus (GPa) = 20.12255 33.50087 26.81171
#
# Velocity S-wave (km/s) = 2.95598 3.81406 3.41210
# Velocity P-wave (km/s) = 5.51432 6.51949 6.03786
#
# Compressibility (1/GPa) = 0.02314995
#
# Stress axis : x y z
#
# Youngs Moduli (GPa) = 66.15758 106.81689 108.31769
#
# Poissons Ratio (x) = 0.41103 -0.06390
# Poissons Ratio (y) = 0.25457 0.21899
# Poissons Ratio (z) = -0.03903 0.21595
#
# Static dielectric constant tensor:
#      x y z
#    x 3.479430 0.000000 0.197380 
#    y 0.000000 4.480410 0.000000 
#    z 0.197380 0.000000 3.856920 
# 
# 
# High freq. dielectric constant tensor:
#      x y z
#    x 1.939170 0.000000 -0.007770 
#    y 0.000000 1.917130 0.000000 
#    z -0.007770 0.000000 1.888980 
# 
# From -- ./inp_files/182530.got.cif
#   From: 2010.06.25/outbox.cif.g09.slc.cpg/sg15_92_cif.got.tgz:182530.got - 2010.06.28 07:06:18.
