data_PCOD8154694
_publ_section_title
;
Structure prediction by ZEFSAII (Michael W. Deem and Ramdas Pophale) SiO2 
 PCOD8154694
Probable space group: C 2/C
;
_chemical_formula_sum "Si O2"
_cell_formula_units_Z 32
_cell_length_a 16.867024
_cell_length_b 8.880710
_cell_length_c 8.451843
_cell_angle_alpha 90.000000
_cell_angle_beta 102.113373
_cell_angle_gamma 90.000000
_cell_volume 1237.822625
_symmetry_space_group_name_H-M "C 2/C"
_symmetry_group_IT_number 15
_symmetry_cell_setting 'monoclinic'
loop_
_space_group_symop_operation_xyz
x,y,z
-x,y,1/2-z
-x,-y,-z
x,-y,1/2+z
1/2+x,1/2+y,z
1/2-x,1/2+y,1/2-z
1/2-x,1/2-y,-z
1/2+x,1/2-y,1/2+z
loop_
_atom_site_type_symbol
_atom_site_label
_atom_site_fract_x
_atom_site_fract_y
_atom_site_fract_z
Si Si1 0.567661 0.249032 0.380064
Si Si2 0.823007 0.363696 0.177176
Si Si3 0.210258 0.135928 0.105291
Si Si4 0.415216 0.077889 0.406473
O O1 0.500000 0.342514 0.250000
O O2 0.615208 0.366582 0.508859
O O3 0.514727 0.108204 0.443826
O O4 0.622512 0.160339 0.270500
O O5 0.787408 0.200621 0.213071
O O6 0.745274 0.469372 0.114867
O O7 0.877264 0.411465 0.356069
O O8 0.879047 0.346707 0.047429
O O9 0.250000 0.250000 0.000000
#
# Coordination Sequence:
#
# PCOD8154694 Si02
#       4
#     8   8   8   8
#     4   8  20  40  66  99 132 165 228 278 321 384
#     4  12  23  40  69 101 134 176 214 285 334 390
#     4  12  23  43  61 102 138 170 221 278 334 397
#     4   9  20  37  62 102 127 171 222 271 329 381
#
# _framework density 25.851842999999999
#
# number of rings (size 3 to 8) (size 9 to 14) (size 15 to 20)
#    1.500    0.000    5.000    0.000    0.000   11.000 
#    0.000    0.000    0.000    6.000    6.500    0.000 
#    0.000    0.000    0.000    0.000    0.000    0.000 
#
# Total GULP energy -198214.547137 kJ/mol
# GULP energy per Si atom -12388.409196 kJ/mol
# Density = 2.579300 g / cm^3
# Si number density = 25.851843 Si / 1000 Ang^3
#
#
#
# Elastic Constant Matrix: (Units=GPa)
#
#
# Indices 1 2 3 4 5 6 
#
# 1 118.1719 45.0106 57.7698 0.0000 1.5185 0.0000
# 2 45.0106 34.6307 29.9532 0.0000 6.9490 0.0000
# 3 57.7698 29.9532 109.0367 0.0000 -37.0489 0.0000
# 4 0.0000 0.0000 0.0000 24.2485 0.0000 0.9983
# 5 1.5185 6.9490 -37.0489 0.0000 71.9975 0.0000
# 6 0.0000 0.0000 0.0000 0.9983 0.0000 23.6223
#
#
#
# Elastic Compliance Matrix: (Units=1/GPa)
#
#
# Indices 1 2 3 4 5 6 
#
# 1 0.018084 -0.019415 -0.004534 0.000000 -0.000840 0.000000
# 2 -0.019415 0.067430 -0.012494 0.000000 -0.012528 0.000000
# 3 -0.004534 -0.012494 0.018721 0.000000 0.010935 0.000000
# 4 0.000000 0.000000 0.000000 0.041311 0.000000 -0.001746
# 5 -0.000840 -0.012528 0.010935 0.000000 0.020743 0.000000
# 6 0.000000 0.000000 0.000000 -0.001746 0.000000 0.042407
#
#
# Mechanical properties :
#
#
# Convention : Reuss Voigt Hill
#
# Bulk Modulus (GPa) = 31.89721 58.58961 45.24341
# Shear Modulus (GPa) = 17.12138 32.58073 24.85105
#
# Velocity S-wave (km/s) = 2.57629 3.55390 3.10383
# Velocity P-wave (km/s) = 4.60597 6.28913 5.51217
#
# Compressibility (1/GPa) = 0.03135071
#
# Stress axis : x y z
#
# Youngs Moduli (GPa) = 55.29678 14.83009 53.41580
#
# Poissons Ratio (x) = 0.28792 0.24217
# Poissons Ratio (y) = 1.07357 0.66739
# Poissons Ratio (z) = 0.25069 0.18529
#
# Static dielectric constant tensor:
#      x y z
#    x 5.193710 0.000000 0.422580 
#    y 0.000000 3.971170 0.000000 
#    z 0.422580 0.000000 5.194170 
# 
# 
# High freq. dielectric constant tensor:
#      x y z
#    x 2.057330 0.000000 0.025980 
#    y 0.000000 1.972620 0.000000 
#    z 0.025980 0.000000 2.071290 
# 
# From -- ./inp_files/53455.got.cif
#   From: 2010.06.25/outbox.cif.g09.slc.cpg/sg15_27_cif.got.tgz:53455.got - 2010.06.28 07:06:18.
