data_PCOD8154365
_publ_section_title
;
Structure prediction by ZEFSAII (Michael W. Deem and Ramdas Pophale) SiO2 
 PCOD8154365
Probable space group: C 2/C
;
_chemical_formula_sum "Si O2"
_cell_formula_units_Z 32
_cell_length_a 9.258829
_cell_length_b 18.799807
_cell_length_c 14.270403
_cell_angle_alpha 90.000000
_cell_angle_beta 146.625782
_cell_angle_gamma 90.000000
_cell_volume 1366.442305
_symmetry_space_group_name_H-M "C 2/C"
_symmetry_group_IT_number 15
_symmetry_cell_setting 'monoclinic'
loop_
_space_group_symop_operation_xyz
x,y,z
-x,y,1/2-z
-x,-y,-z
x,-y,1/2+z
1/2+x,1/2+y,z
1/2-x,1/2+y,1/2-z
1/2-x,1/2-y,-z
1/2+x,1/2-y,1/2+z
loop_
_atom_site_type_symbol
_atom_site_label
_atom_site_fract_x
_atom_site_fract_y
_atom_site_fract_z
Si Si1 0.881520 0.449086 0.585621
Si Si2 0.494191 0.804085 0.143456
Si Si3 0.718501 0.080113 0.093730
Si Si4 0.948386 0.813254 0.116845
O O1 0.735924 0.511001 0.447836
O O2 0.677734 0.384549 0.497856
O O3 0.000000 0.474319 0.750000
O O4 0.124439 0.430374 0.648993
O O5 0.500000 0.835934 0.250000
O O6 0.791352 0.777015 0.288027
O O7 0.250000 0.750000 0.000000
O O8 0.485140 0.868329 0.065983
O O9 0.000000 0.118937 0.250000
O O10 0.000000 0.835870 0.250000
O O11 0.750000 0.750000 0.000000
#
# Coordination Sequence:
#
# PCOD8154365 Si02
#       4
#     8   8   8   8
#     4  11  26  47  74 106 142 190 239 292 359 426
#     4  12  27  46  71 105 145 188 238 296 355 419
#     4  11  26  46  74 105 146 186 238 297 356 427
#     4  12  25  46  72 103 143 189 238 291 352 426
#
# _framework density 23.418479000000001
#
# number of rings (size 3 to 8) (size 9 to 14) (size 15 to 20)
#    0.000    0.500    2.500    4.500   10.500    1.000 
#    0.000    0.000    0.000    0.000    0.000    0.000 
#    0.000    0.000    0.000    0.000    0.000    0.000 
#
# Total GULP energy -198238.908569 kJ/mol
# GULP energy per Si atom -12389.931786 kJ/mol
# Density = 2.336518 g / cm^3
# Si number density = 23.418479 Si / 1000 Ang^3
#
#
#
# Elastic Constant Matrix: (Units=GPa)
#
#
# Indices 1 2 3 4 5 6 
#
# 1 158.4641 19.6315 68.1389 -0.0010 -2.1489 -0.0003
# 2 19.6315 87.5011 26.1684 0.0006 11.8413 0.0005
# 3 68.1389 26.1684 119.6617 0.0011 20.0767 -0.0002
# 4 -0.0010 0.0006 0.0011 13.7373 0.0003 9.3215
# 5 -2.1489 11.8413 20.0767 0.0003 64.6372 -0.0011
# 6 -0.0003 0.0005 -0.0002 9.3215 -0.0011 31.4859
#
#
#
# Elastic Compliance Matrix: (Units=1/GPa)
#
#
# Indices 1 2 3 4 5 6 
#
# 1 0.008610 -0.000679 -0.005088 0.000001 0.001991 0.000000
# 2 -0.000679 0.012419 -0.002050 0.000000 -0.001661 0.000000
# 3 -0.005088 -0.002050 0.012309 -0.000001 -0.003617 0.000000
# 4 0.000001 0.000000 -0.000001 0.091095 0.000000 -0.026969
# 5 0.001991 -0.001661 -0.003617 0.000000 0.016965 0.000001
# 6 0.000000 0.000000 0.000000 -0.026969 0.000001 0.039744
#
#
# Mechanical properties :
#
#
# Convention : Reuss Voigt Hill
#
# Bulk Modulus (GPa) = 56.48993 65.94493 61.21743
# Shear Modulus (GPa) = 24.66967 38.75129 31.71048
#
# Velocity S-wave (km/s) = 3.24918 4.07225 3.68377
# Velocity P-wave (km/s) = 6.18470 7.09447 6.65515
#
# Compressibility (1/GPa) = 0.01770227
#
# Stress axis : x y z
#
# Youngs Moduli (GPa) = 116.14969 80.52321 81.23890
#
# Poissons Ratio (x) = 0.05471 0.41335
# Poissons Ratio (y) = 0.07891 0.16656
# Poissons Ratio (z) = 0.59097 0.16510
#
# Static dielectric constant tensor:
#      x y z
#    x 4.377230 -0.000010 -0.082620 
#    y -0.000010 4.168860 0.000010 
#    z -0.082620 0.000010 4.186440 
# 
# 
# High freq. dielectric constant tensor:
#      x y z
#    x 1.936590 0.000000 0.001610 
#    y 0.000000 1.915780 0.000000 
#    z 0.001610 0.000000 1.948560 
# 
# From -- ./inp_files/137671.got.cif
#   From: 2010.06.25/outbox.cif.g09.slc.cpg/sg15_69_cif.got.tgz:137671.got - 2010.06.28 07:06:18.
