data_PCOD8154475
_publ_section_title
;
Structure prediction by ZEFSAII (Michael W. Deem and Ramdas Pophale) SiO2 
 PCOD8154475
Probable space group: C 2/C
;
_chemical_formula_sum "Si O2"
_cell_formula_units_Z 36
_cell_length_a 4.816708
_cell_length_b 18.515436
_cell_length_c 14.693946
_cell_angle_alpha 90.000000
_cell_angle_beta 73.954459
_cell_angle_gamma 90.000000
_cell_volume 1259.404403
_symmetry_space_group_name_H-M "C 2/C"
_symmetry_group_IT_number 15
_symmetry_cell_setting 'monoclinic'
loop_
_space_group_symop_operation_xyz
x,y,z
-x,y,1/2-z
-x,-y,-z
x,-y,1/2+z
1/2+x,1/2+y,z
1/2-x,1/2+y,1/2-z
1/2-x,1/2-y,-z
1/2+x,1/2-y,1/2+z
loop_
_atom_site_type_symbol
_atom_site_label
_atom_site_fract_x
_atom_site_fract_y
_atom_site_fract_z
Si Si1 0.073762 0.220726 0.929596
Si Si2 0.670062 0.151222 0.146791
Si Si3 0.758985 0.929867 0.921059
Si Si4 0.000000 0.662991 0.750000
Si Si5 0.784824 0.409261 0.097273
O O1 0.305162 0.215778 0.827407
O O2 0.832370 0.280817 0.923363
O O3 0.907925 0.143022 0.950174
O O4 0.250000 0.250000 0.000000
O O5 0.500000 0.178806 0.250000
O O6 0.505786 0.080466 0.124806
O O7 0.000790 0.127909 0.130991
O O8 0.863519 0.012348 0.902799
O O9 0.620147 0.910971 0.032560
O O10 0.201602 0.613854 0.798054
#
# Coordination Sequence:
#
# PCOD8154475 Si02
#       5
#     8   8   8   4   8
#     4  12  31  56  85 124 178 236 297 369 439 532
#     4  12  29  52  82 129 169 225 288 365 441 520
#     4  11  30  53  89 125 177 225 287 368 448 524
#     4  12  28  52  92 128 172 236 300 362 446 536
#     4  11  29  56  86 126 176 228 297 359 449 538
#
# _framework density 28.584937
#
# number of rings (size 3 to 8) (size 9 to 14) (size 15 to 20)
#    0.000    0.444    0.000    4.000   17.111    6.222 
#    4.000    0.000    0.000    0.000    0.000    0.000 
#    0.000    0.000    0.000    0.000    0.000    0.000 
#
# Total GULP energy -223261.666392 kJ/mol
# GULP energy per Si atom -12403.425911 kJ/mol
# Density = 2.851988 g / cm^3
# Si number density = 28.584937 Si / 1000 Ang^3
#
#
#
# Elastic Constant Matrix: (Units=GPa)
#
#
# Indices 1 2 3 4 5 6 
#
# 1 134.0275 73.1674 42.7511 0.0000 -1.4371 0.0000
# 2 73.1674 220.4128 66.1757 0.0000 2.5453 0.0000
# 3 42.7511 66.1757 136.4048 0.0000 15.7106 0.0000
# 4 0.0000 0.0000 0.0000 51.6062 0.0000 -2.0853
# 5 -1.4371 2.5453 15.7106 0.0000 49.7623 0.0000
# 6 0.0000 0.0000 0.0000 -2.0853 0.0000 42.3663
#
#
#
# Elastic Compliance Matrix: (Units=1/GPa)
#
#
# Indices 1 2 3 4 5 6 
#
# 1 0.009477 -0.002612 -0.001816 0.000000 0.000981 0.000000
# 2 -0.002612 0.006046 -0.002148 0.000000 0.000294 0.000000
# 3 -0.001816 -0.002148 0.009273 0.000000 -0.002870 0.000000
# 4 0.000000 0.000000 0.000000 0.019416 0.000000 0.000956
# 5 0.000981 0.000294 -0.002870 0.000000 0.021015 0.000000
# 6 0.000000 0.000000 0.000000 0.000956 0.000000 0.023651
#
#
# Mechanical properties :
#
#
# Convention : Reuss Voigt Hill
#
# Bulk Modulus (GPa) = 85.88656 95.00373 90.44514
# Shear Modulus (GPa) = 47.20975 49.33037 48.27006
#
# Velocity S-wave (km/s) = 4.06835 4.15872 4.11378
# Velocity P-wave (km/s) = 7.22357 7.50784 7.36707
#
# Compressibility (1/GPa) = 0.01164327
#
# Stress axis : x y z
#
# Youngs Moduli (GPa) = 105.52059 165.41037 107.84036
#
# Poissons Ratio (x) = 0.43205 0.19583
# Poissons Ratio (y) = 0.27562 0.23165
# Poissons Ratio (z) = 0.19162 0.35532
#
# Static dielectric constant tensor:
#      x y z
#    x 5.178160 0.000000 -0.083590 
#    y 0.000000 5.242930 0.000000 
#    z -0.083590 0.000000 5.659340 
# 
# 
# High freq. dielectric constant tensor:
#      x y z
#    x 2.169610 0.000000 -0.012620 
#    y 0.000000 2.167970 0.000000 
#    z -0.012620 0.000000 2.183530 
# 
# From -- ./inp_files/184595.got.cif
#   From: 2010.06.25/outbox.cif.g09.slc.cpg/sg15_93_cif.got.tgz:184595.got - 2010.06.28 07:06:18.
