data_PCOD8154233
_publ_section_title
;
Structure prediction by ZEFSAII (Michael W. Deem and Ramdas Pophale) SiO2 
 PCOD8154233
Probable space group: C 2/C
;
_chemical_formula_sum "Si O2"
_cell_formula_units_Z 36
_cell_length_a 18.117905
_cell_length_b 7.424743
_cell_length_c 22.309478
_cell_angle_alpha 90.000000
_cell_angle_beta 32.264612
_cell_angle_gamma 90.000000
_cell_volume 1602.071658
_symmetry_space_group_name_H-M "C 2/C"
_symmetry_group_IT_number 15
_symmetry_cell_setting 'monoclinic'
loop_
_space_group_symop_operation_xyz
x,y,z
-x,y,1/2-z
-x,-y,-z
x,-y,1/2+z
1/2+x,1/2+y,z
1/2-x,1/2+y,1/2-z
1/2-x,1/2-y,-z
1/2+x,1/2-y,1/2+z
loop_
_atom_site_type_symbol
_atom_site_label
_atom_site_fract_x
_atom_site_fract_y
_atom_site_fract_z
Si Si1 0.802309 0.999833 0.593795
Si Si2 0.018464 0.709522 0.971499
Si Si3 0.540330 0.873856 0.325875
Si Si4 0.500000 0.394663 0.750000
Si Si5 0.755157 0.041105 0.990547
O O1 0.877331 0.808422 0.554078
O O2 0.791993 0.043522 0.529917
O O3 0.653224 0.977707 0.728155
O O4 0.878085 0.172793 0.571119
O O5 0.079183 0.714995 0.862674
O O6 0.000000 0.500000 0.000000
O O7 0.555715 0.720751 0.266304
O O8 0.389097 0.960961 0.433029
O O9 0.371161 0.510371 0.860983
O O10 0.750000 0.250000 0.000000
#
# Coordination Sequence:
#
# PCOD8154233 Si02
#       5
#     8   8   8   4   8
#     4  11  25  47  72 107 144 187 249 300 357 451
#     4  11  26  48  69 105 149 195 239 297 377 437
#     4  12  24  47  73 104 146 186 245 301 365 439
#     4  12  24  44  80  98 148 194 236 314 372 426
#     4  12  26  47  72 110 144 188 250 305 369 443
#
# _framework density 22.470904000000001
#
# number of rings (size 3 to 8) (size 9 to 14) (size 15 to 20)
#    0.000    0.444    4.444    3.333    6.222    0.000 
#    0.000    0.000    0.000    0.000    0.000    0.000 
#    0.000    0.000    0.000    0.000    0.000    0.000 
#
# Total GULP energy -223217.380467 kJ/mol
# GULP energy per Si atom -12400.965582 kJ/mol
# Density = 2.241976 g / cm^3
# Si number density = 22.470904 Si / 1000 Ang^3
#
#
#
# Elastic Constant Matrix: (Units=GPa)
#
#
# Indices 1 2 3 4 5 6 
#
# 1 63.7461 17.5537 42.5594 -0.0002 6.3493 0.0011
# 2 17.5537 139.5939 49.9975 0.0001 -11.3534 -0.0002
# 3 42.5594 49.9975 191.5295 0.0003 -8.2241 -0.0001
# 4 -0.0002 0.0001 0.0003 34.1575 -0.0001 3.8058
# 5 6.3493 -11.3534 -8.2241 -0.0001 43.4890 -0.0002
# 6 0.0011 -0.0002 -0.0001 3.8058 -0.0002 31.6652
#
#
#
# Elastic Compliance Matrix: (Units=1/GPa)
#
#
# Indices 1 2 3 4 5 6 
#
# 1 0.019157 -0.001259 -0.004096 0.000000 -0.003900 -0.000001
# 2 -0.001259 0.008110 -0.001753 0.000000 0.001970 0.000000
# 3 -0.004096 -0.001753 0.006649 0.000000 0.001398 0.000000
# 4 0.000000 0.000000 0.000000 0.029674 0.000000 -0.003566
# 5 -0.003900 0.001970 0.001398 0.000000 0.024342 0.000000
# 6 -0.000001 0.000000 0.000000 -0.003566 0.000000 0.032009
#
#
# Mechanical properties :
#
#
# Convention : Reuss Voigt Hill
#
# Bulk Modulus (GPa) = 50.76007 68.34342 59.55174
# Shear Modulus (GPa) = 35.53106 40.84627 38.18866
#
# Velocity S-wave (km/s) = 3.98075 4.26812 4.12694
# Velocity P-wave (km/s) = 6.61564 7.40063 7.01912
#
# Compressibility (1/GPa) = 0.01970053
#
# Stress axis : x y z
#
# Youngs Moduli (GPa) = 52.20083 123.30590 150.40487
#
# Poissons Ratio (x) = 0.15527 0.61599
# Poissons Ratio (y) = 0.06573 0.26361
# Poissons Ratio (z) = 0.21379 0.21611
#
# Static dielectric constant tensor:
#      x y z
#    x 4.046190 0.000000 -0.695960 
#    y 0.000000 5.575030 0.000070 
#    z -0.695960 0.000070 3.000190 
# 
# 
# High freq. dielectric constant tensor:
#      x y z
#    x 1.897650 0.000000 0.003850 
#    y 0.000000 1.886420 0.000000 
#    z 0.003850 0.000000 1.894870 
# 
# From -- ./inp_files/247734.got.cif
#   From: 2010.06.25/outbox.cif.g09.slc.cpg/sg15_124_cif.got.tgz:247734.got - 2010.06.28 07:06:18.
