data_PCOD8154878
_publ_section_title
;
Structure prediction by ZEFSAII (Michael W. Deem and Ramdas Pophale) SiO2 
 PCOD8154878
Probable space group: C 2/C
;
_chemical_formula_sum "Si O2"
_cell_formula_units_Z 32
_cell_length_a 5.049381
_cell_length_b 23.706480
_cell_length_c 12.169970
_cell_angle_alpha 90.000000
_cell_angle_beta 102.617678
_cell_angle_gamma 90.000000
_cell_volume 1421.600366
_symmetry_space_group_name_H-M "C 2/C"
_symmetry_group_IT_number 15
_symmetry_cell_setting 'monoclinic'
loop_
_space_group_symop_operation_xyz
x,y,z
-x,y,1/2-z
-x,-y,-z
x,-y,1/2+z
1/2+x,1/2+y,z
1/2-x,1/2+y,1/2-z
1/2-x,1/2-y,-z
1/2+x,1/2-y,1/2+z
loop_
_atom_site_type_symbol
_atom_site_label
_atom_site_fract_x
_atom_site_fract_y
_atom_site_fract_z
Si Si1 0.788744 0.506446 0.075865
Si Si2 0.500000 0.084966 0.750000
Si Si3 0.778613 0.874981 0.822965
Si Si4 0.005053 0.211470 0.519038
Si Si5 0.500000 0.345119 0.250000
O O1 0.816651 0.453426 0.157099
O O2 0.824941 0.565586 0.139865
O O3 0.500000 0.500000 0.000000
O O4 0.000000 0.500000 0.000000
O O5 0.721689 0.120650 0.700689
O O6 0.500000 0.845712 0.750000
O O7 0.000000 0.885939 0.750000
O O8 0.933824 0.839355 0.930066
O O9 0.750000 0.250000 0.500000
O O10 0.070731 0.190328 0.647528
O O11 0.250000 0.250000 0.500000
#
# Coordination Sequence:
#
# PCOD8154878 Si02
#       5
#     8   4   8   8   4
#     4  12  25  43  73 107 153 193 237 290 359 439
#     4  12  24  46  73 108 149 194 232 292 368 432
#     4  12  26  46  74 112 150 191 246 301 367 441
#     4  12  28  49  78 105 143 198 247 313 369 424
#     4  12  28  50  75 110 149 190 254 302 364 450
#
# _framework density 22.509843
#
# number of rings (size 3 to 8) (size 9 to 14) (size 15 to 20)
#    0.000    0.000    1.250    9.000    7.000    0.000 
#    0.000    0.000    0.000    0.000    0.000    0.000 
#    0.000    0.000    0.000    0.000    0.000    0.000 
#
# Total GULP energy -198403.005250 kJ/mol
# GULP energy per Si atom -12400.187828 kJ/mol
# Density = 2.245861 g / cm^3
# Si number density = 22.509843 Si / 1000 Ang^3
#
#
#
# Elastic Constant Matrix: (Units=GPa)
#
#
# Indices 1 2 3 4 5 6 
#
# 1 200.2002 61.7882 69.6439 0.0000 -7.1169 0.0000
# 2 61.7882 124.8716 67.6741 0.0000 -10.7060 0.0000
# 3 69.6439 67.6741 164.7871 0.0000 -5.1094 0.0000
# 4 0.0000 0.0000 0.0000 29.2530 0.0000 1.4716
# 5 -7.1169 -10.7060 -5.1094 0.0000 53.9169 0.0000
# 6 0.0000 0.0000 0.0000 1.4716 0.0000 50.7489
#
#
#
# Elastic Compliance Matrix: (Units=1/GPa)
#
#
# Indices 1 2 3 4 5 6 
#
# 1 0.006276 -0.002124 -0.001773 0.000000 0.000239 0.000000
# 2 -0.002124 0.011168 -0.003639 0.000000 0.001592 0.000000
# 3 -0.001773 -0.003639 0.008307 0.000000 -0.000169 0.000000
# 4 0.000000 0.000000 0.000000 0.034235 0.000000 -0.000993
# 5 0.000239 0.001592 -0.000169 0.000000 0.018879 0.000000
# 6 0.000000 0.000000 0.000000 -0.000993 0.000000 0.019734
#
#
# Mechanical properties :
#
#
# Convention : Reuss Voigt Hill
#
# Bulk Modulus (GPa) = 93.64571 98.67459 96.16015
# Shear Modulus (GPa) = 42.65141 46.16728 44.40934
#
# Velocity S-wave (km/s) = 4.35764 4.53369 4.44654
# Velocity P-wave (km/s) = 8.18603 8.44613 8.31710
#
# Compressibility (1/GPa) = 0.01067855
#
# Stress axis : x y z
#
# Youngs Moduli (GPa) = 159.34485 89.53989 120.38171
#
# Poissons Ratio (x) = 0.19020 0.21338
# Poissons Ratio (y) = 0.33848 0.43811
# Poissons Ratio (z) = 0.28244 0.32587
#
# Static dielectric constant tensor:
#      x y z
#    x 4.146300 0.000000 -0.114280 
#    y 0.000000 4.359100 0.000000 
#    z -0.114280 0.000000 3.956310 
# 
# 
# High freq. dielectric constant tensor:
#      x y z
#    x 1.917500 0.000000 0.002390 
#    y 0.000000 1.895180 0.000000 
#    z 0.002390 0.000000 1.903410 
# 
# From -- ./inp_files/72292.got.cif
#   From: 2010.06.25/outbox.cif.g09.slc.cpg/sg15_37_cif.got.tgz:72292.got - 2010.06.28 07:06:18.
