data_PCOD8154102
_publ_section_title
;
Structure prediction by ZEFSAII (Michael W. Deem and Ramdas Pophale) SiO2 
 PCOD8154102
Probable space group: C 2/C
;
_chemical_formula_sum "Si O2"
_cell_formula_units_Z 32
_cell_length_a 14.111315
_cell_length_b 4.815984
_cell_length_c 18.223744
_cell_angle_alpha 90.000000
_cell_angle_beta 96.945497
_cell_angle_gamma 90.000000
_cell_volume 1229.394777
_symmetry_space_group_name_H-M "C 2/C"
_symmetry_group_IT_number 15
_symmetry_cell_setting 'monoclinic'
loop_
_space_group_symop_operation_xyz
x,y,z
-x,y,1/2-z
-x,-y,-z
x,-y,1/2+z
1/2+x,1/2+y,z
1/2-x,1/2+y,1/2-z
1/2-x,1/2-y,-z
1/2+x,1/2-y,1/2+z
loop_
_atom_site_type_symbol
_atom_site_label
_atom_site_fract_x
_atom_site_fract_y
_atom_site_fract_z
Si Si1 0.364791 0.366622 0.589233
Si Si2 0.313906 0.616147 0.245612
Si Si3 0.072984 0.958891 0.107055
Si Si4 0.159713 0.459180 0.038083
O O1 0.353293 0.269214 0.672259
O O2 0.459268 0.552170 0.589392
O O3 0.275309 0.553648 0.553116
O O4 0.373718 0.083707 0.543097
O O5 0.257439 0.333530 0.223749
O O6 0.400515 0.564638 0.309580
O O7 0.116741 0.153730 0.046752
O O8 0.118457 0.655995 0.099263
#
# Coordination Sequence:
#
# PCOD8154102 Si02
#       4
#     8   8   8   8
#     4  11  25  44  71  98 133 178 213 273 336 379
#     4  12  24  45  65  96 134 173 220 271 321 389
#     4  12  24  46  69  98 133 174 220 270 327 396
#     4  11  26  44  68 102 134 166 224 273 322 398
#
# _framework density 26.029067999999999
#
# number of rings (size 3 to 8) (size 9 to 14) (size 15 to 20)
#    0.000    0.500    5.000    2.250    0.000   10.000 
#    0.000    5.000    0.000    0.000    0.000    0.000 
#    0.000    0.000    0.000    0.000    0.000    0.000 
#
# Total GULP energy -198574.997028 kJ/mol
# GULP energy per Si atom -12410.937314 kJ/mol
# Density = 2.596983 g / cm^3
# Si number density = 26.029068 Si / 1000 Ang^3
#
#
#
# Elastic Constant Matrix: (Units=GPa)
#
#
# Indices 1 2 3 4 5 6 
#
# 1 175.5742 22.4347 17.7291 0.0000 12.2007 0.0000
# 2 22.4347 65.1375 -22.7104 0.0000 8.7648 0.0000
# 3 17.7291 -22.7104 144.7180 0.0000 4.5724 0.0000
# 4 0.0000 0.0000 0.0000 26.6827 0.0000 5.6286
# 5 12.2007 8.7648 4.5724 0.0000 41.3007 0.0000
# 6 0.0000 0.0000 0.0000 5.6286 0.0000 17.9557
#
#
#
# Elastic Compliance Matrix: (Units=1/GPa)
#
#
# Indices 1 2 3 4 5 6 
#
# 1 0.006190 -0.002349 -0.001089 0.000000 -0.001210 0.000000
# 2 -0.002349 0.017729 0.003178 0.000000 -0.003421 0.000000
# 3 -0.001089 0.003178 0.007580 0.000000 -0.001192 0.000000
# 4 0.000000 0.000000 0.000000 0.040131 0.000000 -0.012580
# 5 -0.001210 -0.003421 -0.001192 0.000000 0.025428 0.000000
# 6 0.000000 0.000000 0.000000 -0.012580 0.000000 0.059636
#
#
# Mechanical properties :
#
#
# Convention : Reuss Voigt Hill
#
# Bulk Modulus (GPa) = 32.27859 46.70409 39.49134
# Shear Modulus (GPa) = 29.84374 41.71957 35.78166
#
# Velocity S-wave (km/s) = 3.38975 4.00785 3.71169
# Velocity P-wave (km/s) = 5.26768 6.27687 5.79429
#
# Compressibility (1/GPa) = 0.03098029
#
# Stress axis : x y z
#
# Youngs Moduli (GPa) = 161.55906 56.40357 131.93058
#
# Poissons Ratio (x) = 0.13247 0.14363
# Poissons Ratio (y) = 0.37945 -0.41928
# Poissons Ratio (z) = 0.17588 -0.17925
#
# Static dielectric constant tensor:
#      x y z
#    x 4.678720 0.000000 -0.005790 
#    y 0.000000 4.328410 0.000000 
#    z -0.005790 0.000000 4.828330 
# 
# 
# High freq. dielectric constant tensor:
#      x y z
#    x 2.045820 0.000000 0.001920 
#    y 0.000000 2.032910 0.000000 
#    z 0.001920 0.000000 2.065640 
# 
# From -- ./inp_files/109028.got.cif
#   From: 2010.06.25/outbox.cif.g09.slc.cpg/sg15_55_cif.got.tgz:109028.got - 2010.06.28 07:06:18.
