data_PCOD8154573
_publ_section_title
;
Structure prediction by ZEFSAII (Michael W. Deem and Ramdas Pophale) SiO2 
 PCOD8154573
Probable space group: C 2/C
;
_chemical_formula_sum "Si O2"
_cell_formula_units_Z 48
_cell_length_a 20.220566
_cell_length_b 12.334927
_cell_length_c 8.877768
_cell_angle_alpha 90.000000
_cell_angle_beta 80.382650
_cell_angle_gamma 90.000000
_cell_volume 2183.165143
_symmetry_space_group_name_H-M "C 2/C"
_symmetry_group_IT_number 15
_symmetry_cell_setting 'monoclinic'
loop_
_space_group_symop_operation_xyz
x,y,z
-x,y,1/2-z
-x,-y,-z
x,-y,1/2+z
1/2+x,1/2+y,z
1/2-x,1/2+y,1/2-z
1/2-x,1/2-y,-z
1/2+x,1/2-y,1/2+z
loop_
_atom_site_type_symbol
_atom_site_label
_atom_site_fract_x
_atom_site_fract_y
_atom_site_fract_z
Si Si1 0.673086 0.778368 0.503928
Si Si2 0.636743 0.221346 0.350075
Si Si3 0.464640 0.318892 0.902732
Si Si4 0.299156 0.430820 0.079277
Si Si5 0.101333 0.899461 0.842864
Si Si6 0.791765 0.499180 0.633323
O O1 0.750000 0.750000 0.500000
O O2 0.631356 0.760171 0.673247
O O3 0.645685 0.700553 0.384813
O O4 0.667365 0.903060 0.457803
O O5 0.564396 0.244071 0.454280
O O6 0.691556 0.302633 0.401180
O O7 0.657334 0.100195 0.381617
O O8 0.500000 0.249990 0.750000
O O9 0.525591 0.394111 0.942445
O O10 0.405007 0.389360 0.840184
O O11 0.366816 0.487348 0.117112
O O12 0.231657 0.467584 0.191974
O O13 0.279321 0.465707 0.917998
#
# Coordination Sequence:
#
# PCOD8154573 Si02
#       6
#     8   8   8   8   8   8
#     4  12  22  41  64  97 138 163 215 274 325 391
#     4  12  24  40  65  94 127 179 214 255 338 387
#     4   8  23  44  66  91 132 174 217 267 312 386
#     4  12  22  38  67  95 135 165 211 268 330 392
#     4   9  21  43  65  97 133 167 215 271 318 372
#     4  12  25  38  60 102 132 167 211 268 331 390
#
# _framework density 21.986426999999999
#
# number of rings (size 3 to 8) (size 9 to 14) (size 15 to 20)
#    1.000    0.000    5.000    1.500    2.333    1.333 
#    0.000    0.833    0.000    0.000    0.000    0.000 
#    0.000    0.000    0.000    0.000    0.000    0.000 
#
# Total GULP energy -297458.024254 kJ/mol
# GULP energy per Si atom -12394.084344 kJ/mol
# Density = 2.193638 g / cm^3
# Si number density = 21.986427 Si / 1000 Ang^3
#
#
#
# Elastic Constant Matrix: (Units=GPa)
#
#
# Indices 1 2 3 4 5 6 
#
# 1 59.4345 -8.0329 9.0257 0.0000 -0.9293 0.0000
# 2 -8.0329 93.7291 8.5630 0.0000 -2.8677 0.0000
# 3 9.0257 8.5630 68.6605 0.0000 -13.1227 0.0000
# 4 0.0000 0.0000 0.0000 28.9963 0.0000 4.8297
# 5 -0.9293 -2.8677 -13.1227 0.0000 42.2272 0.0000
# 6 0.0000 0.0000 0.0000 4.8297 0.0000 10.8176
#
#
#
# Elastic Compliance Matrix: (Units=1/GPa)
#
#
# Indices 1 2 3 4 5 6 
#
# 1 0.017442 0.001720 -0.002564 0.000000 -0.000296 0.000000
# 2 0.001720 0.010966 -0.001535 0.000000 0.000305 0.000000
# 3 -0.002564 -0.001535 0.016013 0.000000 0.004816 0.000000
# 4 0.000000 0.000000 0.000000 0.037258 0.000000 -0.016634
# 5 -0.000296 0.000305 0.004816 0.000000 0.025192 0.000000
# 6 0.000000 0.000000 0.000000 -0.016634 0.000000 0.099869
#
#
# Mechanical properties :
#
#
# Convention : Reuss Voigt Hill
#
# Bulk Modulus (GPa) = 25.21225 26.77063 25.99144
# Shear Modulus (GPa) = 22.24989 30.55943 26.40466
#
# Velocity S-wave (km/s) = 3.18462 3.73221 3.46924
# Velocity P-wave (km/s) = 5.00145 5.54752 5.28154
#
# Compressibility (1/GPa) = 0.03966327
#
# Stress axis : x y z
#
# Youngs Moduli (GPa) = 57.33139 91.19037 62.44793
#
# Poissons Ratio (x) = -0.15685 0.16012
# Poissons Ratio (y) = -0.09861 0.09588
# Poissons Ratio (z) = 0.14700 0.14001
#
# Static dielectric constant tensor:
#      x y z
#    x 3.793600 0.000000 -0.027280 
#    y 0.000000 3.781860 0.000000 
#    z -0.027280 0.000000 4.172820 
# 
# 
# High freq. dielectric constant tensor:
#      x y z
#    x 1.848220 0.000000 -0.005720 
#    y 0.000000 1.849070 0.000000 
#    z -0.005720 0.000000 1.880900 
# 
# From -- ./inp_files/60546.got.cif
#   From: 2010.06.25/outbox.cif.g09.slc.cpg/sg15_31_cif.got.tgz:60546.got - 2010.06.28 07:06:18.
