data_PCOD8154177
_publ_section_title
;
Structure prediction by ZEFSAII (Michael W. Deem and Ramdas Pophale) SiO2 
 PCOD8154177
Probable space group: C 2/C
;
_chemical_formula_sum "Si O2"
_cell_formula_units_Z 48
_cell_length_a 29.174849
_cell_length_b 15.451025
_cell_length_c 15.329103
_cell_angle_alpha 90.000000
_cell_angle_beta 17.895410
_cell_angle_gamma 90.000000
_cell_volume 2123.329978
_symmetry_space_group_name_H-M "C 2/C"
_symmetry_group_IT_number 15
_symmetry_cell_setting 'monoclinic'
loop_
_space_group_symop_operation_xyz
x,y,z
-x,y,1/2-z
-x,-y,-z
x,-y,1/2+z
1/2+x,1/2+y,z
1/2-x,1/2+y,1/2-z
1/2-x,1/2-y,-z
1/2+x,1/2-y,1/2+z
loop_
_atom_site_type_symbol
_atom_site_label
_atom_site_fract_x
_atom_site_fract_y
_atom_site_fract_z
Si Si1 0.996960 0.880094 0.579713
Si Si2 0.708598 0.062366 0.511694
Si Si3 0.000000 0.013839 0.250000
Si Si4 0.728334 0.374998 0.793330
Si Si5 0.500000 0.763840 0.750000
Si Si6 0.826673 0.630091 0.420289
Si Si7 0.970290 0.312365 0.488313
O O1 0.953630 0.779897 0.670485
O O2 0.877602 0.935156 0.740820
O O3 0.017626 0.925690 0.634656
O O4 0.149576 0.875004 0.250001
O O5 0.709768 0.092706 0.410226
O O6 0.625878 0.970105 0.670495
O O7 0.609844 0.125000 0.750002
O O8 0.852801 0.953945 0.508913
O O9 0.869989 0.342701 0.589783
O O10 0.611708 0.296053 0.991093
O O11 0.597725 0.824311 0.634641
O O12 0.868420 0.685154 0.259185
#
# Coordination Sequence:
#
# PCOD8154177 Si02
#       7
#     8   8   4   8   4   8   8
#     4  12  26  47  73 106 142 189 237 287 352 422
#     4  12  27  46  73 105 145 185 235 295 350 417
#     4  11  26  44  73 102 140 188 237 292 348 421
#     4  11  25  46  70 102 142 188 238 290 352 414
#     4  11  26  44  73 102 140 188 237 292 348 421
#     4  12  26  47  73 106 142 189 237 287 352 422
#     4  12  27  46  73 105 145 185 235 295 350 417
#
# _framework density 22.606002
#
# number of rings (size 3 to 8) (size 9 to 14) (size 15 to 20)
#    0.000    0.333    3.333    4.500    9.333    1.333 
#    0.000    0.000    0.000    0.000    0.000    0.000 
#    0.000    0.000    0.000    0.000    0.000    0.000 
#
# Total GULP energy -297687.658797 kJ/mol
# GULP energy per Si atom -12403.652450 kJ/mol
# Density = 2.255455 g / cm^3
# Si number density = 22.606002 Si / 1000 Ang^3
#
#
#
# Elastic Constant Matrix: (Units=GPa)
#
#
# Indices 1 2 3 4 5 6 
#
# 1 101.2620 22.6346 18.8001 0.0004 1.9629 0.0001
# 2 22.6346 150.0702 19.1360 0.0007 0.3208 -0.0004
# 3 18.8001 19.1360 89.0253 0.0003 -0.8410 -0.0006
# 4 0.0004 0.0007 0.0003 34.4087 -0.0006 -0.0247
# 5 1.9629 0.3208 -0.8410 -0.0006 30.7591 0.0004
# 6 0.0001 -0.0004 -0.0006 -0.0247 0.0004 34.1298
#
#
#
# Elastic Compliance Matrix: (Units=1/GPa)
#
#
# Indices 1 2 3 4 5 6 
#
# 1 0.010550 -0.001342 -0.001946 0.000000 -0.000712 0.000000
# 2 -0.001342 0.007022 -0.001226 0.000000 -0.000021 0.000000
# 3 -0.001946 -0.001226 0.011912 0.000000 0.000463 0.000000
# 4 0.000000 0.000000 0.000000 0.029062 0.000001 0.000021
# 5 -0.000712 -0.000021 0.000463 0.000001 0.032569 0.000000
# 6 0.000000 0.000000 0.000000 0.000021 0.000000 0.029300
#
#
# Mechanical properties :
#
#
# Convention : Reuss Voigt Hill
#
# Bulk Modulus (GPa) = 48.88556 51.27766 50.08161
# Shear Modulus (GPa) = 36.69370 38.51195 37.60283
#
# Velocity S-wave (km/s) = 4.03325 4.13197 4.08291
# Velocity P-wave (km/s) = 6.58494 6.74512 6.66551
#
# Compressibility (1/GPa) = 0.02045594
#
# Stress axis : x y z
#
# Youngs Moduli (GPa) = 94.78297 142.40318 83.95060
#
# Poissons Ratio (x) = 0.19104 0.16340
# Poissons Ratio (y) = 0.12716 0.10295
# Poissons Ratio (z) = 0.18448 0.17463
#
# Static dielectric constant tensor:
#      x y z
#    x 3.916240 0.000000 -0.034260 
#    y 0.000000 4.842210 0.000000 
#    z -0.034260 0.000000 4.291060 
# 
# 
# High freq. dielectric constant tensor:
#      x y z
#    x 1.884220 0.000000 -0.001510 
#    y 0.000000 1.919510 0.000000 
#    z -0.001510 0.000000 1.900740 
# 
# From -- ./inp_files/182482.got.cif
#   From: 2010.06.25/outbox.cif.g09.slc.cpg/sg15_92_cif.got.tgz:182482.got - 2010.06.28 07:06:18.
