data_PCOD8154676
_publ_section_title
;
Structure prediction by ZEFSAII (Michael W. Deem and Ramdas Pophale) SiO2 
 PCOD8154676
Probable space group: C 2/C
;
_chemical_formula_sum "Si O2"
_cell_formula_units_Z 48
_cell_length_a 15.535986
_cell_length_b 11.120779
_cell_length_c 21.977478
_cell_angle_alpha 90.000000
_cell_angle_beta 142.200184
_cell_angle_gamma 90.000000
_cell_volume 2327.258938
_symmetry_space_group_name_H-M "C 2/C"
_symmetry_group_IT_number 15
_symmetry_cell_setting 'monoclinic'
loop_
_space_group_symop_operation_xyz
x,y,z
-x,y,1/2-z
-x,-y,-z
x,-y,1/2+z
1/2+x,1/2+y,z
1/2-x,1/2+y,1/2-z
1/2-x,1/2-y,-z
1/2+x,1/2-y,1/2+z
loop_
_atom_site_type_symbol
_atom_site_label
_atom_site_fract_x
_atom_site_fract_y
_atom_site_fract_z
Si Si1 0.151189 0.404974 0.355185
Si Si2 0.172248 0.315806 0.560616
Si Si3 0.725350 0.976611 0.697213
Si Si4 0.413972 0.962701 0.564947
Si Si5 0.147485 0.958917 0.609949
Si Si6 0.638280 0.799708 0.070857
O O1 0.239658 0.287410 0.425082
O O2 0.138475 0.518206 0.395120
O O3 0.233034 0.447995 0.341647
O O4 0.000000 0.358797 0.250000
O O5 0.256464 0.374477 0.664344
O O6 0.140905 0.415292 0.494023
O O7 0.022913 0.271937 0.502377
O O8 0.581115 0.950138 0.652750
O O9 0.854266 0.966983 0.817153
O O10 0.713416 0.106718 0.658447
O O11 0.347124 0.849439 0.490612
O O12 0.205179 0.831070 0.616791
O O13 0.000000 0.000000 0.500000
#
# Coordination Sequence:
#
# PCOD8154676 Si02
#       6
#     8   8   8   8   8   8
#     4  12  23  37  59  93 125 159 201 255 314 360
#     4   9  19  38  63  88 116 157 201 250 302 361
#     4   9  20  38  63  88 117 158 204 243 304 365
#     4   9  19  39  62  88 119 155 194 247 316 364
#     4  12  24  37  59  91 121 161 208 249 302 371
#     4   9  20  39  64  85 118 161 198 251 302 364
#
# _framework density 20.625122000000001
#
# number of rings (size 3 to 8) (size 9 to 14) (size 15 to 20)
#    0.000    2.000    3.333    2.500    2.333    0.667 
#    3.000    0.000    0.000    0.000    0.000    0.000 
#    0.000    0.000    0.000    0.000    0.000    0.000 
#
# Total GULP energy -297318.805882 kJ/mol
# GULP energy per Si atom -12388.283578 kJ/mol
# Density = 2.057818 g / cm^3
# Si number density = 20.625122 Si / 1000 Ang^3
#
#
#
# Elastic Constant Matrix: (Units=GPa)
#
#
# Indices 1 2 3 4 5 6 
#
# 1 53.9583 9.2689 13.1913 0.0000 -2.0978 0.0000
# 2 9.2689 94.1152 24.5271 0.0000 4.8420 0.0000
# 3 13.1913 24.5271 104.4367 0.0001 -10.4536 0.0000
# 4 0.0000 0.0000 0.0001 20.7552 0.0000 0.2826
# 5 -2.0978 4.8420 -10.4536 0.0000 26.8135 0.0000
# 6 0.0000 0.0000 0.0000 0.2826 0.0000 26.9898
#
#
#
# Elastic Compliance Matrix: (Units=1/GPa)
#
#
# Indices 1 2 3 4 5 6 
#
# 1 0.019307 -0.001430 -0.002004 0.000000 0.000987 0.000000
# 2 -0.001430 0.011695 -0.002902 0.000000 -0.003355 0.000000
# 3 -0.002004 -0.002902 0.010975 0.000000 0.004646 0.000000
# 4 0.000000 0.000000 0.000000 0.048188 0.000000 -0.000505
# 5 0.000987 -0.003355 0.004646 0.000000 0.039789 0.000000
# 6 0.000000 0.000000 0.000000 -0.000505 0.000000 0.037056
#
#
# Mechanical properties :
#
#
# Convention : Reuss Voigt Hill
#
# Bulk Modulus (GPa) = 34.12374 38.49831 36.31103
# Shear Modulus (GPa) = 26.39227 28.61321 27.50274
#
# Velocity S-wave (km/s) = 3.58106 3.72869 3.65562
# Velocity P-wave (km/s) = 5.80338 6.10276 5.95496
#
# Compressibility (1/GPa) = 0.02930511
#
# Stress axis : x y z
#
# Youngs Moduli (GPa) = 51.79527 85.50698 91.11768
#
# Poissons Ratio (x) = 0.12227 0.18260
# Poissons Ratio (y) = 0.07407 0.26440
# Poissons Ratio (z) = 0.10380 0.24812
#
# Static dielectric constant tensor:
#      x y z
#    x 1.087930 0.000000 -1.885450 
#    y 0.000000 3.818350 0.000000 
#    z -1.885450 0.000000 2.516010 
# 
# 
# High freq. dielectric constant tensor:
#      x y z
#    x 1.779740 0.000000 -0.017400 
#    y 0.000000 1.809330 0.000000 
#    z -0.017400 0.000000 1.803120 
# 
# From -- ./inp_files/103815.got.cif
#   From: 2010.06.25/outbox.cif.g09.slc.cpg/sg15_52_cif.got.tgz:103815.got - 2010.06.28 07:06:18.
