data_PCOD8154745
_publ_section_title
;
Structure prediction by ZEFSAII (Michael W. Deem and Ramdas Pophale) SiO2 
 PCOD8154745
Probable space group: C 2/C
;
_chemical_formula_sum "Si O2"
_cell_formula_units_Z 48
_cell_length_a 7.874012
_cell_length_b 17.652193
_cell_length_c 27.513664
_cell_angle_alpha 90.000000
_cell_angle_beta 147.440430
_cell_angle_gamma 90.000000
_cell_volume 2058.105556
_symmetry_space_group_name_H-M "C 2/C"
_symmetry_group_IT_number 15
_symmetry_cell_setting 'monoclinic'
loop_
_space_group_symop_operation_xyz
x,y,z
-x,y,1/2-z
-x,-y,-z
x,-y,1/2+z
1/2+x,1/2+y,z
1/2-x,1/2+y,1/2-z
1/2-x,1/2-y,-z
1/2+x,1/2-y,1/2+z
loop_
_atom_site_type_symbol
_atom_site_label
_atom_site_fract_x
_atom_site_fract_y
_atom_site_fract_z
Si Si1 0.137931 0.412318 0.410551
Si Si2 0.363180 0.244944 0.848386
Si Si3 0.735889 0.846713 0.905396
Si Si4 0.765343 0.815315 0.649378
Si Si5 0.160141 0.521887 0.088838
Si Si6 0.615080 0.015442 0.224987
O O1 0.505053 0.394003 0.502735
O O2 0.924972 0.341805 0.377020
O O3 0.057715 0.485076 0.423184
O O4 0.059924 0.440204 0.337176
O O5 0.425439 0.300702 0.909129
O O6 0.586737 0.258949 0.855055
O O7 0.000000 0.258960 0.750000
O O8 0.558776 0.789059 0.900667
O O9 0.467399 0.906263 0.822981
O O10 0.666488 0.888362 0.594875
O O11 0.000000 0.831538 0.750000
O O12 0.516983 0.494387 0.184097
O O13 0.000000 0.500000 0.000000
O O14 0.500000 0.034152 0.250000
#
# Coordination Sequence:
#
# PCOD8154745 Si02
#       6
#     8   8   8   8   8   8
#     4  12  27  46  69 105 148 178 228 304 358 405
#     4  12  25  46  71 103 142 191 233 288 357 418
#     4  12  25  46  75 101 139 192 238 282 347 431
#     4  12  23  44  75 101 137 190 241 283 341 433
#     4  12  24  43  72 104 137 183 238 293 353 416
#     4  12  24  43  70 103 138 184 234 292 350 418
#
# _framework density 23.322420000000001
#
# number of rings (size 3 to 8) (size 9 to 14) (size 15 to 20)
#    0.000    0.000    5.000    6.000    2.333    1.333 
#    3.000    0.000    0.000    0.000    0.000    0.000 
#    0.000    0.000    0.000    0.000    0.000    0.000 
#
# Total GULP energy -297442.589122 kJ/mol
# GULP energy per Si atom -12393.441213 kJ/mol
# Density = 2.326934 g / cm^3
# Si number density = 23.322420 Si / 1000 Ang^3
#
#
#
# Elastic Constant Matrix: (Units=GPa)
#
#
# Indices 1 2 3 4 5 6 
#
# 1 130.9934 4.6986 28.6788 0.0002 12.1611 -0.0063
# 2 4.6986 63.2433 11.4394 0.0215 -2.8776 0.0041
# 3 28.6788 11.4394 88.5071 0.0195 1.3476 0.0012
# 4 0.0002 0.0215 0.0195 23.4653 -0.0051 -2.6661
# 5 12.1611 -2.8776 1.3476 -0.0051 37.0218 -0.0052
# 6 -0.0063 0.0041 0.0012 -2.6661 -0.0052 32.1461
#
#
#
# Elastic Compliance Matrix: (Units=1/GPa)
#
#
# Indices 1 2 3 4 5 6 
#
# 1 0.008480 -0.000270 -0.002672 0.000002 -0.002709 0.000002
# 2 -0.000270 0.016265 -0.002036 -0.000013 0.001427 -0.000003
# 3 -0.002672 -0.002036 0.012423 -0.000009 0.000267 -0.000001
# 4 0.000002 -0.000013 -0.000009 0.043021 0.000005 0.003568
# 5 -0.002709 0.001427 0.000267 0.000005 0.028002 0.000004
# 6 0.000002 -0.000003 -0.000001 0.003568 0.000004 0.031404
#
#
# Mechanical properties :
#
#
# Convention : Reuss Voigt Hill
#
# Bulk Modulus (GPa) = 36.74794 41.37528 39.06161
# Shear Modulus (GPa) = 31.52114 34.38843 32.95479
#
# Velocity S-wave (km/s) = 3.68032 3.84406 3.76308
# Velocity P-wave (km/s) = 5.81810 6.12221 5.97209
#
# Compressibility (1/GPa) = 0.02721241
#
# Stress axis : x y z
#
# Youngs Moduli (GPa) = 117.92322 61.48056 80.49350
#
# Poissons Ratio (x) = 0.01660 0.21505
# Poissons Ratio (y) = 0.03185 0.16392
# Poissons Ratio (z) = 0.31505 0.12520
#
# Static dielectric constant tensor:
#      x y z
#    x 4.700730 -0.000090 -0.175470 
#    y -0.000090 6.768700 0.001340 
#    z -0.175470 0.001340 4.373360 
# 
# 
# High freq. dielectric constant tensor:
#      x y z
#    x 1.935210 0.000000 0.005140 
#    y 0.000000 1.907360 0.000000 
#    z 0.005140 0.000000 1.936030 
# 
# From -- ./inp_files/308851.got.cif
#   From: 2010.06.25/outbox.cif.g09.slc.cpg/sg15_155_cif.got.tgz:308851.got - 2010.06.28 07:06:18.
