data_PCOD8154983
_publ_section_title
;
Structure prediction by ZEFSAII (Michael W. Deem and Ramdas Pophale) SiO2 
 PCOD8154983
Probable space group: C 2/C
;
_chemical_formula_sum "Si O2"
_cell_formula_units_Z 44
_cell_length_a 13.032098
_cell_length_b 18.336476
_cell_length_c 8.664734
_cell_angle_alpha 90.000000
_cell_angle_beta 121.163238
_cell_angle_gamma 90.000000
_cell_volume 1771.761178
_symmetry_space_group_name_H-M "C 2/C"
_symmetry_group_IT_number 15
_symmetry_cell_setting 'monoclinic'
loop_
_space_group_symop_operation_xyz
x,y,z
-x,y,1/2-z
-x,-y,-z
x,-y,1/2+z
1/2+x,1/2+y,z
1/2-x,1/2+y,1/2-z
1/2-x,1/2-y,-z
1/2+x,1/2-y,1/2+z
loop_
_atom_site_type_symbol
_atom_site_label
_atom_site_fract_x
_atom_site_fract_y
_atom_site_fract_z
Si Si1 0.256724 0.521192 0.992960
Si Si2 0.000000 0.215686 0.250000
Si Si3 0.829492 0.753075 0.871117
Si Si4 0.855644 0.861090 0.379734
Si Si5 0.500000 0.443482 0.250000
Si Si6 0.184045 0.395365 0.736339
Si Si7 0.000000 0.693995 0.250000
O O1 0.261548 0.575352 0.849263
O O2 0.187561 0.448769 0.887018
O O3 0.391962 0.498448 0.135345
O O4 0.188563 0.559637 0.081289
O O5 0.079079 0.265661 0.197235
O O6 0.091948 0.167382 0.419144
O O7 0.712999 0.701807 0.767656
O O8 0.793615 0.838056 0.830811
O O9 0.894733 0.741073 0.086783
O O10 0.966836 0.890934 0.366600
O O11 0.058214 0.353431 0.657086
#
# Coordination Sequence:
#
# PCOD8154983 Si02
#       7
#     8   4   8   8   4   8   4
#     4  12  26  47  74 115 154 201 255 320 387 464
#     4  12  25  44  78 116 151 200 248 324 401 440
#     4  12  28  51  78 115 156 204 262 322 384 461
#     4  12  26  48  77 117 155 200 259 323 383 464
#     4  12  25  47  78 114 154 204 250 326 398 446
#     4  12  28  51  77 112 158 199 262 320 385 466
#     4  12  30  53  80 112 153 218 256 320 391 450
#
# _framework density 24.834047000000002
#
# number of rings (size 3 to 8) (size 9 to 14) (size 15 to 20)
#    0.000    0.000    3.636    5.455    2.545    5.818 
#    0.000    0.000    0.000    0.000    0.000    0.000 
#    0.000    0.000    0.000    0.000    0.000    0.000 
#
# Total GULP energy -272874.258473 kJ/mol
# GULP energy per Si atom -12403.375385 kJ/mol
# Density = 2.477752 g / cm^3
# Si number density = 24.834047 Si / 1000 Ang^3
#
#
#
# Elastic Constant Matrix: (Units=GPa)
#
#
# Indices 1 2 3 4 5 6 
#
# 1 117.1570 38.2307 23.5257 0.0000 -36.1903 0.0000
# 2 38.2307 116.6927 49.0495 0.0000 -10.9537 0.0000
# 3 23.5257 49.0495 117.7100 0.0000 -6.2585 0.0000
# 4 0.0000 0.0000 0.0000 92.7949 0.0000 69.5395
# 5 -36.1903 -10.9537 -6.2585 0.0000 48.2946 0.0000
# 6 0.0000 0.0000 0.0000 69.5395 0.0000 179.4864
#
#
#
# Elastic Compliance Matrix: (Units=1/GPa)
#
#
# Indices 1 2 3 4 5 6 
#
# 1 0.012235 -0.002884 -0.000796 0.000000 0.008411 0.000000
# 2 -0.002884 0.011228 -0.004110 0.000000 -0.000147 0.000000
# 3 -0.000796 -0.004110 0.010357 0.000000 -0.000187 0.000000
# 4 0.000000 0.000000 0.000000 0.015185 0.000000 -0.005883
# 5 0.008411 -0.000147 -0.000187 0.000000 0.026952 0.000000
# 6 0.000000 0.000000 0.000000 -0.005883 0.000000 0.007851
#
#
# Mechanical properties :
#
#
# Convention : Reuss Voigt Hill
#
# Bulk Modulus (GPa) = 54.82677 63.68573 59.25625
# Shear Modulus (GPa) = 47.40725 80.16542 63.78634
#
# Velocity S-wave (km/s) = 4.37391 5.68775 5.07354
# Velocity P-wave (km/s) = 6.90169 8.29664 7.63110
#
# Compressibility (1/GPa) = 0.01823926
#
# Stress axis : x y z
#
# Youngs Moduli (GPa) = 81.73416 89.06128 96.54962
#
# Poissons Ratio (x) = 0.25686 0.07688
# Poissons Ratio (y) = 0.23573 0.39684
# Poissons Ratio (z) = 0.06508 0.36606
#
# Static dielectric constant tensor:
#      x y z
#    x 4.589450 0.000000 -0.175570 
#    y 0.000000 4.642300 0.000000 
#    z -0.175570 0.000000 4.302580 
# 
# 
# High freq. dielectric constant tensor:
#      x y z
#    x 1.999520 0.000000 -0.020870 
#    y 0.000000 1.998110 0.000000 
#    z -0.020870 0.000000 1.981740 
# 
# From -- ./inp_files/39777.got.cif
#   From: 2010.06.25/outbox.cif.g09.slc.cpg/sg15_20_cif.got.tgz:39777.got - 2010.06.28 07:06:18.
