data_PCOD8154721
_publ_section_title
;
Structure prediction by ZEFSAII (Michael W. Deem and Ramdas Pophale) SiO2 
 PCOD8154721
Probable space group: C 2/C
;
_chemical_formula_sum "Si O2"
_cell_formula_units_Z 52
_cell_length_a 23.064283
_cell_length_b 12.919500
_cell_length_c 7.863659
_cell_angle_alpha 90.000000
_cell_angle_beta 115.368349
_cell_angle_gamma 90.000000
_cell_volume 2117.254925
_symmetry_space_group_name_H-M "C 2/C"
_symmetry_group_IT_number 15
_symmetry_cell_setting 'monoclinic'
loop_
_space_group_symop_operation_xyz
x,y,z
-x,y,1/2-z
-x,-y,-z
x,-y,1/2+z
1/2+x,1/2+y,z
1/2-x,1/2+y,1/2-z
1/2-x,1/2-y,-z
1/2+x,1/2-y,1/2+z
loop_
_atom_site_type_symbol
_atom_site_label
_atom_site_fract_x
_atom_site_fract_y
_atom_site_fract_z
Si Si1 0.265770 0.174255 0.869795
Si Si2 0.500000 0.752608 0.750000
Si Si3 0.602852 0.095734 0.529736
Si Si4 0.832032 0.045599 0.925785
Si Si5 0.122119 0.621616 0.948210
Si Si6 0.949176 0.175447 0.033518
Si Si7 0.271496 0.631699 0.183607
O O1 0.206619 0.096843 0.778783
O O2 0.277729 0.244611 0.715654
O O3 0.250000 0.250000 0.000000
O O4 0.329064 0.107420 0.981165
O O5 0.442877 0.826873 0.625119
O O6 0.518221 0.680188 0.611768
O O7 0.605924 0.126361 0.729727
O O8 0.583258 0.975221 0.482419
O O9 0.809384 0.925540 0.888769
O O10 0.907519 0.068748 0.990153
O O11 0.811591 0.101356 0.070728
O O12 0.097908 0.726126 0.006609
O O13 0.196955 0.602208 0.080685
O O14 0.000000 0.174394 0.250000
#
# Coordination Sequence:
#
# PCOD8154721 Si02
#       7
#     8   4   8   8   8   8   8
#     4  12  24  40  69 102 140 185 237 299 365 428
#     4  12  28  46  70 102 146 196 252 288 364 436
#     4  12  26  41  67 105 145 188 235 300 365 442
#     4  12  25  46  72 109 144 186 241 297 372 431
#     4  12  23  43  72 109 144 181 237 300 377 435
#     4  12  27  50  75 105 145 200 246 301 359 435
#     4  12  24  44  74 108 144 183 231 307 370 433
#
# _framework density 24.560103000000002
#
# number of rings (size 3 to 8) (size 9 to 14) (size 15 to 20)
#    0.000    0.000    6.154    4.154    3.231    1.231 
#    0.000    0.769    1.692    0.000    0.000    0.000 
#    0.000    0.000    0.000    0.000    0.000    0.000 
#
# Total GULP energy -322431.963918 kJ/mol
# GULP energy per Si atom -12401.229381 kJ/mol
# Density = 2.450420 g / cm^3
# Si number density = 24.560103 Si / 1000 Ang^3
#
#
#
# Elastic Constant Matrix: (Units=GPa)
#
#
# Indices 1 2 3 4 5 6 
#
# 1 93.0309 -0.7808 45.2657 0.0000 6.2047 0.0000
# 2 -0.7808 51.8845 5.3038 0.0000 19.9909 0.0000
# 3 45.2657 5.3038 106.0095 0.0000 6.2845 0.0000
# 4 0.0000 0.0000 0.0000 26.1745 0.0000 -9.5481
# 5 6.2047 19.9909 6.2845 0.0000 44.5699 0.0000
# 6 0.0000 0.0000 0.0000 -9.5481 0.0000 19.0069
#
#
#
# Elastic Compliance Matrix: (Units=1/GPa)
#
#
# Indices 1 2 3 4 5 6 
#
# 1 0.013713 0.001476 -0.005825 0.000000 -0.001750 0.000000
# 2 0.001476 0.023491 -0.001179 0.000000 -0.010576 0.000000
# 3 -0.005825 -0.001179 0.012000 0.000000 -0.000353 0.000000
# 4 0.000000 0.000000 0.000000 0.046777 0.000000 0.023498
# 5 -0.001750 -0.010576 -0.000353 0.000000 0.027473 0.000000
# 6 0.000000 0.000000 0.000000 0.023498 0.000000 0.064417
#
#
# Mechanical properties :
#
#
# Convention : Reuss Voigt Hill
#
# Bulk Modulus (GPa) = 26.21365 38.94472 32.57918
# Shear Modulus (GPa) = 23.62464 31.35934 27.49199
#
# Velocity S-wave (km/s) = 3.10483 3.57717 3.34934
# Velocity P-wave (km/s) = 4.85281 5.74046 5.31519
#
# Compressibility (1/GPa) = 0.03814807
#
# Stress axis : x y z
#
# Youngs Moduli (GPa) = 72.92553 42.56946 83.33066
#
# Poissons Ratio (x) = -0.06283 0.48543
# Poissons Ratio (y) = -0.10763 0.09821
# Poissons Ratio (z) = 0.42482 0.05017
#
# Static dielectric constant tensor:
#      x y z
#    x 4.418630 0.000000 -0.079940 
#    y 0.000000 5.052760 0.000000 
#    z -0.079940 0.000000 4.515150 
# 
# 
# High freq. dielectric constant tensor:
#      x y z
#    x 1.969630 0.000000 -0.007360 
#    y 0.000000 1.982810 0.000000 
#    z -0.007360 0.000000 1.988840 
# 
# From -- ./inp_files/61671.got.cif
#   From: 2010.06.25/outbox.cif.g09.slc.cpg/sg15_31_cif.got.tgz:61671.got - 2010.06.28 07:06:18.
