data_PCOD8154018
_publ_section_title
;
Structure prediction by ZEFSAII (Michael W. Deem and Ramdas Pophale) SiO2 
 PCOD8154018
Probable space group: C 2/C
;
_chemical_formula_sum "Si O2"
_cell_formula_units_Z 44
_cell_length_a 10.587342
_cell_length_b 10.204804
_cell_length_c 17.716267
_cell_angle_alpha 90.000000
_cell_angle_beta 112.752968
_cell_angle_gamma 90.000000
_cell_volume 1765.143297
_symmetry_space_group_name_H-M "C 2/C"
_symmetry_group_IT_number 15
_symmetry_cell_setting 'monoclinic'
loop_
_space_group_symop_operation_xyz
x,y,z
-x,y,1/2-z
-x,-y,-z
x,-y,1/2+z
1/2+x,1/2+y,z
1/2-x,1/2+y,1/2-z
1/2-x,1/2-y,-z
1/2+x,1/2-y,1/2+z
loop_
_atom_site_type_symbol
_atom_site_label
_atom_site_fract_x
_atom_site_fract_y
_atom_site_fract_z
Si Si1 0.000000 0.502893 0.750000
Si Si2 0.142077 0.607271 0.920309
Si Si3 0.676040 0.615244 0.972934
Si Si4 0.296020 0.830020 0.771888
Si Si5 0.091813 0.251726 0.554846
Si Si6 0.654613 0.427383 0.294738
O O1 0.976424 0.589425 0.669476
O O2 0.867026 0.411036 0.721864
O O3 0.248012 0.714443 0.913966
O O4 0.240233 0.484308 0.956753
O O5 0.059455 0.655349 0.975799
O O6 0.518222 0.632492 0.965409
O O7 0.690927 0.567896 0.890735
O O8 0.750000 0.750000 0.000000
O O9 0.409903 0.828056 0.865890
O O10 0.256897 0.683321 0.732367
O O11 0.169279 0.924256 0.766152
O O12 0.500000 0.379899 0.250000
#
# Coordination Sequence:
#
# PCOD8154018 Si02
#       6
#     4   8   8   8   8   8
#     4  12  26  46  76 104 150 196 262 306 384 452
#     4  11  26  48  71 113 147 200 250 320 374 459
#     4  12  25  45  76 106 145 203 247 312 387 452
#     4  12  24  48  74 108 155 201 254 319 378 461
#     4  11  24  48  75 106 154 192 256 310 386 459
#     4  12  26  49  75 112 159 201 256 319 384 459
#
# _framework density 24.927154000000002
#
# number of rings (size 3 to 8) (size 9 to 14) (size 15 to 20)
#    0.000    0.364    4.545    3.818    2.545    1.455 
#   13.091    0.000    0.000    0.000    0.000    0.000 
#    0.000    0.000    0.000    0.000    0.000    0.000 
#
# Total GULP energy -272689.596336 kJ/mol
# GULP energy per Si atom -12394.981652 kJ/mol
# Density = 2.487042 g / cm^3
# Si number density = 24.927154 Si / 1000 Ang^3
#
#
#
# Elastic Constant Matrix: (Units=GPa)
#
#
# Indices 1 2 3 4 5 6 
#
# 1 76.5857 24.2496 17.3351 0.0000 -9.3086 0.0000
# 2 24.2496 121.0088 35.7317 0.0000 -2.8502 0.0000
# 3 17.3351 35.7317 147.4018 0.0000 -11.1799 0.0000
# 4 0.0000 0.0000 0.0000 19.5508 0.0000 16.2634
# 5 -9.3086 -2.8502 -11.1799 0.0000 28.7078 0.0000
# 6 0.0000 0.0000 0.0000 16.2634 0.0000 27.7192
#
#
#
# Elastic Compliance Matrix: (Units=1/GPa)
#
#
# Indices 1 2 3 4 5 6 
#
# 1 0.014558 -0.002593 -0.000768 0.000000 0.004164 0.000000
# 2 -0.002593 0.009363 -0.002018 0.000000 -0.000697 0.000000
# 3 -0.000768 -0.002018 0.007553 0.000000 0.002492 0.000000
# 4 0.000000 0.000000 0.000000 0.099913 0.000000 -0.058621
# 5 0.004164 -0.000697 0.002492 0.000000 0.037085 0.000000
# 6 0.000000 0.000000 0.000000 -0.058621 0.000000 0.070470
#
#
# Mechanical properties :
#
#
# Convention : Reuss Voigt Hill
#
# Bulk Modulus (GPa) = 48.26839 55.51435 51.89137
# Shear Modulus (GPa) = 19.48533 33.04088 26.26310
#
# Velocity S-wave (km/s) = 2.79891 3.64469 3.24943
# Velocity P-wave (km/s) = 5.46361 6.32698 5.91108
#
# Compressibility (1/GPa) = 0.02071749
#
# Stress axis : x y z
#
# Youngs Moduli (GPa) = 68.69033 106.80630 132.40538
#
# Poissons Ratio (x) = 0.27690 0.10166
# Poissons Ratio (y) = 0.17809 0.26714
# Poissons Ratio (z) = 0.05274 0.21549
#
# Static dielectric constant tensor:
#      x y z
#    x 4.735670 0.000000 -0.234210 
#    y 0.000000 5.199840 0.000000 
#    z -0.234210 0.000000 4.238430 
# 
# 
# High freq. dielectric constant tensor:
#      x y z
#    x 1.989380 0.000000 -0.016580 
#    y 0.000000 1.993980 0.000000 
#    z -0.016580 0.000000 2.000020 
# 
# From -- ./inp_files/196644.got.cif
#   From: 2010.06.25/outbox.cif.g09.slc.cpg/sg15_99_cif.got.tgz:196644.got - 2010.06.28 07:06:18.
