data_PCOD8154295
_publ_section_title
;
Structure prediction by ZEFSAII (Michael W. Deem and Ramdas Pophale) SiO2 
 PCOD8154295
Probable space group: C 2/C
;
_chemical_formula_sum "Si O2"
_cell_formula_units_Z 36
_cell_length_a 7.182621
_cell_length_b 12.052646
_cell_length_c 12.375718
_cell_angle_alpha 90.000000
_cell_angle_beta 107.180488
_cell_angle_gamma 90.000000
_cell_volume 1023.555631
_symmetry_space_group_name_H-M "C 2/C"
_symmetry_group_IT_number 15
_symmetry_cell_setting 'monoclinic'
loop_
_space_group_symop_operation_xyz
x,y,z
-x,y,1/2-z
-x,-y,-z
x,-y,1/2+z
1/2+x,1/2+y,z
1/2-x,1/2+y,1/2-z
1/2-x,1/2-y,-z
1/2+x,1/2-y,1/2+z
loop_
_atom_site_type_symbol
_atom_site_label
_atom_site_fract_x
_atom_site_fract_y
_atom_site_fract_z
Si Si1 0.500000 0.212112 0.750000
Si Si2 0.772070 0.017761 0.638332
Si Si3 0.979320 0.669660 0.478481
Si Si4 0.751656 0.881366 0.843319
Si Si5 0.374700 0.595908 0.915774
O O1 0.385565 0.289542 0.814250
O O2 0.661476 0.145426 0.846557
O O3 0.627063 0.119919 0.591489
O O4 0.992811 0.062209 0.666524
O O5 0.721314 0.905539 0.553901
O O6 0.709839 0.978102 0.747960
O O7 0.057778 0.666580 0.366943
O O8 0.964999 0.801089 0.501461
O O9 0.847508 0.963469 0.958202
#
# Coordination Sequence:
#
# PCOD8154295 Si02
#       5
#     4   8   8   8   8
#     4  12  28  44  76 110 156 214 262 318 382 468
#     4  11  25  49  75 118 155 195 268 323 390 475
#     4  11  27  49  79 112 161 200 249 342 392 455
#     4  12  26  48  76 112 149 207 263 310 397 472
#     4  12  26  48  75 110 156 206 263 318 386 472
#
# _framework density 35.171512999999997
#
# number of rings (size 3 to 8) (size 9 to 14) (size 15 to 20)
#    0.000    0.444    4.444    1.333    9.333    0.889 
#    0.000    5.556    0.000    0.000    0.000    0.000 
#    0.000    0.000    0.000    0.000    0.000    0.000 
#
# Total GULP energy -222986.789445 kJ/mol
# GULP energy per Si atom -12388.154969 kJ/mol
# Density = 3.509146 g / cm^3
# Si number density = 35.171513 Si / 1000 Ang^3
#
#
#
# Elastic Constant Matrix: (Units=GPa)
#
#
# Indices 1 2 3 4 5 6 
#
# 1 264.6563 114.1813 14.7068 0.0000 18.1036 0.0000
# 2 114.1813 342.3007 39.0565 0.0000 -0.3251 0.0000
# 3 14.7068 39.0565 80.7452 0.0000 -3.2744 0.0000
# 4 0.0000 0.0000 0.0000 54.8248 0.0000 -13.2630
# 5 18.1036 -0.3251 -3.2744 0.0000 37.9381 0.0000
# 6 0.0000 0.0000 0.0000 -13.2630 0.0000 98.5129
#
#
#
# Elastic Compliance Matrix: (Units=1/GPa)
#
#
# Indices 1 2 3 4 5 6 
#
# 1 0.004594 -0.001512 -0.000195 0.000000 -0.002222 0.000000
# 2 -0.001512 0.003590 -0.001436 0.000000 0.000628 0.000000
# 3 -0.000195 -0.001436 0.013164 0.000000 0.001217 0.000000
# 4 0.000000 0.000000 0.000000 0.018854 0.000000 0.002538
# 5 -0.002222 0.000628 0.001217 0.000000 0.027529 0.000000
# 6 0.000000 0.000000 0.000000 0.002538 0.000000 0.010493
#
#
# Mechanical properties :
#
#
# Convention : Reuss Voigt Hill
#
# Bulk Modulus (GPa) = 66.39424 113.73239 90.06332
# Shear Modulus (GPa) = 55.84658 72.90566 64.37612
#
# Velocity S-wave (km/s) = 3.98909 4.55781 4.28290
# Velocity P-wave (km/s) = 6.33525 7.75273 7.07956
#
# Compressibility (1/GPa) = 0.01506155
#
# Stress axis : x y z
#
# Youngs Moduli (GPa) = 217.68871 278.53417 75.96466
#
# Poissons Ratio (x) = 0.42118 0.01484
# Poissons Ratio (y) = 0.32918 0.10906
# Poissons Ratio (z) = 0.04253 0.39989
#
# Static dielectric constant tensor:
#      x y z
#    x 7.485890 0.000000 -0.333220 
#    y 0.000000 7.758080 0.000000 
#    z -0.333220 0.000000 8.328780 
# 
# 
# High freq. dielectric constant tensor:
#      x y z
#    x 2.525670 0.000000 -0.026840 
#    y 0.000000 2.521290 0.000000 
#    z -0.026840 0.000000 2.550630 
# 
# From -- ./inp_files/262884.got.cif
#   From: 2010.06.25/outbox.cif.g09.slc.cpg/sg15_132_cif.got.tgz:262884.got - 2010.06.28 07:06:18.
