data_PCOD8154253
_publ_section_title
;
Structure prediction by ZEFSAII (Michael W. Deem and Ramdas Pophale) SiO2 
 PCOD8154253
Probable space group: C 2/C
;
_chemical_formula_sum "Si O2"
_cell_formula_units_Z 32
_cell_length_a 19.145356
_cell_length_b 4.767923
_cell_length_c 18.863544
_cell_angle_alpha 90.000000
_cell_angle_beta 129.600081
_cell_angle_gamma 90.000000
_cell_volume 1326.769772
_symmetry_space_group_name_H-M "C 2/C"
_symmetry_group_IT_number 15
_symmetry_cell_setting 'monoclinic'
loop_
_space_group_symop_operation_xyz
x,y,z
-x,y,1/2-z
-x,-y,-z
x,-y,1/2+z
1/2+x,1/2+y,z
1/2-x,1/2+y,1/2-z
1/2-x,1/2-y,-z
1/2+x,1/2-y,1/2+z
loop_
_atom_site_type_symbol
_atom_site_label
_atom_site_fract_x
_atom_site_fract_y
_atom_site_fract_z
Si Si1 0.395702 0.690364 0.555245
Si Si2 0.227278 0.046000 0.420249
Si Si3 0.799048 0.833318 0.752267
Si Si4 0.002401 0.336319 0.075617
O O1 0.365494 0.608297 0.615340
O O2 0.432643 0.427294 0.532411
O O3 0.307983 0.822480 0.458045
O O4 0.471489 0.931594 0.613127
O O5 0.250000 0.250000 0.500000
O O6 0.207222 0.216658 0.336060
O O7 0.722728 0.654003 0.743032
O O8 0.898555 0.768679 0.843543
O O9 0.000000 0.500000 0.000000
#
# Coordination Sequence:
#
# PCOD8154253 Si02
#       4
#     8   8   8   8
#     4  11  25  47  78 108 146 200 254 303 386 445
#     4  11  26  49  79 106 152 202 247 312 384 451
#     4  12  30  49  75 112 153 196 260 310 376 453
#     4  12  26  47  77 111 154 197 248 315 382 446
#
# _framework density 24.118728999999998
#
# number of rings (size 3 to 8) (size 9 to 14) (size 15 to 20)
#    0.000    0.500    2.500    3.750   10.500    1.000 
#    4.500    0.000    0.000    0.000    0.000    0.000 
#    0.000    0.000    0.000    0.000    0.000    0.000 
#
# Total GULP energy -198391.310064 kJ/mol
# GULP energy per Si atom -12399.456879 kJ/mol
# Density = 2.406383 g / cm^3
# Si number density = 24.118729 Si / 1000 Ang^3
#
#
#
# Elastic Constant Matrix: (Units=GPa)
#
#
# Indices 1 2 3 4 5 6 
#
# 1 163.0359 65.0671 68.6286 -0.0003 16.3164 0.0006
# 2 65.0671 140.2376 41.4339 -0.0010 5.8443 0.0037
# 3 68.6286 41.4339 140.8498 -0.0001 -12.1447 0.0014
# 4 -0.0003 -0.0010 -0.0001 32.6231 0.0001 2.6509
# 5 16.3164 5.8443 -12.1447 0.0001 27.3898 0.0020
# 6 0.0006 0.0037 0.0014 2.6509 0.0020 68.6914
#
#
#
# Elastic Compliance Matrix: (Units=1/GPa)
#
#
# Indices 1 2 3 4 5 6 
#
# 1 0.010011 -0.002965 -0.004643 0.000000 -0.007389 0.000000
# 2 -0.002965 0.008899 -0.001231 0.000000 -0.000678 0.000000
# 3 -0.004643 -0.001231 0.010382 0.000000 0.007632 0.000000
# 4 0.000000 0.000000 0.000000 0.030750 0.000000 -0.001187
# 5 -0.007389 -0.000678 0.007632 0.000000 0.044441 -0.000001
# 6 0.000000 0.000000 0.000000 -0.001187 -0.000001 0.014604
#
#
# Mechanical properties :
#
#
# Convention : Reuss Voigt Hill
#
# Bulk Modulus (GPa) = 86.10917 88.26471 87.18694
# Shear Modulus (GPa) = 35.55306 43.67377 39.61342
#
# Velocity S-wave (km/s) = 3.84355 4.25995 4.05709
# Velocity P-wave (km/s) = 7.44828 7.80202 7.62720
#
# Compressibility (1/GPa) = 0.01161316
#
# Stress axis : x y z
#
# Youngs Moduli (GPa) = 99.89233 112.37688 96.31896
#
# Poissons Ratio (x) = 0.33321 0.44717
# Poissons Ratio (y) = 0.29620 0.11861
# Poissons Ratio (z) = 0.46376 0.13839
#
# Static dielectric constant tensor:
#      x y z
#    x 5.150250 0.000000 -0.067150 
#    y 0.000000 5.263400 -0.000020 
#    z -0.067150 -0.000020 3.975820 
# 
# 
# High freq. dielectric constant tensor:
#      x y z
#    x 1.990460 0.000000 -0.000420 
#    y 0.000000 1.982960 0.000000 
#    z -0.000420 0.000000 1.914010 
# 
# From -- ./inp_files/207898.got.cif
#   From: 2010.06.25/outbox.cif.g09.slc.cpg/sg15_104_cif.got.tgz:207898.got - 2010.06.28 07:06:18.
