data_PCOD8154856
_publ_section_title
;
Structure prediction by ZEFSAII (Michael W. Deem and Ramdas Pophale) SiO2 
 PCOD8154856
Probable space group: C 2/C
;
_chemical_formula_sum "Si O2"
_cell_formula_units_Z 44
_cell_length_a 10.002701
_cell_length_b 16.354090
_cell_length_c 17.096438
_cell_angle_alpha 90.000000
_cell_angle_beta 136.051974
_cell_angle_gamma 90.000000
_cell_volume 1940.940648
_symmetry_space_group_name_H-M "C 2/C"
_symmetry_group_IT_number 15
_symmetry_cell_setting 'monoclinic'
loop_
_space_group_symop_operation_xyz
x,y,z
-x,y,1/2-z
-x,-y,-z
x,-y,1/2+z
1/2+x,1/2+y,z
1/2-x,1/2+y,1/2-z
1/2-x,1/2-y,-z
1/2+x,1/2-y,1/2+z
loop_
_atom_site_type_symbol
_atom_site_label
_atom_site_fract_x
_atom_site_fract_y
_atom_site_fract_z
Si Si1 0.056282 0.203147 0.438324
Si Si2 0.500000 0.955995 0.750000
Si Si3 0.329211 0.460654 0.473759
Si Si4 0.310173 0.528635 0.632555
Si Si5 0.231655 0.380104 0.714083
Si Si6 0.381625 0.197995 0.994699
O O1 0.250000 0.250000 0.500000
O O2 0.143953 0.134489 0.531982
O O3 0.942471 0.161938 0.316129
O O4 0.899227 0.255781 0.419726
O O5 0.650156 0.900947 0.765773
O O6 0.382414 0.012101 0.640603
O O7 0.500000 0.500000 0.500000
O O8 0.361159 0.476049 0.578555
O O9 0.500000 0.568350 0.750000
O O10 0.225564 0.463392 0.659541
O O11 0.182917 0.605429 0.552017
O O12 0.094985 0.310704 0.619988
O O13 0.250000 0.250000 0.000000
#
# Coordination Sequence:
#
# PCOD8154856 Si02
#       6
#     8   4   8   8   8   8
#     4  12  28  47  72 111 161 190 251 327 397 439
#     4  12  24  44  80 104 152 196 276 304 370 452
#     4  12  24  48  73 111 147 203 254 315 377 469
#     4  12  25  47  81 106 145 203 265 300 375 470
#     4  12  26  49  76 106 153 207 253 319 379 471
#     4  12  28  46  76 113 152 194 255 316 396 449
#
# _framework density 22.669421
#
# number of rings (size 3 to 8) (size 9 to 14) (size 15 to 20)
#    0.000    0.000    5.455    3.818    5.091    1.455 
#    0.000    0.000    0.000    0.000    0.000    0.000 
#    0.000    0.000    0.000    0.000    0.000    0.000 
#
# Total GULP energy -272646.510024 kJ/mol
# GULP energy per Si atom -12393.023183 kJ/mol
# Density = 2.261782 g / cm^3
# Si number density = 22.669421 Si / 1000 Ang^3
#
#
#
# Elastic Constant Matrix: (Units=GPa)
#
#
# Indices 1 2 3 4 5 6 
#
# 1 132.6757 59.9299 33.8034 0.0000 -6.0686 0.0000
# 2 59.9299 144.5707 44.0591 0.0000 6.7990 0.0000
# 3 33.8034 44.0591 134.0544 -0.0001 18.5334 0.0000
# 4 0.0000 0.0000 -0.0001 30.2999 0.0000 -0.8791
# 5 -6.0686 6.7990 18.5334 0.0000 43.4474 0.0000
# 6 0.0000 0.0000 0.0000 -0.8791 0.0000 46.5560
#
#
#
# Elastic Compliance Matrix: (Units=1/GPa)
#
#
# Indices 1 2 3 4 5 6 
#
# 1 0.009721 -0.003662 -0.001610 0.000000 0.002618 0.000000
# 2 -0.003662 0.009068 -0.001902 0.000000 -0.001119 0.000000
# 3 -0.001610 -0.001902 0.009012 0.000000 -0.003771 0.000000
# 4 0.000000 0.000000 0.000000 0.033021 0.000000 0.000624
# 5 0.002618 -0.001119 -0.003771 0.000000 0.025166 0.000000
# 6 0.000000 0.000000 0.000000 0.000624 0.000000 0.021491
#
#
# Mechanical properties :
#
#
# Convention : Reuss Voigt Hill
#
# Bulk Modulus (GPa) = 74.33223 76.32064 75.32644
# Shear Modulus (GPa) = 39.58466 42.29456 40.93961
#
# Velocity S-wave (km/s) = 4.18325 4.32407 4.25425
# Velocity P-wave (km/s) = 7.49624 7.65963 7.57838
#
# Compressibility (1/GPa) = 0.01345311
#
# Stress axis : x y z
#
# Youngs Moduli (GPa) = 102.86685 110.28397 110.96283
#
# Poissons Ratio (x) = 0.40391 0.17860
# Poissons Ratio (y) = 0.37674 0.21104
# Poissons Ratio (z) = 0.16557 0.20975
#
# Static dielectric constant tensor:
#      x y z
#    x 4.162160 0.000000 -0.086690 
#    y 0.000000 4.083290 0.000000 
#    z -0.086690 0.000000 4.604710 
# 
# 
# High freq. dielectric constant tensor:
#      x y z
#    x 1.902070 0.000000 0.005970 
#    y 0.000000 1.902770 0.000000 
#    z 0.005970 0.000000 1.907510 
# 
# From -- ./inp_files/199637.got.cif
#   From: 2010.06.25/outbox.cif.g09.slc.cpg/sg15_100_cif.got.tgz:199637.got - 2010.06.28 07:06:18.
