data_PCOD8154129
_publ_section_title
;
Structure prediction by ZEFSAII (Michael W. Deem and Ramdas Pophale) SiO2 
 PCOD8154129
Probable space group: C 2/C
;
_chemical_formula_sum "Si O2"
_cell_formula_units_Z 48
_cell_length_a 15.009132
_cell_length_b 14.311279
_cell_length_c 29.760870
_cell_angle_alpha 90.000000
_cell_angle_beta 161.882854
_cell_angle_gamma 90.000000
_cell_volume 1987.858097
_symmetry_space_group_name_H-M "C 2/C"
_symmetry_group_IT_number 15
_symmetry_cell_setting 'monoclinic'
loop_
_space_group_symop_operation_xyz
x,y,z
-x,y,1/2-z
-x,-y,-z
x,-y,1/2+z
1/2+x,1/2+y,z
1/2-x,1/2+y,1/2-z
1/2-x,1/2-y,-z
1/2+x,1/2-y,1/2+z
loop_
_atom_site_type_symbol
_atom_site_label
_atom_site_fract_x
_atom_site_fract_y
_atom_site_fract_z
Si Si1 0.728674 0.763252 0.650671
Si Si2 0.913633 0.240599 0.340340
Si Si3 0.147631 0.107047 0.777917
Si Si4 0.012872 0.068541 0.964676
Si Si5 0.629405 0.050199 0.218954
Si Si6 0.941014 0.453842 0.527752
O O1 0.797040 0.744010 0.735005
O O2 0.570673 0.670967 0.556973
O O3 0.522537 0.851979 0.548339
O O4 0.000000 0.784862 0.750000
O O5 0.774576 0.317779 0.305447
O O6 0.836011 0.139345 0.322136
O O7 0.250000 0.250000 0.500000
O O8 0.000000 0.157379 0.750000
O O9 0.905132 0.040915 0.637657
O O10 0.395380 0.039855 0.919143
O O11 0.333443 0.074381 0.100911
O O12 0.788795 0.036470 0.818881
O O13 0.000000 0.000000 0.000000
O O14 0.561811 0.024226 0.135460
#
# Coordination Sequence:
#
# PCOD8154129 Si02
#       6
#     8   8   8   8   8   8
#     4  11  25  45  72 105 150 189 244 304 370 436
#     4  11  28  46  74 107 143 198 245 303 372 437
#     4  12  27  45  73 105 147 185 245 301 366 446
#     4  12  26  44  73 109 144 195 243 308 374 437
#     4  11  25  45  70 100 145 186 246 298 368 445
#     4  11  25  45  74 102 142 194 236 302 372 438
#
# _framework density 24.146592999999999
#
# number of rings (size 3 to 8) (size 9 to 14) (size 15 to 20)
#    0.000    0.667    0.000    6.500   14.000    4.000 
#    0.000    0.000    0.000    0.000    0.000    0.000 
#    0.000    0.000    0.000    0.000    0.000    0.000 
#
# Total GULP energy -297722.716691 kJ/mol
# GULP energy per Si atom -12405.113195 kJ/mol
# Density = 2.409163 g / cm^3
# Si number density = 24.146593 Si / 1000 Ang^3
#
#
#
# Elastic Constant Matrix: (Units=GPa)
#
#
# Indices 1 2 3 4 5 6 
#
# 1 102.1408 29.6627 28.2348 0.0389 17.4758 -0.0298
# 2 29.6627 88.3872 12.1274 0.1050 -10.7297 -0.1026
# 3 28.2348 12.1274 121.2293 0.1128 15.4152 -0.0748
# 4 0.0389 0.1050 0.1128 36.9743 0.0605 14.5877
# 5 17.4758 -10.7297 15.4152 0.0605 35.0564 -0.0660
# 6 -0.0298 -0.1026 -0.0748 14.5877 -0.0660 30.8370
#
#
#
# Elastic Compliance Matrix: (Units=1/GPa)
#
#
# Indices 1 2 3 4 5 6 
#
# 1 0.012927 -0.005005 -0.001585 0.000033 -0.007280 -0.000039
# 2 -0.005005 0.014041 -0.001168 -0.000079 0.007306 0.000092
# 3 -0.001585 -0.001168 0.009194 -0.000026 -0.003610 0.000021
# 4 0.000033 -0.000079 -0.000026 0.033253 -0.000116 -0.015731
# 5 -0.007280 0.007306 -0.003610 -0.000116 0.035979 0.000141
# 6 -0.000039 0.000092 0.000021 -0.015731 0.000141 0.039871
#
#
# Mechanical properties :
#
#
# Convention : Reuss Voigt Hill
#
# Bulk Modulus (GPa) = 48.43192 50.20077 49.31634
# Shear Modulus (GPa) = 29.82205 36.68903 33.25554
#
# Velocity S-wave (km/s) = 3.51813 3.90221 3.71514
# Velocity P-wave (km/s) = 6.05012 6.41390 6.23467
#
# Compressibility (1/GPa) = 0.02064754
#
# Stress axis : x y z
#
# Youngs Moduli (GPa) = 77.35549 71.22082 108.76871
#
# Poissons Ratio (x) = 0.35644 0.17235
# Poissons Ratio (y) = 0.38715 0.12703
# Poissons Ratio (z) = 0.12258 0.08318
#
# Static dielectric constant tensor:
#      x y z
#    x 5.288080 0.000550 -0.057670 
#    y 0.000550 4.366630 -0.000020 
#    z -0.057670 -0.000020 4.641070 
# 
# 
# High freq. dielectric constant tensor:
#      x y z
#    x 1.984680 0.000000 0.000000 
#    y 0.000000 1.964180 -0.000010 
#    z 0.000000 -0.000010 1.976970 
# 
# From -- ./inp_files/314115.got.cif
#   From: 2010.06.25/outbox.cif.g09.slc.cpg/sg15_158_cif.got.tgz:314115.got - 2010.06.28 07:06:18.
