data_PCOD8154641
_publ_section_title
;
Structure prediction by ZEFSAII (Michael W. Deem and Ramdas Pophale) SiO2 
 PCOD8154641
Probable space group: C 2/C
;
_chemical_formula_sum "Si O2"
_cell_formula_units_Z 40
_cell_length_a 10.721793
_cell_length_b 11.627287
_cell_length_c 24.507917
_cell_angle_alpha 90.000000
_cell_angle_beta 143.276630
_cell_angle_gamma 90.000000
_cell_volume 1826.916203
_symmetry_space_group_name_H-M "C 2/C"
_symmetry_group_IT_number 15
_symmetry_cell_setting 'monoclinic'
loop_
_space_group_symop_operation_xyz
x,y,z
-x,y,1/2-z
-x,-y,-z
x,-y,1/2+z
1/2+x,1/2+y,z
1/2-x,1/2+y,1/2-z
1/2-x,1/2-y,-z
1/2+x,1/2-y,1/2+z
loop_
_atom_site_type_symbol
_atom_site_label
_atom_site_fract_x
_atom_site_fract_y
_atom_site_fract_z
Si Si1 0.202522 0.275593 0.349394
Si Si2 0.519801 0.960337 0.360731
Si Si3 0.034689 0.067117 0.700503
Si Si4 0.176214 0.575670 0.032414
Si Si5 0.559697 0.227941 0.394105
O O1 0.141719 0.400974 0.352981
O O2 0.303917 0.198646 0.432144
O O3 0.364563 0.282265 0.357374
O O4 0.000000 0.218036 0.250000
O O5 0.275701 0.937007 0.268892
O O6 0.608444 0.903286 0.446732
O O7 0.553605 0.096601 0.373649
O O8 0.000000 0.026201 0.750000
O O9 0.936560 0.195333 0.659427
O O10 0.902240 0.984551 0.614181
O O11 0.000000 0.500000 0.000000
O O12 0.750000 0.250000 0.500000
#
# Coordination Sequence:
#
# PCOD8154641 Si02
#       5
#     8   8   8   8   8
#     4  12  25  46  71 102 143 185 237 303 363 432
#     4  12  26  44  73 103 136 192 242 288 372 440
#     4  12  24  43  71 100 136 185 237 299 359 437
#     4  12  22  44  71 100 139 187 240 294 364 438
#     4  12  25  48  68 100 149 184 235 305 361 432
#
# _framework density 21.894819999999999
#
# number of rings (size 3 to 8) (size 9 to 14) (size 15 to 20)
#    0.000    0.000    8.000    2.400    0.000    1.600 
#    0.000    0.000    0.000    0.000    0.000    0.000 
#    0.000    0.000    0.000    0.000    0.000    0.000 
#
# Total GULP energy -247975.243108 kJ/mol
# GULP energy per Si atom -12398.762155 kJ/mol
# Density = 2.184499 g / cm^3
# Si number density = 21.894820 Si / 1000 Ang^3
#
#
#
# Elastic Constant Matrix: (Units=GPa)
#
#
# Indices 1 2 3 4 5 6 
#
# 1 64.3440 18.2996 9.4295 0.0000 12.9686 0.0000
# 2 18.2996 128.1638 28.5507 0.0000 3.1900 0.0000
# 3 9.4295 28.5507 138.2831 0.0000 11.8188 0.0000
# 4 0.0000 0.0000 0.0000 40.4246 0.0000 -6.9188
# 5 12.9686 3.1900 11.8188 0.0000 33.9989 0.0000
# 6 0.0000 0.0000 0.0000 -6.9188 0.0000 29.8933
#
#
#
# Elastic Compliance Matrix: (Units=1/GPa)
#
#
# Indices 1 2 3 4 5 6 
#
# 1 0.017512 -0.002303 -0.000171 0.000000 -0.006404 0.000000
# 2 -0.002303 0.008483 -0.001650 0.000000 0.000656 0.000000
# 3 -0.000171 -0.001650 0.007797 0.000000 -0.002490 0.000000
# 4 0.000000 0.000000 0.000000 0.025758 0.000000 0.005962
# 5 -0.006404 0.000656 -0.002490 0.000000 0.032660 0.000000
# 6 0.000000 0.000000 0.000000 0.005962 0.000000 0.034832
#
#
# Mechanical properties :
#
#
# Convention : Reuss Voigt Hill
#
# Bulk Modulus (GPa) = 39.15042 49.26115 44.20579
# Shear Modulus (GPa) = 34.76936 39.16411 36.96673
#
# Velocity S-wave (km/s) = 3.98932 4.23394 4.11345
# Velocity P-wave (km/s) = 6.25616 6.81538 6.54175
#
# Compressibility (1/GPa) = 0.02554251
#
# Stress axis : x y z
#
# Youngs Moduli (GPa) = 57.10261 117.88762 128.25760
#
# Poissons Ratio (x) = 0.27148 0.02197
# Poissons Ratio (y) = 0.13150 0.21168
# Poissons Ratio (z) = 0.00978 0.19457
#
# Static dielectric constant tensor:
#      x y z
#    x 3.214470 0.000000 1.053460 
#    y 0.000000 3.598790 0.000000 
#    z 1.053460 0.000000 2.639060 
# 
# 
# High freq. dielectric constant tensor:
#      x y z
#    x 1.845350 0.000000 0.000240 
#    y 0.000000 1.862090 0.000000 
#    z 0.000240 0.000000 1.893440 
# 
# From -- ./inp_files/141766.got.cif
#   From: 2010.06.25/outbox.cif.g09.slc.cpg/sg15_71_cif.got.tgz:141766.got - 2010.06.28 07:06:18.
