data_PCOD8154944
_publ_section_title
;
Structure prediction by ZEFSAII (Michael W. Deem and Ramdas Pophale) SiO2 
 PCOD8154944
Probable space group: C 2/C
;
_chemical_formula_sum "Si O2"
_cell_formula_units_Z 32
_cell_length_a 8.251517
_cell_length_b 14.045142
_cell_length_c 11.469786
_cell_angle_alpha 90.000000
_cell_angle_beta 88.933260
_cell_angle_gamma 90.000000
_cell_volume 1329.045879
_symmetry_space_group_name_H-M "C 2/C"
_symmetry_group_IT_number 15
_symmetry_cell_setting 'monoclinic'
loop_
_space_group_symop_operation_xyz
x,y,z
-x,y,1/2-z
-x,-y,-z
x,-y,1/2+z
1/2+x,1/2+y,z
1/2-x,1/2+y,1/2-z
1/2-x,1/2-y,-z
1/2+x,1/2-y,1/2+z
loop_
_atom_site_type_symbol
_atom_site_label
_atom_site_fract_x
_atom_site_fract_y
_atom_site_fract_z
Si Si1 0.399881 0.095246 0.039143
Si Si2 0.827132 0.347716 0.295831
Si Si3 0.317833 0.540985 0.257105
Si Si4 0.190907 0.291431 0.624007
O O1 0.237754 0.073948 0.114103
O O2 0.512151 0.164336 0.115266
O O3 0.329793 0.159970 0.935173
O O4 0.500000 0.000000 0.000000
O O5 0.807745 0.458932 0.272045
O O6 0.691162 0.288074 0.227055
O O7 0.000000 0.310477 0.250000
O O8 0.500000 0.501204 0.250000
O O9 0.311502 0.624386 0.161356
O O10 0.250000 0.250000 0.500000
#
# Coordination Sequence:
#
# PCOD8154944 Si02
#       4
#     8   8   8   8
#     4  12  24  51  81 107 153 206 253 317 383 451
#     4  12  24  48  80 112 152 199 252 317 386 448
#     4  12  28  48  73 113 158 200 254 314 379 456
#     4  12  25  47  79 112 148 201 259 315 383 454
#
# _framework density 24.077424000000001
#
# number of rings (size 3 to 8) (size 9 to 14) (size 15 to 20)
#    0.000    0.000    7.500    1.500    0.000    4.000 
#    4.500    0.000    0.000    0.000    0.000    0.000 
#    0.000    0.000    0.000    0.000    0.000    0.000 
#
# Total GULP energy -198363.234460 kJ/mol
# GULP energy per Si atom -12397.702154 kJ/mol
# Density = 2.402262 g / cm^3
# Si number density = 24.077424 Si / 1000 Ang^3
#
#
#
# Elastic Constant Matrix: (Units=GPa)
#
#
# Indices 1 2 3 4 5 6 
#
# 1 113.4600 22.4833 70.0583 0.0000 -17.1495 0.0000
# 2 22.4833 123.0091 55.4641 0.0000 14.7287 0.0000
# 3 70.0583 55.4641 159.0688 0.0000 20.3279 0.0000
# 4 0.0000 0.0000 0.0000 187.4350 0.0000 136.9767
# 5 -17.1495 14.7287 20.3279 0.0000 37.4027 0.0000
# 6 0.0000 0.0000 0.0000 136.9767 0.0000 150.2210
#
#
#
# Elastic Compliance Matrix: (Units=1/GPa)
#
#
# Indices 1 2 3 4 5 6 
#
# 1 0.015901 -0.000590 -0.008338 0.000000 0.012055 0.000000
# 2 -0.000590 0.009827 -0.002834 0.000000 -0.002600 0.000000
# 3 -0.008338 -0.002834 0.012136 0.000000 -0.009303 0.000000
# 4 0.000000 0.000000 0.000000 0.015991 0.000000 -0.014581
# 5 0.012055 -0.002600 -0.009303 0.000000 0.038343 0.000000
# 6 0.000000 0.000000 0.000000 -0.014581 0.000000 0.019952
#
#
# Mechanical properties :
#
#
# Convention : Reuss Voigt Hill
#
# Bulk Modulus (GPa) = 69.74042 76.83882 73.28962
# Shear Modulus (GPa) = 35.59859 91.51387 63.55623
#
# Velocity S-wave (km/s) = 3.84930 6.17176 5.14334
# Velocity P-wave (km/s) = 6.98456 9.09781 8.11031
#
# Compressibility (1/GPa) = 0.01433889
#
# Stress axis : x y z
#
# Youngs Moduli (GPa) = 62.88802 101.76503 82.39978
#
# Poissons Ratio (x) = 0.06006 0.68706
# Poissons Ratio (y) = 0.03712 0.23353
# Poissons Ratio (z) = 0.52437 0.28842
#
# Static dielectric constant tensor:
#      x y z
#    x 3.975290 0.000000 0.247680 
#    y 0.000000 4.434560 0.000000 
#    z 0.247680 0.000000 4.584240 
# 
# 
# High freq. dielectric constant tensor:
#      x y z
#    x 1.942370 0.000000 0.010440 
#    y 0.000000 1.962940 0.000000 
#    z 0.010440 0.000000 1.971950 
# 
# From -- ./inp_files/75312.got.cif
#   From: 2010.06.25/outbox.cif.g09.slc.cpg/sg15_38_cif.got.tgz:75312.got - 2010.06.28 07:06:18.
