data_PCOD8154340
_publ_section_title
;
Structure prediction by ZEFSAII (Michael W. Deem and Ramdas Pophale) SiO2 
 PCOD8154340
Probable space group: C 2/C
;
_chemical_formula_sum "Si O2"
_cell_formula_units_Z 40
_cell_length_a 11.891727
_cell_length_b 8.599718
_cell_length_c 18.699079
_cell_angle_alpha 90.000000
_cell_angle_beta 106.260951
_cell_angle_gamma 90.000000
_cell_volume 1835.772840
_symmetry_space_group_name_H-M "C 2/C"
_symmetry_group_IT_number 15
_symmetry_cell_setting 'monoclinic'
loop_
_space_group_symop_operation_xyz
x,y,z
-x,y,1/2-z
-x,-y,-z
x,-y,1/2+z
1/2+x,1/2+y,z
1/2-x,1/2+y,1/2-z
1/2-x,1/2-y,-z
1/2+x,1/2-y,1/2+z
loop_
_atom_site_type_symbol
_atom_site_label
_atom_site_fract_x
_atom_site_fract_y
_atom_site_fract_z
Si Si1 0.593785 0.952407 0.074931
Si Si2 0.307993 0.593868 0.039003
Si Si3 0.038023 0.648841 0.337112
Si Si4 0.009411 0.000099 0.667057
Si Si5 0.187182 0.890316 0.597585
O O1 0.615446 0.769554 0.081335
O O2 0.719206 0.020659 0.079163
O O3 0.544506 0.022831 0.139380
O O4 0.500000 0.000000 0.000000
O O5 0.424392 0.617648 0.107826
O O6 0.250000 0.750000 0.000000
O O7 0.343342 0.484352 0.979370
O O8 0.020152 0.824030 0.360633
O O9 0.173959 0.615601 0.372683
O O10 0.000000 0.633499 0.250000
O O11 0.000000 0.968710 0.750000
O O12 0.141298 0.973213 0.661918
#
# Coordination Sequence:
#
# PCOD8154340 Si02
#       5
#     8   8   8   8   8
#     4  12  23  43  72 101 134 180 232 284 342 412
#     4  12  24  45  72 102 138 188 233 286 349 412
#     4  11  26  45  69 104 140 184 229 287 354 413
#     4  11  26  47  69 103 143 179 230 290 347 415
#     4  12  25  46  70 101 143 179 234 291 339 417
#
# _framework density 21.789187999999999
#
# number of rings (size 3 to 8) (size 9 to 14) (size 15 to 20)
#    0.000    0.400    4.000    4.800    2.800    0.800 
#    0.000    0.000    0.000    0.000    0.000    0.000 
#    0.000    0.000    0.000    0.000    0.000    0.000 
#
# Total GULP energy -247962.384115 kJ/mol
# GULP energy per Si atom -12398.119206 kJ/mol
# Density = 2.173959 g / cm^3
# Si number density = 21.789188 Si / 1000 Ang^3
#
#
#
# Elastic Constant Matrix: (Units=GPa)
#
#
# Indices 1 2 3 4 5 6 
#
# 1 118.6806 56.0548 52.5826 0.0000 -42.7390 0.0000
# 2 56.0548 120.9103 56.9215 0.0000 -15.2532 0.0000
# 3 52.5826 56.9215 115.5837 0.0000 -6.4473 0.0000
# 4 0.0000 0.0000 0.0000 126.9436 0.0000 25.8317
# 5 -42.7390 -15.2532 -6.4473 0.0000 36.5672 0.0000
# 6 0.0000 0.0000 0.0000 25.8317 0.0000 57.4612
#
#
#
# Elastic Compliance Matrix: (Units=1/GPa)
#
#
# Indices 1 2 3 4 5 6 
#
# 1 0.020925 -0.003976 -0.006352 0.000000 0.021678 0.000000
# 2 -0.003976 0.012010 -0.004126 0.000000 -0.000364 0.000000
# 3 -0.006352 -0.004126 0.013193 0.000000 -0.006819 0.000000
# 4 0.000000 0.000000 0.000000 0.008671 0.000000 -0.003898
# 5 0.021678 -0.000364 -0.006819 0.000000 0.051330 0.000000
# 6 0.000000 0.000000 0.000000 -0.003898 0.000000 0.019155
#
#
# Mechanical properties :
#
#
# Convention : Reuss Voigt Hill
#
# Bulk Modulus (GPa) = 58.07230 76.25471 67.16350
# Shear Modulus (GPa) = 31.26305 56.83542 44.04924
#
# Velocity S-wave (km/s) = 3.79198 5.11281 4.50111
# Velocity P-wave (km/s) = 6.77362 8.36224 7.60950
#
# Compressibility (1/GPa) = 0.01721991
#
# Stress axis : x y z
#
# Youngs Moduli (GPa) = 47.78989 83.26118 75.79583
#
# Poissons Ratio (x) = 0.33102 0.48148
# Poissons Ratio (y) = 0.19000 0.31277
# Poissons Ratio (z) = 0.30357 0.34357
#
# Static dielectric constant tensor:
#      x y z
#    x 4.155300 0.000000 -0.204330 
#    y 0.000000 6.383010 0.000000 
#    z -0.204330 0.000000 3.908670 
# 
# 
# High freq. dielectric constant tensor:
#      x y z
#    x 1.882790 0.000000 -0.008950 
#    y 0.000000 1.862260 0.000000 
#    z -0.008950 0.000000 1.859060 
# 
# From -- ./inp_files/195183.got.cif
#   From: 2010.06.25/outbox.cif.g09.slc.cpg/sg15_98_cif.got.tgz:195183.got - 2010.06.28 07:06:18.
