data_PCOD8154424
_publ_section_title
;
Structure prediction by ZEFSAII (Michael W. Deem and Ramdas Pophale) SiO2 
 PCOD8154424
Probable space group: C 2/C
;
_chemical_formula_sum "Si O2"
_cell_formula_units_Z 24
_cell_length_a 21.097294
_cell_length_b 4.789650
_cell_length_c 18.876966
_cell_angle_alpha 90.000000
_cell_angle_beta 154.088203
_cell_angle_gamma 90.000000
_cell_volume 833.549201
_symmetry_space_group_name_H-M "C 2/C"
_symmetry_group_IT_number 15
_symmetry_cell_setting 'monoclinic'
loop_
_space_group_symop_operation_xyz
x,y,z
-x,y,1/2-z
-x,-y,-z
x,-y,1/2+z
1/2+x,1/2+y,z
1/2-x,1/2+y,1/2-z
1/2-x,1/2-y,-z
1/2+x,1/2-y,1/2+z
loop_
_atom_site_type_symbol
_atom_site_label
_atom_site_fract_x
_atom_site_fract_y
_atom_site_fract_z
Si Si1 0.967039 0.340206 0.856342
Si Si2 0.659985 0.732869 0.175403
Si Si3 0.254005 0.007865 0.950592
O O1 0.862144 0.604438 0.771337
O O2 0.888189 0.075401 0.740693
O O3 0.019238 0.205124 0.983702
O O4 0.095451 0.481681 0.940858
O O5 0.731133 0.431950 0.261286
O O6 0.250000 0.750000 0.000000
O O7 0.250000 0.250000 0.000000
#
# Coordination Sequence:
#
# PCOD8154424 Si02
#       3
#     8   8   8
#     4  11  27  54  82 124 165 216 285 338 423 491
#     4  11  26  49  86 124 165 213 268 363 416 489
#     4  12  30  52  80 117 171 226 277 334 404 502
#
# _framework density 28.792539999999999
#
# number of rings (size 3 to 8) (size 9 to 14) (size 15 to 20)
#    0.000    0.667    3.333    1.000    4.667   16.000 
#    0.000    0.000    0.000    0.000    0.000    0.000 
#    0.000    0.000    0.000    0.000    0.000    0.000 
#
# Total GULP energy -148705.840417 kJ/mol
# GULP energy per Si atom -12392.153368 kJ/mol
# Density = 2.872701 g / cm^3
# Si number density = 28.792540 Si / 1000 Ang^3
#
#
#
# Elastic Constant Matrix: (Units=GPa)
#
#
# Indices 1 2 3 4 5 6 
#
# 1 147.7495 32.2139 47.5763 0.0003 5.1403 0.0000
# 2 32.2139 157.4724 64.5038 0.0020 -19.8983 0.0011
# 3 47.5763 64.5038 157.6364 0.0001 -3.7463 0.0001
# 4 0.0003 0.0020 0.0001 35.3066 0.0002 -6.9716
# 5 5.1403 -19.8983 -3.7463 0.0002 56.9670 0.0000
# 6 0.0000 0.0011 0.0001 -6.9716 0.0000 63.8572
#
#
#
# Elastic Compliance Matrix: (Units=1/GPa)
#
#
# Indices 1 2 3 4 5 6 
#
# 1 0.007636 -0.000901 -0.001963 0.000000 -0.001133 0.000000
# 2 -0.000901 0.008097 -0.002977 0.000000 0.002714 0.000000
# 3 -0.001963 -0.002977 0.008146 0.000000 -0.000327 0.000000
# 4 0.000000 0.000000 0.000000 0.028947 0.000000 0.003160
# 5 -0.001133 0.002714 -0.000327 0.000000 0.018583 0.000000
# 6 0.000000 0.000000 0.000000 0.003160 0.000000 0.016005
#
#
# Mechanical properties :
#
#
# Convention : Reuss Voigt Hill
#
# Bulk Modulus (GPa) = 81.98120 83.49404 82.73762
# Shear Modulus (GPa) = 48.46746 52.46377 50.46562
#
# Velocity S-wave (km/s) = 4.10730 4.27327 4.19111
# Velocity P-wave (km/s) = 7.14339 7.30816 7.22625
#
# Compressibility (1/GPa) = 0.01219792
#
# Stress axis : x y z
#
# Youngs Moduli (GPa) = 130.95570 123.50367 122.75379
#
# Poissons Ratio (x) = 0.11131 0.24094
# Poissons Ratio (y) = 0.11803 0.36540
# Poissons Ratio (z) = 0.25704 0.36763
#
# Static dielectric constant tensor:
#      x y z
#    x 5.767710 0.000000 0.056710 
#    y 0.000000 5.329650 0.000000 
#    z 0.056710 0.000000 5.423090 
# 
# 
# High freq. dielectric constant tensor:
#      x y z
#    x 2.204770 0.000000 0.006970 
#    y 0.000000 2.194280 0.000000 
#    z 0.006970 0.000000 2.173530 
# 
# From -- ./inp_files/282950.got.cif
#   From: 2010.06.25/outbox.cif.g09.slc.cpg/sg15_142_cif.got.tgz:282950.got - 2010.06.28 07:06:18.
