data_PCOD8154728
_publ_section_title
;
Structure prediction by ZEFSAII (Michael W. Deem and Ramdas Pophale) SiO2 
 PCOD8154728
Probable space group: C 2/C
;
_chemical_formula_sum "Si O2"
_cell_formula_units_Z 36
_cell_length_a 6.601882
_cell_length_b 13.277111
_cell_length_c 23.916864
_cell_angle_alpha 90.000000
_cell_angle_beta 46.388113
_cell_angle_gamma 90.000000
_cell_volume 1517.858904
_symmetry_space_group_name_H-M "C 2/C"
_symmetry_group_IT_number 15
_symmetry_cell_setting 'monoclinic'
loop_
_space_group_symop_operation_xyz
x,y,z
-x,y,1/2-z
-x,-y,-z
x,-y,1/2+z
1/2+x,1/2+y,z
1/2-x,1/2+y,1/2-z
1/2-x,1/2-y,-z
1/2+x,1/2-y,1/2+z
loop_
_atom_site_type_symbol
_atom_site_label
_atom_site_fract_x
_atom_site_fract_y
_atom_site_fract_z
Si Si1 0.076324 0.166900 0.998128
Si Si2 0.043485 0.622429 0.346133
Si Si3 0.431481 0.336046 0.128939
Si Si4 0.000000 0.502527 0.750000
Si Si5 0.929033 0.461022 0.073382
O O1 0.791973 0.137023 0.083808
O O2 0.250000 0.250000 0.000000
O O3 0.005787 0.195082 0.947292
O O4 0.280732 0.071749 0.953605
O O5 0.131870 0.570270 0.271342
O O6 0.181450 0.733715 0.320707
O O7 0.182895 0.553470 0.367905
O O8 0.713765 0.368507 0.107808
O O9 0.219683 0.427623 0.176055
O O10 0.000000 0.500000 0.000000
#
# Coordination Sequence:
#
# PCOD8154728 Si02
#       5
#     8   8   8   4   8
#     4  12  23  46  78 112 145 185 249 318 361 427
#     4  12  26  48  76 109 147 195 245 305 373 435
#     4  12  27  49  73 108 149 195 249 304 367 437
#     4  12  30  48  70 108 154 198 242 288 368 466
#     4  12  23  43  78 109 146 185 245 308 371 427
#
# _framework density 23.717618000000002
#
# number of rings (size 3 to 8) (size 9 to 14) (size 15 to 20)
#    0.000    0.000    6.667    4.000    0.000    6.222 
#    0.000    0.000    0.000    0.000    0.000    0.000 
#    0.000    0.000    0.000    0.000    0.000    0.000 
#
# Total GULP energy -223152.274339 kJ/mol
# GULP energy per Si atom -12397.348574 kJ/mol
# Density = 2.366364 g / cm^3
# Si number density = 23.717618 Si / 1000 Ang^3
#
#
#
# Elastic Constant Matrix: (Units=GPa)
#
#
# Indices 1 2 3 4 5 6 
#
# 1 89.7628 38.1853 23.2967 -0.0038 16.7650 0.0039
# 2 38.1853 154.5999 31.3514 -0.0008 34.0506 0.0005
# 3 23.2967 31.3514 80.4805 -0.0033 27.3076 0.0031
# 4 -0.0038 -0.0008 -0.0033 35.9329 0.0029 9.8923
# 5 16.7650 34.0506 27.3076 0.0029 48.0513 -0.0021
# 6 0.0039 0.0005 0.0031 9.8923 -0.0021 50.7773
#
#
#
# Elastic Compliance Matrix: (Units=1/GPa)
#
#
# Indices 1 2 3 4 5 6 
#
# 1 0.013056 -0.002419 -0.002321 0.000002 -0.001522 -0.000001
# 2 -0.002419 0.008245 -0.001010 0.000000 -0.004425 0.000000
# 3 -0.002321 -0.001010 0.016072 0.000002 -0.007608 -0.000002
# 4 0.000002 0.000000 0.000002 0.029407 -0.000004 -0.005729
# 5 -0.001522 -0.004425 -0.007608 -0.000004 0.028801 0.000003
# 6 -0.000001 0.000000 -0.000002 -0.005729 0.000003 0.020810
#
#
# Mechanical properties :
#
#
# Convention : Reuss Voigt Hill
#
# Bulk Modulus (GPa) = 38.64915 56.72334 47.68625
# Shear Modulus (GPa) = 36.62577 42.41962 39.52270
#
# Velocity S-wave (km/s) = 3.93395 4.23369 4.08657
# Velocity P-wave (km/s) = 6.07993 6.91859 6.51277
#
# Compressibility (1/GPa) = 0.02587379
#
# Stress axis : x y z
#
# Youngs Moduli (GPa) = 76.59279 121.28281 62.21918
#
# Poissons Ratio (x) = 0.29337 0.14438
# Poissons Ratio (y) = 0.18527 0.06287
# Poissons Ratio (z) = 0.17773 0.12255
#
# Static dielectric constant tensor:
#      x y z
#    x 13.824000 0.000100 -0.202720 
#    y 0.000100 4.654990 -0.000010 
#    z -0.202720 -0.000010 4.017330 
# 
# 
# High freq. dielectric constant tensor:
#      x y z
#    x 1.943620 0.000000 0.007700 
#    y 0.000000 1.966780 0.000000 
#    z 0.007700 0.000000 1.922170 
# 
# From -- ./inp_files/226462.got.cif
#   From: 2010.06.25/outbox.cif.g09.slc.cpg/sg15_114_cif.got.tgz:226462.got - 2010.06.28 07:06:18.
