data_PCOD8154083
_publ_section_title
;
Structure prediction by ZEFSAII (Michael W. Deem and Ramdas Pophale) SiO2 
 PCOD8154083
Probable space group: C 2/C
;
_chemical_formula_sum "Si O2"
_cell_formula_units_Z 40
_cell_length_a 10.914906
_cell_length_b 14.254626
_cell_length_c 12.410610
_cell_angle_alpha 90.000000
_cell_angle_beta 110.244704
_cell_angle_gamma 90.000000
_cell_volume 1811.653681
_symmetry_space_group_name_H-M "C 2/C"
_symmetry_group_IT_number 15
_symmetry_cell_setting 'monoclinic'
loop_
_space_group_symop_operation_xyz
x,y,z
-x,y,1/2-z
-x,-y,-z
x,-y,1/2+z
1/2+x,1/2+y,z
1/2-x,1/2+y,1/2-z
1/2-x,1/2-y,-z
1/2+x,1/2-y,1/2+z
loop_
_atom_site_type_symbol
_atom_site_label
_atom_site_fract_x
_atom_site_fract_y
_atom_site_fract_z
Si Si1 0.210224 0.850431 0.176686
Si Si2 0.198438 0.315442 0.831693
Si Si3 0.953215 0.222692 0.529903
Si Si4 0.144934 0.510757 0.178160
Si Si5 0.408359 0.888128 0.049566
O O1 0.229860 0.750730 0.240364
O O2 0.305620 0.851624 0.104252
O O3 0.061388 0.856411 0.088954
O O4 0.240447 0.933984 0.269687
O O5 0.082457 0.274595 0.869550
O O6 0.152175 0.416586 0.778311
O O7 0.328614 0.329381 0.942440
O O8 0.007524 0.300344 0.464791
O O9 0.003587 0.461796 0.136857
O O10 0.168792 0.561209 0.071073
#
# Coordination Sequence:
#
# PCOD8154083 Si02
#       5
#     8   8   8   8   8
#     4  12  25  43  73 106 138 178 233 294 343 405
#     4  11  26  46  73 100 142 189 227 285 353 413
#     4  11  25  46  71 102 142 182 235 284 350 415
#     4  11  26  43  73 103 138 184 233 283 348 416
#     4  11  25  43  73 106 135 181 244 280 338 427
#
# _framework density 22.079274999999999
#
# number of rings (size 3 to 8) (size 9 to 14) (size 15 to 20)
#    0.000    0.800    4.000    1.800    8.400    0.800 
#    0.000    2.000    0.000    0.000    0.000    0.000 
#    0.000    0.000    0.000    0.000    0.000    0.000 
#
# Total GULP energy -248126.864954 kJ/mol
# GULP energy per Si atom -12406.343248 kJ/mol
# Density = 2.202902 g / cm^3
# Si number density = 22.079275 Si / 1000 Ang^3
#
#
#
# Elastic Constant Matrix: (Units=GPa)
#
#
# Indices 1 2 3 4 5 6 
#
# 1 103.9999 36.0698 44.5298 0.0000 -1.9616 0.0000
# 2 36.0698 100.1295 43.3718 0.0000 15.2287 0.0000
# 3 44.5298 43.3718 108.1243 0.0000 8.4352 0.0000
# 4 0.0000 0.0000 0.0000 59.9320 0.0000 10.2243
# 5 -1.9616 15.2287 8.4352 0.0000 28.5350 0.0000
# 6 0.0000 0.0000 0.0000 10.2243 0.0000 26.6334
#
#
#
# Elastic Compliance Matrix: (Units=1/GPa)
#
#
# Indices 1 2 3 4 5 6 
#
# 1 0.012629 -0.003335 -0.004166 0.000000 0.003879 0.000000
# 2 -0.003335 0.013751 -0.003636 0.000000 -0.006493 0.000000
# 3 -0.004166 -0.003636 0.012584 0.000000 -0.002066 0.000000
# 4 0.000000 0.000000 0.000000 0.017855 0.000000 -0.006854
# 5 0.003879 -0.006493 -0.002066 0.000000 0.039387 0.000000
# 6 0.000000 0.000000 0.000000 -0.006854 0.000000 0.040178
#
#
# Mechanical properties :
#
#
# Convention : Reuss Voigt Hill
#
# Bulk Modulus (GPa) = 59.91530 62.24405 61.07968
# Shear Modulus (GPa) = 30.44676 35.57223 33.00950
#
# Velocity S-wave (km/s) = 3.71748 4.01822 3.87078
# Velocity P-wave (km/s) = 6.75438 7.05553 6.90660
#
# Compressibility (1/GPa) = 0.01669023
#
# Stress axis : x y z
#
# Youngs Moduli (GPa) = 79.18317 72.72300 79.46597
#
# Poissons Ratio (x) = 0.24252 0.33106
# Poissons Ratio (y) = 0.26406 0.28893
# Poissons Ratio (z) = 0.32988 0.26441
#
# Static dielectric constant tensor:
#      x y z
#    x 3.879520 0.000000 0.202060 
#    y 0.000000 4.005390 0.000000 
#    z 0.202060 0.000000 4.363670 
# 
# 
# High freq. dielectric constant tensor:
#      x y z
#    x 1.861850 0.000000 0.004670 
#    y 0.000000 1.861610 0.000000 
#    z 0.004670 0.000000 1.897130 
# 
# From -- ./inp_files/86241.got.cif
#   From: 2010.06.25/outbox.cif.g09.slc.cpg/sg15_44_cif.got.tgz:86241.got - 2010.06.28 07:06:18.
