data_PCOD8154150
_publ_section_title
;
Structure prediction by ZEFSAII (Michael W. Deem and Ramdas Pophale) SiO2 
 PCOD8154150
Probable space group: C 2/C
;
_chemical_formula_sum "Si O2"
_cell_formula_units_Z 40
_cell_length_a 20.520492
_cell_length_b 6.294884
_cell_length_c 19.040989
_cell_angle_alpha 90.000000
_cell_angle_beta 48.717176
_cell_angle_gamma 90.000000
_cell_volume 1848.298028
_symmetry_space_group_name_H-M "C 2/C"
_symmetry_group_IT_number 15
_symmetry_cell_setting 'monoclinic'
loop_
_space_group_symop_operation_xyz
x,y,z
-x,y,1/2-z
-x,-y,-z
x,-y,1/2+z
1/2+x,1/2+y,z
1/2-x,1/2+y,1/2-z
1/2-x,1/2-y,-z
1/2+x,1/2-y,1/2+z
loop_
_atom_site_type_symbol
_atom_site_label
_atom_site_fract_x
_atom_site_fract_y
_atom_site_fract_z
Si Si1 0.038662 0.587960 0.900796
Si Si2 0.840429 0.033753 0.133494
Si Si3 0.666205 0.234599 0.236701
Si Si4 0.787316 0.056159 0.929380
Si Si5 0.633432 0.744766 0.014062
O O1 0.098442 0.783002 0.880643
O O2 0.089365 0.415085 0.818083
O O3 0.000000 0.500000 0.000000
O O4 0.959823 0.649451 0.904948
O O5 0.754088 0.110442 0.155811
O O6 0.808746 0.901446 0.222098
O O7 0.886026 0.885007 0.043713
O O8 0.646729 0.358370 0.177754
O O9 0.707995 0.922757 0.951103
O O10 0.750000 0.250000 0.000000
O O11 0.845339 0.905819 0.936236
#
# Coordination Sequence:
#
# PCOD8154150 Si02
#       5
#     8   8   8   8   8
#     4  12  26  42  72 107 139 177 236 299 352 409
#     4  12  23  44  74 102 134 177 239 292 347 417
#     4  12  24  41  72 105 135 183 236 285 351 426
#     4  11  25  46  74  96 145 192 228 281 359 429
#     4  11  25  45  72 104 140 186 236 290 355 419
#
# _framework density 21.641531000000001
#
# number of rings (size 3 to 8) (size 9 to 14) (size 15 to 20)
#    0.000    0.400    6.000    3.000    0.000    0.000 
#    0.000    6.000    0.000    0.000    0.000    0.000 
#    0.000    0.000    0.000    0.000    0.000    0.000 
#
# Total GULP energy -247998.878620 kJ/mol
# GULP energy per Si atom -12399.943931 kJ/mol
# Density = 2.159227 g / cm^3
# Si number density = 21.641531 Si / 1000 Ang^3
#
#
#
# Elastic Constant Matrix: (Units=GPa)
#
#
# Indices 1 2 3 4 5 6 
#
# 1 115.9992 56.5351 65.7976 -0.0004 -6.1522 0.0023
# 2 56.5351 123.0856 60.8203 -0.0116 0.1393 -0.0199
# 3 65.7976 60.8203 117.5481 0.0035 3.9952 -0.0028
# 4 -0.0004 -0.0116 0.0035 48.9316 -0.0017 5.2997
# 5 -6.1522 0.1393 3.9952 -0.0017 39.6636 -0.0002
# 6 0.0023 -0.0199 -0.0028 5.2997 -0.0002 31.4867
#
#
#
# Elastic Compliance Matrix: (Units=1/GPa)
#
#
# Indices 1 2 3 4 5 6 
#
# 1 0.013877 -0.003348 -0.006130 0.000000 0.002782 -0.000004
# 2 -0.003348 0.011734 -0.004192 0.000002 -0.000138 0.000007
# 3 -0.006130 -0.004192 0.014188 -0.000002 -0.002365 -0.000001
# 4 0.000000 0.000002 -0.000002 0.020816 0.000001 -0.003504
# 5 0.002782 -0.000138 -0.002365 0.000001 0.025882 0.000000
# 6 -0.000004 0.000007 -0.000001 -0.003504 0.000000 0.032349
#
#
# Mechanical properties :
#
#
# Convention : Reuss Voigt Hill
#
# Bulk Modulus (GPa) = 80.26900 80.32654 80.29777
# Shear Modulus (GPa) = 33.25784 35.58171 34.41978
#
# Velocity S-wave (km/s) = 3.92441 4.05920 3.99237
# Velocity P-wave (km/s) = 7.59641 7.69200 7.64435
#
# Compressibility (1/GPa) = 0.01245811
#
# Stress axis : x y z
#
# Youngs Moduli (GPa) = 72.06105 85.22193 70.48225
#
# Poissons Ratio (x) = 0.28534 0.43205
# Poissons Ratio (y) = 0.24127 0.29549
# Poissons Ratio (z) = 0.44173 0.35729
#
# Static dielectric constant tensor:
#      x y z
#    x 3.828560 0.000050 0.079460 
#    y 0.000050 4.092770 0.000100 
#    z 0.079460 0.000100 3.974710 
# 
# 
# High freq. dielectric constant tensor:
#      x y z
#    x 1.848750 0.000000 0.004450 
#    y 0.000000 1.873290 0.000000 
#    z 0.004450 0.000000 1.849670 
# 
# From -- ./inp_files/251003.got.cif
#   From: 2010.06.25/outbox.cif.g09.slc.cpg/sg15_126_cif.got.tgz:251003.got - 2010.06.28 07:06:18.
