data_PCOD8154646
_publ_section_title
;
Structure prediction by ZEFSAII (Michael W. Deem and Ramdas Pophale) SiO2 
 PCOD8154646
Probable space group: C 2/C
;
_chemical_formula_sum "Si O2"
_cell_formula_units_Z 44
_cell_length_a 20.749058
_cell_length_b 10.977077
_cell_length_c 10.871528
_cell_angle_alpha 90.000000
_cell_angle_beta 130.952357
_cell_angle_gamma 90.000000
_cell_volume 1870.118847
_symmetry_space_group_name_H-M "C 2/C"
_symmetry_group_IT_number 15
_symmetry_cell_setting 'monoclinic'
loop_
_space_group_symop_operation_xyz
x,y,z
-x,y,1/2-z
-x,-y,-z
x,-y,1/2+z
1/2+x,1/2+y,z
1/2-x,1/2+y,1/2-z
1/2-x,1/2-y,-z
1/2+x,1/2-y,1/2+z
loop_
_atom_site_type_symbol
_atom_site_label
_atom_site_fract_x
_atom_site_fract_y
_atom_site_fract_z
Si Si1 0.043747 0.541119 0.427556
Si Si2 0.500000 0.472142 0.250000
Si Si3 0.495519 0.710078 0.529211
Si Si4 0.262213 0.026102 0.321484
Si Si5 0.678573 0.725604 0.637778
Si Si6 0.137640 0.862644 0.844082
O O1 0.036894 0.686539 0.418642
O O2 0.139971 0.500953 0.532419
O O3 0.000000 0.487119 0.250000
O O4 0.000000 0.500000 0.500000
O O5 0.493364 0.406639 0.372073
O O6 0.416128 0.553217 0.129823
O O7 0.586616 0.741784 0.584539
O O8 0.423243 0.693423 0.336054
O O9 0.262443 0.157523 0.246124
O O10 0.211509 0.051337 0.383220
O O11 0.221119 0.906899 0.208818
O O12 0.673009 0.741125 0.481252
#
# Coordination Sequence:
#
# PCOD8154646 Si02
#       6
#     8   4   8   8   8   8
#     4  12  29  50  78 109 155 205 260 321 393 459
#     4  12  22  44  72 110 154 198 252 304 386 460
#     4  12  24  48  75 112 151 204 251 318 388 461
#     4  12  28  47  76 112 151 197 259 324 382 456
#     4  12  26  48  76 112 153 202 257 320 385 462
#     4  12  25  44  78 109 153 199 262 311 383 469
#
# _framework density 23.527915
#
# number of rings (size 3 to 8) (size 9 to 14) (size 15 to 20)
#    0.000    0.000    6.364    3.273    5.091    0.000 
#    0.000    2.727    0.000    0.000    0.000    0.000 
#    0.000    0.000    0.000    0.000    0.000    0.000 
#
# Total GULP energy -272602.468478 kJ/mol
# GULP energy per Si atom -12391.021294 kJ/mol
# Density = 2.347436 g / cm^3
# Si number density = 23.527915 Si / 1000 Ang^3
#
#
#
# Elastic Constant Matrix: (Units=GPa)
#
#
# Indices 1 2 3 4 5 6 
#
# 1 156.5152 41.3653 33.1938 0.0000 20.4447 0.0000
# 2 41.3653 135.7593 36.7708 0.0000 11.1948 0.0000
# 3 33.1938 36.7708 99.9165 0.0000 -0.7724 0.0000
# 4 0.0000 0.0000 0.0000 21.0678 0.0000 7.5288
# 5 20.4447 11.1948 -0.7724 0.0000 41.7897 0.0000
# 6 0.0000 0.0000 0.0000 7.5288 0.0000 47.6047
#
#
#
# Elastic Compliance Matrix: (Units=1/GPa)
#
#
# Indices 1 2 3 4 5 6 
#
# 1 0.007656 -0.001509 -0.002015 0.000000 -0.003379 0.000000
# 2 -0.001509 0.008695 -0.002712 0.000000 -0.001641 0.000000
# 3 -0.002015 -0.002712 0.011690 0.000000 0.001928 0.000000
# 4 0.000000 0.000000 0.000000 0.050309 0.000000 -0.007957
# 5 -0.003379 -0.001641 0.001928 0.000000 0.026058 0.000000
# 6 0.000000 0.000000 0.000000 -0.007957 0.000000 0.022265
#
#
# Mechanical properties :
#
#
# Convention : Reuss Voigt Hill
#
# Bulk Modulus (GPa) = 64.21406 68.31676 66.26541
# Shear Modulus (GPa) = 34.64185 40.81654 37.72919
#
# Velocity S-wave (km/s) = 3.84131 4.16963 4.00883
# Velocity P-wave (km/s) = 6.85757 7.23053 7.04652
#
# Compressibility (1/GPa) = 0.01557291
#
# Stress axis : x y z
#
# Youngs Moduli (GPa) = 130.60848 115.00286 85.54026
#
# Poissons Ratio (x) = 0.17350 0.17232
# Poissons Ratio (y) = 0.19704 0.23195
# Poissons Ratio (z) = 0.26311 0.31184
#
# Static dielectric constant tensor:
#      x y z
#    x 4.537440 0.000000 0.112180 
#    y 0.000000 4.895580 0.000000 
#    z 0.112180 0.000000 4.122890 
# 
# 
# High freq. dielectric constant tensor:
#      x y z
#    x 1.957550 0.000000 0.010160 
#    y 0.000000 1.952130 0.000000 
#    z 0.010160 0.000000 1.915650 
# 
# From -- ./inp_files/111278.got.cif
#   From: 2010.06.25/outbox.cif.g09.slc.cpg/sg15_56_cif.got.tgz:111278.got - 2010.06.28 07:06:18.
