data_PCOD8154861
_publ_section_title
;
Structure prediction by ZEFSAII (Michael W. Deem and Ramdas Pophale) SiO2 
 PCOD8154861
Probable space group: C 2/C
;
_chemical_formula_sum "Si O2"
_cell_formula_units_Z 36
_cell_length_a 14.534453
_cell_length_b 8.276793
_cell_length_c 21.967270
_cell_angle_alpha 90.000000
_cell_angle_beta 143.082674
_cell_angle_gamma 90.000000
_cell_volume 1587.329345
_symmetry_space_group_name_H-M "C 2/C"
_symmetry_group_IT_number 15
_symmetry_cell_setting 'monoclinic'
loop_
_space_group_symop_operation_xyz
x,y,z
-x,y,1/2-z
-x,-y,-z
x,-y,1/2+z
1/2+x,1/2+y,z
1/2-x,1/2+y,1/2-z
1/2-x,1/2-y,-z
1/2+x,1/2-y,1/2+z
loop_
_atom_site_type_symbol
_atom_site_label
_atom_site_fract_x
_atom_site_fract_y
_atom_site_fract_z
Si Si1 0.000000 0.431837 0.250000
Si Si2 0.370620 0.898315 0.799134
Si Si3 0.130183 0.801322 0.485868
Si Si4 0.382570 0.197803 0.890756
Si Si5 0.702299 0.328014 0.037650
O O1 0.970592 0.537862 0.294748
O O2 0.149726 0.320888 0.339931
O O3 0.460122 0.745114 0.874080
O O4 0.201864 0.841096 0.690618
O O5 0.348560 0.029266 0.840366
O O6 0.250000 0.750000 0.500000
O O7 0.177441 0.702617 0.571821
O O8 0.137615 0.991632 0.499387
O O9 0.564993 0.222657 0.991814
O O10 0.750000 0.250000 0.000000
#
# Coordination Sequence:
#
# PCOD8154861 Si02
#       5
#     4   8   8   8   8
#     4  12  24  48  70  98 150 184 240 302 368 422
#     4  12  25  46  71 107 144 194 242 304 366 433
#     4  12  24  45  71 103 144 187 240 304 362 430
#     4  12  26  45  72 105 145 192 244 298 366 436
#     4  12  25  46  72 104 142 193 237 298 369 434
#
# _framework density 22.679603
#
# number of rings (size 3 to 8) (size 9 to 14) (size 15 to 20)
#    0.000    0.000    6.667    2.667    3.111    0.000 
#    0.000    1.111    0.000    0.000    0.000    0.000 
#    0.000    0.000    0.000    0.000    0.000    0.000 
#
# Total GULP energy -223241.158941 kJ/mol
# GULP energy per Si atom -12402.286608 kJ/mol
# Density = 2.262798 g / cm^3
# Si number density = 22.679603 Si / 1000 Ang^3
#
#
#
# Elastic Constant Matrix: (Units=GPa)
#
#
# Indices 1 2 3 4 5 6 
#
# 1 124.2230 42.4727 51.9817 0.0000 -15.2422 0.0000
# 2 42.4727 65.4019 50.8822 0.0000 -4.6060 0.0000
# 3 51.9817 50.8822 178.6544 0.0000 12.4813 0.0000
# 4 0.0000 0.0000 0.0000 43.3664 0.0000 4.7049
# 5 -15.2422 -4.6060 12.4813 0.0000 49.8427 0.0000
# 6 0.0000 0.0000 0.0000 4.7049 0.0000 32.9527
#
#
#
# Elastic Compliance Matrix: (Units=1/GPa)
#
#
# Indices 1 2 3 4 5 6 
#
# 1 0.011150 -0.005518 -0.001909 0.000000 0.003378 0.000000
# 2 -0.005518 0.022912 -0.005038 0.000000 0.001692 0.000000
# 3 -0.001909 -0.005038 0.007797 0.000000 -0.003002 0.000000
# 4 0.000000 0.000000 0.000000 0.023422 0.000000 -0.003344
# 5 0.003378 0.001692 -0.003002 0.000000 0.022004 0.000000
# 6 0.000000 0.000000 0.000000 -0.003344 0.000000 0.030824
#
#
# Mechanical properties :
#
#
# Convention : Reuss Voigt Hill
#
# Bulk Modulus (GPa) = 59.06739 73.21693 66.14216
# Shear Modulus (GPa) = 33.62861 40.09520 36.86191
#
# Velocity S-wave (km/s) = 3.85485 4.20920 4.03592
# Velocity P-wave (km/s) = 6.77599 7.48174 7.13759
#
# Compressibility (1/GPa) = 0.01692981
#
# Stress axis : x y z
#
# Youngs Moduli (GPa) = 89.68787 43.64436 128.24824
#
# Poissons Ratio (x) = 0.24083 0.24477
# Poissons Ratio (y) = 0.49490 0.64615
# Poissons Ratio (z) = 0.17117 0.21989
#
# Static dielectric constant tensor:
#      x y z
#    x 4.303960 0.000000 -0.005650 
#    y 0.000000 3.980300 0.000000 
#    z -0.005650 0.000000 4.604350 
# 
# 
# High freq. dielectric constant tensor:
#      x y z
#    x 1.905240 0.000000 -0.001590 
#    y 0.000000 1.885220 0.000000 
#    z -0.001590 0.000000 1.915430 
# 
# From -- ./inp_files/150119.got.cif
#   From: 2010.06.25/outbox.cif.g09.slc.cpg/sg15_76_cif.got.tgz:150119.got - 2010.06.28 07:06:18.
