data_PCOD8154076
_publ_section_title
;
Structure prediction by ZEFSAII (Michael W. Deem and Ramdas Pophale) SiO2 
 PCOD8154076
Probable space group: C 2/C
;
_chemical_formula_sum "Si O2"
_cell_formula_units_Z 64
_cell_length_a 15.249139
_cell_length_b 11.863811
_cell_length_c 27.354322
_cell_angle_alpha 90.000000
_cell_angle_beta 38.180615
_cell_angle_gamma 90.000000
_cell_volume 3059.032473
_symmetry_space_group_name_H-M "C 2/C"
_symmetry_group_IT_number 15
_symmetry_cell_setting 'monoclinic'
loop_
_space_group_symop_operation_xyz
x,y,z
-x,y,1/2-z
-x,-y,-z
x,-y,1/2+z
1/2+x,1/2+y,z
1/2-x,1/2+y,1/2-z
1/2-x,1/2-y,-z
1/2+x,1/2-y,1/2+z
loop_
_atom_site_type_symbol
_atom_site_label
_atom_site_fract_x
_atom_site_fract_y
_atom_site_fract_z
Si Si1 0.284895 0.059636 0.318783
Si Si2 0.316785 0.797599 0.169144
Si Si3 0.420565 0.981752 0.856585
Si Si4 0.392986 0.225360 0.909104
Si Si5 0.856555 0.566649 0.557355
Si Si6 0.430711 0.445148 0.833784
Si Si7 0.607609 0.406338 0.332277
Si Si8 0.401473 0.794867 0.945915
O O1 0.269569 0.186275 0.306643
O O2 0.427432 0.007029 0.234851
O O3 0.300185 0.061286 0.371083
O O4 0.152889 0.983566 0.358539
O O5 0.480526 0.771147 0.107122
O O6 0.301818 0.885396 0.132161
O O7 0.248681 0.855169 0.246391
O O8 0.437658 0.898733 0.894822
O O9 0.372099 0.103786 0.894853
O O10 0.427456 0.315466 0.851691
O O11 0.250000 0.250000 0.000000
O O12 0.730638 0.488184 0.592708
O O13 0.895842 0.667626 0.504181
O O14 0.000000 0.500000 0.500000
O O15 0.500000 0.453515 0.750000
O O16 0.522325 0.519865 0.830630
O O17 0.515513 0.303644 0.392284
O O18 0.250000 0.750000 0.000000
#
# Coordination Sequence:
#
# PCOD8154076 Si02
#       8
#     8   8   8   8   8   8   8   8
#     4  11  25  43  70 106 133 182 234 292 347 409
#     4  12  24  46  72 102 143 186 238 292 347 425
#     4  11  25  45  70 102 142 178 234 292 350 413
#     4  12  27  46  68 102 150 188 224 292 367 421
#     4  12  27  45  71 108 143 188 235 289 360 426
#     4  12  26  45  75 103 142 186 240 293 352 424
#     4  12  25  45  73 106 137 182 245 294 345 422
#     4  12  25  45  74 103 143 184 231 292 358 419
#
# _framework density 20.921648000000001
#
# number of rings (size 3 to 8) (size 9 to 14) (size 15 to 20)
#    0.000    0.250    6.250    3.000    1.750    3.000 
#    0.000    1.875    0.000    0.000    0.000    0.000 
#    0.000    0.000    0.000    0.000    0.000    0.000 
#
# Total GULP energy -396961.789657 kJ/mol
# GULP energy per Si atom -12405.055927 kJ/mol
# Density = 2.087403 g / cm^3
# Si number density = 20.921648 Si / 1000 Ang^3
#
#
#
# Elastic Constant Matrix: (Units=GPa)
#
#
# Indices 1 2 3 4 5 6 
#
# 1 98.8304 16.4145 8.6869 0.0000 -19.3594 0.0000
# 2 16.4145 104.5103 8.4054 0.0000 -9.9168 0.0000
# 3 8.6869 8.4054 69.3044 0.0000 -14.8717 0.0000
# 4 0.0000 0.0000 0.0000 34.3631 0.0000 -2.8598
# 5 -19.3594 -9.9168 -14.8717 0.0000 33.3368 0.0000
# 6 0.0000 0.0000 0.0000 -2.8598 0.0000 41.9024
#
#
#
# Elastic Compliance Matrix: (Units=1/GPa)
#
#
# Indices 1 2 3 4 5 6 
#
# 1 0.011565 -0.001216 0.000068 0.000000 0.006385 0.000000
# 2 -0.001216 0.009999 -0.000634 0.000000 0.001985 0.000000
# 3 0.000068 -0.000634 0.015997 0.000000 0.006987 0.000000
# 4 0.000000 0.000000 0.000000 0.029267 0.000000 0.001997
# 5 0.006385 0.001985 0.006987 0.000000 0.037412 0.000000
# 6 0.000000 0.000000 0.000000 0.001997 0.000000 0.024001
#
#
# Mechanical properties :
#
#
# Convention : Reuss Voigt Hill
#
# Bulk Modulus (GPa) = 29.41534 37.73985 33.57759
# Shear Modulus (GPa) = 34.93136 37.86303 36.39719
#
# Velocity S-wave (km/s) = 4.09054 4.25873 4.17548
# Velocity P-wave (km/s) = 6.03327 6.50079 6.27139
#
# Compressibility (1/GPa) = 0.03399587
#
# Stress axis : x y z
#
# Youngs Moduli (GPa) = 86.46787 100.01186 62.51238
#
# Poissons Ratio (x) = 0.12162 -0.00425
# Poissons Ratio (y) = 0.10515 0.03965
# Poissons Ratio (z) = -0.00587 0.06343
#
# Static dielectric constant tensor:
#      x y z
#    x 3.848760 0.000000 -0.031070 
#    y 0.000000 3.959000 0.000000 
#    z -0.031070 0.000000 3.787330 
# 
# 
# High freq. dielectric constant tensor:
#      x y z
#    x 1.833610 0.000000 -0.004200 
#    y 0.000000 1.835160 0.000000 
#    z -0.004200 0.000000 1.824400 
# 
# From -- ./inp_files/296101.got.cif
#   From: 2010.06.25/outbox.cif.g09.slc.cpg/sg15_149_cif.got.tgz:296101.got - 2010.06.28 07:06:18.
