data_PCOD8154402
_publ_section_title
;
Structure prediction by ZEFSAII (Michael W. Deem and Ramdas Pophale) SiO2 
 PCOD8154402
Probable space group: C 2/C
;
_chemical_formula_sum "Si O2"
_cell_formula_units_Z 40
_cell_length_a 22.880148
_cell_length_b 5.998486
_cell_length_c 17.762481
_cell_angle_alpha 90.000000
_cell_angle_beta 140.153318
_cell_angle_gamma 90.000000
_cell_volume 1562.006576
_symmetry_space_group_name_H-M "C 2/C"
_symmetry_group_IT_number 15
_symmetry_cell_setting 'monoclinic'
loop_
_space_group_symop_operation_xyz
x,y,z
-x,y,1/2-z
-x,-y,-z
x,-y,1/2+z
1/2+x,1/2+y,z
1/2-x,1/2+y,1/2-z
1/2-x,1/2-y,-z
1/2+x,1/2-y,1/2+z
loop_
_atom_site_type_symbol
_atom_site_label
_atom_site_fract_x
_atom_site_fract_y
_atom_site_fract_z
Si Si1 0.351627 0.338903 0.114727
Si Si2 0.554956 0.019717 0.395307
Si Si3 0.582082 0.645259 0.051798
Si Si4 0.883474 0.777207 0.750234
Si Si5 0.313749 0.649315 0.952046
O O1 0.423401 0.142787 0.163982
O O2 0.375992 0.457123 0.219201
O O3 0.250000 0.250000 0.000000
O O4 0.369045 0.542195 0.075407
O O5 0.537925 0.191708 0.446181
O O6 0.472528 0.843424 0.304414
O O7 0.647398 0.898434 0.515192
O O8 0.621735 0.761296 0.165257
O O9 0.664033 0.494965 0.100016
O O10 0.500000 0.500000 0.000000
O O11 0.793342 0.647622 0.633091
#
# Coordination Sequence:
#
# PCOD8154402 Si02
#       5
#     8   8   8   8   8
#     4  11  26  52  73 110 155 197 260 327 374 463
#     4  11  26  52  73 108 164 193 258 327 374 471
#     4  11  26  48  74 113 153 195 261 315 379 469
#     4  12  26  47  83 110 147 216 252 310 412 449
#     4  11  26  49  71 112 152 196 256 318 383 466
#
# _framework density 25.608086
#
# number of rings (size 3 to 8) (size 9 to 14) (size 15 to 20)
#    0.000    0.800    4.000    1.200    2.800    2.400 
#    7.200    0.000    0.000    0.000    0.000    0.000 
#    0.000    0.000    0.000    0.000    0.000    0.000 
#
# Total GULP energy -247883.199613 kJ/mol
# GULP energy per Si atom -12394.159981 kJ/mol
# Density = 2.554980 g / cm^3
# Si number density = 25.608086 Si / 1000 Ang^3
#
#
#
# Elastic Constant Matrix: (Units=GPa)
#
#
# Indices 1 2 3 4 5 6 
#
# 1 113.1106 45.1054 37.2238 0.0000 21.5640 0.0001
# 2 45.1054 110.9574 41.4232 0.0009 18.1345 0.0002
# 3 37.2238 41.4232 98.5352 0.0002 33.4416 0.0001
# 4 0.0000 0.0009 0.0002 49.4356 0.0002 3.6556
# 5 21.5640 18.1345 33.4416 0.0002 46.5199 0.0000
# 6 0.0001 0.0002 0.0001 3.6556 0.0000 61.9393
#
#
#
# Elastic Compliance Matrix: (Units=1/GPa)
#
#
# Indices 1 2 3 4 5 6 
#
# 1 0.011351 -0.003466 -0.001989 0.000000 -0.002481 0.000000
# 2 -0.003466 0.011803 -0.003487 0.000000 -0.000488 0.000000
# 3 -0.001989 -0.003487 0.015332 0.000000 -0.008741 0.000000
# 4 0.000000 0.000000 0.000000 0.020317 0.000000 -0.001199
# 5 -0.002481 -0.000488 -0.008741 0.000000 0.029120 0.000000
# 6 0.000000 0.000000 0.000000 -0.001199 0.000000 0.016216
#
#
# Mechanical properties :
#
#
# Convention : Reuss Voigt Hill
#
# Bulk Modulus (GPa) = 48.53931 63.34536 55.94234
# Shear Modulus (GPa) = 38.79296 44.83567 41.81432
#
# Velocity S-wave (km/s) = 3.89636 4.18884 4.04525
# Velocity P-wave (km/s) = 6.26402 6.94157 6.61148
#
# Compressibility (1/GPa) = 0.02060186
#
# Stress axis : x y z
#
# Youngs Moduli (GPa) = 88.10134 84.72435 65.22161
#
# Poissons Ratio (x) = 0.29367 0.12972
# Poissons Ratio (y) = 0.30538 0.22742
# Poissons Ratio (z) = 0.17522 0.29543
#
# Static dielectric constant tensor:
#      x y z
#    x 3.005610 0.000000 2.395090 
#    y 0.000000 5.118890 -0.000010 
#    z 2.395090 -0.000010 0.917020 
# 
# 
# High freq. dielectric constant tensor:
#      x y z
#    x 2.034550 0.000000 0.006590 
#    y 0.000000 2.030860 0.000000 
#    z 0.006590 0.000000 2.026640 
# 
# From -- ./inp_files/254537.got.cif
#   From: 2010.06.25/outbox.cif.g09.slc.cpg/sg15_128_cif.got.tgz:254537.got - 2010.06.28 07:06:18.
