data_PCOD8154929
_publ_section_title
;
Structure prediction by ZEFSAII (Michael W. Deem and Ramdas Pophale) SiO2 
 PCOD8154929
Probable space group: C 2/C
;
_chemical_formula_sum "Si O2"
_cell_formula_units_Z 44
_cell_length_a 22.560094
_cell_length_b 6.495734
_cell_length_c 22.552252
_cell_angle_alpha 90.000000
_cell_angle_beta 142.977729
_cell_angle_gamma 90.000000
_cell_volume 1989.967608
_symmetry_space_group_name_H-M "C 2/C"
_symmetry_group_IT_number 15
_symmetry_cell_setting 'monoclinic'
loop_
_space_group_symop_operation_xyz
x,y,z
-x,y,1/2-z
-x,-y,-z
x,-y,1/2+z
1/2+x,1/2+y,z
1/2-x,1/2+y,1/2-z
1/2-x,1/2-y,-z
1/2+x,1/2-y,1/2+z
loop_
_atom_site_type_symbol
_atom_site_label
_atom_site_fract_x
_atom_site_fract_y
_atom_site_fract_z
Si Si1 0.323753 0.185869 0.932907
Si Si2 0.500000 0.970272 0.750000
Si Si3 0.984173 0.975656 0.587561
Si Si4 0.918999 0.605424 0.896394
Si Si5 0.385315 0.802010 0.761461
Si Si6 0.850689 0.328130 0.052928
O O1 0.323823 0.112668 0.863837
O O2 0.218825 0.297798 0.856304
O O3 0.414671 0.343426 0.007790
O O4 0.335155 0.002987 0.989973
O O5 0.471766 0.837223 0.783862
O O6 0.594741 0.099143 0.844465
O O7 0.917784 0.854903 0.581740
O O8 0.029432 0.823122 0.575504
O O9 0.085488 0.077032 0.691983
O O10 0.887750 0.482841 0.812451
O O11 0.000000 0.500000 0.000000
O O12 0.750000 0.250000 0.000000
#
# Coordination Sequence:
#
# PCOD8154929 Si02
#       6
#     8   4   8   8   8   8
#     4  12  28  48  74 111 147 189 247 301 369 438
#     4  12  24  54  68 106 148 184 256 296 364 438
#     4  12  24  48  74 103 142 197 231 311 364 424
#     4  12  24  50  71 106 147 184 246 297 370 436
#     4  12  29  44  75 107 141 192 242 298 363 437
#     4  12  28  47  74 109 147 195 247 304 360 442
#
# _framework density 22.110911999999999
#
# number of rings (size 3 to 8) (size 9 to 14) (size 15 to 20)
#    0.000    0.000    7.273    1.636    7.636    2.909 
#    0.000    0.000    0.000    0.000    0.000    0.000 
#    0.000    0.000    0.000    0.000    0.000    0.000 
#
# Total GULP energy -272630.086003 kJ/mol
# GULP energy per Si atom -12392.276636 kJ/mol
# Density = 2.206059 g / cm^3
# Si number density = 22.110912 Si / 1000 Ang^3
#
#
#
# Elastic Constant Matrix: (Units=GPa)
#
#
# Indices 1 2 3 4 5 6 
#
# 1 128.2124 51.8721 33.0580 0.0010 -7.2054 0.0013
# 2 51.8721 126.2037 44.8728 -0.0003 -6.5521 -0.0039
# 3 33.0580 44.8728 113.2210 -0.0018 5.9831 0.0004
# 4 0.0010 -0.0003 -0.0018 28.0298 -0.0002 6.2893
# 5 -7.2054 -6.5521 5.9831 -0.0002 39.1577 0.0002
# 6 0.0013 -0.0039 0.0004 6.2893 0.0002 36.0460
#
#
#
# Elastic Compliance Matrix: (Units=1/GPa)
#
#
# Indices 1 2 3 4 5 6 
#
# 1 0.009632 -0.003324 -0.001572 0.000000 0.001456 -0.000001
# 2 -0.003324 0.010549 -0.003298 0.000000 0.001657 0.000001
# 3 -0.001572 -0.003298 0.010729 0.000001 -0.002480 -0.000001
# 4 0.000000 0.000000 0.000001 0.037130 0.000000 -0.006478
# 5 0.001456 0.001657 -0.002480 0.000000 0.026462 0.000000
# 6 -0.000001 0.000001 -0.000001 -0.006478 0.000000 0.028873
#
#
# Mechanical properties :
#
#
# Convention : Reuss Voigt Hill
#
# Bulk Modulus (GPa) = 68.86048 69.69366 69.27707
# Shear Modulus (GPa) = 34.57769 36.50232 35.54001
#
# Velocity S-wave (km/s) = 3.95882 4.06750 4.01353
# Velocity P-wave (km/s) = 7.21853 7.32447 7.27169
#
# Compressibility (1/GPa) = 0.01452212
#
# Stress axis : x y z
#
# Youngs Moduli (GPa) = 103.82506 94.79914 93.20367
#
# Poissons Ratio (x) = 0.31515 0.14648
# Poissons Ratio (y) = 0.34515 0.30735
# Poissons Ratio (z) = 0.16317 0.31261
#
# Static dielectric constant tensor:
#      x y z
#    x 4.405530 0.000010 -0.070930 
#    y 0.000010 4.519240 0.000000 
#    z -0.070930 0.000000 3.991940 
# 
# 
# High freq. dielectric constant tensor:
#      x y z
#    x 1.892690 0.000000 0.002400 
#    y 0.000000 1.876570 0.000000 
#    z 0.002400 0.000000 1.875100 
# 
# From -- ./inp_files/281270.got.cif
#   From: 2010.06.25/outbox.cif.g09.slc.cpg/sg15_141_cif.got.tgz:281270.got - 2010.06.28 07:06:18.
