data_PCOD8154301
_publ_section_title
;
Structure prediction by ZEFSAII (Michael W. Deem and Ramdas Pophale) SiO2 
 PCOD8154301
Probable space group: C 2/C
;
_chemical_formula_sum "Si O2"
_cell_formula_units_Z 32
_cell_length_a 11.055308
_cell_length_b 8.502456
_cell_length_c 13.448136
_cell_angle_alpha 90.000000
_cell_angle_beta 77.570161
_cell_angle_gamma 90.000000
_cell_volume 1234.458241
_symmetry_space_group_name_H-M "C 2/C"
_symmetry_group_IT_number 15
_symmetry_cell_setting 'monoclinic'
loop_
_space_group_symop_operation_xyz
x,y,z
-x,y,1/2-z
-x,-y,-z
x,-y,1/2+z
1/2+x,1/2+y,z
1/2-x,1/2+y,1/2-z
1/2-x,1/2-y,-z
1/2+x,1/2-y,1/2+z
loop_
_atom_site_type_symbol
_atom_site_label
_atom_site_fract_x
_atom_site_fract_y
_atom_site_fract_z
Si Si1 0.617394 0.739774 0.073610
Si Si2 0.956507 0.467366 0.650141
Si Si3 0.986319 0.876539 0.092292
Si Si4 0.824251 0.010156 0.797008
O O1 0.551959 0.907586 0.088485
O O2 0.637641 0.670296 0.181249
O O3 0.750000 0.750000 0.000000
O O4 0.534795 0.601348 0.027371
O O5 0.953360 0.310276 0.584969
O O6 0.820736 0.543947 0.679761
O O7 0.000000 0.411431 0.750000
O O8 0.880354 0.955795 0.179026
O O9 0.119660 0.882765 0.123146
#
# Coordination Sequence:
#
# PCOD8154301 Si02
#       4
#     8   8   8   8
#     4  12  26  48  76 108 144 190 245 293 356 430
#     4  12  26  46  76 104 147 190 237 299 359 422
#     4  11  25  50  70 110 146 188 240 296 362 427
#     4  11  26  47  73 106 148 187 236 301 359 422
#
# _framework density 25.922301999999998
#
# number of rings (size 3 to 8) (size 9 to 14) (size 15 to 20)
#    0.000    0.500    5.000    3.000    3.500    1.000 
#    4.500    0.000    0.000    0.000    0.000    0.000 
#    0.000    0.000    0.000    0.000    0.000    0.000 
#
# Total GULP energy -198385.955367 kJ/mol
# GULP energy per Si atom -12399.122210 kJ/mol
# Density = 2.586330 g / cm^3
# Si number density = 25.922302 Si / 1000 Ang^3
#
#
#
# Elastic Constant Matrix: (Units=GPa)
#
#
# Indices 1 2 3 4 5 6 
#
# 1 165.4379 28.5239 35.8844 0.0000 -20.8152 0.0000
# 2 28.5239 95.0392 37.2624 0.0000 -21.0504 0.0000
# 3 35.8844 37.2624 130.4316 0.0000 7.1318 0.0000
# 4 0.0000 0.0000 0.0000 29.0831 0.0000 -4.1757
# 5 -20.8152 -21.0504 7.1318 0.0000 45.3859 0.0000
# 6 0.0000 0.0000 0.0000 -4.1757 0.0000 37.1118
#
#
#
# Elastic Compliance Matrix: (Units=1/GPa)
#
#
# Indices 1 2 3 4 5 6 
#
# 1 0.006972 -0.000633 -0.001912 0.000000 0.003204 0.000000
# 2 -0.000633 0.013842 -0.004151 0.000000 0.006782 0.000000
# 3 -0.001912 -0.004151 0.009615 0.000000 -0.004313 0.000000
# 4 0.000000 0.000000 0.000000 0.034949 0.000000 0.003932
# 5 0.003204 0.006782 -0.004313 0.000000 0.027326 0.000000
# 6 0.000000 0.000000 0.000000 0.003932 0.000000 0.027388
#
#
# Mechanical properties :
#
#
# Convention : Reuss Voigt Hill
#
# Bulk Modulus (GPa) = 58.70167 66.02780 62.36473
# Shear Modulus (GPa) = 35.92931 41.59870 38.76401
#
# Velocity S-wave (km/s) = 3.72699 4.01027 3.87123
# Velocity P-wave (km/s) = 6.41989 6.85345 6.64021
#
# Compressibility (1/GPa) = 0.01703529
#
# Stress axis : x y z
#
# Youngs Moduli (GPa) = 143.43768 72.24623 104.00683
#
# Poissons Ratio (x) = 0.04572 0.19891
# Poissons Ratio (y) = 0.09077 0.43174
# Poissons Ratio (z) = 0.27432 0.29990
#
# Static dielectric constant tensor:
#      x y z
#    x 4.889910 0.000000 0.418160 
#    y 0.000000 5.320440 0.000000 
#    z 0.418160 0.000000 4.912350 
# 
# 
# High freq. dielectric constant tensor:
#      x y z
#    x 2.051250 0.000000 0.028960 
#    y 0.000000 2.068690 0.000000 
#    z 0.028960 0.000000 2.057950 
# 
# From -- ./inp_files/140723.got.cif
#   From: 2010.06.25/outbox.cif.g09.slc.cpg/sg15_71_cif.got.tgz:140723.got - 2010.06.28 07:06:18.
