data_PCOD8154111
_publ_section_title
;
Structure prediction by ZEFSAII (Michael W. Deem and Ramdas Pophale) SiO2 
 PCOD8154111
Probable space group: C 2/C
;
_chemical_formula_sum "Si O2"
_cell_formula_units_Z 36
_cell_length_a 19.962236
_cell_length_b 14.796154
_cell_length_c 8.035848
_cell_angle_alpha 90.000000
_cell_angle_beta 138.646482
_cell_angle_gamma 90.000000
_cell_volume 1568.180657
_symmetry_space_group_name_H-M "C 2/C"
_symmetry_group_IT_number 15
_symmetry_cell_setting 'monoclinic'
loop_
_space_group_symop_operation_xyz
x,y,z
-x,y,1/2-z
-x,-y,-z
x,-y,1/2+z
1/2+x,1/2+y,z
1/2-x,1/2+y,1/2-z
1/2-x,1/2-y,-z
1/2+x,1/2-y,1/2+z
loop_
_atom_site_type_symbol
_atom_site_label
_atom_site_fract_x
_atom_site_fract_y
_atom_site_fract_z
Si Si1 0.192346 0.534441 0.663448
Si Si2 0.534562 0.367880 0.621662
Si Si3 0.448516 0.174584 0.971533
Si Si4 0.340024 0.453646 0.165633
Si Si5 0.500000 0.075382 0.750000
O O1 0.153744 0.614544 0.712426
O O2 0.274298 0.580995 0.697800
O O3 0.096165 0.488999 0.393593
O O4 0.256468 0.453191 0.865803
O O5 0.500000 0.368359 0.750000
O O6 0.581311 0.274304 0.645168
O O7 0.434504 0.386166 0.320220
O O8 0.617397 0.444024 0.737743
O O9 0.518940 0.133159 0.954264
O O10 0.500000 0.174096 0.250000
#
# Coordination Sequence:
#
# PCOD8154111 Si02
#       5
#     8   8   8   8   4
#     4  12  23  46  73 102 136 194 245 295 359 439
#     4  11  25  48  69 106 150 193 237 311 361 431
#     4  12  26  44  72 106 150 188 240 303 364 423
#     4  11  25  44  75 102 139 194 250 288 370 433
#     4  12  24  48  72 102 148 190 242 306 362 432
#
# _framework density 22.956538999999999
#
# number of rings (size 3 to 8) (size 9 to 14) (size 15 to 20)
#    0.000    0.444    6.667    2.000    3.111    0.889 
#    4.000    2.222    0.000    0.000    0.000    0.000 
#    0.000    0.000    0.000    0.000    0.000    0.000 
#
# Total GULP energy -223004.127115 kJ/mol
# GULP energy per Si atom -12389.118173 kJ/mol
# Density = 2.290429 g / cm^3
# Si number density = 22.956539 Si / 1000 Ang^3
#
#
#
# Elastic Constant Matrix: (Units=GPa)
#
#
# Indices 1 2 3 4 5 6 
#
# 1 93.6452 4.4607 20.3902 0.0000 2.7112 0.0000
# 2 4.4607 76.6187 19.9880 0.0000 3.4341 0.0000
# 3 20.3902 19.9880 99.2626 0.0000 12.4789 0.0000
# 4 0.0000 0.0000 0.0000 22.8221 0.0000 -5.2958
# 5 2.7112 3.4341 12.4789 0.0000 29.2266 0.0000
# 6 0.0000 0.0000 0.0000 -5.2958 0.0000 31.0278
#
#
#
# Elastic Compliance Matrix: (Units=1/GPa)
#
#
# Indices 1 2 3 4 5 6 
#
# 1 0.011179 -0.000054 -0.002278 0.000000 -0.000058 0.000000
# 2 -0.000054 0.013781 -0.002706 0.000000 -0.000459 0.000000
# 3 -0.002278 -0.002706 0.011646 0.000000 -0.004443 0.000000
# 4 0.000000 0.000000 0.000000 0.045624 0.000000 0.007787
# 5 -0.000058 -0.000459 -0.004443 0.000000 0.036172 0.000000
# 6 0.000000 0.000000 0.000000 0.007787 0.000000 0.033558
#
#
# Mechanical properties :
#
#
# Convention : Reuss Voigt Hill
#
# Bulk Modulus (GPa) = 37.69435 39.91161 38.80298
# Shear Modulus (GPa) = 29.26028 31.59448 30.42738
#
# Velocity S-wave (km/s) = 3.57402 3.71384 3.64460
# Velocity P-wave (km/s) = 5.78680 5.98445 5.88645
#
# Compressibility (1/GPa) = 0.02652917
#
# Stress axis : x y z
#
# Youngs Moduli (GPa) = 89.45430 72.56173 85.86796
#
# Poissons Ratio (x) = 0.00391 0.19562
# Poissons Ratio (y) = 0.00482 0.23239
# Poissons Ratio (z) = 0.20379 0.19638
#
# Static dielectric constant tensor:
#      x y z
#    x 10.045080 0.000000 -5.495480 
#    y 0.000000 4.013830 0.000000 
#    z -5.495480 0.000000 9.356650 
# 
# 
# High freq. dielectric constant tensor:
#      x y z
#    x 1.920620 0.000000 -0.002000 
#    y 0.000000 1.884330 0.000000 
#    z -0.002000 0.000000 1.906430 
# 
# From -- ./inp_files/37620.got.cif
#   From: 2010.06.25/outbox.cif.g09.slc.cpg/sg15_19_cif.got.tgz:37620.got - 2010.06.28 07:06:18.
