data_PCOD8154426
_publ_section_title
;
Structure prediction by ZEFSAII (Michael W. Deem and Ramdas Pophale) SiO2 
 PCOD8154426
Probable space group: C 2/C
;
_chemical_formula_sum "Si O2"
_cell_formula_units_Z 56
_cell_length_a 10.949747
_cell_length_b 8.600686
_cell_length_c 29.035013
_cell_angle_alpha 90.000000
_cell_angle_beta 113.837566
_cell_angle_gamma 90.000000
_cell_volume 2501.125322
_symmetry_space_group_name_H-M "C 2/C"
_symmetry_group_IT_number 15
_symmetry_cell_setting 'monoclinic'
loop_
_space_group_symop_operation_xyz
x,y,z
-x,y,1/2-z
-x,-y,-z
x,-y,1/2+z
1/2+x,1/2+y,z
1/2-x,1/2+y,1/2-z
1/2-x,1/2-y,-z
1/2+x,1/2-y,1/2+z
loop_
_atom_site_type_symbol
_atom_site_label
_atom_site_fract_x
_atom_site_fract_y
_atom_site_fract_z
Si Si1 0.580678 0.157934 0.522531
Si Si2 0.132498 0.793908 0.948387
Si Si3 0.461894 0.631073 0.568162
Si Si4 0.264311 0.901286 0.117757
Si Si5 0.844520 0.732355 0.726012
Si Si6 0.845478 0.899205 0.223283
Si Si7 0.813854 0.236568 0.620872
O O1 0.506811 0.251676 0.550825
O O2 0.600058 0.251822 0.478499
O O3 0.724030 0.146515 0.568679
O O4 0.500000 0.000000 0.500000
O O5 0.145396 0.704203 0.901862
O O6 0.128770 0.977542 0.942587
O O7 0.250000 0.750000 0.000000
O O8 0.613549 0.603448 0.576570
O O9 0.458876 0.705783 0.619422
O O10 0.275887 0.834159 0.170325
O O11 0.304389 0.079794 0.123864
O O12 0.756299 0.672305 0.755214
O O13 0.000000 0.676284 0.750000
O O14 0.839050 0.917016 0.726383
O O15 0.790563 0.845268 0.165730
O O16 0.000000 0.840732 0.250000
#
# Coordination Sequence:
#
# PCOD8154426 Si02
#       7
#     8   8   8   8   8   8   8
#     4  12  25  43  68 103 142 184 235 284 342 419
#     4  12  23  43  70  97 142 189 230 283 343 408
#     4  12  25  46  67 100 145 183 232 287 344 414
#     4  12  26  45  71 104 138 187 232 290 358 417
#     4  11  27  47  76 104 140 183 238 298 360 431
#     4  11  26  50  72 105 143 183 237 299 361 425
#     4  12  26  44  72 102 141 184 233 286 350 421
#
# _framework density 22.389921000000001
#
# number of rings (size 3 to 8) (size 9 to 14) (size 15 to 20)
#    0.000    0.286    2.857    6.000    4.000    5.714 
#    0.000    0.000    0.000    0.000    0.000    0.000 
#    0.000    0.000    0.000    0.000    0.000    0.000 
#
# Total GULP energy -347097.900390 kJ/mol
# GULP energy per Si atom -12396.353585 kJ/mol
# Density = 2.233896 g / cm^3
# Si number density = 22.389921 Si / 1000 Ang^3
#
#
#
# Elastic Constant Matrix: (Units=GPa)
#
#
# Indices 1 2 3 4 5 6 
#
# 1 117.9245 51.0032 42.9400 0.0000 -26.6527 0.0000
# 2 51.0032 115.7786 51.9006 0.0000 -6.2852 0.0000
# 3 42.9400 51.9006 131.5486 0.0000 -28.7572 0.0000
# 4 0.0000 0.0000 0.0000 38.6007 0.0000 -8.1745
# 5 -26.6527 -6.2852 -28.7572 0.0000 48.6670 0.0000
# 6 0.0000 0.0000 0.0000 -8.1745 0.0000 41.0933
#
#
#
# Elastic Compliance Matrix: (Units=1/GPa)
#
#
# Indices 1 2 3 4 5 6 
#
# 1 0.012035 -0.004591 -0.000925 0.000000 0.005451 0.000000
# 2 -0.004591 0.012311 -0.004089 0.000000 -0.003340 0.000000
# 3 -0.000925 -0.004089 0.010669 0.000000 0.005269 0.000000
# 4 0.000000 0.000000 0.000000 0.027046 0.000000 0.005380
# 5 0.005451 -0.003340 0.005269 0.000000 0.026215 0.000000
# 6 0.000000 0.000000 0.000000 0.005380 0.000000 0.025405
#
#
# Mechanical properties :
#
#
# Convention : Reuss Voigt Hill
#
# Bulk Modulus (GPa) = 63.27328 72.99325 68.13326
# Shear Modulus (GPa) = 36.19022 40.29939 38.24481
#
# Velocity S-wave (km/s) = 4.02476 4.24711 4.13743
# Velocity P-wave (km/s) = 7.06536 7.53142 7.30211
#
# Compressibility (1/GPa) = 0.01580446
#
# Stress axis : x y z
#
# Youngs Moduli (GPa) = 83.09436 81.22755 93.72980
#
# Poissons Ratio (x) = 0.37289 0.08675
# Poissons Ratio (y) = 0.38146 0.38325
# Poissons Ratio (z) = 0.07690 0.33213
#
# Static dielectric constant tensor:
#      x y z
#    x 5.298090 0.000000 -0.129130 
#    y 0.000000 4.139050 0.000000 
#    z -0.129130 0.000000 4.037280 
# 
# 
# High freq. dielectric constant tensor:
#      x y z
#    x 1.910350 0.000000 -0.015490 
#    y 0.000000 1.897070 0.000000 
#    z -0.015490 0.000000 1.883870 
# 
# From -- ./inp_files/291631.got.cif
#   From: 2010.06.25/outbox.cif.g09.slc.cpg/sg15_146_cif.got.tgz:291631.got - 2010.06.28 07:06:18.
