data_PCOD8154079
_publ_section_title
;
Structure prediction by ZEFSAII (Michael W. Deem and Ramdas Pophale) SiO2 
 PCOD8154079
Probable space group: C 2/C
;
_chemical_formula_sum "Si O2"
_cell_formula_units_Z 52
_cell_length_a 6.595182
_cell_length_b 18.498099
_cell_length_c 21.960846
_cell_angle_alpha 90.000000
_cell_angle_beta 119.588578
_cell_angle_gamma 90.000000
_cell_volume 2329.802869
_symmetry_space_group_name_H-M "C 2/C"
_symmetry_group_IT_number 15
_symmetry_cell_setting 'monoclinic'
loop_
_space_group_symop_operation_xyz
x,y,z
-x,y,1/2-z
-x,-y,-z
x,-y,1/2+z
1/2+x,1/2+y,z
1/2-x,1/2+y,1/2-z
1/2-x,1/2-y,-z
1/2+x,1/2-y,1/2+z
loop_
_atom_site_type_symbol
_atom_site_label
_atom_site_fract_x
_atom_site_fract_y
_atom_site_fract_z
Si Si1 0.727953 0.705201 0.202103
Si Si2 0.244394 0.939799 0.133797
Si Si3 0.500000 0.177888 0.750000
Si Si4 0.476271 0.449695 0.813407
Si Si5 0.510057 0.977315 0.571249
Si Si6 0.525857 0.752720 0.043472
Si Si7 0.298582 0.636088 0.518562
O O1 0.673686 0.772321 0.237588
O O2 0.597416 0.633246 0.203840
O O3 0.642731 0.722659 0.121598
O O4 0.000000 0.690379 0.250000
O O5 0.351639 0.870257 0.181956
O O6 0.986953 0.919111 0.073584
O O7 0.414558 0.962070 0.103585
O O8 0.217084 0.005943 0.177129
O O9 0.500000 0.484518 0.750000
O O10 0.727501 0.454166 0.880136
O O11 0.347879 0.906717 0.554452
O O12 0.500000 0.000000 0.500000
O O13 0.626854 0.833539 0.046379
O O14 0.581191 0.703362 0.994291
O O15 0.250000 0.750000 0.000000
#
# Coordination Sequence:
#
# PCOD8154079 Si02
#       7
#     8   8   4   8   8   8   8
#     4  12  28  47  74 104 149 195 247 304 372 452
#     4  12  27  46  75 107 150 193 252 317 374 450
#     4  12  28  48  74 106 148 192 252 302 380 442
#     4  12  28  47  74 109 149 198 251 305 383 452
#     4  12  27  45  74 109 147 191 247 310 381 444
#     4  11  25  44  74 103 149 190 243 306 378 445
#     4  11  25  43  71 109 139 189 247 300 375 449
#
# _framework density 22.319485
#
# number of rings (size 3 to 8) (size 9 to 14) (size 15 to 20)
#    0.000    0.308    2.308    5.077   11.846    5.538 
#    0.000    0.000    0.000    0.000    0.000    0.000 
#    0.000    0.000    0.000    0.000    0.000    0.000 
#
# Total GULP energy -322454.470469 kJ/mol
# GULP energy per Si atom -12402.095018 kJ/mol
# Density = 2.226868 g / cm^3
# Si number density = 22.319485 Si / 1000 Ang^3
#
#
#
# Elastic Constant Matrix: (Units=GPa)
#
#
# Indices 1 2 3 4 5 6 
#
# 1 139.2118 62.9527 64.5419 0.0000 7.2426 0.0000
# 2 62.9527 124.7650 39.6057 0.0000 -0.8101 0.0000
# 3 64.5419 39.6057 136.7770 0.0000 8.3709 0.0000
# 4 0.0000 0.0000 0.0000 43.3143 0.0000 -4.6343
# 5 7.2426 -0.8101 8.3709 0.0000 50.8314 0.0000
# 6 0.0000 0.0000 0.0000 -4.6343 0.0000 32.8888
#
#
#
# Elastic Compliance Matrix: (Units=1/GPa)
#
#
# Indices 1 2 3 4 5 6 
#
# 1 0.010983 -0.004319 -0.003871 0.000000 -0.000996 0.000000
# 2 -0.004319 0.010541 -0.001073 0.000000 0.000960 0.000000
# 3 -0.003871 -0.001073 0.009512 0.000000 -0.001032 0.000000
# 4 0.000000 0.000000 0.000000 0.023440 0.000000 0.003303
# 5 -0.000996 0.000960 -0.001032 0.000000 0.020000 0.000000
# 6 0.000000 0.000000 0.000000 0.003303 0.000000 0.030871
#
#
# Mechanical properties :
#
#
# Convention : Reuss Voigt Hill
#
# Bulk Modulus (GPa) = 79.93934 81.66160 80.80047
# Shear Modulus (GPa) = 39.04917 40.98382 40.01649
#
# Velocity S-wave (km/s) = 4.18731 4.28978 4.23885
# Velocity P-wave (km/s) = 7.69881 7.82325 7.76128
#
# Compressibility (1/GPa) = 0.01250948
#
# Stress axis : x y z
#
# Youngs Moduli (GPa) = 91.04936 94.86464 105.13462
#
# Poissons Ratio (x) = 0.40976 0.40697
# Poissons Ratio (y) = 0.39328 0.11280
# Poissons Ratio (z) = 0.35245 0.10178
#
# Static dielectric constant tensor:
#      x y z
#    x 4.170080 0.000000 -0.499140 
#    y 0.000000 4.362080 0.000000 
#    z -0.499140 0.000000 0.336770 
# 
# 
# High freq. dielectric constant tensor:
#      x y z
#    x 1.895590 0.000000 0.002310 
#    y 0.000000 1.894260 0.000000 
#    z 0.002310 0.000000 1.891340 
# 
# From -- ./inp_files/261444.got.cif
#   From: 2010.06.25/outbox.cif.g09.slc.cpg/sg15_131_cif.got.tgz:261444.got - 2010.06.28 07:06:18.
