data_PCOD8154881
_publ_section_title
;
Structure prediction by ZEFSAII (Michael W. Deem and Ramdas Pophale) SiO2 
 PCOD8154881
Probable space group: C 2/C
;
_chemical_formula_sum "Si O2"
_cell_formula_units_Z 28
_cell_length_a 4.958430
_cell_length_b 24.894333
_cell_length_c 10.031002
_cell_angle_alpha 90.000000
_cell_angle_beta 74.264874
_cell_angle_gamma 90.000000
_cell_volume 1191.794341
_symmetry_space_group_name_H-M "C 2/C"
_symmetry_group_IT_number 15
_symmetry_cell_setting 'monoclinic'
loop_
_space_group_symop_operation_xyz
x,y,z
-x,y,1/2-z
-x,-y,-z
x,-y,1/2+z
1/2+x,1/2+y,z
1/2-x,1/2+y,1/2-z
1/2-x,1/2-y,-z
1/2+x,1/2-y,1/2+z
loop_
_atom_site_type_symbol
_atom_site_label
_atom_site_fract_x
_atom_site_fract_y
_atom_site_fract_z
Si Si1 0.977461 0.947995 0.094281
Si Si2 0.975172 0.377364 0.053108
Si Si3 0.000000 0.703484 0.750000
Si Si4 0.966172 0.274480 0.598267
O O1 0.697552 0.915910 0.095968
O O2 0.000000 0.961611 0.250000
O O3 0.241054 0.912649 0.013667
O O4 0.000000 0.000000 0.000000
O O5 0.821725 0.337512 0.181005
O O6 0.107483 0.336429 0.927255
O O7 0.185275 0.736910 0.616278
O O8 0.250000 0.250000 0.500000
O O9 0.000000 0.271183 0.750000
#
# Coordination Sequence:
#
# PCOD8154881 Si02
#       4
#     8   8   4   8
#     4  12  27  50  78 107 145 197 260 328 391 453
#     4  12  26  46  77 110 151 202 249 311 389 455
#     4  12  24  46  74 110 160 204 252 298 380 468
#     4  12  27  44  73 115 160 206 257 305 373 465
#
# _framework density 23.493988000000002
#
# number of rings (size 3 to 8) (size 9 to 14) (size 15 to 20)
#    0.000    0.000    5.714    3.429    4.000    2.286 
#    0.000    0.000    0.000    0.000    0.000    0.000 
#    0.000    0.000    0.000    0.000    0.000    0.000 
#
# Total GULP energy -173461.995925 kJ/mol
# GULP energy per Si atom -12390.142566 kJ/mol
# Density = 2.344051 g / cm^3
# Si number density = 23.493988 Si / 1000 Ang^3
#
#
#
# Elastic Constant Matrix: (Units=GPa)
#
#
# Indices 1 2 3 4 5 6 
#
# 1 127.8636 71.9285 30.7398 0.0000 -14.7369 0.0000
# 2 71.9285 192.6262 76.3279 0.0000 -9.7773 0.0000
# 3 30.7398 76.3279 108.0766 0.0000 -29.0590 0.0000
# 4 0.0000 0.0000 0.0000 36.3821 0.0000 -12.3565
# 5 -14.7369 -9.7773 -29.0590 0.0000 29.1056 0.0000
# 6 0.0000 0.0000 0.0000 -12.3565 0.0000 19.0948
#
#
#
# Elastic Compliance Matrix: (Units=1/GPa)
#
#
# Indices 1 2 3 4 5 6 
#
# 1 0.010450 -0.004193 0.001412 0.000000 0.005292 0.000000
# 2 -0.004193 0.009184 -0.006883 0.000000 -0.005909 0.000000
# 3 0.001412 -0.006883 0.018157 0.000000 0.016530 0.000000
# 4 0.000000 0.000000 0.000000 0.035229 0.000000 0.022797
# 5 0.005292 -0.005909 0.016530 0.000000 0.051556 0.000000
# 6 0.000000 0.000000 0.000000 0.022797 0.000000 0.067123
#
#
# Mechanical properties :
#
#
# Convention : Reuss Voigt Hill
#
# Bulk Modulus (GPa) = 54.16087 87.39545 70.77816
# Shear Modulus (GPa) = 23.02235 33.55451 28.28843
#
# Velocity S-wave (km/s) = 3.13377 3.78328 3.47374
# Velocity P-wave (km/s) = 6.01641 7.50760 6.80299
#
# Compressibility (1/GPa) = 0.01846352
#
# Stress axis : x y z
#
# Youngs Moduli (GPa) = 95.69285 108.87984 55.07668
#
# Poissons Ratio (x) = 0.45654 -0.07777
# Poissons Ratio (y) = 0.40124 0.37908
# Poissons Ratio (z) = -0.13512 0.74939
#
# Static dielectric constant tensor:
#      x y z
#    x 3.586810 0.000000 0.339700 
#    y 0.000000 4.716880 0.000000 
#    z 0.339700 0.000000 4.518290 
# 
# 
# High freq. dielectric constant tensor:
#      x y z
#    x 1.930500 0.000000 0.022390 
#    y 0.000000 1.940980 0.000000 
#    z 0.022390 0.000000 1.955810 
# 
# From -- ./inp_files/19851.got.cif
#   From: 2010.06.25/outbox.cif.g09.slc.cpg/sg15_10_cif.got.tgz:19851.got - 2010.06.28 07:06:18.
