data_PCOD8154790
_publ_section_title
;
Structure prediction by ZEFSAII (Michael W. Deem and Ramdas Pophale) SiO2 
 PCOD8154790
Probable space group: C 2/C
;
_chemical_formula_sum "Si O2"
_cell_formula_units_Z 40
_cell_length_a 14.592568
_cell_length_b 12.844079
_cell_length_c 17.467952
_cell_angle_alpha 90.000000
_cell_angle_beta 33.400565
_cell_angle_gamma 90.000000
_cell_volume 1802.292632
_symmetry_space_group_name_H-M "C 2/C"
_symmetry_group_IT_number 15
_symmetry_cell_setting 'monoclinic'
loop_
_space_group_symop_operation_xyz
x,y,z
-x,y,1/2-z
-x,-y,-z
x,-y,1/2+z
1/2+x,1/2+y,z
1/2-x,1/2+y,1/2-z
1/2-x,1/2-y,-z
1/2+x,1/2-y,1/2+z
loop_
_atom_site_type_symbol
_atom_site_label
_atom_site_fract_x
_atom_site_fract_y
_atom_site_fract_z
Si Si1 0.534523 0.856235 0.309797
Si Si2 0.744473 0.978792 0.752114
Si Si3 0.441251 0.359139 0.207163
Si Si4 0.328157 0.199340 0.084065
Si Si5 0.856659 0.196085 0.067881
O O1 0.500000 0.903816 0.250000
O O2 0.359075 0.826420 0.472671
O O3 0.651527 0.754835 0.219205
O O4 0.611419 0.940451 0.312842
O O5 0.657967 0.902480 0.872988
O O6 0.810299 0.916900 0.632606
O O7 0.890007 0.038896 0.695538
O O8 0.500000 0.392979 0.250000
O O9 0.291160 0.276998 0.315035
O O10 0.600027 0.309451 0.052608
O O11 0.477231 0.274808 0.003061
#
# Coordination Sequence:
#
# PCOD8154790 Si02
#       5
#     8   8   8   8   8
#     4  12  27  44  71 104 136 178 228 278 335 402
#     4  12  24  44  74  96 138 176 232 274 340 394
#     4  12  27  44  71 104 136 178 228 278 335 402
#     4  12  23  48  71  96 141 182 219 279 343 398
#     4  12  23  48  71  96 141 182 219 279 343 398
#
# _framework density 22.193954000000002
#
# number of rings (size 3 to 8) (size 9 to 14) (size 15 to 20)
#    0.000    0.000    8.000    2.400    0.000    3.200 
#    0.000    0.000    0.000    0.000    0.000    0.000 
#    0.000    0.000    0.000    0.000    0.000    0.000 
#
# Total GULP energy -248027.329423 kJ/mol
# GULP energy per Si atom -12401.366471 kJ/mol
# Density = 2.214344 g / cm^3
# Si number density = 22.193954 Si / 1000 Ang^3
#
#
#
# Elastic Constant Matrix: (Units=GPa)
#
#
# Indices 1 2 3 4 5 6 
#
# 1 103.3841 16.0787 27.2611 -0.0005 17.9687 0.0001
# 2 16.0787 78.1374 31.4072 -0.0003 -1.9706 0.0000
# 3 27.2611 31.4072 151.8356 -0.0004 30.9605 0.0004
# 4 -0.0005 -0.0003 -0.0004 23.5448 0.0002 15.2528
# 5 17.9687 -1.9706 30.9605 0.0002 36.3656 -0.0002
# 6 0.0001 0.0000 0.0004 15.2528 -0.0002 17.8415
#
#
#
# Elastic Compliance Matrix: (Units=1/GPa)
#
#
# Indices 1 2 3 4 5 6 
#
# 1 0.011040 -0.002214 -0.000469 0.000001 -0.005176 -0.000001
# 2 -0.002214 0.014873 -0.003710 0.000000 0.005059 0.000000
# 3 -0.000469 -0.003710 0.008993 0.000001 -0.007625 -0.000001
# 4 0.000001 0.000000 0.000001 0.095191 -0.000002 -0.081379
# 5 -0.005176 0.005059 -0.007625 -0.000002 0.036822 0.000002
# 6 -0.000001 0.000000 -0.000001 -0.081379 0.000002 0.125621
#
#
# Mechanical properties :
#
#
# Convention : Reuss Voigt Hill
#
# Bulk Modulus (GPa) = 45.20986 53.65013 49.43000
# Shear Modulus (GPa) = 15.98982 32.79104 24.39043
#
# Velocity S-wave (km/s) = 2.68705 3.84797 3.31866
# Velocity P-wave (km/s) = 5.48102 6.63086 6.08316
#
# Compressibility (1/GPa) = 0.02211907
#
# Stress axis : x y z
#
# Youngs Moduli (GPa) = 90.57798 67.23818 111.20201
#
# Poissons Ratio (x) = 0.14886 0.05214
# Poissons Ratio (y) = 0.20053 0.41261
# Poissons Ratio (z) = 0.04247 0.24948
#
# Static dielectric constant tensor:
#      x y z
#    x 4.067950 0.000000 0.358820 
#    y 0.000000 4.024020 0.000000 
#    z 0.358820 0.000000 4.431630 
# 
# 
# High freq. dielectric constant tensor:
#      x y z
#    x 1.865760 0.000000 0.022330 
#    y 0.000000 1.874540 0.000000 
#    z 0.022330 0.000000 1.896390 
# 
# From -- ./inp_files/203791.got.cif
#   From: 2010.06.25/outbox.cif.g09.slc.cpg/sg15_102_cif.got.tgz:203791.got - 2010.06.28 07:06:18.
