data_PCOD8154632
_publ_section_title
;
Structure prediction by ZEFSAII (Michael W. Deem and Ramdas Pophale) SiO2 
 PCOD8154632
Probable space group: C 2/C
;
_chemical_formula_sum "Si O2"
_cell_formula_units_Z 48
_cell_length_a 14.013628
_cell_length_b 12.137394
_cell_length_c 19.770175
_cell_angle_alpha 90.000000
_cell_angle_beta 41.114395
_cell_angle_gamma 90.000000
_cell_volume 2211.184292
_symmetry_space_group_name_H-M "C 2/C"
_symmetry_group_IT_number 15
_symmetry_cell_setting 'monoclinic'
loop_
_space_group_symop_operation_xyz
x,y,z
-x,y,1/2-z
-x,-y,-z
x,-y,1/2+z
1/2+x,1/2+y,z
1/2-x,1/2+y,1/2-z
1/2-x,1/2-y,-z
1/2+x,1/2-y,1/2+z
loop_
_atom_site_type_symbol
_atom_site_label
_atom_site_fract_x
_atom_site_fract_y
_atom_site_fract_z
Si Si1 0.755801 0.278792 0.918824
Si Si2 0.058535 0.259748 0.912608
Si Si3 0.473630 0.009109 0.619358
Si Si4 0.773923 0.327938 0.550576
Si Si5 0.818869 0.885516 0.273148
Si Si6 0.500000 0.052541 0.250000
Si Si7 0.500000 0.447600 0.750000
O O1 0.821652 0.177237 0.842784
O O2 0.858661 0.381625 0.850122
O O3 0.750000 0.250000 0.000000
O O4 0.589603 0.301744 0.985113
O O5 0.020765 0.382589 0.907135
O O6 0.164198 0.257190 0.920134
O O7 0.134203 0.195206 0.811463
O O8 0.621860 0.068589 0.519399
O O9 0.341611 0.069515 0.653567
O O10 0.451297 0.020356 0.712118
O O11 0.750000 0.250000 0.500000
O O12 0.617520 0.371301 0.652817
O O13 0.931901 0.984154 0.223676
#
# Coordination Sequence:
#
# PCOD8154632 Si02
#       7
#     8   8   8   8   8   4   4
#     4  12  22  43  72 106 143 182 245 305 361 420
#     4  12  25  47  75 105 147 195 245 308 366 437
#     4  12  26  49  72 107 153 197 242 301 383 433
#     4  12  30  49  74 107 150 199 241 302 373 448
#     4  12  26  45  75 110 145 192 247 305 366 437
#     4  12  27  41  74 112 144 188 247 311 362 444
#     4  12  27  47  76 110 144 190 251 303 362 440
#
# _framework density 21.707823000000001
#
# number of rings (size 3 to 8) (size 9 to 14) (size 15 to 20)
#    0.000    0.000    6.667    3.000    7.000    1.333 
#    0.000    1.667    0.000    0.000    0.000    0.000 
#    0.000    0.000    0.000    0.000    0.000    0.000 
#
# Total GULP energy -297693.919339 kJ/mol
# GULP energy per Si atom -12403.913306 kJ/mol
# Density = 2.165842 g / cm^3
# Si number density = 21.707823 Si / 1000 Ang^3
#
#
#
# Elastic Constant Matrix: (Units=GPa)
#
#
# Indices 1 2 3 4 5 6 
#
# 1 146.6040 48.7815 67.2844 0.0000 15.5961 0.0000
# 2 48.7815 86.6971 56.4994 0.0000 0.4329 0.0000
# 3 67.2844 56.4994 156.7215 -0.0001 -3.0009 0.0001
# 4 0.0000 0.0000 -0.0001 10.9484 0.0000 -12.0914
# 5 15.5961 0.4329 -3.0009 0.0000 52.6889 0.0000
# 6 0.0000 0.0000 0.0001 -12.0914 0.0000 3.5888
#
#
#
# Elastic Compliance Matrix: (Units=1/GPa)
#
#
# Indices 1 2 3 4 5 6 
#
# 1 0.009654 -0.003501 -0.002940 0.000000 -0.002996 0.000000
# 2 -0.003501 0.016356 -0.004381 0.000000 0.000652 0.000000
# 3 -0.002940 -0.004381 0.009250 0.000000 0.001433 0.000000
# 4 0.000000 0.000000 0.000000 -0.033568 0.000000 -0.113099
# 5 -0.002996 0.000652 0.001433 0.000000 0.019942 0.000000
# 6 0.000000 0.000000 0.000000 -0.113099 0.000000 -0.102408
#
#
# Mechanical properties :
#
#
# Convention : Reuss Voigt Hill
#
# Bulk Modulus (GPa) = 73.44305 81.68369 77.56337
# Shear Modulus (GPa) = -91.58967 27.94238 -31.82365
#
# Velocity S-wave (km/s) = -6.50258 3.59165 -3.83299
# Velocity P-wave (km/s) = 4.74048 7.41015 4.02729
#
# Compressibility (1/GPa) = 0.01361599
#
# Stress axis : x y z
#
# Youngs Moduli (GPa) = 103.58250 61.13924 108.11143
#
# Poissons Ratio (x) = 0.21406 0.31784
# Poissons Ratio (y) = 0.36266 0.47362
# Poissons Ratio (z) = 0.30453 0.26784
#
# Static dielectric constant tensor:
#      x y z
#    x 4.445930 0.000000 -0.064110 
#    y 0.000000 3.915060 0.000000 
#    z -0.064110 0.000000 4.143900 
# 
# 
# High freq. dielectric constant tensor:
#      x y z
#    x 1.875680 0.000000 -0.003070 
#    y 0.000000 1.837850 0.000000 
#    z -0.003070 0.000000 1.873120 
# 
# From -- ./inp_files/243931.got.cif
#   From: 2010.06.25/outbox.cif.g09.slc.cpg/sg15_122_cif.got.tgz:243931.got - 2010.06.28 07:06:18.
