data_PCOD8154833
_publ_section_title
;
Structure prediction by ZEFSAII (Michael W. Deem and Ramdas Pophale) SiO2 
 PCOD8154833
Probable space group: C 2/C
;
_chemical_formula_sum "Si O2"
_cell_formula_units_Z 32
_cell_length_a 12.123082
_cell_length_b 28.862186
_cell_length_c 9.923795
_cell_angle_alpha 90.000000
_cell_angle_beta 22.648108
_cell_angle_gamma 90.000000
_cell_volume 1337.088435
_symmetry_space_group_name_H-M "C 2/C"
_symmetry_group_IT_number 15
_symmetry_cell_setting 'monoclinic'
loop_
_space_group_symop_operation_xyz
x,y,z
-x,y,1/2-z
-x,-y,-z
x,-y,1/2+z
1/2+x,1/2+y,z
1/2-x,1/2+y,1/2-z
1/2-x,1/2-y,-z
1/2+x,1/2-y,1/2+z
loop_
_atom_site_type_symbol
_atom_site_label
_atom_site_fract_x
_atom_site_fract_y
_atom_site_fract_z
Si Si1 0.500000 0.283669 0.250000
Si Si2 0.546849 0.651589 0.454656
Si Si3 0.500000 0.461722 0.750000
Si Si4 0.431078 0.909971 0.066201
Si Si5 0.000000 0.214965 0.250000
Si Si6 0.500000 0.976412 0.750000
O O1 0.250000 0.250000 0.500000
O O2 0.385482 0.314600 0.500257
O O3 0.254163 0.624439 0.818800
O O4 0.471522 0.680784 0.407364
O O5 0.815901 0.616173 0.137073
O O6 0.702715 0.430474 0.428683
O O7 0.715639 0.492904 0.596982
O O8 0.561980 0.947773 0.816796
O O9 0.750000 0.250000 0.500000
#
# Coordination Sequence:
#
# PCOD8154833 Si02
#       6
#     4   8   4   8   4   4
#     4  12  24  44  70 102 137 180 229 284 344 412
#     4  12  25  44  69 101 138 181 228 285 346 412
#     4  12  25  43  68 100 138 184 232 286 348 417
#     4  12  25  44  69 101 138 182 231 287 347 413
#     4  12  25  44  67  98 135 178 223 276 337 406
#     4  12  24  45  69 100 138 182 232 290 349 413
#
# _framework density 23.932597999999999
#
# number of rings (size 3 to 8) (size 9 to 14) (size 15 to 20)
#    0.000    0.000    0.000   11.250    0.000    2.000 
#    0.000    0.000    0.000    0.000    0.000    0.000 
#    0.000    0.000    0.000    0.000    0.000    0.000 
#
# Total GULP energy -198387.898984 kJ/mol
# GULP energy per Si atom -12399.243686 kJ/mol
# Density = 2.387813 g / cm^3
# Si number density = 23.932598 Si / 1000 Ang^3
#
#
#
# Elastic Constant Matrix: (Units=GPa)
#
#
# Indices 1 2 3 4 5 6 
#
# 1 135.7786 64.3372 52.1446 0.0000 -11.6111 0.0000
# 2 64.3372 130.1450 55.5602 0.0000 -6.7468 -0.0001
# 3 52.1446 55.5602 118.0893 -0.0002 -9.8744 0.0000
# 4 0.0000 0.0000 -0.0002 53.9560 0.0001 -30.2961
# 5 -11.6111 -6.7468 -9.8744 0.0001 63.9893 0.0000
# 6 0.0000 -0.0001 0.0000 -30.2961 0.0000 53.4657
#
#
#
# Elastic Compliance Matrix: (Units=1/GPa)
#
#
# Indices 1 2 3 4 5 6 
#
# 1 0.010324 -0.003930 -0.002622 0.000000 0.001054 0.000000
# 2 -0.003930 0.011117 -0.003502 0.000000 -0.000081 0.000000
# 3 -0.002622 -0.003502 0.011349 0.000000 0.000906 0.000000
# 4 0.000000 0.000000 0.000000 0.027182 0.000000 0.015403
# 5 0.001054 -0.000081 0.000906 0.000000 0.015950 0.000000
# 6 0.000000 0.000000 0.000000 0.015403 0.000000 0.027431
#
#
# Mechanical properties :
#
#
# Convention : Reuss Voigt Hill
#
# Bulk Modulus (GPa) = 78.84276 80.89965 79.87120
# Shear Modulus (GPa) = 39.15751 48.41361 43.78556
#
# Velocity S-wave (km/s) = 4.04933 4.50256 4.28195
# Velocity P-wave (km/s) = 7.40797 7.80431 7.60872
#
# Compressibility (1/GPa) = 0.01268347
#
# Stress axis : x y z
#
# Youngs Moduli (GPa) = 96.86156 89.94978 88.11087
#
# Poissons Ratio (x) = 0.35348 0.23100
# Poissons Ratio (y) = 0.38065 0.30858
# Poissons Ratio (z) = 0.25394 0.31502
#
# Static dielectric constant tensor:
#      x y z
#    x 4.396050 0.000000 -0.224410 
#    y 0.000000 5.386360 0.000000 
#    z -0.224410 0.000000 4.366530 
# 
# 
# High freq. dielectric constant tensor:
#      x y z
#    x 1.965580 0.000000 -0.016550 
#    y 0.000000 1.979580 0.000000 
#    z -0.016550 0.000000 1.950280 
# 
# From -- ./inp_files/34965.got.cif
#   From: 2010.06.25/outbox.cif.g09.slc.cpg/sg15_18_cif.got.tgz:34965.got - 2010.06.28 07:06:18.
