data_PCOD8154355
_publ_section_title
;
Structure prediction by ZEFSAII (Michael W. Deem and Ramdas Pophale) SiO2 
 PCOD8154355
Probable space group: C 2/C
;
_chemical_formula_sum "Si O2"
_cell_formula_units_Z 24
_cell_length_a 21.415446
_cell_length_b 4.966801
_cell_length_c 13.250293
_cell_angle_alpha 90.000000
_cell_angle_beta 139.134525
_cell_angle_gamma 90.000000
_cell_volume 922.139204
_symmetry_space_group_name_H-M "C 2/C"
_symmetry_group_IT_number 15
_symmetry_cell_setting 'monoclinic'
loop_
_space_group_symop_operation_xyz
x,y,z
-x,y,1/2-z
-x,-y,-z
x,-y,1/2+z
1/2+x,1/2+y,z
1/2-x,1/2+y,1/2-z
1/2-x,1/2-y,-z
1/2+x,1/2-y,1/2+z
loop_
_atom_site_type_symbol
_atom_site_label
_atom_site_fract_x
_atom_site_fract_y
_atom_site_fract_z
Si Si1 0.624482 0.885633 0.995706
Si Si2 0.586092 0.016638 0.221901
Si Si3 0.333458 0.483963 0.786246
O O1 0.528095 0.016899 0.922104
O O2 0.620457 0.862444 0.870593
O O3 0.632144 0.591545 0.058223
O O4 0.718710 0.049847 0.143202
O O5 0.627353 0.219826 0.188862
O O6 0.626756 0.722447 0.249233
#
# Coordination Sequence:
#
# PCOD8154355 Si02
#       3
#     8   8   8
#     4  11  26  46  72 103 138 182 228 281 342 406
#     4  11  27  46  71 102 139 180 229 281 340 406
#     4  12  25  45  71 104 137 179 229 284 338 404
#
# _framework density 26.026441999999999
#
# number of rings (size 3 to 8) (size 9 to 14) (size 15 to 20)
#    0.000    0.667    0.000    6.000    0.000   16.000 
#    0.000    0.000    0.000    0.000    0.000    0.000 
#    0.000    0.000    0.000    0.000    0.000    0.000 
#
# Total GULP energy -148819.781978 kJ/mol
# GULP energy per Si atom -12401.648498 kJ/mol
# Density = 2.596720 g / cm^3
# Si number density = 26.026442 Si / 1000 Ang^3
#
#
#
# Elastic Constant Matrix: (Units=GPa)
#
#
# Indices 1 2 3 4 5 6 
#
# 1 123.1728 20.3349 55.7810 0.0001 23.4944 0.0000
# 2 20.3349 54.3563 11.1773 0.0001 13.7251 0.0001
# 3 55.7810 11.1773 152.7701 0.0000 16.5732 0.0000
# 4 0.0001 0.0001 0.0000 35.6319 0.0000 4.2407
# 5 23.4944 13.7251 16.5732 0.0000 37.0978 0.0000
# 6 0.0000 0.0001 0.0000 4.2407 0.0000 18.8742
#
#
#
# Elastic Compliance Matrix: (Units=1/GPa)
#
#
# Indices 1 2 3 4 5 6 
#
# 1 0.010855 -0.002226 -0.003304 0.000000 -0.004575 0.000000
# 2 -0.002226 0.020822 -0.000029 0.000000 -0.006280 0.000000
# 3 -0.003304 -0.000029 0.007910 0.000000 -0.001430 0.000000
# 4 0.000000 0.000000 0.000000 0.028836 0.000000 -0.006479
# 5 -0.004575 -0.006280 -0.001430 0.000000 0.032816 0.000000
# 6 0.000000 0.000000 0.000000 -0.006479 0.000000 0.054438
#
#
# Mechanical properties :
#
#
# Convention : Reuss Voigt Hill
#
# Bulk Modulus (GPa) = 35.12851 56.09839 45.61345
# Shear Modulus (GPa) = 28.36314 34.52118 31.44216
#
# Velocity S-wave (km/s) = 3.30477 3.64591 3.47952
# Velocity P-wave (km/s) = 5.29986 6.27094 5.80574
#
# Compressibility (1/GPa) = 0.02846690
#
# Stress axis : x y z
#
# Youngs Moduli (GPa) = 92.12069 48.02644 126.42866
#
# Poissons Ratio (x) = 0.10692 0.41777
# Poissons Ratio (y) = 0.20509 0.00369
# Poissons Ratio (z) = 0.30440 0.00140
#
# Static dielectric constant tensor:
#      x y z
#    x 5.056970 0.000000 0.085590 
#    y 0.000000 4.189580 0.000000 
#    z 0.085590 0.000000 5.036660 
# 
# 
# High freq. dielectric constant tensor:
#      x y z
#    x 2.075800 0.000000 0.007220 
#    y 0.000000 2.027760 0.000000 
#    z 0.007220 0.000000 2.058900 
# 
# From -- ./inp_files/164680.got.cif
#   From: 2010.06.25/outbox.cif.g09.slc.cpg/sg15_83_cif.got.tgz:164680.got - 2010.06.28 07:06:18.
