data_PCOD8154744
_publ_section_title
;
Structure prediction by ZEFSAII (Michael W. Deem and Ramdas Pophale) SiO2 
 PCOD8154744
Probable space group: C 2/C
;
_chemical_formula_sum "Si O2"
_cell_formula_units_Z 64
_cell_length_a 12.578117
_cell_length_b 15.465620
_cell_length_c 27.133372
_cell_angle_alpha 90.000000
_cell_angle_beta 33.665585
_cell_angle_gamma 90.000000
_cell_volume 2925.947729
_symmetry_space_group_name_H-M "C 2/C"
_symmetry_group_IT_number 15
_symmetry_cell_setting 'monoclinic'
loop_
_space_group_symop_operation_xyz
x,y,z
-x,y,1/2-z
-x,-y,-z
x,-y,1/2+z
1/2+x,1/2+y,z
1/2-x,1/2+y,1/2-z
1/2-x,1/2-y,-z
1/2+x,1/2-y,1/2+z
loop_
_atom_site_type_symbol
_atom_site_label
_atom_site_fract_x
_atom_site_fract_y
_atom_site_fract_z
Si Si1 0.219251 0.013051 0.405237
Si Si2 0.278768 0.711866 0.846106
Si Si3 0.804090 0.319397 0.353277
Si Si4 0.800916 0.185409 0.438407
Si Si5 0.585169 0.766041 0.524664
Si Si6 0.685314 0.627581 0.322959
Si Si7 0.996524 0.580526 0.377318
Si Si8 0.963176 0.442096 0.061502
O O1 0.306915 0.917332 0.372328
O O2 0.246295 0.060344 0.342124
O O3 0.312419 0.073302 0.412014
O O4 0.000000 0.000000 0.500000
O O5 0.500000 0.728755 0.750000
O O6 0.181029 0.772981 0.842870
O O7 0.239108 0.609160 0.857744
O O8 0.197163 0.742563 0.930130
O O9 0.847995 0.245751 0.375076
O O10 0.601376 0.298377 0.403010
O O11 0.000000 0.311300 0.250000
O O12 0.750000 0.250000 0.500000
O O13 0.615385 0.132830 0.495930
O O14 0.968071 0.116002 0.387292
O O15 0.750000 0.750000 0.500000
O O16 0.518989 0.861005 0.567505
O O17 0.824801 0.613037 0.223336
O O18 0.027126 0.486835 0.389166
O O19 0.000000 0.500000 0.000000
#
# Coordination Sequence:
#
# PCOD8154744 Si02
#       8
#     8   8   8   8   8   8   8   8
#     4  12  25  45  70 103 151 193 248 312 373 434
#     4  12  25  46  73 102 144 190 242 298 374 447
#     4  12  25  44  71 109 144 189 248 312 366 443
#     4  12  23  44  74  98 140 193 238 285 377 437
#     4  12  24  46  73 104 147 191 243 306 378 446
#     4  12  25  45  72 107 141 190 244 307 367 445
#     4  12  25  45  70 105 143 186 245 303 365 440
#     4  12  25  47  72 101 147 190 238 300 361 445
#
# _framework density 21.873255
#
# number of rings (size 3 to 8) (size 9 to 14) (size 15 to 20)
#    0.000    0.000    3.750    7.875    0.000    1.000 
#    6.750    0.625    0.000    0.000    0.000    0.000 
#    0.000    0.000    0.000    0.000    0.000    0.000 
#
# Total GULP energy -396469.757659 kJ/mol
# GULP energy per Si atom -12389.679927 kJ/mol
# Density = 2.182347 g / cm^3
# Si number density = 21.873255 Si / 1000 Ang^3
#
#
#
# Elastic Constant Matrix: (Units=GPa)
#
#
# Indices 1 2 3 4 5 6 
#
# 1 85.8871 18.6759 38.5545 -0.0014 -3.2856 0.0016
# 2 18.6759 103.5039 35.8738 0.0025 12.6081 0.0022
# 3 38.5545 35.8738 163.2139 -0.0014 2.6669 0.0139
# 4 -0.0014 0.0025 -0.0014 34.3288 0.0066 11.0947
# 5 -3.2856 12.6081 2.6669 0.0066 38.5665 -0.0019
# 6 0.0016 0.0022 0.0139 11.0947 -0.0019 40.3173
#
#
#
# Elastic Compliance Matrix: (Units=1/GPa)
#
#
# Indices 1 2 3 4 5 6 
#
# 1 0.013340 -0.001659 -0.002817 0.000000 0.001874 0.000001
# 2 -0.001659 0.011092 -0.001987 0.000000 -0.003630 0.000000
# 3 -0.002817 -0.001987 0.007231 0.000001 -0.000091 -0.000003
# 4 0.000000 0.000000 0.000001 0.031974 -0.000006 -0.008799
# 5 0.001874 -0.003630 -0.000091 -0.000006 0.027282 0.000003
# 6 0.000001 0.000000 -0.000003 -0.008799 0.000003 0.027224
#
#
# Mechanical properties :
#
#
# Convention : Reuss Voigt Hill
#
# Bulk Modulus (GPa) = 53.37111 59.86815 56.61963
# Shear Modulus (GPa) = 36.41303 39.94259 38.17781
#
# Velocity S-wave (km/s) = 4.08453 4.27792 4.18234
# Velocity P-wave (km/s) = 6.83357 7.19935 7.01884
#
# Compressibility (1/GPa) = 0.01873673
#
# Stress axis : x y z
#
# Youngs Moduli (GPa) = 74.96124 90.15878 138.30171
#
# Poissons Ratio (x) = 0.14956 0.38963
# Poissons Ratio (y) = 0.12435 0.27476
# Poissons Ratio (z) = 0.21118 0.17912
#
# Static dielectric constant tensor:
#      x y z
#    x 4.438180 -0.000450 -0.010730 
#    y -0.000450 5.008000 0.000230 
#    z -0.010730 0.000230 4.179010 
# 
# 
# High freq. dielectric constant tensor:
#      x y z
#    x 1.868440 0.000000 -0.001900 
#    y 0.000000 1.873470 0.000000 
#    z -0.001900 0.000000 1.873130 
# 
# From -- ./inp_files/293040.got.cif
#   From: 2010.06.25/outbox.cif.g09.slc.cpg/sg15_147_cif.got.tgz:293040.got - 2010.06.28 07:06:18.
