data_PCOD8154519
_publ_section_title
;
Structure prediction by ZEFSAII (Michael W. Deem and Ramdas Pophale) SiO2 
 PCOD8154519
Probable space group: C 2/C
;
_chemical_formula_sum "Si O2"
_cell_formula_units_Z 56
_cell_length_a 18.523988
_cell_length_b 17.760152
_cell_length_c 8.602292
_cell_angle_alpha 90.000000
_cell_angle_beta 75.739434
_cell_angle_gamma 90.000000
_cell_volume 2742.851262
_symmetry_space_group_name_H-M "C 2/C"
_symmetry_group_IT_number 15
_symmetry_cell_setting 'monoclinic'
loop_
_space_group_symop_operation_xyz
x,y,z
-x,y,1/2-z
-x,-y,-z
x,-y,1/2+z
1/2+x,1/2+y,z
1/2-x,1/2+y,1/2-z
1/2-x,1/2-y,-z
1/2+x,1/2-y,1/2+z
loop_
_atom_site_type_symbol
_atom_site_label
_atom_site_fract_x
_atom_site_fract_y
_atom_site_fract_z
Si Si1 0.027444 0.727018 0.559245
Si Si2 0.661151 0.989790 0.176893
Si Si3 0.390506 0.716812 0.992454
Si Si4 0.241805 0.124150 0.377732
Si Si5 0.199317 0.341860 0.326146
Si Si6 0.062719 0.438479 0.954703
Si Si7 0.329652 0.750027 0.686055
O O1 0.023109 0.641279 0.498292
O O2 0.114008 0.750590 0.490319
O O3 0.000000 0.731901 0.750000
O O4 0.979143 0.784744 0.477635
O O5 0.671113 0.924089 0.297395
O O6 0.631830 0.952254 0.035697
O O7 0.739915 0.034795 0.123360
O O8 0.599793 0.051294 0.265209
O O9 0.375814 0.732463 0.819055
O O10 0.347365 0.641526 0.078989
O O11 0.368998 0.784340 0.125087
O O12 0.266708 0.163476 0.521726
O O13 0.288254 0.168261 0.218887
O O14 0.266318 0.312315 0.179929
O O15 0.000000 0.500000 0.000000
#
# Coordination Sequence:
#
# PCOD8154519 Si02
#       7
#     8   8   8   8   8   8   8
#     4  12  23  36  50  85 121 150 183 230 293 337
#     4  12  21  37  56  82 115 151 188 232 285 341
#     4   9  19  36  59  76 108 150 198 234 268 337
#     4   9  18  36  57  81 104 147 201 236 269 333
#     4   9  18  36  57  82 107 141 197 245 274 329
#     4  12  25  35  52  81 123 157 180 221 286 350
#     4   9  19  36  59  77 103 153 197 233 277 330
#
# _framework density 20.416710999999999
#
# number of rings (size 3 to 8) (size 9 to 14) (size 15 to 20)
#    0.000    1.714    2.857    5.143    2.000    1.143 
#    2.571    2.143    0.000    0.857    0.000    0.000 
#    0.000    0.000    0.000    0.000    0.000    0.000 
#
# Total GULP energy -346887.868723 kJ/mol
# GULP energy per Si atom -12388.852454 kJ/mol
# Density = 2.037024 g / cm^3
# Si number density = 20.416711 Si / 1000 Ang^3
#
#
#
# Elastic Constant Matrix: (Units=GPa)
#
#
# Indices 1 2 3 4 5 6 
#
# 1 60.1168 20.0520 3.7454 0.0000 -11.7479 0.0000
# 2 20.0520 57.0716 -0.1491 0.0000 -6.4180 0.0000
# 3 3.7454 -0.1491 61.3688 0.0000 -21.9011 0.0000
# 4 0.0000 0.0000 0.0000 24.2037 0.0000 -7.2656
# 5 -11.7479 -6.4180 -21.9011 0.0000 29.2834 0.0000
# 6 0.0000 0.0000 0.0000 -7.2656 0.0000 32.1535
#
#
#
# Elastic Compliance Matrix: (Units=1/GPa)
#
#
# Indices 1 2 3 4 5 6 
#
# 1 0.020144 -0.006184 0.001577 0.000000 0.007905 0.000000
# 2 -0.006184 0.020041 0.001512 0.000000 0.003042 0.000000
# 3 0.001577 0.001512 0.022571 0.000000 0.017844 0.000000
# 4 0.000000 0.000000 0.000000 0.044322 0.000000 0.010015
# 5 0.007905 0.003042 0.017844 0.000000 0.051333 0.000000
# 6 0.000000 0.000000 0.000000 0.010015 0.000000 0.033364
#
#
# Mechanical properties :
#
#
# Convention : Reuss Voigt Hill
#
# Bulk Modulus (GPa) = 17.67937 25.09486 21.38712
# Shear Modulus (GPa) = 23.06057 27.45540 25.25799
#
# Velocity S-wave (km/s) = 3.36444 3.67106 3.52109
# Velocity P-wave (km/s) = 4.87552 5.50336 5.19893
#
# Compressibility (1/GPa) = 0.05656309
#
# Stress axis : x y z
#
# Youngs Moduli (GPa) = 49.64355 49.89840 44.30541
#
# Poissons Ratio (x) = 0.30859 -0.06985
# Poissons Ratio (y) = 0.30701 -0.06698
# Poissons Ratio (z) = -0.07827 -0.07543
#
# Static dielectric constant tensor:
#      x y z
#    x 3.787620 0.000000 -0.221940 
#    y 0.000000 3.516730 0.000000 
#    z -0.221940 0.000000 3.725660 
# 
# 
# High freq. dielectric constant tensor:
#      x y z
#    x 1.788530 0.000000 -0.010520 
#    y 0.000000 1.764620 0.000000 
#    z -0.010520 0.000000 1.796690 
# 
# From -- ./inp_files/48996.got.cif
#   From: 2010.06.25/outbox.cif.g09.slc.cpg/sg15_25_cif.got.tgz:48996.got - 2010.06.28 07:06:18.
