data_PCOD8154300
_publ_section_title
;
Structure prediction by ZEFSAII (Michael W. Deem and Ramdas Pophale) SiO2 
 PCOD8154300
Probable space group: C 2/C
;
_chemical_formula_sum "Si O2"
_cell_formula_units_Z 24
_cell_length_a 10.025219
_cell_length_b 10.176906
_cell_length_c 18.663402
_cell_angle_alpha 90.000000
_cell_angle_beta 154.450009
_cell_angle_gamma 90.000000
_cell_volume 821.255583
_symmetry_space_group_name_H-M "C 2/C"
_symmetry_group_IT_number 15
_symmetry_cell_setting 'monoclinic'
loop_
_space_group_symop_operation_xyz
x,y,z
-x,y,1/2-z
-x,-y,-z
x,-y,1/2+z
1/2+x,1/2+y,z
1/2-x,1/2+y,1/2-z
1/2-x,1/2-y,-z
1/2+x,1/2-y,1/2+z
loop_
_atom_site_type_symbol
_atom_site_label
_atom_site_fract_x
_atom_site_fract_y
_atom_site_fract_z
Si Si1 0.860591 0.242850 0.252916
Si Si2 0.357315 0.446855 0.503693
Si Si3 0.209988 0.610407 0.563537
O O1 0.000000 0.166790 0.250000
O O2 0.005380 0.390423 0.323273
O O3 0.935591 0.173558 0.364800
O O4 0.494191 0.238221 0.057989
O O5 0.500000 0.500000 0.500000
O O6 0.361073 0.560169 0.563595
O O7 0.500000 0.660873 0.750000
O O8 0.000000 0.500000 0.500000
#
# Coordination Sequence:
#
# PCOD8154300 Si02
#       3
#     8   8   8
#     4  11  25  49  82 119 168 220 279 344 424 508
#     4  11  26  48  84 123 165 217 288 353 415 505
#     4  12  23  50  83 116 172 231 272 347 428 497
#
# _framework density 29.223545999999999
#
# number of rings (size 3 to 8) (size 9 to 14) (size 15 to 20)
#    0.000    0.667    6.667    0.000    4.667    0.000 
#    0.000    6.667    7.333    0.000    0.000    0.000 
#    0.000    0.000    0.000    0.000    0.000    0.000 
#
# Total GULP energy -148713.862829 kJ/mol
# GULP energy per Si atom -12392.821902 kJ/mol
# Density = 2.915703 g / cm^3
# Si number density = 29.223546 Si / 1000 Ang^3
#
#
#
# Elastic Constant Matrix: (Units=GPa)
#
#
# Indices 1 2 3 4 5 6 
#
# 1 217.9945 51.5678 41.8995 -0.0096 -21.8403 0.0038
# 2 51.5678 98.8577 67.7548 -0.0077 -10.0756 0.0030
# 3 41.8995 67.7548 243.8677 -0.0220 -27.7884 0.0147
# 4 -0.0096 -0.0077 -0.0220 49.9908 -0.0035 6.4980
# 5 -21.8403 -10.0756 -27.7884 -0.0035 48.4398 0.0001
# 6 0.0038 0.0030 0.0147 6.4980 0.0001 40.0030
#
#
#
# Elastic Compliance Matrix: (Units=1/GPa)
#
#
# Indices 1 2 3 4 5 6 
#
# 1 0.005397 -0.002637 0.000021 0.000001 0.001897 0.000000
# 2 -0.002637 0.013802 -0.003413 0.000000 -0.000276 0.000000
# 3 0.000021 -0.003413 0.005313 0.000002 0.002347 -0.000002
# 4 0.000001 0.000000 0.000002 0.020435 0.000003 -0.003319
# 5 0.001897 -0.000276 0.002347 0.000003 0.022789 -0.000002
# 6 0.000000 0.000000 -0.000002 -0.003319 -0.000002 0.025537
#
#
# Mechanical properties :
#
#
# Convention : Reuss Voigt Hill
#
# Bulk Modulus (GPa) = 80.28804 98.12936 89.20870
# Shear Modulus (GPa) = 45.66994 54.31990 49.99492
#
# Velocity S-wave (km/s) = 3.95749 4.31602 4.14064
# Velocity P-wave (km/s) = 6.95814 7.64782 7.31112
#
# Compressibility (1/GPa) = 0.01245516
#
# Stress axis : x y z
#
# Youngs Moduli (GPa) = 185.29082 72.45302 188.22933
#
# Poissons Ratio (x) = 0.19103 -0.00404
# Poissons Ratio (y) = 0.48853 0.64245
# Poissons Ratio (z) = -0.00398 0.24729
#
# Static dielectric constant tensor:
#      x y z
#    x 6.054450 0.000010 -0.306930 
#    y 0.000010 5.126630 -0.000020 
#    z -0.306930 -0.000020 5.778220 
# 
# 
# High freq. dielectric constant tensor:
#      x y z
#    x 2.215720 0.000000 -0.013270 
#    y 0.000000 2.167130 0.000000 
#    z -0.013270 0.000000 2.201240 
# 
# From -- ./inp_files/46836.got.cif
#   From: 2010.06.25/outbox.cif.g09.slc.cpg/sg15_24_cif.got.tgz:46836.got - 2010.06.28 07:06:18.
