data_PCOD8154195
_publ_section_title
;
Structure prediction by ZEFSAII (Michael W. Deem and Ramdas Pophale) SiO2 
 PCOD8154195
Probable space group: C 2/C
;
_chemical_formula_sum "Si O2"
_cell_formula_units_Z 32
_cell_length_a 8.851142
_cell_length_b 32.226906
_cell_length_c 5.370172
_cell_angle_alpha 90.000000
_cell_angle_beta 119.501230
_cell_angle_gamma 90.000000
_cell_volume 1333.207098
_symmetry_space_group_name_H-M "C 2/C"
_symmetry_group_IT_number 15
_symmetry_cell_setting 'monoclinic'
loop_
_space_group_symop_operation_xyz
x,y,z
-x,y,1/2-z
-x,-y,-z
x,-y,1/2+z
1/2+x,1/2+y,z
1/2-x,1/2+y,1/2-z
1/2-x,1/2-y,-z
1/2+x,1/2-y,1/2+z
loop_
_atom_site_type_symbol
_atom_site_label
_atom_site_fract_x
_atom_site_fract_y
_atom_site_fract_z
Si Si1 0.184391 0.613848 0.772014
Si Si2 0.200080 0.518426 0.863839
Si Si3 0.248591 0.776571 0.748051
Si Si4 0.500000 0.664403 0.250000
Si Si5 0.500000 0.163351 0.250000
O O1 0.227481 0.565448 0.800161
O O2 0.000000 0.621979 0.750000
O O3 0.155836 0.633771 0.476370
O O4 0.345326 0.636146 0.027211
O O5 0.285130 0.491320 0.705425
O O6 0.000000 0.506295 0.750000
O O7 0.250000 0.750000 0.500000
O O8 0.417219 0.806600 0.892890
O O9 0.076010 0.805165 0.598621
O O10 0.250000 0.750000 0.000000
#
# Coordination Sequence:
#
# PCOD8154195 Si02
#       5
#     8   8   8   4   4
#     4  11  25  46  72 107 149 189 245 304 360 437
#     4   9  20  38  67 102 142 192 238 288 359 432
#     4  12  27  48  73 106 143 190 246 302 369 445
#     4  12  26  50  76 108 142 198 242 302 376 434
#     4  12  26  46  72 104 148 188 240 310 364 426
#
# _framework density 24.002274
#
# number of rings (size 3 to 8) (size 9 to 14) (size 15 to 20)
#    0.000    1.000    2.500    3.000    8.750    3.000 
#    0.000    1.250    0.000    0.000    0.000    0.000 
#    0.000    0.000    0.000    0.000    0.000    0.000 
#
# Total GULP energy -198260.678635 kJ/mol
# GULP energy per Si atom -12391.292415 kJ/mol
# Density = 2.394764 g / cm^3
# Si number density = 24.002274 Si / 1000 Ang^3
#
#
#
# Elastic Constant Matrix: (Units=GPa)
#
#
# Indices 1 2 3 4 5 6 
#
# 1 99.7920 68.9780 50.9619 0.0000 -1.8176 0.0000
# 2 68.9780 190.2897 92.0038 0.0000 -16.9292 0.0000
# 3 50.9619 92.0038 168.4212 0.0000 -19.3028 0.0000
# 4 0.0000 0.0000 0.0000 18.3889 0.0000 -10.8210
# 5 -1.8176 -16.9292 -19.3028 0.0000 47.5788 0.0000
# 6 0.0000 0.0000 0.0000 -10.8210 0.0000 27.0514
#
#
#
# Elastic Compliance Matrix: (Units=1/GPa)
#
#
# Indices 1 2 3 4 5 6 
#
# 1 0.013983 -0.004192 -0.002151 0.000000 -0.001830 0.000000
# 2 -0.004192 0.008444 -0.003166 0.000000 0.001560 0.000000
# 3 -0.002151 -0.003166 0.008578 0.000000 0.002272 0.000000
# 4 0.000000 0.000000 0.000000 0.071122 0.000000 0.028450
# 5 -0.001830 0.001560 0.002272 0.000000 0.022425 0.000000
# 6 0.000000 0.000000 0.000000 0.028450 0.000000 0.048347
#
#
# Mechanical properties :
#
#
# Convention : Reuss Voigt Hill
#
# Bulk Modulus (GPa) = 83.41194 98.04335 90.72765
# Shear Modulus (GPa) = 25.52169 35.04110 30.28139
#
# Velocity S-wave (km/s) = 3.26437 3.82502 3.55576
# Velocity P-wave (km/s) = 7.00252 7.77457 7.39862
#
# Compressibility (1/GPa) = 0.01198869
#
# Stress axis : x y z
#
# Youngs Moduli (GPa) = 71.51366 118.42965 116.57733
#
# Poissons Ratio (x) = 0.49640 0.25078
# Poissons Ratio (y) = 0.29975 0.36903
# Poissons Ratio (z) = 0.15384 0.37489
#
# Static dielectric constant tensor:
#      x y z
#    x 4.682940 0.000000 -0.248860 
#    y 0.000000 4.517770 0.000000 
#    z -0.248860 0.000000 4.376650 
# 
# 
# High freq. dielectric constant tensor:
#      x y z
#    x 1.946710 0.000000 -0.013500 
#    y 0.000000 1.968800 0.000000 
#    z -0.013500 0.000000 1.942070 
# 
# From -- ./inp_files/2722.got.cif
#   From: 2010.06.25/outbox.cif.g09.slc.cpg/sg15_2_cif.got.tgz:2722.got - 2010.06.28 07:06:18.
