data_PCOD8154603
_publ_section_title
;
Structure prediction by ZEFSAII (Michael W. Deem and Ramdas Pophale) SiO2 
 PCOD8154603
Probable space group: C 2/C
;
_chemical_formula_sum "Si O2"
_cell_formula_units_Z 40
_cell_length_a 14.009177
_cell_length_b 5.712937
_cell_length_c 21.243927
_cell_angle_alpha 90.000000
_cell_angle_beta 84.964714
_cell_angle_gamma 90.000000
_cell_volume 1693.665343
_symmetry_space_group_name_H-M "C 2/C"
_symmetry_group_IT_number 15
_symmetry_cell_setting 'monoclinic'
loop_
_space_group_symop_operation_xyz
x,y,z
-x,y,1/2-z
-x,-y,-z
x,-y,1/2+z
1/2+x,1/2+y,z
1/2-x,1/2+y,1/2-z
1/2-x,1/2-y,-z
1/2+x,1/2-y,1/2+z
loop_
_atom_site_type_symbol
_atom_site_label
_atom_site_fract_x
_atom_site_fract_y
_atom_site_fract_z
Si Si1 0.767834 0.844532 0.068474
Si Si2 0.611099 0.138365 0.124011
Si Si3 0.746189 0.199477 0.786469
Si Si4 0.085142 0.820482 0.989135
Si Si5 0.907016 0.510578 0.621882
O O1 0.828012 0.682785 0.111328
O O2 0.669582 0.894689 0.112018
O O3 0.825468 0.084225 0.055855
O O4 0.750000 0.750000 0.000000
O O5 0.661752 0.301986 0.172699
O O6 0.501121 0.093679 0.150998
O O7 0.619635 0.263264 0.056434
O O8 0.747199 0.452905 0.751645
O O9 0.644492 0.197670 0.829599
O O10 0.051955 0.603013 0.947731
O O11 0.000000 0.000000 0.000000
#
# Coordination Sequence:
#
# PCOD8154603 Si02
#       5
#     8   8   8   8   8
#     4  12  22  41  71 111 163 199 237 307 386 480
#     4  12  25  49  77 114 152 206 246 326 397 461
#     4  12  30  56  80 109 152 213 280 328 375 451
#     4  12  23  41  73 120 156 187 247 308 399 487
#     4  12  26  49  75 114 154 197 257 316 396 469
#
# _framework density 23.617417
#
# number of rings (size 3 to 8) (size 9 to 14) (size 15 to 20)
#    0.000    0.000    6.000    4.800    0.000    2.400 
#    0.000    6.000    0.000    0.000    0.000    0.000 
#    0.000    0.000    0.000    0.000    0.000    0.000 
#
# Total GULP energy -247899.039424 kJ/mol
# GULP energy per Si atom -12394.951971 kJ/mol
# Density = 2.356366 g / cm^3
# Si number density = 23.617417 Si / 1000 Ang^3
#
#
#
# Elastic Constant Matrix: (Units=GPa)
#
#
# Indices 1 2 3 4 5 6 
#
# 1 164.4127 50.3076 50.0764 0.0000 4.2155 0.0000
# 2 50.3076 119.7460 56.0636 0.0000 7.9574 0.0000
# 3 50.0764 56.0636 114.8891 0.0000 5.0975 0.0000
# 4 0.0000 0.0000 0.0000 41.2818 0.0000 -6.0696
# 5 4.2155 7.9574 5.0975 0.0000 28.9566 0.0000
# 6 0.0000 0.0000 0.0000 -6.0696 0.0000 48.2051
#
#
#
# Elastic Compliance Matrix: (Units=1/GPa)
#
#
# Indices 1 2 3 4 5 6 
#
# 1 0.007389 -0.002062 -0.002209 0.000000 -0.000120 0.000000
# 2 -0.002062 0.011523 -0.004633 0.000000 -0.002051 0.000000
# 3 -0.002209 -0.004633 0.011950 0.000000 -0.000509 0.000000
# 4 0.000000 0.000000 0.000000 0.024681 0.000000 0.003108
# 5 -0.000120 -0.002051 -0.000509 0.000000 0.035205 0.000000
# 6 0.000000 0.000000 0.000000 0.003108 0.000000 0.021136
#
#
# Mechanical properties :
#
#
# Convention : Reuss Voigt Hill
#
# Bulk Modulus (GPa) = 76.60652 79.10477 77.85565
# Shear Modulus (GPa) = 37.30127 39.86206 38.58166
#
# Velocity S-wave (km/s) = 3.97847 4.11277 4.04618
# Velocity P-wave (km/s) = 7.32197 7.49134 7.40714
#
# Compressibility (1/GPa) = 0.01305372
#
# Stress axis : x y z
#
# Youngs Moduli (GPa) = 135.33384 86.78480 83.67937
#
# Poissons Ratio (x) = 0.17895 0.18486
# Poissons Ratio (y) = 0.27907 0.38770
# Poissons Ratio (z) = 0.29897 0.40208
#
# Static dielectric constant tensor:
#      x y z
#    x 4.565510 0.000000 0.109690 
#    y 0.000000 3.298390 0.000000 
#    z 0.109690 0.000000 4.417430 
# 
# 
# High freq. dielectric constant tensor:
#      x y z
#    x 1.950320 0.000000 0.002630 
#    y 0.000000 1.937370 0.000000 
#    z 0.002630 0.000000 1.933710 
# 
# From -- ./inp_files/271654.got.cif
#   From: 2010.06.25/outbox.cif.g09.slc.cpg/sg15_136_cif.got.tgz:271654.got - 2010.06.28 07:06:18.
