data_PCOD8154226
_publ_section_title
;
Structure prediction by ZEFSAII (Michael W. Deem and Ramdas Pophale) SiO2 
 PCOD8154226
Probable space group: C 2/C
;
_chemical_formula_sum "Si O2"
_cell_formula_units_Z 44
_cell_length_a 11.670806
_cell_length_b 14.693901
_cell_length_c 12.202884
_cell_angle_alpha 90.000000
_cell_angle_beta 98.980341
_cell_angle_gamma 90.000000
_cell_volume 2067.016505
_symmetry_space_group_name_H-M "C 2/C"
_symmetry_group_IT_number 15
_symmetry_cell_setting 'monoclinic'
loop_
_space_group_symop_operation_xyz
x,y,z
-x,y,1/2-z
-x,-y,-z
x,-y,1/2+z
1/2+x,1/2+y,z
1/2-x,1/2+y,1/2-z
1/2-x,1/2-y,-z
1/2+x,1/2-y,1/2+z
loop_
_atom_site_type_symbol
_atom_site_label
_atom_site_fract_x
_atom_site_fract_y
_atom_site_fract_z
Si Si1 0.086376 0.755990 0.863880
Si Si2 0.323934 0.972067 0.403487
Si Si3 0.011093 0.633317 0.051798
Si Si4 0.614376 0.553896 0.485677
Si Si5 0.000000 0.235141 0.750000
Si Si6 0.776057 0.142509 0.795000
O O1 0.081951 0.853999 0.918416
O O2 0.215171 0.731630 0.839021
O O3 0.000000 0.755052 0.750000
O O4 0.053694 0.679255 0.946540
O O5 0.392619 0.920709 0.510280
O O6 0.317143 0.909893 0.294268
O O7 0.390250 0.066014 0.386614
O O8 0.192474 0.990795 0.420224
O O9 0.982531 0.706973 0.138518
O O10 0.500000 0.500000 0.500000
O O11 0.686034 0.573345 0.605531
O O12 0.886709 0.172853 0.741589
#
# Coordination Sequence:
#
# PCOD8154226 Si02
#       6
#     8   8   8   8   4   8
#     4  12  25  49  73 100 140 194 235 289 364 419
#     4  11  26  43  72 103 138 182 241 292 351 411
#     4  11  25  47  70 104 137 187 239 296 345 420
#     4  12  27  45  68 102 146 183 235 290 359 418
#     4  12  26  42  70 100 142 182 242 284 348 420
#     4  12  25  46  70  99 143 186 231 293 353 425
#
# _framework density 21.286719000000002
#
# number of rings (size 3 to 8) (size 9 to 14) (size 15 to 20)
#    0.000    0.364    5.455    2.727    5.091    2.182 
#    0.000    0.000    0.000    0.000    0.000    0.000 
#    0.000    0.000    0.000    0.000    0.000    0.000 
#
# Total GULP energy -272961.500491 kJ/mol
# GULP energy per Si atom -12407.340931 kJ/mol
# Density = 2.123827 g / cm^3
# Si number density = 21.286719 Si / 1000 Ang^3
#
#
#
# Elastic Constant Matrix: (Units=GPa)
#
#
# Indices 1 2 3 4 5 6 
#
# 1 102.4050 46.5709 15.9355 0.0000 -0.6703 0.0000
# 2 46.5709 116.9864 41.1713 0.0000 0.8788 0.0000
# 3 15.9355 41.1713 102.5301 0.0000 11.0343 0.0000
# 4 0.0000 0.0000 0.0000 30.5319 0.0000 -5.4342
# 5 -0.6703 0.8788 11.0343 0.0000 29.6880 0.0000
# 6 0.0000 0.0000 0.0000 -5.4342 0.0000 38.4341
#
#
#
# Elastic Compliance Matrix: (Units=1/GPa)
#
#
# Indices 1 2 3 4 5 6 
#
# 1 0.011929 -0.004756 0.000012 0.000000 0.000406 0.000000
# 2 -0.004756 0.011895 -0.004154 0.000000 0.001084 0.000000
# 3 0.000012 -0.004154 0.011881 0.000000 -0.004293 0.000000
# 4 0.000000 0.000000 0.000000 0.033598 0.000000 0.004750
# 5 0.000406 0.001084 -0.004293 0.000000 0.035256 0.000000
# 6 0.000000 0.000000 0.000000 0.004750 0.000000 0.026690
#
#
# Mechanical properties :
#
#
# Convention : Reuss Voigt Hill
#
# Bulk Modulus (GPa) = 55.83638 58.80855 57.32247
# Shear Modulus (GPa) = 32.25482 34.28039 33.26761
#
# Velocity S-wave (km/s) = 3.89685 4.01735 3.95756
# Velocity P-wave (km/s) = 6.82164 7.01467 6.91883
#
# Compressibility (1/GPa) = 0.01790947
#
# Stress axis : x y z
#
# Youngs Moduli (GPa) = 83.83054 84.06808 84.16521
#
# Poissons Ratio (x) = 0.39983 -0.00102
# Poissons Ratio (y) = 0.39870 0.34963
# Poissons Ratio (z) = -0.00102 0.34922
#
# Static dielectric constant tensor:
#      x y z
#    x 4.521730 0.000000 -0.077940 
#    y 0.000000 3.888110 0.000000 
#    z -0.077940 0.000000 3.937620 
# 
# 
# High freq. dielectric constant tensor:
#      x y z
#    x 1.845960 0.000000 0.003100 
#    y 0.000000 1.844160 0.000000 
#    z 0.003100 0.000000 1.845360 
# 
# From -- ./inp_files/86054.got.cif
#   From: 2010.06.25/outbox.cif.g09.slc.cpg/sg15_44_cif.got.tgz:86054.got - 2010.06.28 07:06:18.
