data_PCOD8154520
_publ_section_title
;
Structure prediction by ZEFSAII (Michael W. Deem and Ramdas Pophale) SiO2 
 PCOD8154520
Probable space group: C 2/C
;
_chemical_formula_sum "Si O2"
_cell_formula_units_Z 56
_cell_length_a 23.586340
_cell_length_b 13.672108
_cell_length_c 24.061730
_cell_angle_alpha 90.000000
_cell_angle_beta 160.329194
_cell_angle_gamma 90.000000
_cell_volume 2611.902744
_symmetry_space_group_name_H-M "C 2/C"
_symmetry_group_IT_number 15
_symmetry_cell_setting 'monoclinic'
loop_
_space_group_symop_operation_xyz
x,y,z
-x,y,1/2-z
-x,-y,-z
x,-y,1/2+z
1/2+x,1/2+y,z
1/2-x,1/2+y,1/2-z
1/2-x,1/2-y,-z
1/2+x,1/2-y,1/2+z
loop_
_atom_site_type_symbol
_atom_site_label
_atom_site_fract_x
_atom_site_fract_y
_atom_site_fract_z
Si Si1 0.121508 0.219170 0.211643
Si Si2 0.301896 0.637458 0.057039
Si Si3 0.184480 0.446497 0.562545
Si Si4 0.207367 0.888257 0.070471
Si Si5 0.195174 0.892163 0.256394
Si Si6 0.363073 0.300977 0.900011
Si Si7 0.320686 0.991495 0.765802
O O1 0.285842 0.151667 0.373899
O O2 0.148110 0.322946 0.265946
O O3 0.079558 0.231819 0.108439
O O4 0.965683 0.169295 0.098394
O O5 0.500000 0.628927 0.250000
O O6 0.203176 0.582339 0.015312
O O7 0.250000 0.750000 0.000000
O O8 0.242793 0.581093 0.946096
O O9 0.318612 0.531299 0.705078
O O10 0.005479 0.492595 0.412053
O O11 0.186643 0.978968 0.093390
O O12 0.302400 0.797305 0.374782
O O13 0.287959 0.947362 0.291277
O O14 0.013695 0.853879 0.070556
O O15 0.208050 0.376655 0.750081
#
# Coordination Sequence:
#
# PCOD8154520 Si02
#       7
#     8   8   8   8   8   8   8
#     4  12  21  37  63  94 134 172 219 266 324 401
#     4  12  26  42  65  95 134 175 220 270 333 391
#     4  12  26  40  62  94 134 174 223 270 327 398
#     4  12  23  39  61  94 133 175 216 270 329 391
#     4  12  25  42  65  95 136 176 220 271 333 394
#     4  12  24  41  66  98 133 178 217 269 332 399
#     4  12  25  39  66  95 133 173 218 269 332 396
#
# _framework density 21.440308999999999
#
# number of rings (size 3 to 8) (size 9 to 14) (size 15 to 20)
#    0.000    0.000    7.143    3.429    4.000    0.000 
#    0.000    0.000    0.000    0.857    0.000    0.000 
#    0.000    0.000    0.000    0.000    0.000    0.000 
#
# Total GULP energy -347147.560660 kJ/mol
# GULP energy per Si atom -12398.127166 kJ/mol
# Density = 2.139151 g / cm^3
# Si number density = 21.440309 Si / 1000 Ang^3
#
#
#
# Elastic Constant Matrix: (Units=GPa)
#
#
# Indices 1 2 3 4 5 6 
#
# 1 112.5603 43.5020 29.6231 -0.0329 -21.9962 -0.0052
# 2 43.5020 103.6388 8.1916 -0.0592 -17.1727 -0.0254
# 3 29.6231 8.1916 65.4982 -0.0078 -7.1827 -0.0232
# 4 -0.0329 -0.0592 -0.0078 35.6094 -0.0082 -6.8381
# 5 -21.9962 -17.1727 -7.1827 -0.0082 35.2240 -0.0067
# 6 -0.0052 -0.0254 -0.0232 -6.8381 -0.0067 34.0862
#
#
#
# Elastic Compliance Matrix: (Units=1/GPa)
#
#
# Indices 1 2 3 4 5 6 
#
# 1 0.012679 -0.004132 -0.004675 0.000004 0.004950 -0.000002
# 2 -0.004132 0.011882 0.000752 0.000019 0.003366 0.000013
# 3 -0.004675 0.000752 0.017397 0.000003 0.000995 0.000013
# 4 0.000004 0.000019 0.000003 0.029208 0.000021 0.005859
# 5 0.004950 0.003366 0.000995 0.000021 0.033324 0.000015
# 6 -0.000002 0.000013 0.000013 0.005859 0.000015 0.030513
#
#
# Mechanical properties :
#
#
# Convention : Reuss Voigt Hill
#
# Bulk Modulus (GPa) = 38.68858 49.37008 44.02933
# Shear Modulus (GPa) = 31.30334 34.34263 32.82298
#
# Velocity S-wave (km/s) = 3.82517 4.00656 3.91692
# Velocity P-wave (km/s) = 6.13133 6.66934 6.40599
#
# Compressibility (1/GPa) = 0.02584742
#
# Stress axis : x y z
#
# Youngs Moduli (GPa) = 78.87307 84.16373 57.48164
#
# Poissons Ratio (x) = 0.34778 0.26870
# Poissons Ratio (y) = 0.32592 -0.04322
# Poissons Ratio (z) = 0.36870 -0.06329
#
# Static dielectric constant tensor:
#      x y z
#    x 3.918420 0.000010 -0.219190 
#    y 0.000010 4.205980 -0.000170 
#    z -0.219190 -0.000170 4.115960 
# 
# 
# High freq. dielectric constant tensor:
#      x y z
#    x 1.816520 0.000000 -0.002620 
#    y 0.000000 1.833690 -0.000010 
#    z -0.002620 -0.000010 1.863560 
# 
# From -- ./inp_files/282113.got.cif
#   From: 2010.06.25/outbox.cif.g09.slc.cpg/sg15_142_cif.got.tgz:282113.got - 2010.06.28 07:06:18.
