data_PCOD8154763
_publ_section_title
;
Structure prediction by ZEFSAII (Michael W. Deem and Ramdas Pophale) SiO2 
 PCOD8154763
Probable space group: C 2/C
;
_chemical_formula_sum "Si O2"
_cell_formula_units_Z 48
_cell_length_a 29.258803
_cell_length_b 5.103743
_cell_length_c 17.065979
_cell_angle_alpha 90.000000
_cell_angle_beta 118.989684
_cell_angle_gamma 90.000000
_cell_volume 2229.149276
_symmetry_space_group_name_H-M "C 2/C"
_symmetry_group_IT_number 15
_symmetry_cell_setting 'monoclinic'
loop_
_space_group_symop_operation_xyz
x,y,z
-x,y,1/2-z
-x,-y,-z
x,-y,1/2+z
1/2+x,1/2+y,z
1/2-x,1/2+y,1/2-z
1/2-x,1/2-y,-z
1/2+x,1/2-y,1/2+z
loop_
_atom_site_type_symbol
_atom_site_label
_atom_site_fract_x
_atom_site_fract_y
_atom_site_fract_z
Si Si1 0.326882 0.499054 0.445196
Si Si2 0.848878 0.039083 0.639561
Si Si3 0.704903 0.038503 0.839536
Si Si4 0.649541 0.002679 0.636177
Si Si5 0.965393 0.468469 0.395205
Si Si6 0.465247 0.532317 0.796263
O O1 0.354787 0.490523 0.552284
O O2 0.265256 0.507053 0.407081
O O3 0.345260 0.251725 0.411861
O O4 0.347071 0.750753 0.416906
O O5 0.809893 0.830431 0.646229
O O6 0.827419 0.330050 0.636570
O O7 0.904687 0.008879 0.725404
O O8 0.695348 0.005339 0.738883
O O9 0.595206 0.999307 0.636051
O O10 0.980450 0.686040 0.343639
O O11 0.000000 0.500000 0.500000
O O12 0.978392 0.185000 0.371709
O O13 0.500000 0.477785 0.750000
#
# Coordination Sequence:
#
# PCOD8154763 Si02
#       6
#     8   8   8   8   8   8
#     4  12  26  40  70 101 133 180 223 267 322 401
#     4  12  24  44  68  98 138 173 221 277 327 388
#     4  12  23  46  67  96 137 181 222 268 329 385
#     4  12  24  44  66  99 138 170 224 275 328 388
#     4  12  27  47  72  98 133 174 219 277 336 393
#     4  12  26  47  71 100 131 174 221 276 334 393
#
# _framework density 21.532879999999999
#
# number of rings (size 3 to 8) (size 9 to 14) (size 15 to 20)
#    0.000    0.000    3.333    7.000    4.667    0.000 
#    0.000    0.000    0.000    0.000    0.000    0.000 
#    0.000    0.000    0.000    0.000    0.000    0.000 
#
# Total GULP energy -297855.814497 kJ/mol
# GULP energy per Si atom -12410.658937 kJ/mol
# Density = 2.148387 g / cm^3
# Si number density = 21.532880 Si / 1000 Ang^3
#
#
#
# Elastic Constant Matrix: (Units=GPa)
#
#
# Indices 1 2 3 4 5 6 
#
# 1 79.2657 18.1185 3.2448 0.0000 -6.2991 -0.0003
# 2 18.1185 125.6954 31.9265 0.0011 -10.4635 0.0012
# 3 3.2448 31.9265 120.5112 0.0010 -9.2073 0.0009
# 4 0.0000 0.0011 0.0010 44.6718 -0.0002 -16.4540
# 5 -6.2991 -10.4635 -9.2073 -0.0002 35.7533 -0.0003
# 6 -0.0003 0.0012 0.0009 -16.4540 -0.0003 44.0730
#
#
#
# Elastic Compliance Matrix: (Units=1/GPa)
#
#
# Indices 1 2 3 4 5 6 
#
# 1 0.013167 -0.001811 0.000267 0.000000 0.001859 0.000000
# 2 -0.001811 0.008915 -0.002181 0.000000 0.001728 0.000000
# 3 0.000267 -0.002181 0.009000 0.000000 0.001727 0.000000
# 4 0.000000 0.000000 0.000000 0.025955 0.000000 0.009690
# 5 0.001859 0.001728 0.001727 0.000000 0.029247 0.000000
# 6 0.000000 0.000000 0.000000 0.009690 0.000000 0.026307
#
#
# Mechanical properties :
#
#
# Convention : Reuss Voigt Hill
#
# Bulk Modulus (GPa) = 42.31513 48.00578 45.16045
# Shear Modulus (GPa) = 39.08770 43.04511 41.06640
#
# Velocity S-wave (km/s) = 4.26520 4.47591 4.37183
# Velocity P-wave (km/s) = 6.62948 7.00388 6.81925
#
# Compressibility (1/GPa) = 0.02363221
#
# Stress axis : x y z
#
# Youngs Moduli (GPa) = 75.95015 112.17534 111.10509
#
# Poissons Ratio (x) = 0.20316 -0.02970
# Poissons Ratio (y) = 0.13755 0.24231
# Poissons Ratio (z) = -0.02030 0.24464
#
# Static dielectric constant tensor:
#      x y z
#    x 3.969440 0.000000 -0.160560 
#    y 0.000000 4.081190 0.000050 
#    z -0.160560 0.000050 3.967880 
# 
# 
# High freq. dielectric constant tensor:
#      x y z
#    x 1.849170 0.000000 -0.003390 
#    y 0.000000 1.866790 0.000000 
#    z -0.003390 0.000000 1.865440 
# 
# From -- ./inp_files/179777.got.cif
#   From: 2010.06.25/outbox.cif.g09.slc.cpg/sg15_90_cif.got.tgz:179777.got - 2010.06.28 07:06:18.
