data_PCOD8154618
_publ_section_title
;
Structure prediction by ZEFSAII (Michael W. Deem and Ramdas Pophale) SiO2 
 PCOD8154618
Probable space group: C 2/C
;
_chemical_formula_sum "Si O2"
_cell_formula_units_Z 40
_cell_length_a 10.618385
_cell_length_b 30.274783
_cell_length_c 7.646372
_cell_angle_alpha 90.000000
_cell_angle_beta 130.569798
_cell_angle_gamma 90.000000
_cell_volume 1867.187914
_symmetry_space_group_name_H-M "C 2/C"
_symmetry_group_IT_number 15
_symmetry_cell_setting 'monoclinic'
loop_
_space_group_symop_operation_xyz
x,y,z
-x,y,1/2-z
-x,-y,-z
x,-y,1/2+z
1/2+x,1/2+y,z
1/2-x,1/2+y,1/2-z
1/2-x,1/2-y,-z
1/2+x,1/2-y,1/2+z
loop_
_atom_site_type_symbol
_atom_site_label
_atom_site_fract_x
_atom_site_fract_y
_atom_site_fract_z
Si Si1 0.126061 0.444466 0.002840
Si Si2 0.500000 0.028744 0.750000
Si Si3 0.397944 0.791755 0.482418
Si Si4 0.000000 0.850688 0.750000
Si Si5 0.737285 0.217164 0.144823
Si Si6 0.635598 0.629537 0.731219
O O1 0.063950 0.441019 0.148833
O O2 0.295715 0.417618 0.141726
O O3 0.000000 0.421406 0.750000
O O4 0.144447 0.496114 0.960757
O O5 0.500000 0.792051 0.750000
O O6 0.546308 0.797947 0.476634
O O7 0.300364 0.744977 0.372007
O O8 0.274261 0.832645 0.352134
O O9 0.856692 0.823437 0.716515
O O10 0.928761 0.879138 0.524676
O O11 0.750000 0.250000 0.000000
O O12 0.500000 0.644762 0.750000
#
# Coordination Sequence:
#
# PCOD8154618 Si02
#       6
#     8   4   8   4   8   8
#     4   9  19  41  71 100 131 162 207 266 311 392
#     4   8  18  40  75 104 122 164 216 248 321 396
#     4  12  24  40  66  91 120 165 219 278 331 382
#     4  12  26  44  63  90 136 176 220 266 331 390
#     4  12  22  42  63  87 121 168 220 274 323 376
#     4  12  27  44  60  96 137 170 214 268 327 383
#
# _framework density 21.422588000000001
#
# number of rings (size 3 to 8) (size 9 to 14) (size 15 to 20)
#    0.600    0.400    4.000    2.400    0.000    4.800 
#    0.000    1.000    0.000    0.000    0.000    0.000 
#    0.000    0.000    0.000    0.000    0.000    0.000 
#
# Total GULP energy -247795.955216 kJ/mol
# GULP energy per Si atom -12389.797761 kJ/mol
# Density = 2.137383 g / cm^3
# Si number density = 21.422588 Si / 1000 Ang^3
#
#
#
# Elastic Constant Matrix: (Units=GPa)
#
#
# Indices 1 2 3 4 5 6 
#
# 1 135.0208 34.4592 54.3249 0.0000 5.9275 0.0000
# 2 34.4592 59.5265 30.8904 0.0000 11.6314 0.0000
# 3 54.3249 30.8904 139.3170 0.0000 -19.2843 0.0000
# 4 0.0000 0.0000 0.0000 24.0060 0.0000 9.4522
# 5 5.9275 11.6314 -19.2843 0.0000 53.6286 0.0000
# 6 0.0000 0.0000 0.0000 9.4522 0.0000 20.6483
#
#
#
# Elastic Compliance Matrix: (Units=1/GPa)
#
#
# Indices 1 2 3 4 5 6 
#
# 1 0.009677 -0.003695 -0.003148 0.000000 -0.001400 0.000000
# 2 -0.003695 0.022370 -0.004351 0.000000 -0.006008 0.000000
# 3 -0.003148 -0.004351 0.010049 0.000000 0.004905 0.000000
# 4 0.000000 0.000000 0.000000 0.050815 0.000000 -0.023262
# 5 -0.001400 -0.006008 0.004905 0.000000 0.021868 0.000000
# 6 0.000000 0.000000 0.000000 -0.023262 0.000000 0.059079
#
#
# Mechanical properties :
#
#
# Convention : Reuss Voigt Hill
#
# Bulk Modulus (GPa) = 50.73903 63.69037 57.21470
# Shear Modulus (GPa) = 24.65290 33.93592 29.29441
#
# Velocity S-wave (km/s) = 3.39601 3.98442 3.70192
# Velocity P-wave (km/s) = 6.25407 7.13880 6.71103
#
# Compressibility (1/GPa) = 0.01970869
#
# Stress axis : x y z
#
# Youngs Moduli (GPa) = 103.33406 44.70295 99.51093
#
# Poissons Ratio (x) = 0.16517 0.31328
# Poissons Ratio (y) = 0.38180 0.43296
# Poissons Ratio (z) = 0.32531 0.19450
#
# Static dielectric constant tensor:
#      x y z
#    x 4.051120 0.000000 -0.240540 
#    y 0.000000 3.337030 0.000000 
#    z -0.240540 0.000000 4.130570 
# 
# 
# High freq. dielectric constant tensor:
#      x y z
#    x 1.847630 0.000000 -0.018460 
#    y 0.000000 1.806950 0.000000 
#    z -0.018460 0.000000 1.858900 
# 
# From -- ./inp_files/35500.got.cif
#   From: 2010.06.25/outbox.cif.g09.slc.cpg/sg15_18_cif.got.tgz:35500.got - 2010.06.28 07:06:18.
