data_PCOD8154244
_publ_section_title
;
Structure prediction by ZEFSAII (Michael W. Deem and Ramdas Pophale) SiO2 
 PCOD8154244
Probable space group: C 2/C
;
_chemical_formula_sum "Si O2"
_cell_formula_units_Z 44
_cell_length_a 22.097317
_cell_length_b 15.269771
_cell_length_c 8.253022
_cell_angle_alpha 90.000000
_cell_angle_beta 44.346594
_cell_angle_gamma 90.000000
_cell_volume 1946.526979
_symmetry_space_group_name_H-M "C 2/C"
_symmetry_group_IT_number 15
_symmetry_cell_setting 'monoclinic'
loop_
_space_group_symop_operation_xyz
x,y,z
-x,y,1/2-z
-x,-y,-z
x,-y,1/2+z
1/2+x,1/2+y,z
1/2-x,1/2+y,1/2-z
1/2-x,1/2-y,-z
1/2+x,1/2-y,1/2+z
loop_
_atom_site_type_symbol
_atom_site_label
_atom_site_fract_x
_atom_site_fract_y
_atom_site_fract_z
Si Si1 0.000000 0.823083 0.750000
Si Si2 0.301046 0.984166 0.562561
Si Si3 0.076832 0.447887 0.433938
Si Si4 0.551320 0.747376 0.496482
Si Si5 0.712632 0.686656 0.351243
Si Si6 0.322629 0.650484 0.723386
O O1 0.984978 0.768093 0.614528
O O2 0.086987 0.877568 0.538919
O O3 0.396943 0.007803 0.446679
O O4 0.239178 0.067487 0.669338
O O5 0.328430 0.949449 0.334154
O O6 0.257734 0.906328 0.744259
O O7 0.048663 0.350411 0.522616
O O8 0.000000 0.500000 0.500000
O O9 0.646588 0.705170 0.330695
O O10 0.500000 0.707413 0.750000
O O11 0.662484 0.681234 0.619489
O O12 0.782538 0.764908 0.211119
#
# Coordination Sequence:
#
# PCOD8154244 Si02
#       6
#     4   8   8   8   8   8
#     4  12  28  44  78 106 140 198 256 298 366 438
#     4  12  25  47  71 107 146 197 249 299 373 445
#     4  12  27  42  71 109 150 189 240 306 377 444
#     4  12  26  48  73 110 148 192 243 310 367 438
#     4  11  25  47  75  99 151 198 240 307 377 435
#     4  11  25  48  71 108 146 197 253 304 365 451
#
# _framework density 22.604361000000001
#
# number of rings (size 3 to 8) (size 9 to 14) (size 15 to 20)
#    0.000    0.364    5.455    2.727    7.636    1.455 
#    1.636    1.818    0.000    0.000    0.000    0.000 
#    0.000    0.000    0.000    0.000    0.000    0.000 
#
# Total GULP energy -272648.734265 kJ/mol
# GULP energy per Si atom -12393.124285 kJ/mol
# Density = 2.255291 g / cm^3
# Si number density = 22.604361 Si / 1000 Ang^3
#
#
#
# Elastic Constant Matrix: (Units=GPa)
#
#
# Indices 1 2 3 4 5 6 
#
# 1 139.1433 32.8110 36.0244 0.0000 3.5670 0.0000
# 2 32.8110 83.2969 19.6649 0.0000 1.6802 0.0000
# 3 36.0244 19.6649 138.3836 0.0000 -2.9648 0.0000
# 4 0.0000 0.0000 0.0000 28.3191 0.0000 -1.0332
# 5 3.5670 1.6802 -2.9648 0.0000 31.7797 0.0000
# 6 0.0000 0.0000 0.0000 -1.0332 0.0000 33.1769
#
#
#
# Elastic Compliance Matrix: (Units=1/GPa)
#
#
# Indices 1 2 3 4 5 6 
#
# 1 0.008345 -0.002846 -0.001789 0.000000 -0.000953 0.000000
# 2 -0.002846 0.013414 -0.001176 0.000000 -0.000499 0.000000
# 3 -0.001789 -0.001176 0.007880 0.000000 0.000998 0.000000
# 4 0.000000 0.000000 0.000000 0.035352 0.000000 0.001101
# 5 -0.000953 -0.000499 0.000998 0.000000 0.031693 0.000000
# 6 0.000000 0.000000 0.000000 0.001101 0.000000 0.030176
#
#
# Mechanical properties :
#
#
# Convention : Reuss Voigt Hill
#
# Bulk Modulus (GPa) = 55.49711 59.75828 57.62769
# Shear Modulus (GPa) = 34.60501 36.81003 35.70752
#
# Velocity S-wave (km/s) = 3.91692 4.03978 3.97882
# Velocity P-wave (km/s) = 6.71276 6.94649 6.83063
#
# Compressibility (1/GPa) = 0.01801896
#
# Stress axis : x y z
#
# Youngs Moduli (GPa) = 119.82676 74.54920 126.89735
#
# Poissons Ratio (x) = 0.21215 0.22696
# Poissons Ratio (y) = 0.34101 0.14924
# Poissons Ratio (z) = 0.21431 0.08767
#
# Static dielectric constant tensor:
#      x y z
#    x 4.521850 0.000000 0.071320 
#    y 0.000000 4.088150 0.000000 
#    z 0.071320 0.000000 4.374170 
# 
# 
# High freq. dielectric constant tensor:
#      x y z
#    x 1.906560 0.000000 0.006600 
#    y 0.000000 1.869970 0.000000 
#    z 0.006600 0.000000 1.915450 
# 
# From -- ./inp_files/66090.got.cif
#   From: 2010.06.25/outbox.cif.g09.slc.cpg/sg15_34_cif.got.tgz:66090.got - 2010.06.28 07:06:18.
