data_PCOD8154164
_publ_section_title
;
Structure prediction by ZEFSAII (Michael W. Deem and Ramdas Pophale) SiO2 
 PCOD8154164
Probable space group: C 2/C
;
_chemical_formula_sum "Si O2"
_cell_formula_units_Z 44
_cell_length_a 9.622771
_cell_length_b 26.852075
_cell_length_c 9.464668
_cell_angle_alpha 90.000000
_cell_angle_beta 53.732703
_cell_angle_gamma 90.000000
_cell_volume 1971.795012
_symmetry_space_group_name_H-M "C 2/C"
_symmetry_group_IT_number 15
_symmetry_cell_setting 'monoclinic'
loop_
_space_group_symop_operation_xyz
x,y,z
-x,y,1/2-z
-x,-y,-z
x,-y,1/2+z
1/2+x,1/2+y,z
1/2-x,1/2+y,1/2-z
1/2-x,1/2-y,-z
1/2+x,1/2-y,1/2+z
loop_
_atom_site_type_symbol
_atom_site_label
_atom_site_fract_x
_atom_site_fract_y
_atom_site_fract_z
Si Si1 0.695072 0.602676 0.958155
Si Si2 0.500000 0.858309 0.750000
Si Si3 0.090218 0.730791 0.007953
Si Si4 0.123600 0.512411 0.795549
Si Si5 0.800594 0.082393 0.218166
Si Si6 0.266228 0.283552 0.127625
O O1 0.804159 0.568236 0.781763
O O2 0.745590 0.659027 0.902019
O O3 0.490649 0.598385 0.057876
O O4 0.743482 0.591343 0.090777
O O5 0.544332 0.824155 0.589243
O O6 0.335855 0.890854 0.802537
O O7 0.111031 0.728461 0.826621
O O8 0.250000 0.750000 0.000000
O O9 0.935489 0.770133 0.118473
O O10 0.290740 0.477012 0.701278
O O11 0.000000 0.493276 0.750000
O O12 0.000000 0.500000 0.000000
O O13 0.250000 0.250000 0.000000
#
# Coordination Sequence:
#
# PCOD8154164 Si02
#       6
#     8   4   8   8   8   8
#     4  11  27  46  74 107 148 194 249 301 378 437
#     4  12  24  44  76 108 148 200 246 304 382 434
#     4  12  25  45  69 104 151 188 244 304 362 436
#     4  12  25  48  74 107 145 186 246 305 373 447
#     4  11  25  45  75 106 144 189 247 311 365 451
#     4  12  27  45  72 107 146 195 244 297 364 445
#
# _framework density 22.314693999999999
#
# number of rings (size 3 to 8) (size 9 to 14) (size 15 to 20)
#    0.000    0.364    4.545    3.273    7.636    1.455 
#    0.000    1.818    0.000    0.000    0.000    0.000 
#    0.000    0.000    0.000    0.000    0.000    0.000 
#
# Total GULP energy -272651.256555 kJ/mol
# GULP energy per Si atom -12393.238934 kJ/mol
# Density = 2.226390 g / cm^3
# Si number density = 22.314694 Si / 1000 Ang^3
#
#
#
# Elastic Constant Matrix: (Units=GPa)
#
#
# Indices 1 2 3 4 5 6 
#
# 1 105.4082 37.6068 27.2087 0.0000 5.1107 0.0000
# 2 37.6068 167.9297 54.6499 0.0000 3.4635 0.0000
# 3 27.2087 54.6499 156.1934 0.0000 10.1510 0.0000
# 4 0.0000 0.0000 0.0000 35.1587 0.0000 4.1224
# 5 5.1107 3.4635 10.1510 0.0000 33.2289 0.0000
# 6 0.0000 0.0000 0.0000 4.1224 0.0000 33.2740
#
#
#
# Elastic Compliance Matrix: (Units=1/GPa)
#
#
# Indices 1 2 3 4 5 6 
#
# 1 0.010524 -0.001987 -0.001068 0.000000 -0.001085 0.000000
# 2 -0.001987 0.007095 -0.002151 0.000000 0.000223 0.000000
# 3 -0.001068 -0.002151 0.007464 0.000000 -0.001892 0.000000
# 4 0.000000 0.000000 0.000000 0.028862 0.000000 -0.003576
# 5 -0.001085 0.000223 -0.001892 0.000000 0.030816 0.000000
# 6 0.000000 0.000000 0.000000 -0.003576 0.000000 0.030497
#
#
# Mechanical properties :
#
#
# Convention : Reuss Voigt Hill
#
# Bulk Modulus (GPa) = 68.15597 74.27359 71.21478
# Shear Modulus (GPa) = 38.29698 41.00338 39.65018
#
# Velocity S-wave (km/s) = 4.14723 4.29126 4.21986
# Velocity P-wave (km/s) = 7.31724 7.60987 7.46499
#
# Compressibility (1/GPa) = 0.01467223
#
# Stress axis : x y z
#
# Youngs Moduli (GPa) = 95.02082 140.94004 133.98030
#
# Poissons Ratio (x) = 0.28005 0.14302
# Poissons Ratio (y) = 0.18881 0.28818
# Poissons Ratio (z) = 0.10144 0.30315
#
# Static dielectric constant tensor:
#      x y z
#    x 4.230410 0.000000 0.067050 
#    y 0.000000 4.179940 0.000000 
#    z 0.067050 0.000000 4.445360 
# 
# 
# High freq. dielectric constant tensor:
#      x y z
#    x 1.899050 0.000000 -0.000120 
#    y 0.000000 1.885810 0.000000 
#    z -0.000120 0.000000 1.888030 
# 
# From -- ./inp_files/25958.got.cif
#   From: 2010.06.25/outbox.cif.g09.slc.cpg/sg15_13_cif.got.tgz:25958.got - 2010.06.28 07:06:18.
