data_PCOD8154205
_publ_section_title
;
Structure prediction by ZEFSAII (Michael W. Deem and Ramdas Pophale) SiO2 
 PCOD8154205
Probable space group: C 2/C
;
_chemical_formula_sum "Si O2"
_cell_formula_units_Z 44
_cell_length_a 8.558631
_cell_length_b 18.240702
_cell_length_c 13.149145
_cell_angle_alpha 90.000000
_cell_angle_beta 104.256420
_cell_angle_gamma 90.000000
_cell_volume 1989.565582
_symmetry_space_group_name_H-M "C 2/C"
_symmetry_group_IT_number 15
_symmetry_cell_setting 'monoclinic'
loop_
_space_group_symop_operation_xyz
x,y,z
-x,y,1/2-z
-x,-y,-z
x,-y,1/2+z
1/2+x,1/2+y,z
1/2-x,1/2+y,1/2-z
1/2-x,1/2-y,-z
1/2+x,1/2-y,1/2+z
loop_
_atom_site_type_symbol
_atom_site_label
_atom_site_fract_x
_atom_site_fract_y
_atom_site_fract_z
Si Si1 0.821592 0.592702 0.257634
Si Si2 0.396469 0.785563 0.085391
Si Si3 0.119446 0.433165 0.508366
Si Si4 0.877032 0.021962 0.894761
Si Si5 0.776134 0.257034 0.284608
Si Si6 0.500000 0.365630 0.250000
O O1 0.788307 0.573898 0.370075
O O2 0.683436 0.549550 0.175343
O O3 0.808248 0.679233 0.242129
O O4 0.000000 0.567719 0.250000
O O5 0.328882 0.795916 0.187970
O O6 0.565546 0.741133 0.120150
O O7 0.250000 0.750000 0.000000
O O8 0.463547 0.856888 0.035878
O O9 0.230431 0.442201 0.429252
O O10 0.000000 0.500000 0.500000
O O11 0.955266 0.082857 0.836354
O O12 0.000000 0.000000 0.000000
O O13 0.647609 0.314038 0.311698
#
# Coordination Sequence:
#
# PCOD8154205 Si02
#       6
#     8   8   8   8   8   4
#     4  12  26  48  75 109 149 193 249 307 373 443
#     4  11  25  46  74 106 144 198 247 301 372 444
#     4  12  26  46  76 107 145 195 244 304 375 438
#     4  12  29  46  73 108 150 192 244 309 371 442
#     4  11  26  45  76 108 151 194 249 308 370 451
#     4  12  26  48  74 116 148 192 254 306 372 444
#
# _framework density 22.115379000000001
#
# number of rings (size 3 to 8) (size 9 to 14) (size 15 to 20)
#    0.000    0.364    6.364    1.091    7.636    1.455 
#    0.000    2.727    0.000    0.000    0.000    0.000 
#    0.000    0.000    0.000    0.000    0.000    0.000 
#
# Total GULP energy -272664.306072 kJ/mol
# GULP energy per Si atom -12393.832094 kJ/mol
# Density = 2.206504 g / cm^3
# Si number density = 22.115379 Si / 1000 Ang^3
#
#
#
# Elastic Constant Matrix: (Units=GPa)
#
#
# Indices 1 2 3 4 5 6 
#
# 1 126.5688 59.2449 56.5983 0.0000 8.1500 0.0000
# 2 59.2449 152.6089 67.1467 0.0000 4.7861 0.0000
# 3 56.5983 67.1467 142.2203 0.0000 10.5760 0.0000
# 4 0.0000 0.0000 0.0000 35.5985 0.0000 -4.5189
# 5 8.1500 4.7861 10.5760 0.0000 48.7212 0.0000
# 6 0.0000 0.0000 0.0000 -4.5189 0.0000 39.4638
#
#
#
# Elastic Compliance Matrix: (Units=1/GPa)
#
#
# Indices 1 2 3 4 5 6 
#
# 1 0.010530 -0.002834 -0.002787 0.000000 -0.000878 0.000000
# 2 -0.002834 0.009034 -0.003157 0.000000 0.000272 0.000000
# 3 -0.002787 -0.003157 0.009731 0.000000 -0.001336 0.000000
# 4 0.000000 0.000000 0.000000 0.028505 0.000000 0.003264
# 5 -0.000878 0.000272 -0.001336 0.000000 0.020935 0.000000
# 6 0.000000 0.000000 0.000000 0.003264 0.000000 0.025713
#
#
# Mechanical properties :
#
#
# Convention : Reuss Voigt Hill
#
# Bulk Modulus (GPa) = 85.20094 87.48641 86.34368
# Shear Modulus (GPa) = 39.70815 40.65057 40.17936
#
# Velocity S-wave (km/s) = 4.24193 4.29197 4.26703
# Velocity P-wave (km/s) = 7.91210 8.01289 7.96265
#
# Compressibility (1/GPa) = 0.01173696
#
# Stress axis : x y z
#
# Youngs Moduli (GPa) = 94.96309 110.69719 102.76796
#
# Poissons Ratio (x) = 0.31373 0.28645
# Poissons Ratio (y) = 0.26914 0.32448
# Poissons Ratio (z) = 0.26469 0.34952
#
# Static dielectric constant tensor:
#      x y z
#    x 4.056310 0.000000 0.029190 
#    y 0.000000 4.068190 0.000000 
#    z 0.029190 0.000000 4.299120 
# 
# 
# High freq. dielectric constant tensor:
#      x y z
#    x 1.878460 0.000000 0.000050 
#    y 0.000000 1.879790 0.000000 
#    z 0.000050 0.000000 1.877480 
# 
# From -- ./inp_files/134566.got.cif
#   From: 2010.06.25/outbox.cif.g09.slc.cpg/sg15_68_cif.got.tgz:134566.got - 2010.06.28 07:06:18.
