data_PCOD8154023
_publ_section_title
;
Structure prediction by ZEFSAII (Michael W. Deem and Ramdas Pophale) SiO2 
 PCOD8154023
Probable space group: C 2/C
;
_chemical_formula_sum "Si O2"
_cell_formula_units_Z 36
_cell_length_a 27.824045
_cell_length_b 6.552566
_cell_length_c 28.090179
_cell_angle_alpha 90.000000
_cell_angle_beta 160.282935
_cell_angle_gamma 90.000000
_cell_volume 1727.825638
_symmetry_space_group_name_H-M "C 2/C"
_symmetry_group_IT_number 15
_symmetry_cell_setting 'monoclinic'
loop_
_space_group_symop_operation_xyz
x,y,z
-x,y,1/2-z
-x,-y,-z
x,-y,1/2+z
1/2+x,1/2+y,z
1/2-x,1/2+y,1/2-z
1/2-x,1/2-y,-z
1/2+x,1/2-y,1/2+z
loop_
_atom_site_type_symbol
_atom_site_label
_atom_site_fract_x
_atom_site_fract_y
_atom_site_fract_z
Si Si1 0.405311 0.697051 0.919262
Si Si2 0.144177 0.866066 0.435751
Si Si3 0.899144 0.446297 0.729196
Si Si4 0.104732 0.472617 0.165589
Si Si5 0.000000 0.776362 0.750000
O O1 0.251407 0.646238 0.796106
O O2 0.386122 0.805860 0.850373
O O3 0.500000 0.500000 0.000000
O O4 0.475514 0.846947 0.022737
O O5 0.250000 0.750000 0.500000
O O6 0.231792 0.888026 0.567099
O O7 0.998137 0.744059 0.306811
O O8 0.113277 0.085160 0.383741
O O9 0.931729 0.503454 0.813410
O O10 0.923088 0.638480 0.717450
#
# Coordination Sequence:
#
# PCOD8154023 Si02
#       5
#     8   8   8   8   4
#     4  11  24  49  68 100 140 176 227 292 339 406
#     4  12  24  48  66  97 146 179 224 286 334 396
#     4  12  28  42  71 105 134 185 226 280 339 412
#     4  11  27  44  74 101 137 181 230 283 349 404
#     4  12  24  44  70  98 140 178 228 272 338 406
#
# _framework density 20.835436000000001
#
# number of rings (size 3 to 8) (size 9 to 14) (size 15 to 20)
#    0.000    0.444    6.667    0.667    6.222    0.000 
#    0.000    0.000    0.000    0.000    0.000    0.000 
#    0.000    0.000    0.000    0.000    0.000    0.000 
#
# Total GULP energy -223266.390008 kJ/mol
# GULP energy per Si atom -12403.688334 kJ/mol
# Density = 2.078801 g / cm^3
# Si number density = 20.835436 Si / 1000 Ang^3
#
#
#
# Elastic Constant Matrix: (Units=GPa)
#
#
# Indices 1 2 3 4 5 6 
#
# 1 124.6759 51.1972 43.0086 -0.0063 -18.7399 -0.0039
# 2 51.1972 121.9322 47.1073 -0.0693 1.1508 -0.0351
# 3 43.0086 47.1073 134.7442 -0.0175 -3.0898 -0.0063
# 4 -0.0063 -0.0693 -0.0175 43.2572 0.0022 -3.1883
# 5 -18.7399 1.1508 -3.0898 0.0022 32.1419 0.0016
# 6 -0.0039 -0.0351 -0.0063 -3.1883 0.0016 21.6227
#
#
#
# Elastic Compliance Matrix: (Units=1/GPa)
#
#
# Indices 1 2 3 4 5 6 
#
# 1 0.011384 -0.004043 -0.002069 -0.000006 0.006583 -0.000007
# 2 -0.004043 0.010932 -0.002600 0.000017 -0.002998 0.000019
# 3 -0.002069 -0.002600 0.008985 -0.000001 -0.000250 -0.000002
# 4 -0.000006 0.000017 -0.000001 0.023372 -0.000006 0.003446
# 5 0.006583 -0.002998 -0.000250 -0.000006 0.035034 -0.000007
# 6 -0.000007 0.000019 -0.000002 0.003446 -0.000007 0.046756
#
#
# Mechanical properties :
#
#
# Convention : Reuss Voigt Hill
#
# Bulk Modulus (GPa) = 72.06321 73.77537 72.91929
# Shear Modulus (GPa) = 31.54328 35.40698 33.47513
#
# Velocity S-wave (km/s) = 3.89514 4.12681 4.01265
# Velocity P-wave (km/s) = 7.40887 7.62842 7.51945
#
# Compressibility (1/GPa) = 0.01387671
#
# Stress axis : x y z
#
# Youngs Moduli (GPa) = 87.84029 91.47805 111.29308
#
# Poissons Ratio (x) = 0.36982 0.23031
# Poissons Ratio (y) = 0.35511 0.28937
# Poissons Ratio (z) = 0.18178 0.23785
#
# Static dielectric constant tensor:
#      x y z
#    x 3.695000 0.000010 -0.301100 
#    y 0.000010 4.326870 -0.000020 
#    z -0.301100 -0.000020 4.516670 
# 
# 
# High freq. dielectric constant tensor:
#      x y z
#    x 1.802770 0.000000 -0.009460 
#    y 0.000000 1.829770 0.000000 
#    z -0.009460 0.000000 1.844410 
# 
# From -- ./inp_files/319880.got.cif
#   From: 2010.06.25/outbox.cif.g09.slc.cpg/sg15_160_cif.got.tgz:319880.got - 2010.06.28 07:06:18.
