data_PCOD8154207
_publ_section_title
;
Structure prediction by ZEFSAII (Michael W. Deem and Ramdas Pophale) SiO2 
 PCOD8154207
Probable space group: C 2/C
;
_chemical_formula_sum "Si O2"
_cell_formula_units_Z 48
_cell_length_a 8.610331
_cell_length_b 25.165222
_cell_length_c 12.974907
_cell_angle_alpha 90.000000
_cell_angle_beta 44.698917
_cell_angle_gamma 90.000000
_cell_volume 1977.496231
_symmetry_space_group_name_H-M "C 2/C"
_symmetry_group_IT_number 15
_symmetry_cell_setting 'monoclinic'
loop_
_space_group_symop_operation_xyz
x,y,z
-x,y,1/2-z
-x,-y,-z
x,-y,1/2+z
1/2+x,1/2+y,z
1/2-x,1/2+y,1/2-z
1/2-x,1/2-y,-z
1/2+x,1/2-y,1/2+z
loop_
_atom_site_type_symbol
_atom_site_label
_atom_site_fract_x
_atom_site_fract_y
_atom_site_fract_z
Si Si1 0.290101 0.965124 0.786431
Si Si2 0.760046 0.609673 0.129826
Si Si3 0.733114 0.729716 0.183343
Si Si4 0.656529 0.713889 0.452808
Si Si5 0.910539 0.097326 0.950558
Si Si6 0.685412 0.930432 0.346839
O O1 0.500000 0.985074 0.750000
O O2 0.350596 0.911600 0.695694
O O3 0.242589 0.010819 0.725177
O O4 0.093311 0.947880 0.957634
O O5 0.500000 0.592735 0.250000
O O6 0.787789 0.672486 0.108363
O O7 0.922351 0.583776 0.964631
O O8 0.500000 0.749058 0.250000
O O9 0.765936 0.726920 0.291359
O O10 0.898813 0.773331 0.060912
O O11 0.750000 0.750000 0.500000
O O12 0.692691 0.652365 0.461479
O O13 0.762721 0.075042 0.927627
O O14 0.164649 0.108093 0.795828
#
# Coordination Sequence:
#
# PCOD8154207 Si02
#       6
#     8   8   8   8   8   8
#     4  12  25  47  73 104 146 199 249 304 376 437
#     4  11  25  46  75 103 152 195 240 304 379 444
#     4  11  26  48  73 110 155 194 242 310 383 446
#     4  12  26  45  79 113 145 201 250 311 374 452
#     4  11  26  47  74 111 151 188 255 313 365 446
#     4  11  26  44  72 108 146 194 248 314 363 441
#
# _framework density 24.273116000000002
#
# number of rings (size 3 to 8) (size 9 to 14) (size 15 to 20)
#    0.000    0.667    3.333    3.000    9.333    1.333 
#    0.000    0.000    0.000    0.000    0.000    0.000 
#    0.000    0.000    0.000    0.000    0.000    0.000 
#
# Total GULP energy -297437.854278 kJ/mol
# GULP energy per Si atom -12393.243928 kJ/mol
# Density = 2.421787 g / cm^3
# Si number density = 24.273116 Si / 1000 Ang^3
#
#
#
# Elastic Constant Matrix: (Units=GPa)
#
#
# Indices 1 2 3 4 5 6 
#
# 1 62.7647 29.8082 21.6466 0.0000 -0.9865 0.0000
# 2 29.8082 98.3557 32.4994 0.0000 2.8209 0.0000
# 3 21.6466 32.4994 167.4545 0.0000 -7.3676 0.0000
# 4 0.0000 0.0000 0.0000 27.9855 0.0000 -0.2756
# 5 -0.9865 2.8209 -7.3676 0.0000 39.9922 0.0000
# 6 0.0000 0.0000 0.0000 -0.2756 0.0000 33.5186
#
#
#
# Elastic Compliance Matrix: (Units=1/GPa)
#
#
# Indices 1 2 3 4 5 6 
#
# 1 0.018938 -0.005295 -0.001395 0.000000 0.000584 0.000000
# 2 -0.005295 0.012399 -0.001780 0.000000 -0.001333 0.000000
# 3 -0.001395 -0.001780 0.006555 0.000000 0.001299 0.000000
# 4 0.000000 0.000000 0.000000 0.035736 0.000000 0.000294
# 5 0.000584 -0.001333 0.001299 0.000000 0.025353 0.000000
# 6 0.000000 0.000000 0.000000 0.000294 0.000000 0.029837
#
#
# Mechanical properties :
#
#
# Convention : Reuss Voigt Hill
#
# Bulk Modulus (GPa) = 47.73236 55.16482 51.44859
# Shear Modulus (GPa) = 32.73545 36.60731 34.67138
#
# Velocity S-wave (km/s) = 3.67635 3.88769 3.78350
# Velocity P-wave (km/s) = 6.14233 6.55197 6.35045
#
# Compressibility (1/GPa) = 0.02095015
#
# Stress axis : x y z
#
# Youngs Moduli (GPa) = 52.80526 80.65482 152.56133
#
# Poissons Ratio (x) = 0.42708 0.21277
# Poissons Ratio (y) = 0.27962 0.27163
# Poissons Ratio (z) = 0.07364 0.14360
#
# Static dielectric constant tensor:
#      x y z
#    x 4.238360 0.000000 -0.044540 
#    y 0.000000 4.171310 0.000000 
#    z -0.044540 0.000000 4.860530 
# 
# 
# High freq. dielectric constant tensor:
#      x y z
#    x 1.952240 0.000000 0.000310 
#    y 0.000000 1.956740 0.000000 
#    z 0.000310 0.000000 1.988050 
# 
# From -- ./inp_files/138902.got.cif
#   From: 2010.06.25/outbox.cif.g09.slc.cpg/sg15_70_cif.got.tgz:138902.got - 2010.06.28 07:06:18.
