data_PCOD8154434
_publ_section_title
;
Structure prediction by ZEFSAII (Michael W. Deem and Ramdas Pophale) SiO2 
 PCOD8154434
Probable space group: C 2/C
;
_chemical_formula_sum "Si O2"
_cell_formula_units_Z 24
_cell_length_a 10.570064
_cell_length_b 9.692793
_cell_length_c 21.361117
_cell_angle_alpha 90.000000
_cell_angle_beta 157.440576
_cell_angle_gamma 90.000000
_cell_volume 839.606915
_symmetry_space_group_name_H-M "C 2/C"
_symmetry_group_IT_number 15
_symmetry_cell_setting 'monoclinic'
loop_
_space_group_symop_operation_xyz
x,y,z
-x,y,1/2-z
-x,-y,-z
x,-y,1/2+z
1/2+x,1/2+y,z
1/2-x,1/2+y,1/2-z
1/2-x,1/2-y,-z
1/2+x,1/2-y,1/2+z
loop_
_atom_site_type_symbol
_atom_site_label
_atom_site_fract_x
_atom_site_fract_y
_atom_site_fract_z
Si Si1 0.846752 0.205476 0.945045
Si Si2 0.732735 0.048163 0.678218
Si Si3 0.684370 0.565183 0.992822
O O1 0.500000 0.210405 0.750000
O O2 0.833077 0.096721 0.995889
O O3 0.957107 0.353459 0.021343
O O4 0.150494 0.157855 0.038894
O O5 0.000000 0.996325 0.750000
O O6 0.530964 0.915314 0.613493
O O7 0.903407 0.115770 0.816499
#
# Coordination Sequence:
#
# PCOD8154434 Si02
#       3
#     8   8   8
#     4  11  26  52  84 111 154 215 254 319 393 454
#     4  12  28  48  81 116 156 206 259 320 389 460
#     4  11  26  51  77 116 162 198 261 321 385 467
#
# _framework density 28.584806
#
# number of rings (size 3 to 8) (size 9 to 14) (size 15 to 20)
#    0.000    0.667    3.333    2.000    4.667    5.333 
#    0.000    0.000    0.000    0.000    0.000    0.000 
#    0.000    0.000    0.000    0.000    0.000    0.000 
#
# Total GULP energy -148732.104226 kJ/mol
# GULP energy per Si atom -12394.342019 kJ/mol
# Density = 2.851975 g / cm^3
# Si number density = 28.584806 Si / 1000 Ang^3
#
#
#
# Elastic Constant Matrix: (Units=GPa)
#
#
# Indices 1 2 3 4 5 6 
#
# 1 205.9781 31.2901 80.2895 0.0137 29.9547 -0.0054
# 2 31.2901 77.2438 28.5552 0.0090 22.7062 -0.0002
# 3 80.2895 28.5552 122.1840 0.0725 -8.4547 0.0230
# 4 0.0137 0.0090 0.0725 35.2052 0.0794 -10.9247
# 5 29.9547 22.7062 -8.4547 0.0794 53.7092 -0.0012
# 6 -0.0054 -0.0002 0.0230 -10.9247 -0.0012 24.3916
#
#
#
# Elastic Compliance Matrix: (Units=1/GPa)
#
#
# Indices 1 2 3 4 5 6 
#
# 1 0.007739 0.000520 -0.005582 0.000026 -0.005415 0.000019
# 2 0.000520 0.016955 -0.004873 0.000030 -0.008225 0.000018
# 3 -0.005582 -0.004873 0.013496 -0.000052 0.007298 -0.000037
# 4 0.000026 0.000030 -0.000052 0.032990 -0.000084 0.014776
# 5 -0.005415 -0.008225 0.007298 -0.000084 0.026265 -0.000044
# 6 0.000019 0.000018 -0.000037 0.014776 -0.000044 0.047616
#
#
# Mechanical properties :
#
#
# Convention : Reuss Voigt Hill
#
# Bulk Modulus (GPa) = 54.58507 76.18616 65.38562
# Shear Modulus (GPa) = 29.23329 40.34594 34.78961
#
# Velocity S-wave (km/s) = 3.20142 3.76100 3.49243
# Velocity P-wave (km/s) = 5.72736 6.75061 6.25993
#
# Compressibility (1/GPa) = 0.01832003
#
# Stress axis : x y z
#
# Youngs Moduli (GPa) = 129.21419 58.98067 74.09451
#
# Poissons Ratio (x) = -0.03068 0.41358
# Poissons Ratio (y) = -0.06722 0.36110
# Poissons Ratio (z) = 0.72125 0.28744
#
# Static dielectric constant tensor:
#      x y z
#    x 5.988370 -0.000040 0.118990 
#    y -0.000040 4.768960 -0.000060 
#    z 0.118990 -0.000060 5.294290 
# 
# 
# High freq. dielectric constant tensor:
#      x y z
#    x 2.202850 0.000000 0.000340 
#    y 0.000000 2.135370 0.000000 
#    z 0.000340 0.000000 2.163450 
# 
# From -- ./inp_files/26996.got.cif
#   From: 2010.06.25/outbox.cif.g09.slc.cpg/sg15_14_cif.got.tgz:26996.got - 2010.06.28 07:06:18.
