data_PCOD8154730
_publ_section_title
;
Structure prediction by ZEFSAII (Michael W. Deem and Ramdas Pophale) SiO2 
 PCOD8154730
Probable space group: C 2/C
;
_chemical_formula_sum "Si O2"
_cell_formula_units_Z 48
_cell_length_a 32.381456
_cell_length_b 5.111695
_cell_length_c 15.944982
_cell_angle_alpha 90.000000
_cell_angle_beta 56.936467
_cell_angle_gamma 90.000000
_cell_volume 2211.890507
_symmetry_space_group_name_H-M "C 2/C"
_symmetry_group_IT_number 15
_symmetry_cell_setting 'monoclinic'
loop_
_space_group_symop_operation_xyz
x,y,z
-x,y,1/2-z
-x,-y,-z
x,-y,1/2+z
1/2+x,1/2+y,z
1/2-x,1/2+y,1/2-z
1/2-x,1/2-y,-z
1/2+x,1/2-y,1/2+z
loop_
_atom_site_type_symbol
_atom_site_label
_atom_site_fract_x
_atom_site_fract_y
_atom_site_fract_z
Si Si1 0.737773 0.500171 0.460866
Si Si2 0.619264 0.994158 0.440418
Si Si3 0.623083 0.504072 0.043558
Si Si4 0.457381 0.018989 0.615247
Si Si5 0.456520 0.519546 0.731630
Si Si6 0.275466 0.939491 0.746059
O O1 0.750000 0.250000 0.500000
O O2 0.681632 0.502524 0.491780
O O3 0.777147 0.495133 0.342064
O O4 0.750000 0.750000 0.500000
O O5 0.605816 0.238292 0.513760
O O6 0.676512 0.981937 0.357316
O O7 0.604254 0.736871 0.508308
O O8 0.593219 0.011223 0.379433
O O9 0.596117 0.495129 0.163174
O O10 0.459540 0.297539 0.658037
O O11 0.500000 0.000000 0.500000
O O12 0.462070 0.797301 0.680237
O O13 0.500000 0.482809 0.750000
O O14 0.266252 0.629830 0.746608
#
# Coordination Sequence:
#
# PCOD8154730 Si02
#       6
#     8   8   8   8   8   8
#     4  12  26  41  65  95 137 174 221 270 322 388
#     4  12  24  44  69  96 133 174 223 271 319 392
#     4  12  25  45  66  98 134 177 215 271 334 381
#     4  12  26  46  72 102 129 171 220 271 324 394
#     4  12  26  46  71 100 135 171 212 271 334 394
#     4  12  23  44  65  95 130 181 221 262 325 383
#
# _framework density 21.700894999999999
#
# number of rings (size 3 to 8) (size 9 to 14) (size 15 to 20)
#    0.000    0.000    3.333    7.000    4.667    0.000 
#    0.000    0.000    0.000    0.000    0.000    0.000 
#    0.000    0.000    0.000    0.000    0.000    0.000 
#
# Total GULP energy -297717.698589 kJ/mol
# GULP energy per Si atom -12404.904108 kJ/mol
# Density = 2.165150 g / cm^3
# Si number density = 21.700895 Si / 1000 Ang^3
#
#
#
# Elastic Constant Matrix: (Units=GPa)
#
#
# Indices 1 2 3 4 5 6 
#
# 1 86.2980 18.2216 3.6878 0.0024 12.2223 0.0029
# 2 18.2216 135.3356 34.3733 -0.0436 10.9588 -0.0152
# 3 3.6878 34.3733 147.7016 0.0090 1.8787 -0.0006
# 4 0.0024 -0.0436 0.0090 50.8365 0.0060 20.5638
# 5 12.2223 10.9588 1.8787 0.0060 34.7971 0.0026
# 6 0.0029 -0.0152 -0.0006 20.5638 0.0026 33.5417
#
#
#
# Elastic Compliance Matrix: (Units=1/GPa)
#
#
# Indices 1 2 3 4 5 6 
#
# 1 0.012432 -0.001370 0.000058 -0.000001 -0.003939 -0.000001
# 2 -0.001370 0.008206 -0.001850 0.000008 -0.002003 -0.000001
# 3 0.000058 -0.001850 0.007197 -0.000003 0.000173 0.000001
# 4 -0.000001 0.000008 -0.000003 0.026158 -0.000005 -0.016037
# 5 -0.003939 -0.002003 0.000173 -0.000005 0.030743 0.000000
# 6 -0.000001 -0.000001 0.000001 -0.016037 0.000000 0.039646
#
#
# Mechanical properties :
#
#
# Convention : Reuss Voigt Hill
#
# Bulk Modulus (GPa) = 46.48447 53.54452 50.01450
# Shear Modulus (GPa) = 36.26472 44.70521 40.48497
#
# Velocity S-wave (km/s) = 4.09236 4.54372 4.32393
# Velocity P-wave (km/s) = 6.61793 7.22873 6.93006
#
# Compressibility (1/GPa) = 0.02151256
#
# Stress axis : x y z
#
# Youngs Moduli (GPa) = 80.43564 121.86892 138.94182
#
# Poissons Ratio (x) = 0.16694 -0.00812
# Poissons Ratio (y) = 0.11018 0.25703
# Poissons Ratio (z) = -0.00470 0.22545
#
# Static dielectric constant tensor:
#      x y z
#    x 4.247650 0.000070 0.181050 
#    y 0.000070 4.159220 0.000050 
#    z 0.181050 0.000050 4.429320 
# 
# 
# High freq. dielectric constant tensor:
#      x y z
#    x 1.849750 -0.000010 0.004890 
#    y -0.000010 1.875200 0.000000 
#    z 0.004890 0.000000 1.877700 
# 
# From -- ./inp_files/179965.got.cif
#   From: 2010.06.25/outbox.cif.g09.slc.cpg/sg15_90_cif.got.tgz:179965.got - 2010.06.28 07:06:18.
