data_PCOD8154074
_publ_section_title
;
Structure prediction by ZEFSAII (Michael W. Deem and Ramdas Pophale) SiO2 
 PCOD8154074
Probable space group: C 2/C
;
_chemical_formula_sum "Si O2"
_cell_formula_units_Z 48
_cell_length_a 9.146716
_cell_length_b 26.586897
_cell_length_c 14.244923
_cell_angle_alpha 90.000000
_cell_angle_beta 138.769464
_cell_angle_gamma 90.000000
_cell_volume 2283.168265
_symmetry_space_group_name_H-M "C 2/C"
_symmetry_group_IT_number 15
_symmetry_cell_setting 'monoclinic'
loop_
_space_group_symop_operation_xyz
x,y,z
-x,y,1/2-z
-x,-y,-z
x,-y,1/2+z
1/2+x,1/2+y,z
1/2-x,1/2+y,1/2-z
1/2-x,1/2-y,-z
1/2+x,1/2-y,1/2+z
loop_
_atom_site_type_symbol
_atom_site_label
_atom_site_fract_x
_atom_site_fract_y
_atom_site_fract_z
Si Si1 0.949208 0.054966 0.832471
Si Si2 0.251056 0.771521 0.605375
Si Si3 0.472469 0.444066 0.627551
Si Si4 0.479825 0.104454 0.633492
Si Si5 0.235486 0.883302 0.611479
Si Si6 0.961855 0.283299 0.119224
O O1 0.710598 0.080284 0.716122
O O2 0.000000 0.049308 0.750000
O O3 0.950443 0.998381 0.874680
O O4 0.140432 0.085992 0.977155
O O5 0.500000 0.781682 0.750000
O O6 0.250000 0.750000 0.500000
O O7 0.142166 0.826900 0.551928
O O8 0.152667 0.737871 0.642138
O O9 0.500000 0.437406 0.750000
O O10 0.625940 0.402482 0.654099
O O11 0.214427 0.435332 0.479230
O O12 0.500000 0.117547 0.750000
O O13 0.432168 0.159537 0.566084
O O14 0.500000 0.889037 0.750000
O O15 0.000000 0.279510 0.250000
O O16 0.750000 0.250000 0.000000
#
# Coordination Sequence:
#
# PCOD8154074 Si02
#       6
#     8   8   8   8   8   8
#     4  11  27  43  70  99 135 180 225 284 341 407
#     4  11  26  42  67  99 135 178 225 278 340 408
#     4  11  26  44  69 100 136 176 229 281 340 407
#     4  11  25  43  70 100 133 182 227 276 342 410
#     4  11  26  44  67 100 136 178 225 280 344 404
#     4  11  25  44  69  99 137 178 228 281 340 404
#
# _framework density 21.023417999999999
#
# number of rings (size 3 to 8) (size 9 to 14) (size 15 to 20)
#    0.000    1.000    1.667    2.500   11.667    5.333 
#    0.000    0.000    0.000    0.000    0.000    0.000 
#    0.000    0.000    0.000    0.000    0.000    0.000 
#
# Total GULP energy -297420.358561 kJ/mol
# GULP energy per Si atom -12392.514940 kJ/mol
# Density = 2.097557 g / cm^3
# Si number density = 21.023418 Si / 1000 Ang^3
#
#
#
# Elastic Constant Matrix: (Units=GPa)
#
#
# Indices 1 2 3 4 5 6 
#
# 1 105.4200 50.0717 22.2891 0.0000 -3.7803 0.0000
# 2 50.0717 180.3374 47.7917 0.0000 4.4397 0.0000
# 3 22.2891 47.7917 102.2113 0.0000 8.7601 0.0000
# 4 0.0000 0.0000 0.0000 36.7962 0.0000 2.1517
# 5 -3.7803 4.4397 8.7601 0.0000 48.1301 0.0000
# 6 0.0000 0.0000 0.0000 2.1517 0.0000 39.9183
#
#
#
# Elastic Compliance Matrix: (Units=1/GPa)
#
#
# Indices 1 2 3 4 5 6 
#
# 1 0.011123 -0.002794 -0.001235 0.000000 0.001356 0.000000
# 2 -0.002794 0.007032 -0.002645 0.000000 -0.000387 0.000000
# 3 -0.001235 -0.002645 0.011456 0.000000 -0.001938 0.000000
# 4 0.000000 0.000000 0.000000 0.027263 0.000000 -0.001470
# 5 0.001356 -0.000387 -0.001938 0.000000 0.021272 0.000000
# 6 0.000000 0.000000 0.000000 -0.001470 0.000000 0.025130
#
#
# Mechanical properties :
#
#
# Convention : Reuss Voigt Hill
#
# Bulk Modulus (GPa) = 61.49790 69.80818 65.65304
# Shear Modulus (GPa) = 40.96832 42.82334 41.89583
#
# Velocity S-wave (km/s) = 4.41920 4.51814 4.46894
# Velocity P-wave (km/s) = 7.44007 7.77786 7.61084
#
# Compressibility (1/GPa) = 0.01626072
#
# Stress axis : x y z
#
# Youngs Moduli (GPa) = 89.90446 142.21517 87.29046
#
# Poissons Ratio (x) = 0.39740 0.10782
# Poissons Ratio (y) = 0.25123 0.23091
# Poissons Ratio (z) = 0.11105 0.37620
#
# Static dielectric constant tensor:
#      x y z
#    x 3.228850 0.000000 0.503840 
#    y 0.000000 4.526920 0.000000 
#    z 0.503840 0.000000 3.449230 
# 
# 
# High freq. dielectric constant tensor:
#      x y z
#    x 1.836470 0.000000 -0.001930 
#    y 0.000000 1.846430 0.000000 
#    z -0.001930 0.000000 1.831400 
# 
# From -- ./inp_files/139030.got.cif
#   From: 2010.06.25/outbox.cif.g09.slc.cpg/sg15_70_cif.got.tgz:139030.got - 2010.06.28 07:06:18.
