data_PCOD8154092
_publ_section_title
;
Structure prediction by ZEFSAII (Michael W. Deem and Ramdas Pophale) SiO2 
 PCOD8154092
Probable space group: C 2/C
;
_chemical_formula_sum "Si O2"
_cell_formula_units_Z 48
_cell_length_a 10.899048
_cell_length_b 17.929707
_cell_length_c 11.109246
_cell_angle_alpha 90.000000
_cell_angle_beta 103.001889
_cell_angle_gamma 90.000000
_cell_volume 2115.275642
_symmetry_space_group_name_H-M "C 2/C"
_symmetry_group_IT_number 15
_symmetry_cell_setting 'monoclinic'
loop_
_space_group_symop_operation_xyz
x,y,z
-x,y,1/2-z
-x,-y,-z
x,-y,1/2+z
1/2+x,1/2+y,z
1/2-x,1/2+y,1/2-z
1/2-x,1/2-y,-z
1/2+x,1/2-y,1/2+z
loop_
_atom_site_type_symbol
_atom_site_label
_atom_site_fract_x
_atom_site_fract_y
_atom_site_fract_z
Si Si1 0.326703 0.571932 0.406870
Si Si2 0.758262 0.688251 0.656331
Si Si3 0.161476 0.238642 0.093212
Si Si4 0.539326 0.951448 0.892983
Si Si5 0.946734 0.068641 0.860585
Si Si6 0.584633 0.190629 0.028072
O O1 0.327446 0.654896 0.350532
O O2 0.189352 0.556314 0.431540
O O3 0.430055 0.560624 0.532096
O O4 0.369806 0.509186 0.319936
O O5 0.809323 0.696332 0.803566
O O6 0.651828 0.627480 0.610596
O O7 0.705260 0.770630 0.615218
O O8 0.871961 0.662184 0.594335
O O9 0.020772 0.246915 0.014357
O O10 0.250000 0.250000 0.000000
O O11 0.500000 0.981917 0.750000
O O12 0.467344 0.873144 0.895296
O O13 0.500000 0.000000 0.000000
O O14 0.000000 0.101254 0.750000
#
# Coordination Sequence:
#
# PCOD8154092 Si02
#       6
#     8   8   8   8   8   8
#     4  11  25  46  69 107 142 191 245 305 370 442
#     4  11  25  44  70 104 146 188 245 302 365 439
#     4  12  23  43  73 104 144 188 243 298 373 438
#     4  12  28  48  75 106 149 196 246 307 374 444
#     4  11  25  44  72 101 143 191 244 302 370 442
#     4  11  25  44  69 103 140 187 243 304 365 435
#
# _framework density 22.692077999999999
#
# number of rings (size 3 to 8) (size 9 to 14) (size 15 to 20)
#    0.000    0.667    3.333    3.500    2.333    2.667 
#    3.000    0.000    0.000    0.000    0.000    0.000 
#    0.000    0.000    0.000    0.000    0.000    0.000 
#
# Total GULP energy -297498.907677 kJ/mol
# GULP energy per Si atom -12395.787820 kJ/mol
# Density = 2.264043 g / cm^3
# Si number density = 22.692078 Si / 1000 Ang^3
#
#
#
# Elastic Constant Matrix: (Units=GPa)
#
#
# Indices 1 2 3 4 5 6 
#
# 1 136.9238 29.6009 31.5626 0.0000 -15.6392 0.0000
# 2 29.6009 90.8120 18.2477 0.0000 -1.2836 0.0000
# 3 31.5626 18.2477 102.3162 0.0000 -14.2829 0.0000
# 4 0.0000 0.0000 0.0000 33.6324 0.0000 -2.9828
# 5 -15.6392 -1.2836 -14.2829 0.0000 33.9072 0.0000
# 6 0.0000 0.0000 0.0000 -2.9828 0.0000 35.5362
#
#
#
# Elastic Compliance Matrix: (Units=1/GPa)
#
#
# Indices 1 2 3 4 5 6 
#
# 1 0.008590 -0.002397 -0.001787 0.000000 0.003118 0.000000
# 2 -0.002397 0.012096 -0.001603 0.000000 -0.001323 0.000000
# 3 -0.001787 -0.001603 0.011142 0.000000 0.003809 0.000000
# 4 0.000000 0.000000 0.000000 0.029956 0.000000 0.002514
# 5 0.003118 -0.001323 0.003809 0.000000 0.032485 0.000000
# 6 0.000000 0.000000 0.000000 0.002514 0.000000 0.028351
#
#
# Mechanical properties :
#
#
# Convention : Reuss Voigt Hill
#
# Bulk Modulus (GPa) = 49.36890 54.31939 51.84414
# Shear Modulus (GPa) = 35.47482 37.32455 36.39968
#
# Velocity S-wave (km/s) = 3.95816 4.06005 4.00943
# Velocity P-wave (km/s) = 6.53396 6.77999 6.65811
#
# Compressibility (1/GPa) = 0.02025567
#
# Stress axis : x y z
#
# Youngs Moduli (GPa) = 116.42056 82.66984 89.74759
#
# Poissons Ratio (x) = 0.19813 0.16038
# Poissons Ratio (y) = 0.27902 0.14383
# Poissons Ratio (z) = 0.20804 0.13249
#
# Static dielectric constant tensor:
#      x y z
#    x 4.404950 0.000000 -0.063630 
#    y 0.000000 4.121350 0.000000 
#    z -0.063630 0.000000 3.947370 
# 
# 
# High freq. dielectric constant tensor:
#      x y z
#    x 1.919400 0.000000 0.000000 
#    y 0.000000 1.895250 0.000000 
#    z 0.000000 0.000000 1.883750 
# 
# From -- ./inp_files/87467.got.cif
#   From: 2010.06.25/outbox.cif.g09.slc.cpg/sg15_44_cif.got.tgz:87467.got - 2010.06.28 07:06:18.
