data_PCOD8154866
_publ_section_title
;
Structure prediction by ZEFSAII (Michael W. Deem and Ramdas Pophale) SiO2 
 PCOD8154866
Probable space group: C 2/C
;
_chemical_formula_sum "Si O2"
_cell_formula_units_Z 44
_cell_length_a 22.747048
_cell_length_b 14.055453
_cell_length_c 16.644110
_cell_angle_alpha 90.000000
_cell_angle_beta 21.686270
_cell_angle_gamma 90.000000
_cell_volume 1966.406182
_symmetry_space_group_name_H-M "C 2/C"
_symmetry_group_IT_number 15
_symmetry_cell_setting 'monoclinic'
loop_
_space_group_symop_operation_xyz
x,y,z
-x,y,1/2-z
-x,-y,-z
x,-y,1/2+z
1/2+x,1/2+y,z
1/2-x,1/2+y,1/2-z
1/2-x,1/2-y,-z
1/2+x,1/2-y,1/2+z
loop_
_atom_site_type_symbol
_atom_site_label
_atom_site_fract_x
_atom_site_fract_y
_atom_site_fract_z
Si Si1 0.465214 0.275762 0.041555
Si Si2 0.279024 0.454538 0.985314
Si Si3 0.313841 0.708315 0.572840
Si Si4 0.524007 0.545794 0.554799
Si Si5 0.853928 0.566360 0.210870
Si Si6 0.500000 0.857086 0.250000
O O1 0.361114 0.326935 0.102557
O O2 0.464359 0.344894 0.120406
O O3 0.390721 0.176949 0.163185
O O4 0.642671 0.256839 0.784939
O O5 0.327680 0.374276 0.988676
O O6 0.199069 0.543422 0.131376
O O7 0.149522 0.418977 0.086661
O O8 0.434010 0.490608 0.740717
O O9 0.444296 0.790565 0.393618
O O10 0.500000 0.500000 0.500000
O O11 0.711297 0.542951 0.332148
O O12 0.000000 0.500000 0.000000
#
# Coordination Sequence:
#
# PCOD8154866 Si02
#       6
#     8   8   8   8   8   4
#     4  12  26  47  77 107 153 203 253 308 383 458
#     4  12  28  45  76 110 156 195 255 320 382 456
#     4  12  24  45  75 109 147 197 253 319 374 443
#     4  12  29  47  75 112 152 200 256 313 385 453
#     4  12  26  49  76 109 155 203 252 315 384 454
#     4  12  26  42  70 116 146 194 258 312 384 446
#
# _framework density 22.375844000000001
#
# number of rings (size 3 to 8) (size 9 to 14) (size 15 to 20)
#    0.000    0.000    5.455    3.273    7.636    0.727 
#    0.000    0.000    0.000    0.000    0.000    0.000 
#    0.000    0.000    0.000    0.000    0.000    0.000 
#
# Total GULP energy -272827.866067 kJ/mol
# GULP energy per Si atom -12401.266639 kJ/mol
# Density = 2.232492 g / cm^3
# Si number density = 22.375844 Si / 1000 Ang^3
#
#
#
# Elastic Constant Matrix: (Units=GPa)
#
#
# Indices 1 2 3 4 5 6 
#
# 1 116.5386 63.0359 42.7483 0.0002 -12.6523 0.0001
# 2 63.0359 133.1770 69.5488 0.0002 -0.7878 0.0002
# 3 42.7483 69.5488 108.8270 0.0000 -14.5202 0.0005
# 4 0.0002 0.0002 0.0000 14.0394 -0.0001 -0.2334
# 5 -12.6523 -0.7878 -14.5202 -0.0001 45.2477 0.0000
# 6 0.0001 0.0002 0.0005 -0.2334 0.0000 46.1463
#
#
#
# Elastic Compliance Matrix: (Units=1/GPa)
#
#
# Indices 1 2 3 4 5 6 
#
# 1 0.012071 -0.005141 -0.001063 0.000000 0.002945 0.000000
# 2 -0.005141 0.013675 -0.007188 0.000000 -0.003506 0.000000
# 3 -0.001063 -0.007188 0.014776 0.000000 0.004319 0.000000
# 4 0.000000 0.000000 0.000000 0.071234 0.000000 0.000360
# 5 0.002945 -0.003506 0.004319 0.000000 0.024249 0.000000
# 6 0.000000 0.000000 0.000000 0.000360 0.000000 0.021672
#
#
# Mechanical properties :
#
#
# Convention : Reuss Voigt Hill
#
# Bulk Modulus (GPa) = 72.78743 78.80095 75.79419
# Shear Modulus (GPa) = 26.44922 33.30068 29.87495
#
# Velocity S-wave (km/s) = 3.44182 3.86196 3.65792
# Velocity P-wave (km/s) = 6.95664 7.42831 7.19634
#
# Compressibility (1/GPa) = 0.01373864
#
# Stress axis : x y z
#
# Youngs Moduli (GPa) = 82.84084 73.12589 67.67515
#
# Poissons Ratio (x) = 0.37593 0.07197
# Poissons Ratio (y) = 0.42588 0.48644
# Poissons Ratio (z) = 0.08809 0.52561
#
# Static dielectric constant tensor:
#      x y z
#    x 4.224930 0.000000 -0.052120 
#    y 0.000000 4.635450 0.000000 
#    z -0.052120 0.000000 4.307790 
# 
# 
# High freq. dielectric constant tensor:
#      x y z
#    x 1.889510 0.000000 -0.020520 
#    y 0.000000 1.891660 0.000000 
#    z -0.020520 0.000000 1.888460 
# 
# From -- ./inp_files/219658.got.cif
#   From: 2010.06.25/outbox.cif.g09.slc.cpg/sg15_110_cif.got.tgz:219658.got - 2010.06.28 07:06:18.
