data_PCOD8154844
_publ_section_title
;
Structure prediction by ZEFSAII (Michael W. Deem and Ramdas Pophale) SiO2 
 PCOD8154844
Probable space group: C 2/C
;
_chemical_formula_sum "Si O2"
_cell_formula_units_Z 36
_cell_length_a 7.990197
_cell_length_b 16.279035
_cell_length_c 15.090855
_cell_angle_alpha 90.000000
_cell_angle_beta 123.502442
_cell_angle_gamma 90.000000
_cell_volume 1636.795144
_symmetry_space_group_name_H-M "C 2/C"
_symmetry_group_IT_number 15
_symmetry_cell_setting 'monoclinic'
loop_
_space_group_symop_operation_xyz
x,y,z
-x,y,1/2-z
-x,-y,-z
x,-y,1/2+z
1/2+x,1/2+y,z
1/2-x,1/2+y,1/2-z
1/2-x,1/2-y,-z
1/2+x,1/2-y,1/2+z
loop_
_atom_site_type_symbol
_atom_site_label
_atom_site_fract_x
_atom_site_fract_y
_atom_site_fract_z
Si Si1 0.000000 0.413470 0.750000
Si Si2 0.799506 0.149963 0.742854
Si Si3 0.953426 0.592054 0.519603
Si Si4 0.728196 0.678882 0.299470
Si Si5 0.295399 0.464077 0.405773
O O1 0.818652 0.360883 0.737476
O O2 0.884994 0.469441 0.644861
O O3 0.650663 0.130630 0.619617
O O4 0.726620 0.223494 0.784731
O O5 0.823608 0.072119 0.815335
O O6 0.000000 0.173371 0.750000
O O7 0.878585 0.652510 0.420948
O O8 0.777836 0.599848 0.541801
O O9 0.000000 0.500000 0.500000
O O10 0.500000 0.647931 0.250000
O O11 0.500000 0.500000 0.500000
#
# Coordination Sequence:
#
# PCOD8154844 Si02
#       5
#     4   8   8   8   8
#     4  12  24  48  72 110 148 190 250 302 370 448
#     4  12  27  47  72 109 148 193 247 303 374 440
#     4  12  24  46  74 105 145 192 245 304 368 441
#     4  12  27  47  74 108 148 192 245 307 373 440
#     4  12  24  44  74 104 144 192 248 302 365 442
#
# _framework density 21.994199999999999
#
# number of rings (size 3 to 8) (size 9 to 14) (size 15 to 20)
#    0.000    0.000    5.556    4.000    0.000    8.000 
#    0.000    0.000    0.000    0.000    0.000    0.000 
#    0.000    0.000    0.000    0.000    0.000    0.000 
#
# Total GULP energy -223203.253639 kJ/mol
# GULP energy per Si atom -12400.180758 kJ/mol
# Density = 2.194414 g / cm^3
# Si number density = 21.994200 Si / 1000 Ang^3
#
#
#
# Elastic Constant Matrix: (Units=GPa)
#
#
# Indices 1 2 3 4 5 6 
#
# 1 145.3652 29.4165 41.2014 0.0000 7.1932 0.0000
# 2 29.4165 100.5739 64.1611 0.0000 10.9925 0.0000
# 3 41.2014 64.1611 171.5902 0.0000 17.6068 0.0000
# 4 0.0000 0.0000 0.0000 39.9818 0.0000 -10.1435
# 5 7.1932 10.9925 17.6068 0.0000 42.1447 0.0000
# 6 0.0000 0.0000 0.0000 -10.1435 0.0000 35.6181
#
#
#
# Elastic Compliance Matrix: (Units=1/GPa)
#
#
# Indices 1 2 3 4 5 6 
#
# 1 0.007531 -0.001354 -0.001260 0.000000 -0.000406 0.000000
# 2 -0.001354 0.013384 -0.004539 0.000000 -0.001363 0.000000
# 3 -0.001260 -0.004539 0.008028 0.000000 -0.001955 0.000000
# 4 0.000000 0.000000 0.000000 0.026959 0.000000 0.007678
# 5 -0.000406 -0.001363 -0.001955 0.000000 0.024969 0.000000
# 6 0.000000 0.000000 0.000000 0.007678 0.000000 0.030262
#
#
# Mechanical properties :
#
#
# Convention : Reuss Voigt Hill
#
# Bulk Modulus (GPa) = 68.32913 76.34302 72.33607
# Shear Modulus (GPa) = 38.36715 42.39896 40.38305
#
# Velocity S-wave (km/s) = 4.18116 4.39536 4.28960
# Velocity P-wave (km/s) = 7.37860 7.78105 7.58250
#
# Compressibility (1/GPa) = 0.01463505
#
# Stress axis : x y z
#
# Youngs Moduli (GPa) = 132.79273 74.71589 124.55749
#
# Poissons Ratio (x) = 0.10119 0.15696
# Poissons Ratio (y) = 0.17984 0.56543
# Poissons Ratio (z) = 0.16734 0.33917
#
# Static dielectric constant tensor:
#      x y z
#    x 4.271380 0.000000 -0.033090 
#    y 0.000000 3.923410 0.000000 
#    z -0.033090 0.000000 3.975460 
# 
# 
# High freq. dielectric constant tensor:
#      x y z
#    x 1.887290 0.000000 -0.003030 
#    y 0.000000 1.857210 0.000000 
#    z -0.003030 0.000000 1.877180 
# 
# From -- ./inp_files/76378.got.cif
#   From: 2010.06.25/outbox.cif.g09.slc.cpg/sg15_39_cif.got.tgz:76378.got - 2010.06.28 07:06:18.
