data_PCOD8154125
_publ_section_title
;
Structure prediction by ZEFSAII (Michael W. Deem and Ramdas Pophale) SiO2 
 PCOD8154125
Probable space group: C 2/C
;
_chemical_formula_sum "Si O2"
_cell_formula_units_Z 40
_cell_length_a 26.491093
_cell_length_b 9.833250
_cell_length_c 13.404527
_cell_angle_alpha 90.000000
_cell_angle_beta 148.345258
_cell_angle_gamma 90.000000
_cell_volume 1832.490817
_symmetry_space_group_name_H-M "C 2/C"
_symmetry_group_IT_number 15
_symmetry_cell_setting 'monoclinic'
loop_
_space_group_symop_operation_xyz
x,y,z
-x,y,1/2-z
-x,-y,-z
x,-y,1/2+z
1/2+x,1/2+y,z
1/2-x,1/2+y,1/2-z
1/2-x,1/2-y,-z
1/2+x,1/2-y,1/2+z
loop_
_atom_site_type_symbol
_atom_site_label
_atom_site_fract_x
_atom_site_fract_y
_atom_site_fract_z
Si Si1 0.693985 0.720523 0.200496
Si Si2 0.406366 0.010555 0.909796
Si Si3 0.392654 0.534382 0.836833
Si Si4 0.594319 0.751574 0.470618
Si Si5 0.725061 0.369231 0.531092
O O1 0.668277 0.584212 0.215057
O O2 0.803665 0.764459 0.416759
O O3 0.687760 0.687096 0.073168
O O4 0.614771 0.836331 0.088843
O O5 0.315844 0.967353 0.692222
O O6 0.419862 0.910450 0.026882
O O7 0.500000 0.000000 0.000000
O O8 0.357778 0.549382 0.664688
O O9 0.500000 0.500000 0.000000
O O10 0.389276 0.669654 0.899030
O O11 0.500000 0.701168 0.250000
O O12 0.750000 0.250000 0.500000
#
# Coordination Sequence:
#
# PCOD8154125 Si02
#       5
#     8   8   8   8   8
#     4  11  26  47  74 102 148 188 235 302 356 416
#     4  11  25  46  70 108 139 188 239 292 360 419
#     4  12  27  47  71 107 140 194 240 286 360 429
#     4  11  25  45  69 102 142 186 239 293 353 419
#     4  11  25  47  73  99 149 185 238 291 355 431
#
# _framework density 21.828213999999999
#
# number of rings (size 3 to 8) (size 9 to 14) (size 15 to 20)
#    0.000    0.800    4.000    3.600    8.400    0.800 
#    0.000    0.000    0.000    0.000    0.000    0.000 
#    0.000    0.000    0.000    0.000    0.000    0.000 
#
# Total GULP energy -247934.024693 kJ/mol
# GULP energy per Si atom -12396.701235 kJ/mol
# Density = 2.177853 g / cm^3
# Si number density = 21.828214 Si / 1000 Ang^3
#
#
#
# Elastic Constant Matrix: (Units=GPa)
#
#
# Indices 1 2 3 4 5 6 
#
# 1 127.7474 42.0344 69.9766 0.0000 16.8544 0.0000
# 2 42.0344 103.4880 37.1752 0.0000 -4.3993 0.0000
# 3 69.9766 37.1752 168.9975 0.0000 0.3403 0.0000
# 4 0.0000 0.0000 0.0000 30.8850 0.0000 4.6533
# 5 16.8544 -4.3993 0.3403 0.0000 40.0807 0.0000
# 6 0.0000 0.0000 0.0000 4.6533 0.0000 47.1524
#
#
#
# Elastic Compliance Matrix: (Units=1/GPa)
#
#
# Indices 1 2 3 4 5 6 
#
# 1 0.012015 -0.003612 -0.004169 0.000000 -0.005413 0.000000
# 2 -0.003612 0.011633 -0.001069 0.000000 0.002805 0.000000
# 3 -0.004169 -0.001069 0.007876 0.000000 0.001569 0.000000
# 4 0.000000 0.000000 0.000000 0.032867 0.000000 -0.003244
# 5 -0.005413 0.002805 0.001569 0.000000 0.027521 0.000000
# 6 0.000000 0.000000 0.000000 -0.003244 0.000000 0.021528
#
#
# Mechanical properties :
#
#
# Convention : Reuss Voigt Hill
#
# Bulk Modulus (GPa) = 72.34683 77.62281 74.98482
# Shear Modulus (GPa) = 36.83291 40.36006 38.59649
#
# Velocity S-wave (km/s) = 4.11225 4.30465 4.20955
# Velocity P-wave (km/s) = 7.46747 7.76818 7.61931
#
# Compressibility (1/GPa) = 0.01382231
#
# Stress axis : x y z
#
# Youngs Moduli (GPa) = 83.23138 85.95885 126.97404
#
# Poissons Ratio (x) = 0.31052 0.52940
# Poissons Ratio (y) = 0.30067 0.13572
# Poissons Ratio (z) = 0.34702 0.09188
#
# Static dielectric constant tensor:
#      x y z
#    x 0.683340 0.000000 2.908840 
#    y 0.000000 5.580610 0.000000 
#    z 2.908840 0.000000 1.930860 
# 
# 
# High freq. dielectric constant tensor:
#      x y z
#    x 1.859190 0.000000 0.008920 
#    y 0.000000 1.870830 0.000000 
#    z 0.008920 0.000000 1.869200 
# 
# From -- ./inp_files/150576.got.cif
#   From: 2010.06.25/outbox.cif.g09.slc.cpg/sg15_76_cif.got.tgz:150576.got - 2010.06.28 07:06:18.
