data_PCOD8154864
_publ_section_title
;
Structure prediction by ZEFSAII (Michael W. Deem and Ramdas Pophale) SiO2 
 PCOD8154864
Probable space group: C 2/C
;
_chemical_formula_sum "Si O2"
_cell_formula_units_Z 24
_cell_length_a 20.169573
_cell_length_b 6.456894
_cell_length_c 9.627010
_cell_angle_alpha 90.000000
_cell_angle_beta 56.796851
_cell_angle_gamma 90.000000
_cell_volume 1049.057549
_symmetry_space_group_name_H-M "C 2/C"
_symmetry_group_IT_number 15
_symmetry_cell_setting 'monoclinic'
loop_
_space_group_symop_operation_xyz
x,y,z
-x,y,1/2-z
-x,-y,-z
x,-y,1/2+z
1/2+x,1/2+y,z
1/2-x,1/2+y,1/2-z
1/2-x,1/2-y,-z
1/2+x,1/2-y,1/2+z
loop_
_atom_site_type_symbol
_atom_site_label
_atom_site_fract_x
_atom_site_fract_y
_atom_site_fract_z
Si Si1 0.700669 0.107772 0.452342
Si Si2 0.644241 0.545225 0.843362
Si Si3 0.410794 0.745510 0.862412
O O1 0.750000 0.250000 0.500000
O O2 0.637454 0.243023 0.438758
O O3 0.762173 0.999141 0.277671
O O4 0.650475 0.933471 0.591163
O O5 0.603955 0.572767 0.739292
O O6 0.601228 0.358047 0.972792
O O7 0.500000 0.830189 0.750000
#
# Coordination Sequence:
#
# PCOD8154864 Si02
#       3
#     8   8   8
#     4  12  24  45  74 103 139 186 240 285 345 422
#     4  12  24  46  74 101 142 188 236 286 346 423
#     4  12  28  45  71 108 144 182 233 294 353 410
#
# _framework density 22.877676000000001
#
# number of rings (size 3 to 8) (size 9 to 14) (size 15 to 20)
#    0.000    0.000    6.667    4.000    0.000    2.667 
#    0.000    0.000    0.000    0.000    0.000    0.000 
#    0.000    0.000    0.000    0.000    0.000    0.000 
#
# Total GULP energy -148884.379204 kJ/mol
# GULP energy per Si atom -12407.031600 kJ/mol
# Density = 2.282560 g / cm^3
# Si number density = 22.877676 Si / 1000 Ang^3
#
#
#
# Elastic Constant Matrix: (Units=GPa)
#
#
# Indices 1 2 3 4 5 6 
#
# 1 78.4333 40.7484 59.4220 0.0000 -9.5192 0.0000
# 2 40.7484 111.3394 60.1725 0.0000 -5.2236 0.0000
# 3 59.4220 60.1725 130.7196 0.0000 -14.3746 0.0000
# 4 0.0000 0.0000 0.0000 30.5985 0.0000 7.2826
# 5 -9.5192 -5.2236 -14.3746 0.0000 46.5635 0.0000
# 6 0.0000 0.0000 0.0000 7.2826 0.0000 39.8961
#
#
#
# Elastic Compliance Matrix: (Units=1/GPa)
#
#
# Indices 1 2 3 4 5 6 
#
# 1 0.020389 -0.003290 -0.007594 0.000000 0.001455 0.000000
# 2 -0.003290 0.012493 -0.004322 0.000000 -0.000605 0.000000
# 3 -0.007594 -0.004322 0.013320 0.000000 0.002075 0.000000
# 4 0.000000 0.000000 0.000000 0.034166 0.000000 -0.006237
# 5 0.001455 -0.000605 0.002075 0.000000 0.022346 0.000000
# 6 0.000000 0.000000 0.000000 -0.006237 0.000000 0.026204
#
#
# Mechanical properties :
#
#
# Convention : Reuss Voigt Hill
#
# Bulk Modulus (GPa) = 63.33043 71.24202 67.28622
# Shear Modulus (GPa) = 30.37850 34.08824 32.23337
#
# Velocity S-wave (km/s) = 3.64794 3.86427 3.75766
# Velocity P-wave (km/s) = 6.74430 7.14969 6.94995
#
# Compressibility (1/GPa) = 0.01579020
#
# Stress axis : x y z
#
# Youngs Moduli (GPa) = 49.04723 80.04630 75.07772
#
# Poissons Ratio (x) = 0.26331 0.57013
# Poissons Ratio (y) = 0.16134 0.32447
# Poissons Ratio (z) = 0.37246 0.34595
#
# Static dielectric constant tensor:
#      x y z
#    x 3.812060 0.000000 0.068760 
#    y 0.000000 4.153830 0.000000 
#    z 0.068760 0.000000 4.263850 
# 
# 
# High freq. dielectric constant tensor:
#      x y z
#    x 1.889050 0.000000 0.010040 
#    y 0.000000 1.907100 0.000000 
#    z 0.010040 0.000000 1.910330 
# 
# From -- ./inp_files/45286.got.cif
#   From: 2010.06.25/outbox.cif.g09.slc.cpg/sg15_23_cif.got.tgz:45286.got - 2010.06.28 07:06:18.
