data_PCOD8154259
_publ_section_title
;
Structure prediction by ZEFSAII (Michael W. Deem and Ramdas Pophale) SiO2 
 PCOD8154259
Probable space group: C 2/C
;
_chemical_formula_sum "Si O2"
_cell_formula_units_Z 44
_cell_length_a 16.184368
_cell_length_b 8.836310
_cell_length_c 14.690513
_cell_angle_alpha 90.000000
_cell_angle_beta 116.871425
_cell_angle_gamma 90.000000
_cell_volume 1874.043779
_symmetry_space_group_name_H-M "C 2/C"
_symmetry_group_IT_number 15
_symmetry_cell_setting 'monoclinic'
loop_
_space_group_symop_operation_xyz
x,y,z
-x,y,1/2-z
-x,-y,-z
x,-y,1/2+z
1/2+x,1/2+y,z
1/2-x,1/2+y,1/2-z
1/2-x,1/2-y,-z
1/2+x,1/2-y,1/2+z
loop_
_atom_site_type_symbol
_atom_site_label
_atom_site_fract_x
_atom_site_fract_y
_atom_site_fract_z
Si Si1 0.668711 0.942200 0.106747
Si Si2 0.832109 0.492974 0.103120
Si Si3 0.864897 0.082706 0.917066
Si Si4 0.813784 0.713820 0.244287
Si Si5 0.535530 0.712124 0.083272
Si Si6 0.500000 0.202407 0.750000
O O1 0.717071 0.788558 0.167635
O O2 0.562452 0.883389 0.063936
O O3 0.697684 0.082241 0.184842
O O4 0.692396 0.974633 0.013796
O O5 0.741390 0.414678 0.102529
O O6 0.856786 0.644992 0.173155
O O7 0.923274 0.392674 0.156999
O O8 0.874470 0.152584 0.819673
O O9 0.905715 0.914589 0.940496
O O10 0.925827 0.192152 0.010851
O O11 0.550792 0.695910 0.199632
#
# Coordination Sequence:
#
# PCOD8154259 Si02
#       6
#     8   8   8   8   8   4
#     4  12  25  46  76 107 147 185 252 297 363 430
#     4  12  27  45  75 109 140 195 243 299 358 437
#     4  11  26  47  73 103 145 192 240 300 369 428
#     4  12  23  46  72 104 148 191 236 303 361 428
#     4  11  25  48  70 105 144 188 243 303 358 441
#     4  12  26  48  72 110 146 194 242 298 372 428
#
# _framework density 23.478641
#
# number of rings (size 3 to 8) (size 9 to 14) (size 15 to 20)
#    0.000    0.364    5.455    1.636    2.545    7.273 
#    3.273    0.000    0.000    0.000    0.000    0.000 
#    0.000    0.000    0.000    0.000    0.000    0.000 
#
# Total GULP energy -272629.433756 kJ/mol
# GULP energy per Si atom -12392.246989 kJ/mol
# Density = 2.342520 g / cm^3
# Si number density = 23.478641 Si / 1000 Ang^3
#
#
#
# Elastic Constant Matrix: (Units=GPa)
#
#
# Indices 1 2 3 4 5 6 
#
# 1 84.2418 30.3368 40.9032 0.0000 1.1221 0.0000
# 2 30.3368 70.1841 54.2433 0.0000 11.8250 0.0000
# 3 40.9032 54.2433 156.4193 0.0000 -16.5296 0.0000
# 4 0.0000 0.0000 0.0000 50.6942 0.0000 -2.0782
# 5 1.1221 11.8250 -16.5296 0.0000 42.1135 0.0000
# 6 0.0000 0.0000 0.0000 -2.0782 0.0000 21.2141
#
#
#
# Elastic Compliance Matrix: (Units=1/GPa)
#
#
# Indices 1 2 3 4 5 6 
#
# 1 0.014606 -0.004603 -0.002220 0.000000 0.000032 0.000000
# 2 -0.004603 0.024315 -0.008280 0.000000 -0.009955 0.000000
# 3 -0.002220 -0.008280 0.010534 0.000000 0.006519 0.000000
# 4 0.000000 0.000000 0.000000 0.019806 0.000000 0.001940
# 5 0.000032 -0.009955 0.006519 0.000000 0.029098 0.000000
# 6 0.000000 0.000000 0.000000 0.001940 0.000000 0.047329
#
#
# Mechanical properties :
#
#
# Convention : Reuss Voigt Hill
#
# Bulk Modulus (GPa) = 51.95297 62.42352 57.18825
# Shear Modulus (GPa) = 27.42610 35.16183 31.29396
#
# Velocity S-wave (km/s) = 3.42150 3.87409 3.65481
# Velocity P-wave (km/s) = 6.14692 6.83056 6.49774
#
# Compressibility (1/GPa) = 0.01924818
#
# Stress axis : x y z
#
# Youngs Moduli (GPa) = 68.46709 41.12754 94.93299
#
# Poissons Ratio (x) = 0.18932 0.21072
# Poissons Ratio (y) = 0.31516 0.78606
# Poissons Ratio (z) = 0.15197 0.34054
#
# Static dielectric constant tensor:
#      x y z
#    x 4.006080 0.000000 0.146640 
#    y 0.000000 4.284960 0.000000 
#    z 0.146640 0.000000 4.528530 
# 
# 
# High freq. dielectric constant tensor:
#      x y z
#    x 1.912350 0.000000 0.008220 
#    y 0.000000 1.934070 0.000000 
#    z 0.008220 0.000000 1.952540 
# 
# From -- ./inp_files/159643.got.cif
#   From: 2010.06.25/outbox.cif.g09.slc.cpg/sg15_80_cif.got.tgz:159643.got - 2010.06.28 07:06:18.
