data_PCOD8154746
_publ_section_title
;
Structure prediction by ZEFSAII (Michael W. Deem and Ramdas Pophale) SiO2 
 PCOD8154746
Probable space group: C 2/C
;
_chemical_formula_sum "Si O2"
_cell_formula_units_Z 40
_cell_length_a 16.744866
_cell_length_b 17.317387
_cell_length_c 10.948702
_cell_angle_alpha 90.000000
_cell_angle_beta 147.527503
_cell_angle_gamma 90.000000
_cell_volume 1704.573741
_symmetry_space_group_name_H-M "C 2/C"
_symmetry_group_IT_number 15
_symmetry_cell_setting 'monoclinic'
loop_
_space_group_symop_operation_xyz
x,y,z
-x,y,1/2-z
-x,-y,-z
x,-y,1/2+z
1/2+x,1/2+y,z
1/2-x,1/2+y,1/2-z
1/2-x,1/2-y,-z
1/2+x,1/2-y,1/2+z
loop_
_atom_site_type_symbol
_atom_site_label
_atom_site_fract_x
_atom_site_fract_y
_atom_site_fract_z
Si Si1 0.916044 0.503596 0.021450
Si Si2 0.459424 0.702264 0.328633
Si Si3 0.885905 0.070636 0.831195
Si Si4 0.336343 0.677618 0.556562
Si Si5 0.177648 0.663601 0.100017
O O1 0.769308 0.553372 0.802506
O O2 0.866807 0.419882 0.005614
O O3 0.000000 0.539441 0.250000
O O4 0.000000 0.500000 0.000000
O O5 0.500000 0.665638 0.250000
O O6 0.543349 0.649632 0.532806
O O7 0.283664 0.704140 0.134883
O O8 0.525947 0.788384 0.420820
O O9 0.844692 0.095173 0.639277
O O10 0.000000 0.000000 0.000000
O O11 0.500000 0.711576 0.750000
O O12 0.250000 0.750000 0.500000
O O13 0.263207 0.653075 0.336018
#
# Coordination Sequence:
#
# PCOD8154746 Si02
#       5
#     8   8   8   8   8
#     4  12  29  48  73 108 151 194 245 311 372 440
#     4  12  27  45  75 102 147 193 246 303 368 449
#     4  12  26  49  74 107 147 195 247 305 377 446
#     4  12  23  44  75 107 142 187 245 305 365 443
#     4  12  25  49  71 110 141 192 248 303 370 443
#
# _framework density 23.466276000000001
#
# number of rings (size 3 to 8) (size 9 to 14) (size 15 to 20)
#    0.000    0.000    6.000    2.400    5.600    4.800 
#    0.000    0.000    0.000    0.000    0.000    0.000 
#    0.000    0.000    0.000    0.000    0.000    0.000 
#
# Total GULP energy -247913.973240 kJ/mol
# GULP energy per Si atom -12395.698662 kJ/mol
# Density = 2.341287 g / cm^3
# Si number density = 23.466276 Si / 1000 Ang^3
#
#
#
# Elastic Constant Matrix: (Units=GPa)
#
#
# Indices 1 2 3 4 5 6 
#
# 1 145.3123 10.7007 32.8195 0.0000 9.9073 0.0000
# 2 10.7007 87.6538 1.3527 0.0000 15.2764 0.0000
# 3 32.8195 1.3527 64.7704 0.0000 9.2659 0.0000
# 4 0.0000 0.0000 0.0000 40.1286 0.0000 -13.3249
# 5 9.9073 15.2764 9.2659 0.0000 55.6751 0.0000
# 6 0.0000 0.0000 0.0000 -13.3249 0.0000 10.9827
#
#
#
# Elastic Compliance Matrix: (Units=1/GPa)
#
#
# Indices 1 2 3 4 5 6 
#
# 1 0.007855 -0.000807 -0.003888 0.000000 -0.000529 0.000000
# 2 -0.000807 0.012068 0.000625 0.000000 -0.003272 0.000000
# 3 -0.003888 0.000625 0.017744 0.000000 -0.002433 0.000000
# 4 0.000000 0.000000 0.000000 0.041733 0.000000 0.050633
# 5 -0.000529 -0.003272 -0.002433 0.000000 0.019358 0.000000
# 6 0.000000 0.000000 0.000000 0.050633 0.000000 0.152483
#
#
# Mechanical properties :
#
#
# Convention : Reuss Voigt Hill
#
# Bulk Modulus (GPa) = 33.86670 43.05358 38.46014
# Shear Modulus (GPa) = 18.57203 38.21488 28.39345
#
# Velocity S-wave (km/s) = 2.81630 4.03985 3.48223
# Velocity P-wave (km/s) = 5.00388 6.33619 5.70903
#
# Compressibility (1/GPa) = 0.02952753
#
# Stress axis : x y z
#
# Youngs Moduli (GPa) = 127.30263 82.86704 56.35697
#
# Poissons Ratio (x) = 0.06685 0.21910
# Poissons Ratio (y) = 0.10269 -0.03521
# Poissons Ratio (z) = 0.49492 -0.05177
#
# Static dielectric constant tensor:
#      x y z
#    x 4.800480 0.000000 0.295830 
#    y 0.000000 4.152710 0.000000 
#    z 0.295830 0.000000 4.593300 
# 
# 
# High freq. dielectric constant tensor:
#      x y z
#    x 1.936950 0.000000 0.000260 
#    y 0.000000 1.921960 0.000000 
#    z 0.000260 0.000000 1.956650 
# 
# From -- ./inp_files/89850.got.cif
#   From: 2010.06.25/outbox.cif.g09.slc.cpg/sg15_45_cif.got.tgz:89850.got - 2010.06.28 07:06:18.
