data_PCOD8154058
_publ_section_title
;
Structure prediction by ZEFSAII (Michael W. Deem and Ramdas Pophale) SiO2 
 PCOD8154058
Probable space group: C 2/C
;
_chemical_formula_sum "Si O2"
_cell_formula_units_Z 48
_cell_length_a 15.617453
_cell_length_b 8.677253
_cell_length_c 27.320945
_cell_angle_alpha 90.000000
_cell_angle_beta 37.753724
_cell_angle_gamma 90.000000
_cell_volume 2266.888828
_symmetry_space_group_name_H-M "C 2/C"
_symmetry_group_IT_number 15
_symmetry_cell_setting 'monoclinic'
loop_
_space_group_symop_operation_xyz
x,y,z
-x,y,1/2-z
-x,-y,-z
x,-y,1/2+z
1/2+x,1/2+y,z
1/2-x,1/2+y,1/2-z
1/2-x,1/2-y,-z
1/2+x,1/2-y,1/2+z
loop_
_atom_site_type_symbol
_atom_site_label
_atom_site_fract_x
_atom_site_fract_y
_atom_site_fract_z
Si Si1 0.132555 0.314416 0.018343
Si Si2 0.846990 0.619263 0.436899
Si Si3 0.116034 0.125880 0.931185
Si Si4 0.185628 0.675806 0.826974
Si Si5 0.664853 0.895233 0.668474
Si Si6 0.136712 0.326446 0.833066
O O1 0.150030 0.496075 0.019935
O O2 0.973748 0.263703 0.101569
O O3 0.250000 0.250000 0.000000
O O4 0.162743 0.250365 0.950861
O O5 0.750000 0.750000 0.500000
O O6 0.789120 0.580456 0.409227
O O7 0.008687 0.660281 0.352766
O O8 0.065393 0.230997 0.909397
O O9 0.253163 0.041335 0.846284
O O10 0.000000 0.000000 0.000000
O O11 0.271742 0.741150 0.834983
O O12 0.195111 0.490727 0.825382
O O13 0.242844 0.735706 0.749486
O O14 0.500000 0.906853 0.750000
#
# Coordination Sequence:
#
# PCOD8154058 Si02
#       6
#     8   8   8   8   8   8
#     4  11  25  43  67 103 133 182 233 285 338 419
#     4  11  25  42  69  99 142 178 233 282 345 414
#     4  12  25  44  73 100 142 184 235 292 354 412
#     4  11  25  45  69  98 143 175 238 282 349 420
#     4  12  24  46  69 102 139 186 225 287 352 419
#     4  11  26  44  70 101 134 191 223 290 346 416
#
# _framework density 21.174393999999999
#
# number of rings (size 3 to 8) (size 9 to 14) (size 15 to 20)
#    0.000    0.667    5.000    2.000    4.667    1.333 
#    0.000    0.833    0.000    0.000    0.000    0.000 
#    0.000    0.000    0.000    0.000    0.000    0.000 
#
# Total GULP energy -297329.504299 kJ/mol
# GULP energy per Si atom -12388.729346 kJ/mol
# Density = 2.112620 g / cm^3
# Si number density = 21.174394 Si / 1000 Ang^3
#
#
#
# Elastic Constant Matrix: (Units=GPa)
#
#
# Indices 1 2 3 4 5 6 
#
# 1 101.3265 45.2758 34.5198 0.0000 -2.4030 0.0010
# 2 45.2758 127.2655 63.2585 0.0001 -0.4803 0.0020
# 3 34.5198 63.2585 86.6719 0.0000 -17.7371 -0.0006
# 4 0.0000 0.0001 0.0000 40.8396 -0.0001 2.0637
# 5 -2.4030 -0.4803 -17.7371 -0.0001 48.6356 0.0001
# 6 0.0010 0.0020 -0.0006 2.0637 0.0001 42.4870
#
#
#
# Elastic Compliance Matrix: (Units=1/GPa)
#
#
# Indices 1 2 3 4 5 6 
#
# 1 0.012114 -0.002932 -0.002776 0.000000 -0.000443 0.000000
# 2 -0.002932 0.013589 -0.009458 0.000000 -0.003460 -0.000001
# 3 -0.002776 -0.009458 0.021072 0.000000 0.007454 0.000001
# 4 0.000000 0.000000 0.000000 0.024546 0.000000 -0.001192
# 5 -0.000443 -0.003460 0.007454 0.000000 0.023224 0.000000
# 6 0.000000 -0.000001 0.000001 -0.001192 0.000000 0.023595
#
#
# Mechanical properties :
#
#
# Convention : Reuss Voigt Hill
#
# Bulk Modulus (GPa) = 60.81443 66.81913 63.81678
# Shear Modulus (GPa) = 32.47751 37.87309 35.17530
#
# Velocity S-wave (km/s) = 3.92064 4.23380 4.08023
# Velocity P-wave (km/s) = 7.01985 7.45152 7.23891
#
# Compressibility (1/GPa) = 0.01644347
#
# Stress axis : x y z
#
# Youngs Moduli (GPa) = 82.54780 73.58925 47.45594
#
# Poissons Ratio (x) = 0.21574 0.13172
# Poissons Ratio (y) = 0.24201 0.44886
# Poissons Ratio (z) = 0.22913 0.69604
#
# Static dielectric constant tensor:
#      x y z
#    x 3.438030 -0.000010 -1.327300 
#    y -0.000010 3.255190 -0.000010 
#    z -1.327300 -0.000010 1.676470 
# 
# 
# High freq. dielectric constant tensor:
#      x y z
#    x 1.845770 0.000000 -0.006250 
#    y 0.000000 1.831980 0.000000 
#    z -0.006250 0.000000 1.834480 
# 
# From -- ./inp_files/295409.got.cif
#   From: 2010.06.25/outbox.cif.g09.slc.cpg/sg15_148_cif.got.tgz:295409.got - 2010.06.28 07:06:18.
