data_PCOD8154479
_publ_section_title
;
Structure prediction by ZEFSAII (Michael W. Deem and Ramdas Pophale) SiO2 
 PCOD8154479
Probable space group: C 2/C
;
_chemical_formula_sum "Si O2"
_cell_formula_units_Z 44
_cell_length_a 18.561378
_cell_length_b 9.057782
_cell_length_c 15.665501
_cell_angle_alpha 90.000000
_cell_angle_beta 46.566358
_cell_angle_gamma 90.000000
_cell_volume 1912.561180
_symmetry_space_group_name_H-M "C 2/C"
_symmetry_group_IT_number 15
_symmetry_cell_setting 'monoclinic'
loop_
_space_group_symop_operation_xyz
x,y,z
-x,y,1/2-z
-x,-y,-z
x,-y,1/2+z
1/2+x,1/2+y,z
1/2-x,1/2+y,1/2-z
1/2-x,1/2-y,-z
1/2+x,1/2-y,1/2+z
loop_
_atom_site_type_symbol
_atom_site_label
_atom_site_fract_x
_atom_site_fract_y
_atom_site_fract_z
Si Si1 0.500000 0.004407 0.250000
Si Si2 0.952637 0.598544 0.112675
Si Si3 0.563558 0.639148 0.994494
Si Si4 0.766750 0.586955 0.767018
Si Si5 0.633667 0.250326 0.608499
Si Si6 0.640303 0.596274 0.268897
O O1 0.401435 0.902272 0.319547
O O2 0.513175 0.101793 0.152963
O O3 0.943541 0.763162 0.084988
O O4 0.846204 0.535854 0.225134
O O5 0.000000 0.500000 0.000000
O O6 0.671606 0.559990 0.907745
O O7 0.567303 0.738093 0.077652
O O8 0.458448 0.549571 0.093076
O O9 0.720024 0.536881 0.712536
O O10 0.811293 0.751547 0.732575
O O11 0.750000 0.250000 0.500000
O O12 0.611043 0.382817 0.694090
#
# Coordination Sequence:
#
# PCOD8154479 Si02
#       6
#     4   8   8   8   8   8
#     4  12  22  36  62 100 124 164 224 258 316 398
#     4  12  21  39  67  92 128 167 212 265 322 378
#     4  12  23  41  66  92 130 171 212 275 322 383
#     4  12  23  40  63  95 127 171 213 262 328 379
#     4  12  19  36  63  94 120 163 224 265 304 386
#     4  12  24  39  66  97 129 168 219 268 325 387
#
# _framework density 23.005800000000001
#
# number of rings (size 3 to 8) (size 9 to 14) (size 15 to 20)
#    0.000    0.000   10.909    0.545    0.000    0.000 
#    0.000    0.000    8.000    3.273    0.000    0.000 
#    0.000    0.000    0.000    0.000    0.000    0.000 
#
# Total GULP energy -272546.882812 kJ/mol
# GULP energy per Si atom -12388.494673 kJ/mol
# Density = 2.295344 g / cm^3
# Si number density = 23.005800 Si / 1000 Ang^3
#
#
#
# Elastic Constant Matrix: (Units=GPa)
#
#
# Indices 1 2 3 4 5 6 
#
# 1 98.6148 23.8135 50.7716 0.0000 12.9252 0.0000
# 2 23.8135 57.7689 23.4247 -0.0001 0.3543 0.0001
# 3 50.7716 23.4247 135.9107 0.0000 -15.6829 0.0000
# 4 0.0000 -0.0001 0.0000 33.6561 0.0000 -7.0224
# 5 12.9252 0.3543 -15.6829 0.0000 65.5671 0.0000
# 6 0.0000 0.0001 0.0000 -7.0224 0.0000 45.2622
#
#
#
# Elastic Compliance Matrix: (Units=1/GPa)
#
#
# Indices 1 2 3 4 5 6 
#
# 1 0.014210 -0.003756 -0.005123 0.000000 -0.004006 0.000000
# 2 -0.003756 0.019655 -0.001966 0.000000 0.000164 0.000000
# 3 -0.005123 -0.001966 0.010004 0.000000 0.003414 0.000000
# 4 0.000000 0.000000 0.000000 0.030706 0.000000 0.004764
# 5 -0.004006 0.000164 0.003414 0.000000 0.016857 0.000000
# 6 0.000000 0.000000 0.000000 0.004764 0.000000 0.022833
#
#
# Mechanical properties :
#
#
# Convention : Reuss Voigt Hill
#
# Bulk Modulus (GPa) = 45.08630 54.25711 49.67171
# Shear Modulus (GPa) = 34.88014 41.84938 38.36476
#
# Velocity S-wave (km/s) = 3.89800 4.26969 4.08807
# Velocity P-wave (km/s) = 6.31661 6.92404 6.62729
#
# Compressibility (1/GPa) = 0.02217969
#
# Stress axis : x y z
#
# Youngs Moduli (GPa) = 70.37136 50.87880 99.95591
#
# Poissons Ratio (x) = 0.19108 0.51212
# Poissons Ratio (y) = 0.26429 0.19648
# Poissons Ratio (z) = 0.36055 0.10001
#
# Static dielectric constant tensor:
#      x y z
#    x 4.666540 0.000000 0.021220 
#    y 0.000000 3.976320 0.000000 
#    z 0.021220 0.000000 4.581580 
# 
# 
# High freq. dielectric constant tensor:
#      x y z
#    x 1.928320 0.000000 -0.011520 
#    y 0.000000 1.873760 0.000000 
#    z -0.011520 0.000000 1.926180 
# 
# From -- ./inp_files/160719.got.cif
#   From: 2010.06.25/outbox.cif.g09.slc.cpg/sg15_81_cif.got.tgz:160719.got - 2010.06.28 07:06:18.
