data_PCOD8154488
_publ_section_title
;
Structure prediction by ZEFSAII (Michael W. Deem and Ramdas Pophale) SiO2 
 PCOD8154488
Probable space group: C 2/C
;
_chemical_formula_sum "Si O2"
_cell_formula_units_Z 40
_cell_length_a 14.859910
_cell_length_b 14.742530
_cell_length_c 9.577971
_cell_angle_alpha 90.000000
_cell_angle_beta 66.797773
_cell_angle_gamma 90.000000
_cell_volume 1928.563514
_symmetry_space_group_name_H-M "C 2/C"
_symmetry_group_IT_number 15
_symmetry_cell_setting 'monoclinic'
loop_
_space_group_symop_operation_xyz
x,y,z
-x,y,1/2-z
-x,-y,-z
x,-y,1/2+z
1/2+x,1/2+y,z
1/2-x,1/2+y,1/2-z
1/2-x,1/2-y,-z
1/2+x,1/2-y,1/2+z
loop_
_atom_site_type_symbol
_atom_site_label
_atom_site_fract_x
_atom_site_fract_y
_atom_site_fract_z
Si Si1 0.202697 0.820406 0.427865
Si Si2 0.789806 0.018359 0.951749
Si Si3 0.909489 0.048605 0.128366
Si Si4 0.512418 0.734692 0.391935
Si Si5 0.807915 0.313711 0.073077
O O1 0.250000 0.750000 0.500000
O O2 0.229351 0.918269 0.477318
O O3 0.250263 0.806181 0.250986
O O4 0.088659 0.796317 0.476029
O O5 0.860153 0.017109 0.772552
O O6 0.694427 0.079614 0.973413
O O7 0.838193 0.075673 0.046290
O O8 0.933251 0.142387 0.190005
O O9 0.000000 0.000000 0.000000
O O10 0.500000 0.788128 0.250000
O O11 0.577942 0.788491 0.466333
O O12 0.750000 0.250000 0.000000
#
# Coordination Sequence:
#
# PCOD8154488 Si02
#       5
#     8   8   8   8   8
#     4  12  25  43  71  95 133 184 228 275 338 404
#     4  12  23  39  63 100 135 172 216 281 340 394
#     4  12  20  36  65 100 134 169 224 280 341 397
#     4  12  22  41  69  98 132 179 228 272 335 412
#     4  12  26  43  67 104 140 170 222 290 342 399
#
# _framework density 20.740825000000001
#
# number of rings (size 3 to 8) (size 9 to 14) (size 15 to 20)
#    0.000    0.000   10.000    0.600    0.000    0.800 
#    0.000    1.000    0.000    0.000    0.000    0.000 
#    0.000    0.000    0.000    0.000    0.000    0.000 
#
# Total GULP energy -247801.423371 kJ/mol
# GULP energy per Si atom -12390.071169 kJ/mol
# Density = 2.069362 g / cm^3
# Si number density = 20.740825 Si / 1000 Ang^3
#
#
#
# Elastic Constant Matrix: (Units=GPa)
#
#
# Indices 1 2 3 4 5 6 
#
# 1 135.3044 77.8956 29.1450 0.0000 23.3869 0.0000
# 2 77.8956 119.0236 36.5081 0.0000 4.4251 0.0000
# 3 29.1450 36.5081 104.6651 0.0000 20.6728 0.0000
# 4 0.0000 0.0000 0.0000 27.0011 0.0000 10.2980
# 5 23.3869 4.4251 20.6728 0.0000 34.2076 0.0000
# 6 0.0000 0.0000 0.0000 10.2980 0.0000 44.2320
#
#
#
# Elastic Compliance Matrix: (Units=1/GPa)
#
#
# Indices 1 2 3 4 5 6 
#
# 1 0.013986 -0.009149 0.001081 0.000000 -0.009031 0.000000
# 2 -0.009149 0.015416 -0.004169 0.000000 0.006780 0.000000
# 3 0.001081 -0.004169 0.012204 0.000000 -0.007574 0.000000
# 4 0.000000 0.000000 0.000000 0.040645 0.000000 -0.009463
# 5 -0.009031 0.006780 -0.007574 0.000000 0.039108 0.000000
# 6 0.000000 0.000000 0.000000 -0.009463 0.000000 0.024811
#
#
# Mechanical properties :
#
#
# Convention : Reuss Voigt Hill
#
# Bulk Modulus (GPa) = 58.37292 71.78783 65.08037
# Shear Modulus (GPa) = 28.35198 35.45110 31.90154
#
# Velocity S-wave (km/s) = 3.70126 4.13878 3.92612
# Velocity P-wave (km/s) = 6.81695 7.58461 7.21101
#
# Compressibility (1/GPa) = 0.01713123
#
# Stress axis : x y z
#
# Youngs Moduli (GPa) = 71.49911 64.86808 81.94327
#
# Poissons Ratio (x) = 0.59348 -0.08854
# Poissons Ratio (y) = 0.65414 0.34160
# Poissons Ratio (z) = -0.07726 0.27042
#
# Static dielectric constant tensor:
#      x y z
#    x 4.150490 0.000000 0.159190 
#    y 0.000000 3.826840 0.000000 
#    z 0.159190 0.000000 3.718500 
# 
# 
# High freq. dielectric constant tensor:
#      x y z
#    x 1.808200 0.000000 0.027970 
#    y 0.000000 1.806000 0.000000 
#    z 0.027970 0.000000 1.821450 
# 
# From -- ./inp_files/37817.got.cif
#   From: 2010.06.25/outbox.cif.g09.slc.cpg/sg15_19_cif.got.tgz:37817.got - 2010.06.28 07:06:18.
