data_PCOD8154160
_publ_section_title
;
Structure prediction by ZEFSAII (Michael W. Deem and Ramdas Pophale) SiO2 
 PCOD8154160
Probable space group: C 2/C
;
_chemical_formula_sum "Si O2"
_cell_formula_units_Z 48
_cell_length_a 27.390464
_cell_length_b 14.248358
_cell_length_c 9.395142
_cell_angle_alpha 90.000000
_cell_angle_beta 38.054450
_cell_angle_gamma 90.000000
_cell_volume 2260.150091
_symmetry_space_group_name_H-M "C 2/C"
_symmetry_group_IT_number 15
_symmetry_cell_setting 'monoclinic'
loop_
_space_group_symop_operation_xyz
x,y,z
-x,y,1/2-z
-x,-y,-z
x,-y,1/2+z
1/2+x,1/2+y,z
1/2-x,1/2+y,1/2-z
1/2-x,1/2-y,-z
1/2+x,1/2-y,1/2+z
loop_
_atom_site_type_symbol
_atom_site_label
_atom_site_fract_x
_atom_site_fract_y
_atom_site_fract_z
Si Si1 0.073495 0.438013 0.786711
Si Si2 0.782853 0.196213 0.215825
Si Si3 0.704767 0.376543 0.500446
Si Si4 0.951909 0.771478 0.221919
Si Si5 0.027675 0.087813 0.345345
Si Si6 0.677459 0.040669 0.315798
O O1 0.039900 0.339824 0.808976
O O2 0.117636 0.489713 0.558133
O O3 0.131207 0.419437 0.786513
O O4 0.000000 0.500000 0.000000
O O5 0.746825 0.300742 0.301883
O O6 0.809250 0.165746 0.312029
O O7 0.717244 0.127837 0.303233
O O8 0.860676 0.196421 0.939761
O O9 0.621989 0.405481 0.622710
O O10 0.757497 0.468891 0.391087
O O11 0.000000 0.805719 0.250000
O O12 0.990071 0.817395 0.994612
O O13 0.000000 0.071864 0.250000
O O14 0.000000 0.000000 0.500000
#
# Coordination Sequence:
#
# PCOD8154160 Si02
#       6
#     8   8   8   8   8   8
#     4  12  28  44  71 105 145 188 236 291 360 425
#     4  11  25  45  74 103 142 185 235 292 357 426
#     4  11  25  46  73 105 140 185 237 288 358 424
#     4  12  25  48  75 104 145 187 233 297 363 426
#     4  12  29  47  75 104 143 189 239 295 355 424
#     4  12  25  47  72 102 142 186 237 297 351 426
#
# _framework density 21.237528000000001
#
# number of rings (size 3 to 8) (size 9 to 14) (size 15 to 20)
#    0.000    0.333    5.000    3.000    7.000    2.000 
#    0.000    0.000    0.000    0.000    0.000    0.000 
#    0.000    0.000    0.000    0.000    0.000    0.000 
#
# Total GULP energy -297830.297100 kJ/mol
# GULP energy per Si atom -12409.595712 kJ/mol
# Density = 2.118919 g / cm^3
# Si number density = 21.237528 Si / 1000 Ang^3
#
#
#
# Elastic Constant Matrix: (Units=GPa)
#
#
# Indices 1 2 3 4 5 6 
#
# 1 114.2722 30.4149 34.5530 0.0000 -1.3455 0.0000
# 2 30.4149 85.2634 14.1758 0.0000 -4.1564 0.0000
# 3 34.5530 14.1758 105.8051 0.0000 -10.3734 0.0000
# 4 0.0000 0.0000 0.0000 36.0531 0.0000 -2.2381
# 5 -1.3455 -4.1564 -10.3734 0.0000 40.9695 0.0000
# 6 0.0000 0.0000 0.0000 -2.2381 0.0000 35.8596
#
#
#
# Elastic Compliance Matrix: (Units=1/GPa)
#
#
# Indices 1 2 3 4 5 6 
#
# 1 0.010548 -0.003288 -0.003079 0.000000 -0.000767 0.000000
# 2 -0.003288 0.013048 -0.000569 0.000000 0.001072 0.000000
# 3 -0.003079 -0.000569 0.010785 0.000000 0.002572 0.000000
# 4 0.000000 0.000000 0.000000 0.027845 0.000000 0.001738
# 5 -0.000767 0.001072 0.002572 0.000000 0.025143 0.000000
# 6 0.000000 0.000000 0.000000 0.001738 0.000000 0.027995
#
#
# Mechanical properties :
#
#
# Convention : Reuss Voigt Hill
#
# Bulk Modulus (GPa) = 48.76114 51.51425 50.13769
# Shear Modulus (GPa) = 36.74453 37.65626 37.20040
#
# Velocity S-wave (km/s) = 4.16404 4.21539 4.18979
# Velocity P-wave (km/s) = 6.79182 6.92832 6.86040
#
# Compressibility (1/GPa) = 0.02050814
#
# Stress axis : x y z
#
# Youngs Moduli (GPa) = 94.80168 76.63897 92.71763
#
# Poissons Ratio (x) = 0.25200 0.28552
# Poissons Ratio (y) = 0.31172 0.05279
# Poissons Ratio (z) = 0.29194 0.04363
#
# Static dielectric constant tensor:
#      x y z
#    x 3.808710 0.000000 -0.057320 
#    y 0.000000 4.171990 0.000000 
#    z -0.057320 0.000000 3.989710 
# 
# 
# High freq. dielectric constant tensor:
#      x y z
#    x 1.841710 0.000000 -0.006830 
#    y 0.000000 1.845320 0.000000 
#    z -0.006830 0.000000 1.847750 
# 
# From -- ./inp_files/66398.got.cif
#   From: 2010.06.25/outbox.cif.g09.slc.cpg/sg15_34_cif.got.tgz:66398.got - 2010.06.28 07:06:18.
