data_PCOD8154772
_publ_section_title
;
Structure prediction by ZEFSAII (Michael W. Deem and Ramdas Pophale) SiO2 
 PCOD8154772
Probable space group: C 2/C
;
_chemical_formula_sum "Si O2"
_cell_formula_units_Z 52
_cell_length_a 7.783728
_cell_length_b 23.205061
_cell_length_c 14.378477
_cell_angle_alpha 90.000000
_cell_angle_beta 57.419302
_cell_angle_gamma 90.000000
_cell_volume 2188.377069
_symmetry_space_group_name_H-M "C 2/C"
_symmetry_group_IT_number 15
_symmetry_cell_setting 'monoclinic'
loop_
_space_group_symop_operation_xyz
x,y,z
-x,y,1/2-z
-x,-y,-z
x,-y,1/2+z
1/2+x,1/2+y,z
1/2-x,1/2+y,1/2-z
1/2-x,1/2-y,-z
1/2+x,1/2-y,1/2+z
loop_
_atom_site_type_symbol
_atom_site_label
_atom_site_fract_x
_atom_site_fract_y
_atom_site_fract_z
Si Si1 0.262456 0.289577 0.819241
Si Si2 0.162752 0.900768 0.974881
Si Si3 0.085143 0.585470 0.816270
Si Si4 0.227287 0.114092 0.035397
Si Si5 0.500000 0.855651 0.750000
Si Si6 0.683211 0.507901 0.623113
Si Si7 0.566326 0.676311 0.829830
O O1 0.500000 0.276516 0.750000
O O2 0.229408 0.330648 0.915549
O O3 0.153022 0.228105 0.867222
O O4 0.173106 0.317639 0.750816
O O5 0.138029 0.962074 0.035969
O O6 0.131224 0.850253 0.060652
O O7 0.383512 0.894730 0.861335
O O8 0.995206 0.892331 0.944011
O O9 0.128013 0.539848 0.884211
O O10 0.273950 0.625303 0.734447
O O11 0.000000 0.552297 0.750000
O O12 0.894941 0.623039 0.907099
O O13 0.251821 0.057553 0.091610
O O14 0.500000 0.513199 0.750000
O O15 0.500000 0.701940 0.750000
#
# Coordination Sequence:
#
# PCOD8154772 Si02
#       7
#     8   8   8   8   4   8   8
#     4  12  27  50  74 113 155 202 253 315 387 461
#     4  12  25  50  76 109 151 203 255 320 384 459
#     4  12  23  46  74 113 148 201 259 317 383 455
#     4  12  27  46  73 114 155 199 254 319 390 461
#     4  12  28  48  72 108 160 196 252 316 388 456
#     4  12  24  48  77 107 155 200 254 322 386 459
#     4  12  25  49  80 109 150 200 263 314 381 459
#
# _framework density 23.761901000000002
#
# number of rings (size 3 to 8) (size 9 to 14) (size 15 to 20)
#    0.000    0.000    6.923    2.769    0.000    2.462 
#    2.769    0.000    0.000    0.000    0.000    0.000 
#    0.000    0.000    0.000    0.000    0.000    0.000 
#
# Total GULP energy -322346.801666 kJ/mol
# GULP energy per Si atom -12397.953910 kJ/mol
# Density = 2.370782 g / cm^3
# Si number density = 23.761901 Si / 1000 Ang^3
#
#
#
# Elastic Constant Matrix: (Units=GPa)
#
#
# Indices 1 2 3 4 5 6 
#
# 1 105.7127 15.6802 28.7155 0.0000 16.0434 0.0000
# 2 15.6802 86.7018 38.3590 0.0000 9.2251 0.0000
# 3 28.7155 38.3590 144.4448 0.0000 -13.5546 0.0000
# 4 0.0000 0.0000 0.0000 15.2758 0.0000 16.1345
# 5 16.0434 9.2251 -13.5546 0.0000 51.8927 0.0000
# 6 0.0000 0.0000 0.0000 16.1345 0.0000 18.5982
#
#
#
# Elastic Compliance Matrix: (Units=1/GPa)
#
#
# Indices 1 2 3 4 5 6 
#
# 1 0.010762 -0.000486 -0.002373 0.000000 -0.003861 0.000000
# 2 -0.000486 0.013671 -0.003842 0.000000 -0.003284 0.000000
# 3 -0.002373 -0.003842 0.008763 0.000000 0.003705 0.000000
# 4 0.000000 0.000000 0.000000 0.782043 0.000000 -0.678444
# 5 -0.003861 -0.003284 0.003705 0.000000 0.022016 0.000000
# 6 0.000000 0.000000 0.000000 -0.678444 0.000000 0.642337
#
#
# Mechanical properties :
#
#
# Convention : Reuss Voigt Hill
#
# Bulk Modulus (GPa) = 50.51898 55.81876 53.16887
# Shear Modulus (GPa) = 3.33424 34.09364 18.71394
#
# Velocity S-wave (km/s) = 1.18585 3.79199 2.80940
# Velocity P-wave (km/s) = 4.81473 6.53560 5.74002
#
# Compressibility (1/GPa) = 0.01979454
#
# Stress axis : x y z
#
# Youngs Moduli (GPa) = 92.91866 73.14844 114.11913
#
# Poissons Ratio (x) = 0.03554 0.27078
# Poissons Ratio (y) = 0.04514 0.43845
# Poissons Ratio (z) = 0.22047 0.28104
#
# Static dielectric constant tensor:
#      x y z
#    x 4.544790 0.000000 0.100980 
#    y 0.000000 4.131570 0.000000 
#    z 0.100980 0.000000 4.432160 
# 
# 
# High freq. dielectric constant tensor:
#      x y z
#    x 1.958760 0.000000 0.005760 
#    y 0.000000 1.930280 0.000000 
#    z 0.005760 0.000000 1.950980 
# 
# From -- ./inp_files/137206.got.cif
#   From: 2010.06.25/outbox.cif.g09.slc.cpg/sg15_69_cif.got.tgz:137206.got - 2010.06.28 07:06:18.
