data_PCOD8154954
_publ_section_title
;
Structure prediction by ZEFSAII (Michael W. Deem and Ramdas Pophale) SiO2 
 PCOD8154954
Probable space group: C 2/C
;
_chemical_formula_sum "Si O2"
_cell_formula_units_Z 28
_cell_length_a 13.752316
_cell_length_b 13.278446
_cell_length_c 8.061492
_cell_angle_alpha 90.000000
_cell_angle_beta 126.351657
_cell_angle_gamma 90.000000
_cell_volume 1185.624110
_symmetry_space_group_name_H-M "C 2/C"
_symmetry_group_IT_number 15
_symmetry_cell_setting 'monoclinic'
loop_
_space_group_symop_operation_xyz
x,y,z
-x,y,1/2-z
-x,-y,-z
x,-y,1/2+z
1/2+x,1/2+y,z
1/2-x,1/2+y,1/2-z
1/2-x,1/2-y,-z
1/2+x,1/2-y,1/2+z
loop_
_atom_site_type_symbol
_atom_site_label
_atom_site_fract_x
_atom_site_fract_y
_atom_site_fract_z
Si Si1 0.894256 0.423375 0.850109
Si Si2 0.943629 0.196794 0.876804
Si Si3 0.728678 0.538597 0.899479
Si Si4 0.500000 0.578370 0.250000
O O1 0.931740 0.310144 0.929638
O O2 0.770650 0.451098 0.818578
O O3 0.000000 0.500000 0.000000
O O4 0.147147 0.431163 0.882029
O O5 0.813805 0.140992 0.735737
O O6 0.000000 0.191900 0.750000
O O7 0.019025 0.142002 0.099840
O O8 0.616851 0.493355 0.892198
#
# Coordination Sequence:
#
# PCOD8154954 Si02
#       4
#     8   8   8   4
#     4  12  28  46  73 113 154 193 244 310 376 443
#     4  12  26  49  79 108 148 198 248 306 376 436
#     4  12  24  50  74 106 153 190 251 312 362 446
#     4  12  26  48  80 112 140 194 264 306 360 442
#
# _framework density 23.616253
#
# number of rings (size 3 to 8) (size 9 to 14) (size 15 to 20)
#    0.000    0.000    4.286    6.000    4.000    3.429 
#    0.000    0.000    0.000    0.000    0.000    0.000 
#    0.000    0.000    0.000    0.000    0.000    0.000 
#
# Total GULP energy -173526.945927 kJ/mol
# GULP energy per Si atom -12394.781852 kJ/mol
# Density = 2.356250 g / cm^3
# Si number density = 23.616253 Si / 1000 Ang^3
#
#
#
# Elastic Constant Matrix: (Units=GPa)
#
#
# Indices 1 2 3 4 5 6 
#
# 1 80.6221 40.3343 10.7389 0.0000 3.3825 0.0000
# 2 40.3343 191.6667 53.1011 0.0000 14.9492 0.0000
# 3 10.7389 53.1011 147.2306 0.0000 16.5852 0.0000
# 4 0.0000 0.0000 0.0000 31.8481 0.0000 3.8684
# 5 3.3825 14.9492 16.5852 0.0000 36.3652 0.0000
# 6 0.0000 0.0000 0.0000 3.8684 0.0000 35.4155
#
#
#
# Elastic Compliance Matrix: (Units=1/GPa)
#
#
# Indices 1 2 3 4 5 6 
#
# 1 0.013864 -0.002924 0.000056 0.000000 -0.000113 0.000000
# 2 -0.002924 0.006493 -0.001959 0.000000 -0.001504 0.000000
# 3 0.000056 -0.001959 0.007805 0.000000 -0.002760 0.000000
# 4 0.000000 0.000000 0.000000 0.031821 0.000000 -0.003476
# 5 -0.000113 -0.001504 -0.002760 0.000000 0.029386 0.000000
# 6 0.000000 0.000000 0.000000 -0.003476 0.000000 0.028616
#
#
# Mechanical properties :
#
#
# Convention : Reuss Voigt Hill
#
# Bulk Modulus (GPa) = 54.03135 69.76309 61.89722
# Shear Modulus (GPa) = 37.36678 41.74876 39.55777
#
# Velocity S-wave (km/s) = 3.98206 4.20908 4.09714
# Velocity P-wave (km/s) = 6.63860 7.29563 6.97486
#
# Compressibility (1/GPa) = 0.01850777
#
# Stress axis : x y z
#
# Youngs Moduli (GPa) = 72.13046 154.01677 128.11617
#
# Poissons Ratio (x) = 0.45038 -0.00720
# Poissons Ratio (y) = 0.21093 0.25099
# Poissons Ratio (z) = -0.00405 0.30173
#
# Static dielectric constant tensor:
#      x y z
#    x 4.130070 0.000000 -0.094680 
#    y 0.000000 4.343150 0.000000 
#    z -0.094680 0.000000 4.330200 
# 
# 
# High freq. dielectric constant tensor:
#      x y z
#    x 1.931520 0.000000 0.000140 
#    y 0.000000 1.940410 0.000000 
#    z 0.000140 0.000000 1.948360 
# 
# From -- ./inp_files/37738.got.cif
#   From: 2010.06.25/outbox.cif.g09.slc.cpg/sg15_19_cif.got.tgz:37738.got - 2010.06.28 07:06:18.
