data_PCOD8154681
_publ_section_title
;
Structure prediction by ZEFSAII (Michael W. Deem and Ramdas Pophale) SiO2 
 PCOD8154681
Probable space group: C 2/C
;
_chemical_formula_sum "Si O2"
_cell_formula_units_Z 48
_cell_length_a 9.919052
_cell_length_b 10.139912
_cell_length_c 22.373572
_cell_angle_alpha 90.000000
_cell_angle_beta 106.337290
_cell_angle_gamma 90.000000
_cell_volume 2159.434649
_symmetry_space_group_name_H-M "C 2/C"
_symmetry_group_IT_number 15
_symmetry_cell_setting 'monoclinic'
loop_
_space_group_symop_operation_xyz
x,y,z
-x,y,1/2-z
-x,-y,-z
x,-y,1/2+z
1/2+x,1/2+y,z
1/2-x,1/2+y,1/2-z
1/2-x,1/2-y,-z
1/2+x,1/2-y,1/2+z
loop_
_atom_site_type_symbol
_atom_site_label
_atom_site_fract_x
_atom_site_fract_y
_atom_site_fract_z
Si Si1 0.980464 0.535260 0.064775
Si Si2 0.438282 0.672498 0.534769
Si Si3 0.577385 0.686303 0.320415
Si Si4 0.282319 0.440818 0.122127
Si Si5 0.155727 0.177757 0.114548
Si Si6 0.243224 0.903378 0.106678
O O1 0.926237 0.684965 0.065412
O O2 0.133554 0.513527 0.111340
O O3 0.868026 0.433411 0.076573
O O4 0.000000 0.500000 0.000000
O O5 0.346102 0.568360 0.562243
O O6 0.378404 0.679058 0.460562
O O7 0.601061 0.629442 0.552725
O O8 0.500000 0.724016 0.250000
O O9 0.617301 0.531168 0.324547
O O10 0.482076 0.713024 0.365896
O O11 0.712464 0.782794 0.344608
O O12 0.269613 0.291235 0.144529
O O13 0.216940 0.036187 0.142463
#
# Coordination Sequence:
#
# PCOD8154681 Si02
#       6
#     8   8   8   8   8   8
#     4  12  23  38  67 106 142 174 210 267 345 417
#     4  12  24  40  72 110 145 170 218 282 357 424
#     4  12  29  48  67  96 137 186 240 285 330 397
#     4  12  24  44  69 101 139 178 224 278 343 406
#     4  12  25  43  71 105 138 177 222 283 350 413
#     4  12  25  43  69 102 139 178 221 279 341 407
#
# _framework density 22.228038999999999
#
# number of rings (size 3 to 8) (size 9 to 14) (size 15 to 20)
#    0.000    0.000    8.333    2.000    2.333    2.667 
#    0.000    0.833    0.000    0.000    0.000    0.000 
#    0.000    0.000    0.000    0.000    0.000    0.000 
#
# Total GULP energy -297504.509813 kJ/mol
# GULP energy per Si atom -12396.021242 kJ/mol
# Density = 2.217745 g / cm^3
# Si number density = 22.228039 Si / 1000 Ang^3
#
#
#
# Elastic Constant Matrix: (Units=GPa)
#
#
# Indices 1 2 3 4 5 6 
#
# 1 117.5289 36.3162 26.8225 0.0000 16.0536 0.0000
# 2 36.3162 162.7090 39.3331 0.0000 7.2606 0.0000
# 3 26.8225 39.3331 48.5052 0.0000 10.5702 0.0000
# 4 0.0000 0.0000 0.0000 20.6216 0.0000 9.1454
# 5 16.0536 7.2606 10.5702 0.0000 12.0242 0.0000
# 6 0.0000 0.0000 0.0000 9.1454 0.0000 43.5283
#
#
#
# Elastic Compliance Matrix: (Units=1/GPa)
#
#
# Indices 1 2 3 4 5 6 
#
# 1 0.011107 -0.001355 -0.002461 0.000000 -0.011847 0.000000
# 2 -0.001355 0.007820 -0.006132 0.000000 0.002478 0.000000
# 3 -0.002461 -0.006132 0.031452 0.000000 -0.020660 0.000000
# 4 0.000000 0.000000 0.000000 0.053475 0.000000 -0.011235
# 5 -0.011847 0.002478 -0.020660 0.000000 0.115649 0.000000
# 6 0.000000 0.000000 0.000000 -0.011235 0.000000 0.025334
#
#
# Mechanical properties :
#
#
# Convention : Reuss Voigt Hill
#
# Bulk Modulus (GPa) = 32.80596 59.29854 46.05225
# Shear Modulus (GPa) = 18.18873 30.31959 24.25416
#
# Velocity S-wave (km/s) = 2.86366 3.69728 3.30684
# Velocity P-wave (km/s) = 5.07197 6.70535 5.94503
#
# Compressibility (1/GPa) = 0.03048226
#
# Stress axis : x y z
#
# Youngs Moduli (GPa) = 90.03036 127.87351 31.79456
#
# Poissons Ratio (x) = 0.17333 0.07825
# Poissons Ratio (y) = 0.12204 0.19496
# Poissons Ratio (z) = 0.22158 0.78411
#
# Static dielectric constant tensor:
#      x y z
#    x 2.833710 0.000000 -0.459400 
#    y 0.000000 2.639510 0.000000 
#    z -0.459400 0.000000 3.112350 
# 
# 
# High freq. dielectric constant tensor:
#      x y z
#    x 1.900700 0.000000 0.005930 
#    y 0.000000 1.902490 0.000000 
#    z 0.005930 0.000000 1.809550 
# 
# From -- ./inp_files/263577.got.cif
#   From: 2010.06.25/outbox.cif.g09.slc.cpg/sg15_132_cif.got.tgz:263577.got - 2010.06.28 07:06:18.
