data_PCOD8154208
_publ_section_title
;
Structure prediction by ZEFSAII (Michael W. Deem and Ramdas Pophale) SiO2 
 PCOD8154208
Probable space group: C 2/C
;
_chemical_formula_sum "Si O2"
_cell_formula_units_Z 48
_cell_length_a 8.279234
_cell_length_b 23.852072
_cell_length_c 14.663647
_cell_angle_alpha 90.000000
_cell_angle_beta 135.776651
_cell_angle_gamma 90.000000
_cell_volume 2019.648667
_symmetry_space_group_name_H-M "C 2/C"
_symmetry_group_IT_number 15
_symmetry_cell_setting 'monoclinic'
loop_
_space_group_symop_operation_xyz
x,y,z
-x,y,1/2-z
-x,-y,-z
x,-y,1/2+z
1/2+x,1/2+y,z
1/2-x,1/2+y,1/2-z
1/2-x,1/2-y,-z
1/2+x,1/2-y,1/2+z
loop_
_atom_site_type_symbol
_atom_site_label
_atom_site_fract_x
_atom_site_fract_y
_atom_site_fract_z
Si Si1 0.500000 0.556561 0.250000
Si Si2 0.002347 0.738886 0.851433
Si Si3 0.663275 0.353930 0.232243
Si Si4 0.500000 0.067500 0.750000
Si Si5 0.742402 0.146911 0.244220
Si Si6 0.191283 0.995282 0.501919
Si Si7 0.764437 0.130585 0.456087
O O1 0.290764 0.597652 0.192755
O O2 0.600473 0.518789 0.370181
O O3 0.835784 0.695415 0.839642
O O4 0.888169 0.798024 0.786393
O O5 0.000000 0.709820 0.750000
O O6 0.250000 0.750000 0.000000
O O7 0.500000 0.377064 0.250000
O O8 0.805002 0.398939 0.228708
O O9 0.469417 0.331767 0.082156
O O10 0.405628 0.029736 0.629118
O O11 0.815049 0.121617 0.370487
O O12 0.474334 0.164058 0.127233
O O13 0.257612 0.930992 0.508352
O O14 0.000000 0.000000 0.500000
#
# Coordination Sequence:
#
# PCOD8154208 Si02
#       7
#     4   8   8   4   8   8   8
#     4  12  26  43  78 110 146 199 258 308 378 464
#     4  12  28  49  79 110 148 199 256 315 388 455
#     4  12  29  47  76 113 152 203 256 313 385 458
#     4  12  26  51  76 108 166 203 254 324 370 460
#     4  11  25  46  75 109 147 198 250 318 379 452
#     4  12  26  47  75 111 150 203 252 311 382 444
#     4  11  26  49  70 108 159 195 248 316 377 450
#
# _framework density 23.766508999999999
#
# number of rings (size 3 to 8) (size 9 to 14) (size 15 to 20)
#    0.000    0.333    5.000    2.000   10.500    1.333 
#    0.000    0.000    0.000    0.000    0.000    0.000 
#    0.000    0.000    0.000    0.000    0.000    0.000 
#
# Total GULP energy -297346.663524 kJ/mol
# GULP energy per Si atom -12389.444313 kJ/mol
# Density = 2.371241 g / cm^3
# Si number density = 23.766509 Si / 1000 Ang^3
#
#
#
# Elastic Constant Matrix: (Units=GPa)
#
#
# Indices 1 2 3 4 5 6 
#
# 1 118.4833 17.9491 46.6710 0.0000 -0.6723 0.0000
# 2 17.9491 87.8424 36.2360 0.0000 5.9964 0.0000
# 3 46.6710 36.2360 182.6775 0.0000 11.7376 0.0000
# 4 0.0000 0.0000 0.0000 35.3569 0.0000 -0.5802
# 5 -0.6723 5.9964 11.7376 0.0000 35.8163 0.0000
# 6 0.0000 0.0000 0.0000 -0.5802 0.0000 20.5135
#
#
#
# Elastic Compliance Matrix: (Units=1/GPa)
#
#
# Indices 1 2 3 4 5 6 
#
# 1 0.009510 -0.001075 -0.002288 0.000000 0.001108 0.000000
# 2 -0.001075 0.012579 -0.002129 0.000000 -0.001429 0.000000
# 3 -0.002288 -0.002129 0.006600 0.000000 -0.001849 0.000000
# 4 0.000000 0.000000 0.000000 0.028296 0.000000 0.000800
# 5 0.001108 -0.001429 -0.001849 0.000000 0.028786 0.000000
# 6 0.000000 0.000000 0.000000 0.000800 0.000000 0.048771
#
#
# Mechanical properties :
#
#
# Convention : Reuss Voigt Hill
#
# Bulk Modulus (GPa) = 56.47778 65.63504 61.05641
# Shear Modulus (GPa) = 33.01894 37.54713 35.28303
#
# Velocity S-wave (km/s) = 3.73138 3.97902 3.85719
# Velocity P-wave (km/s) = 6.50995 6.98475 6.75153
#
# Compressibility (1/GPa) = 0.01770608
#
# Stress axis : x y z
#
# Youngs Moduli (GPa) = 105.14920 79.49511 151.52272
#
# Poissons Ratio (x) = 0.08548 0.34663
# Poissons Ratio (y) = 0.11306 0.32255
# Poissons Ratio (z) = 0.24054 0.16923
#
# Static dielectric constant tensor:
#      x y z
#    x 4.453790 0.000000 0.061770 
#    y 0.000000 4.363530 0.000000 
#    z 0.061770 0.000000 4.742150 
# 
# 
# High freq. dielectric constant tensor:
#      x y z
#    x 1.954150 0.000000 0.003900 
#    y 0.000000 1.933840 0.000000 
#    z 0.003900 0.000000 1.957940 
# 
# From -- ./inp_files/139070.got.cif
#   From: 2010.06.25/outbox.cif.g09.slc.cpg/sg15_70_cif.got.tgz:139070.got - 2010.06.28 07:06:18.
