data_PCOD8154765
_publ_section_title
;
Structure prediction by ZEFSAII (Michael W. Deem and Ramdas Pophale) SiO2 
 PCOD8154765
Probable space group: C 2/C
;
_chemical_formula_sum "Si O2"
_cell_formula_units_Z 48
_cell_length_a 5.822034
_cell_length_b 13.761257
_cell_length_c 30.355031
_cell_angle_alpha 90.000000
_cell_angle_beta 60.784987
_cell_angle_gamma 90.000000
_cell_volume 2122.635302
_symmetry_space_group_name_H-M "C 2/C"
_symmetry_group_IT_number 15
_symmetry_cell_setting 'monoclinic'
loop_
_space_group_symop_operation_xyz
x,y,z
-x,y,1/2-z
-x,-y,-z
x,-y,1/2+z
1/2+x,1/2+y,z
1/2-x,1/2+y,1/2-z
1/2-x,1/2-y,-z
1/2+x,1/2-y,1/2+z
loop_
_atom_site_type_symbol
_atom_site_label
_atom_site_fract_x
_atom_site_fract_y
_atom_site_fract_z
Si Si1 0.320122 0.868781 0.222441
Si Si2 0.605330 0.480247 0.941930
Si Si3 0.886391 0.117877 0.890432
Si Si4 0.187779 0.231001 0.145744
Si Si5 0.654556 0.018927 0.349759
Si Si6 0.070147 0.232721 0.058574
O O1 0.500000 0.862358 0.250000
O O2 0.401492 0.774148 0.185224
O O3 0.000000 0.865454 0.250000
O O4 0.411157 0.971427 0.191503
O O5 0.441474 0.555794 0.928606
O O6 0.577377 0.368797 0.931020
O O7 0.914705 0.497012 0.906484
O O8 0.500000 0.500000 0.000000
O O9 0.619227 0.175651 0.923202
O O10 0.106788 0.192554 0.854649
O O11 0.886410 0.044536 0.849318
O O12 0.244803 0.128812 0.164220
O O13 0.232260 0.226239 0.088916
O O14 0.250000 0.250000 0.000000
#
# Coordination Sequence:
#
# PCOD8154765 Si02
#       6
#     8   8   8   8   8   8
#     4  12  29  54  84 114 154 204 264 336 404 466
#     4  12  26  42  72 112 156 206 255 309 386 468
#     4  12  23  46  72 104 164 196 253 316 377 460
#     4  12  26  48  76 111 147 203 252 321 392 469
#     4  12  26  48  76 111 147 203 252 321 392 469
#     4  12  26  42  72 112 156 206 255 309 386 468
#
# _framework density 22.613399000000001
#
# number of rings (size 3 to 8) (size 9 to 14) (size 15 to 20)
#    0.000    0.000    6.667    3.000    2.333    3.333 
#    0.000    5.000    0.000    0.000    0.000    0.000 
#    0.000    0.000    0.000    0.000    0.000    0.000 
#
# Total GULP energy -297473.095640 kJ/mol
# GULP energy per Si atom -12394.712318 kJ/mol
# Density = 2.256193 g / cm^3
# Si number density = 22.613399 Si / 1000 Ang^3
#
#
#
# Elastic Constant Matrix: (Units=GPa)
#
#
# Indices 1 2 3 4 5 6 
#
# 1 99.7936 26.4038 40.3392 -0.0003 11.9734 0.0011
# 2 26.4038 123.8851 36.0694 -0.0010 28.3168 0.0005
# 3 40.3392 36.0694 110.4867 0.0011 -0.7937 0.0002
# 4 -0.0003 -0.0010 0.0011 19.9349 -0.0001 4.4198
# 5 11.9734 28.3168 -0.7937 -0.0001 32.5617 -0.0005
# 6 0.0011 0.0005 0.0002 4.4198 -0.0005 54.0851
#
#
#
# Elastic Compliance Matrix: (Units=1/GPa)
#
#
# Indices 1 2 3 4 5 6 
#
# 1 0.012441 -0.000353 -0.004459 0.000000 -0.004376 0.000000
# 2 -0.000353 0.011501 -0.003697 0.000001 -0.009962 0.000000
# 3 -0.004459 -0.003697 0.011923 -0.000001 0.005145 0.000000
# 4 0.000000 0.000001 -0.000001 0.051089 -0.000001 -0.004175
# 5 -0.004376 -0.009962 0.005145 -0.000001 0.041109 0.000001
# 6 0.000000 0.000000 0.000000 -0.004175 0.000001 0.018831
#
#
# Mechanical properties :
#
#
# Convention : Reuss Voigt Hill
#
# Bulk Modulus (GPa) = 53.05883 59.97668 56.51776
# Shear Modulus (GPa) = 29.37845 36.73989 33.05917
#
# Velocity S-wave (km/s) = 3.60830 4.03512 3.82767
# Velocity P-wave (km/s) = 6.39329 6.94909 6.67697
#
# Compressibility (1/GPa) = 0.01884700
#
# Stress axis : x y z
#
# Youngs Moduli (GPa) = 80.37621 86.95161 83.87422
#
# Poissons Ratio (x) = 0.03071 0.37396
# Poissons Ratio (y) = 0.02839 0.31009
# Poissons Ratio (z) = 0.35836 0.32147
#
# Static dielectric constant tensor:
#      x y z
#    x 4.287130 -0.000010 0.039030 
#    y -0.000010 4.848080 0.000000 
#    z 0.039030 0.000000 4.280290 
# 
# 
# High freq. dielectric constant tensor:
#      x y z
#    x 1.897470 0.000000 0.001190 
#    y 0.000000 1.915210 0.000000 
#    z 0.001190 0.000000 1.892440 
# 
# From -- ./inp_files/305297.got.cif
#   From: 2010.06.25/outbox.cif.g09.slc.cpg/sg15_153_cif.got.tgz:305297.got - 2010.06.28 07:06:18.
