data_PCOD8154242
_publ_section_title
;
Structure prediction by ZEFSAII (Michael W. Deem and Ramdas Pophale) SiO2 
 PCOD8154242
Probable space group: C 2/C
;
_chemical_formula_sum "Si O2"
_cell_formula_units_Z 44
_cell_length_a 15.554700
_cell_length_b 12.819199
_cell_length_c 11.923734
_cell_angle_alpha 90.000000
_cell_angle_beta 125.482664
_cell_angle_gamma 90.000000
_cell_volume 1936.040959
_symmetry_space_group_name_H-M "C 2/C"
_symmetry_group_IT_number 15
_symmetry_cell_setting 'monoclinic'
loop_
_space_group_symop_operation_xyz
x,y,z
-x,y,1/2-z
-x,-y,-z
x,-y,1/2+z
1/2+x,1/2+y,z
1/2-x,1/2+y,1/2-z
1/2-x,1/2-y,-z
1/2+x,1/2-y,1/2+z
loop_
_atom_site_type_symbol
_atom_site_label
_atom_site_fract_x
_atom_site_fract_y
_atom_site_fract_z
Si Si1 0.164957 0.396539 0.744574
Si Si2 0.840859 0.955360 0.332396
Si Si3 0.998801 0.125250 0.121477
Si Si4 0.500000 0.015170 0.250000
Si Si5 0.479248 0.853656 0.436046
Si Si6 0.267596 0.798191 0.390979
O O1 0.222931 0.506834 0.770629
O O2 0.103661 0.409331 0.819390
O O3 0.251258 0.305074 0.803716
O O4 0.083106 0.368321 0.586231
O O5 0.886859 0.893180 0.474596
O O6 0.827325 0.879293 0.213679
O O7 0.912669 0.055675 0.369103
O O8 0.000000 0.088636 0.250000
O O9 0.024353 0.247137 0.135951
O O10 0.485892 0.948854 0.353106
O O11 0.379876 0.851377 0.446779
O O12 0.250000 0.750000 0.500000
#
# Coordination Sequence:
#
# PCOD8154242 Si02
#       6
#     8   8   8   4   8   8
#     4  12  26  46  71 106 150 194 250 305 379 446
#     4  11  26  47  71 106 150 197 253 305 378 457
#     4  11  25  47  75 106 145 194 250 318 377 449
#     4  12  26  44  74 106 154 198 242 316 378 438
#     4  12  25  48  72 111 145 190 255 306 373 453
#     4  12  27  46  72 105 149 199 249 309 371 448
#
# _framework density 22.726793000000001
#
# number of rings (size 3 to 8) (size 9 to 14) (size 15 to 20)
#    0.000    0.364    6.364    1.636    5.091    0.000 
#    1.636    3.636    0.000    0.000    0.000    0.000 
#    0.000    0.000    0.000    0.000    0.000    0.000 
#
# Total GULP energy -272546.183664 kJ/mol
# GULP energy per Si atom -12388.462894 kJ/mol
# Density = 2.267507 g / cm^3
# Si number density = 22.726793 Si / 1000 Ang^3
#
#
#
# Elastic Constant Matrix: (Units=GPa)
#
#
# Indices 1 2 3 4 5 6 
#
# 1 90.0391 6.4297 33.5556 0.0000 -2.9544 0.0000
# 2 6.4297 70.6268 1.1490 0.0000 5.9473 0.0000
# 3 33.5556 1.1490 115.1544 0.0000 1.2527 0.0000
# 4 0.0000 0.0000 0.0000 35.7928 0.0000 0.4168
# 5 -2.9544 5.9473 1.2527 0.0000 29.2360 0.0000
# 6 0.0000 0.0000 0.0000 0.4168 0.0000 44.4754
#
#
#
# Elastic Compliance Matrix: (Units=1/GPa)
#
#
# Indices 1 2 3 4 5 6 
#
# 1 0.012622 -0.001231 -0.003684 0.000000 0.001684 0.000000
# 2 -0.001231 0.014527 0.000247 0.000000 -0.003090 0.000000
# 3 -0.003684 0.000247 0.009764 0.000000 -0.000841 0.000000
# 4 0.000000 0.000000 0.000000 0.027942 0.000000 -0.000262
# 5 0.001684 -0.003090 -0.000841 0.000000 0.035039 0.000000
# 6 0.000000 0.000000 0.000000 -0.000262 0.000000 0.022487
#
#
# Mechanical properties :
#
#
# Convention : Reuss Voigt Hill
#
# Bulk Modulus (GPa) = 36.26038 39.78765 38.02402
# Shear Modulus (GPa) = 35.48369 37.54658 36.51513
#
# Velocity S-wave (km/s) = 3.95564 4.06899 4.01271
# Velocity P-wave (km/s) = 6.07061 6.29449 6.18356
#
# Compressibility (1/GPa) = 0.02757831
#
# Stress axis : x y z
#
# Youngs Moduli (GPa) = 79.22391 68.83650 102.41463
#
# Poissons Ratio (x) = 0.08474 0.37731
# Poissons Ratio (y) = 0.09752 -0.02533
# Poissons Ratio (z) = 0.29187 -0.01703
#
# Static dielectric constant tensor:
#      x y z
#    x 4.027170 0.000000 0.105290 
#    y 0.000000 4.750410 0.000000 
#    z 0.105290 0.000000 4.796680 
# 
# 
# High freq. dielectric constant tensor:
#      x y z
#    x 1.885800 0.000000 0.010920 
#    y 0.000000 1.923840 0.000000 
#    z 0.010920 0.000000 1.902860 
# 
# From -- ./inp_files/105515.got.cif
#   From: 2010.06.25/outbox.cif.g09.slc.cpg/sg15_53_cif.got.tgz:105515.got - 2010.06.28 07:06:18.
