data_PCOD8154903
_publ_section_title
;
Structure prediction by ZEFSAII (Michael W. Deem and Ramdas Pophale) SiO2 
 PCOD8154903
Probable space group: C 2/C
;
_chemical_formula_sum "Si O2"
_cell_formula_units_Z 52
_cell_length_a 15.584239
_cell_length_b 29.635844
_cell_length_c 8.745683
_cell_angle_alpha 90.000000
_cell_angle_beta 147.682770
_cell_angle_gamma 90.000000
_cell_volume 2159.388960
_symmetry_space_group_name_H-M "C 2/C"
_symmetry_group_IT_number 15
_symmetry_cell_setting 'monoclinic'
loop_
_space_group_symop_operation_xyz
x,y,z
-x,y,1/2-z
-x,-y,-z
x,-y,1/2+z
1/2+x,1/2+y,z
1/2-x,1/2+y,1/2-z
1/2-x,1/2-y,-z
1/2+x,1/2-y,1/2+z
loop_
_atom_site_type_symbol
_atom_site_label
_atom_site_fract_x
_atom_site_fract_y
_atom_site_fract_z
Si Si1 0.401687 0.160341 0.301387
Si Si2 0.187726 0.447054 0.529774
Si Si3 0.838183 0.025822 0.568992
Si Si4 0.137118 0.819310 0.632782
Si Si5 0.500000 0.760724 0.750000
Si Si6 0.241664 0.135915 0.565619
Si Si7 0.640547 0.384531 0.237992
O O1 0.298238 0.161123 0.299353
O O2 0.392349 0.208181 0.198490
O O3 0.579678 0.144960 0.608196
O O4 0.322779 0.124229 0.067642
O O5 0.224949 0.491640 0.488083
O O6 0.274342 0.404719 0.580798
O O7 0.000000 0.438463 0.250000
O O8 0.241295 0.451439 0.785200
O O9 0.901743 0.064101 0.782642
O O10 0.000000 0.001621 0.750000
O O11 0.109290 0.769062 0.528102
O O12 0.979078 0.849439 0.357731
O O13 0.172926 0.820434 0.870008
O O14 0.129080 0.123361 0.538920
#
# Coordination Sequence:
#
# PCOD8154903 Si02
#       7
#     8   8   8   8   4   8   8
#     4  12  24  48  71 103 138 189 232 295 356 430
#     4  12  26  45  71 106 146 187 241 293 350 416
#     4  12  26  45  73 104 145 192 237 291 351 419
#     4  12  26  44  75 100 143 182 240 291 357 424
#     4  12  26  46  78 102 140 182 242 292 370 424
#     4  12  26  46  72 107 142 188 240 294 354 421
#     4  12  24  47  73 103 143 192 236 291 360 420
#
# _framework density 24.080884999999999
#
# number of rings (size 3 to 8) (size 9 to 14) (size 15 to 20)
#    0.000    0.000    3.077    7.846    0.000    3.077 
#    0.000    1.538    0.000    0.000    0.000    0.000 
#    0.000    0.000    0.000    0.000    0.000    0.000 
#
# Total GULP energy -322499.743040 kJ/mol
# GULP energy per Si atom -12403.836271 kJ/mol
# Density = 2.402608 g / cm^3
# Si number density = 24.080885 Si / 1000 Ang^3
#
#
#
# Elastic Constant Matrix: (Units=GPa)
#
#
# Indices 1 2 3 4 5 6 
#
# 1 145.0909 39.6486 20.5917 0.0000 -26.2189 0.0000
# 2 39.6486 88.9621 -4.5964 0.0000 -13.3761 0.0000
# 3 20.5917 -4.5964 76.3383 0.0000 -18.0983 0.0000
# 4 0.0000 0.0000 0.0000 32.3001 0.0000 -9.2840
# 5 -26.2189 -13.3761 -18.0983 0.0000 40.8791 0.0000
# 6 0.0000 0.0000 0.0000 -9.2840 0.0000 43.0956
#
#
#
# Elastic Compliance Matrix: (Units=1/GPa)
#
#
# Indices 1 2 3 4 5 6 
#
# 1 0.008741 -0.003419 -0.001676 0.000000 0.003746 0.000000
# 2 -0.003419 0.013391 0.002511 0.000000 0.003300 0.000000
# 3 -0.001676 0.002511 0.015243 0.000000 0.006495 0.000000
# 4 0.000000 0.000000 0.000000 0.033003 0.000000 0.007110
# 5 0.003746 0.003300 0.006495 0.000000 0.030820 0.000000
# 6 0.000000 0.000000 0.000000 0.007110 0.000000 0.024736
#
#
# Mechanical properties :
#
#
# Convention : Reuss Voigt Hill
#
# Bulk Modulus (GPa) = 31.04949 46.85323 38.95136
# Shear Modulus (GPa) = 35.25165 40.23813 37.74489
#
# Velocity S-wave (km/s) = 3.83023 4.09217 3.96336
# Velocity P-wave (km/s) = 5.69936 6.46735 6.09546
#
# Compressibility (1/GPa) = 0.03220665
#
# Stress axis : x y z
#
# Youngs Moduli (GPa) = 114.39951 74.67944 65.60533
#
# Poissons Ratio (x) = 0.25534 0.10994
# Poissons Ratio (y) = 0.39115 -0.16473
# Poissons Ratio (z) = 0.19170 -0.18752
#
# Static dielectric constant tensor:
#      x y z
#    x 4.659210 0.000000 -0.159490 
#    y 0.000000 4.162840 0.000000 
#    z -0.159490 0.000000 4.369330 
# 
# 
# High freq. dielectric constant tensor:
#      x y z
#    x 1.977320 0.000000 -0.004990 
#    y 0.000000 1.940110 0.000000 
#    z -0.004990 0.000000 1.972530 
# 
# From -- ./inp_files/44938.got.cif
#   From: 2010.06.25/outbox.cif.g09.slc.cpg/sg15_23_cif.got.tgz:44938.got - 2010.06.28 07:06:18.
