data_PCOD8154888
_publ_section_title
;
Structure prediction by ZEFSAII (Michael W. Deem and Ramdas Pophale) SiO2 
 PCOD8154888
Probable space group: C 2/C
;
_chemical_formula_sum "Si O2"
_cell_formula_units_Z 52
_cell_length_a 16.101417
_cell_length_b 10.049815
_cell_length_c 15.973757
_cell_angle_alpha 90.000000
_cell_angle_beta 61.962212
_cell_angle_gamma 90.000000
_cell_volume 2281.454162
_symmetry_space_group_name_H-M "C 2/C"
_symmetry_group_IT_number 15
_symmetry_cell_setting 'monoclinic'
loop_
_space_group_symop_operation_xyz
x,y,z
-x,y,1/2-z
-x,-y,-z
x,-y,1/2+z
1/2+x,1/2+y,z
1/2-x,1/2+y,1/2-z
1/2-x,1/2-y,-z
1/2+x,1/2-y,1/2+z
loop_
_atom_site_type_symbol
_atom_site_label
_atom_site_fract_x
_atom_site_fract_y
_atom_site_fract_z
Si Si1 0.774563 0.958913 0.141125
Si Si2 0.691949 0.263732 0.944243
Si Si3 0.005553 0.664395 0.103287
Si Si4 0.344916 0.824388 0.553422
Si Si5 0.700367 0.465540 0.180025
Si Si6 0.919651 0.407076 0.343819
Si Si7 0.000000 0.871846 0.250000
O O1 0.825017 0.826448 0.086673
O O2 0.798515 0.001492 0.223658
O O3 0.663524 0.944432 0.180265
O O4 0.816317 0.080963 0.069531
O O5 0.749139 0.178681 0.848656
O O6 0.750000 0.250000 0.000000
O O7 0.588708 0.203410 0.001036
O O8 0.034159 0.542108 0.146494
O O9 0.980378 0.785881 0.176215
O O10 0.919728 0.620511 0.084751
O O11 0.383113 0.821790 0.439988
O O12 0.253811 0.920314 0.601133
O O13 0.593821 0.461019 0.194334
O O14 0.000000 0.331406 0.250000
#
# Coordination Sequence:
#
# PCOD8154888 Si02
#       7
#     8   8   8   8   8   8   4
#     4  12  26  47  70 111 151 196 241 316 373 447
#     4  12  24  46  78 103 146 202 252 296 372 447
#     4  12  24  46  78 107 139 200 257 302 362 462
#     4  12  27  48  73 111 156 191 248 319 379 430
#     4  12  25  47  75 112 148 196 248 314 377 448
#     4  12  25  44  73 105 148 198 254 305 373 446
#     4  12  24  46  76 110 146 192 254 306 370 456
#
# _framework density 22.792480000000001
#
# number of rings (size 3 to 8) (size 9 to 14) (size 15 to 20)
#    0.000    0.000    6.923    2.769    2.154    0.615 
#    1.385    0.000    0.000    0.000    0.000    0.000 
#    0.000    0.000    0.000    0.000    0.000    0.000 
#
# Total GULP energy -322514.129355 kJ/mol
# GULP energy per Si atom -12404.389591 kJ/mol
# Density = 2.274060 g / cm^3
# Si number density = 22.792480 Si / 1000 Ang^3
#
#
#
# Elastic Constant Matrix: (Units=GPa)
#
#
# Indices 1 2 3 4 5 6 
#
# 1 102.7516 15.8039 33.7777 0.0000 -15.8472 0.0000
# 2 15.8039 98.7618 36.7057 0.0000 -8.2134 0.0000
# 3 33.7777 36.7057 137.4478 0.0000 -13.7563 0.0000
# 4 0.0000 0.0000 0.0000 25.7313 0.0000 -0.0259
# 5 -15.8472 -8.2134 -13.7563 0.0000 40.5557 0.0000
# 6 0.0000 0.0000 0.0000 -0.0259 0.0000 37.1421
#
#
#
# Elastic Compliance Matrix: (Units=1/GPa)
#
#
# Indices 1 2 3 4 5 6 
#
# 1 0.011091 -0.000670 -0.002201 0.000000 0.003452 0.000000
# 2 -0.000670 0.011348 -0.002756 0.000000 0.001102 0.000000
# 3 -0.002201 -0.002756 0.008706 0.000000 0.001535 0.000000
# 4 0.000000 0.000000 0.000000 0.038863 0.000000 0.000027
# 5 0.003452 0.001102 0.001535 0.000000 0.026750 0.000000
# 6 0.000000 0.000000 0.000000 0.000027 0.000000 0.026924
#
#
# Mechanical properties :
#
#
# Convention : Reuss Voigt Hill
#
# Bulk Modulus (GPa) = 50.27129 56.83732 53.55430
# Shear Modulus (GPa) = 35.31908 37.53075 36.42491
#
# Velocity S-wave (km/s) = 3.94076 4.06227 4.00198
# Velocity P-wave (km/s) = 6.54294 6.85520 6.70089
#
# Compressibility (1/GPa) = 0.01989207
#
# Stress axis : x y z
#
# Youngs Moduli (GPa) = 90.16159 88.11841 114.86308
#
# Poissons Ratio (x) = 0.05900 0.25286
# Poissons Ratio (y) = 0.06037 0.31654
# Poissons Ratio (z) = 0.19848 0.24283
#
# Static dielectric constant tensor:
#      x y z
#    x 4.326690 0.000000 -0.224980 
#    y 0.000000 3.641040 0.000000 
#    z -0.224980 0.000000 6.661420 
# 
# 
# High freq. dielectric constant tensor:
#      x y z
#    x 1.910630 0.000000 -0.000340 
#    y 0.000000 1.891000 0.000000 
#    z -0.000340 0.000000 1.912530 
# 
# From -- ./inp_files/209461.got.cif
#   From: 2010.06.25/outbox.cif.g09.slc.cpg/sg15_105_cif.got.tgz:209461.got - 2010.06.28 07:06:18.
