data_PCOD8154225
_publ_section_title
;
Structure prediction by ZEFSAII (Michael W. Deem and Ramdas Pophale) SiO2 
 PCOD8154225
Probable space group: C 2/C
;
_chemical_formula_sum "Si O2"
_cell_formula_units_Z 48
_cell_length_a 25.456559
_cell_length_b 14.551937
_cell_length_c 9.007639
_cell_angle_alpha 90.000000
_cell_angle_beta 139.149505
_cell_angle_gamma 90.000000
_cell_volume 2182.565683
_symmetry_space_group_name_H-M "C 2/C"
_symmetry_group_IT_number 15
_symmetry_cell_setting 'monoclinic'
loop_
_space_group_symop_operation_xyz
x,y,z
-x,y,1/2-z
-x,-y,-z
x,-y,1/2+z
1/2+x,1/2+y,z
1/2-x,1/2+y,1/2-z
1/2-x,1/2-y,-z
1/2+x,1/2-y,1/2+z
loop_
_atom_site_type_symbol
_atom_site_label
_atom_site_fract_x
_atom_site_fract_y
_atom_site_fract_z
Si Si1 0.291454 0.596227 0.946150
Si Si2 0.782381 0.553372 0.396752
Si Si3 0.976376 0.092119 0.367344
Si Si4 0.762767 0.770455 0.854571
Si Si5 0.440964 0.738480 0.761572
Si Si6 0.054078 0.556013 0.225164
O O1 0.286429 0.509925 0.823674
O O2 0.256646 0.683883 0.788401
O O3 0.238342 0.577664 0.978527
O O4 0.382653 0.613074 0.187731
O O5 0.792045 0.645139 0.318529
O O6 0.865480 0.498579 0.565402
O O7 0.000000 0.077615 0.250000
O O8 0.026135 0.178513 0.533107
O O9 0.000000 0.000000 0.500000
O O10 0.750000 0.750000 0.000000
O O11 0.854937 0.799910 0.025019
O O12 0.500000 0.730500 0.750000
O O13 0.426766 0.841758 0.794231
O O14 0.000000 0.573115 0.250000
O O15 0.000000 0.500000 0.000000
#
# Coordination Sequence:
#
# PCOD8154225 Si02
#       6
#     8   8   8   8   8   8
#     4  12  25  45  70 105 135 186 234 284 357 411
#     4  12  25  45  72 100 143 183 235 288 347 423
#     4  12  25  45  73 105 140 183 234 290 352 414
#     4  12  26  45  70 103 142 185 235 290 347 416
#     4  11  25  47  70 103 144 183 233 291 350 413
#     4  11  26  43  70 101 143 187 232 286 349 420
#
# _framework density 21.992466
#
# number of rings (size 3 to 8) (size 9 to 14) (size 15 to 20)
#    0.000    0.333    1.667    7.000    7.000    0.667 
#    0.000    0.000    0.000    0.000    0.000    0.000 
#    0.000    0.000    0.000    0.000    0.000    0.000 
#
# Total GULP energy -297733.255936 kJ/mol
# GULP energy per Si atom -12405.552331 kJ/mol
# Density = 2.194241 g / cm^3
# Si number density = 21.992466 Si / 1000 Ang^3
#
#
#
# Elastic Constant Matrix: (Units=GPa)
#
#
# Indices 1 2 3 4 5 6 
#
# 1 113.5594 55.4118 58.2488 0.0000 4.5975 0.0000
# 2 55.4118 175.6350 78.3642 0.0000 -22.5480 0.0000
# 3 58.2488 78.3642 138.2340 0.0000 -6.2860 0.0000
# 4 0.0000 0.0000 0.0000 57.2652 0.0000 -3.9956
# 5 4.5975 -22.5480 -6.2860 0.0000 41.4950 0.0000
# 6 0.0000 0.0000 0.0000 -3.9956 0.0000 30.8106
#
#
#
# Elastic Compliance Matrix: (Units=1/GPa)
#
#
# Indices 1 2 3 4 5 6 
#
# 1 0.012146 -0.002552 -0.003822 0.000000 -0.003311 0.000000
# 2 -0.002552 0.008702 -0.003655 0.000000 0.004457 0.000000
# 3 -0.003822 -0.003655 0.010921 0.000000 0.000092 0.000000
# 4 0.000000 0.000000 0.000000 0.017622 0.000000 0.002285
# 5 -0.003311 0.004457 0.000092 0.000000 0.026902 0.000000
# 6 0.000000 0.000000 0.000000 0.002285 0.000000 0.032753
#
#
# Mechanical properties :
#
#
# Convention : Reuss Voigt Hill
#
# Bulk Modulus (GPa) = 85.39155 90.16421 87.77788
# Shear Modulus (GPa) = 37.59236 41.60774 39.60005
#
# Velocity S-wave (km/s) = 4.13889 4.35433 4.24797
# Velocity P-wave (km/s) = 7.85827 8.14659 8.00373
#
# Compressibility (1/GPa) = 0.01171076
#
# Stress axis : x y z
#
# Youngs Moduli (GPa) = 82.33488 114.91998 91.56877
#
# Poissons Ratio (x) = 0.29324 0.34997
# Poissons Ratio (y) = 0.21009 0.33469
# Poissons Ratio (z) = 0.31467 0.42004
#
# Static dielectric constant tensor:
#      x y z
#    x -0.830420 0.000000 3.309830 
#    y 0.000000 4.400690 0.000000 
#    z 3.309830 0.000000 2.114670 
# 
# 
# High freq. dielectric constant tensor:
#      x y z
#    x 1.872480 0.000000 0.001390 
#    y 0.000000 1.885720 0.000000 
#    z 0.001390 0.000000 1.882410 
# 
# From -- ./inp_files/66508.got.cif
#   From: 2010.06.25/outbox.cif.g09.slc.cpg/sg15_34_cif.got.tgz:66508.got - 2010.06.28 07:06:18.
