data_PCOD8154732
_publ_section_title
;
Structure prediction by ZEFSAII (Michael W. Deem and Ramdas Pophale) SiO2 
 PCOD8154732
Probable space group: C 2/C
;
_chemical_formula_sum "Si O2"
_cell_formula_units_Z 52
_cell_length_a 17.057079
_cell_length_b 17.756402
_cell_length_c 9.431272
_cell_angle_alpha 90.000000
_cell_angle_beta 121.824817
_cell_angle_gamma 90.000000
_cell_volume 2427.042079
_symmetry_space_group_name_H-M "C 2/C"
_symmetry_group_IT_number 15
_symmetry_cell_setting 'monoclinic'
loop_
_space_group_symop_operation_xyz
x,y,z
-x,y,1/2-z
-x,-y,-z
x,-y,1/2+z
1/2+x,1/2+y,z
1/2-x,1/2+y,1/2-z
1/2-x,1/2-y,-z
1/2+x,1/2-y,1/2+z
loop_
_atom_site_type_symbol
_atom_site_label
_atom_site_fract_x
_atom_site_fract_y
_atom_site_fract_z
Si Si1 0.892640 0.063788 0.126212
Si Si2 0.385523 0.940494 0.804934
Si Si3 0.752928 0.819429 0.398939
Si Si4 0.673700 0.743374 0.047204
Si Si5 0.000000 0.321961 0.750000
Si Si6 0.093744 0.420152 0.355749
Si Si7 0.674071 0.427493 0.620267
O O1 0.841311 0.054265 0.228421
O O2 0.000000 0.082286 0.250000
O O3 0.849964 0.134795 0.995973
O O4 0.884918 0.986054 0.030249
O O5 0.442494 0.867796 0.811600
O O6 0.278262 0.934388 0.664744
O O7 0.428692 0.011873 0.771241
O O8 0.391913 0.953289 0.976630
O O9 0.750000 0.750000 0.500000
O O10 0.721899 0.792843 0.215583
O O11 0.682725 0.878367 0.393337
O O12 0.647615 0.659131 0.069027
O O13 0.750000 0.750000 0.000000
O O14 0.574149 0.774087 0.907908
O O15 0.000000 0.369614 0.250000
#
# Coordination Sequence:
#
# PCOD8154732 Si02
#       7
#     8   8   8   8   4   8   8
#     4  12  28  49  79 108 147 198 257 310 373 456
#     4  12  23  44  70 106 143 188 250 298 371 457
#     4  12  26  50  72 107 150 190 247 309 379 441
#     4  12  28  47  75 107 156 203 245 316 377 447
#     4  12  28  44  74 114 150 198 258 308 384 450
#     4  12  25  41  72 105 144 189 238 306 372 448
#     4  12  25  51  71 108 145 198 249 303 378 436
#
# _framework density 21.425256000000001
#
# number of rings (size 3 to 8) (size 9 to 14) (size 15 to 20)
#    0.000    0.000    6.923    1.846    5.385    1.846 
#    0.000    0.000    0.000    0.000    0.000    0.000 
#    0.000    0.000    0.000    0.000    0.000    0.000 
#
# Total GULP energy -322331.384008 kJ/mol
# GULP energy per Si atom -12397.360923 kJ/mol
# Density = 2.137649 g / cm^3
# Si number density = 21.425256 Si / 1000 Ang^3
#
#
#
# Elastic Constant Matrix: (Units=GPa)
#
#
# Indices 1 2 3 4 5 6 
#
# 1 111.4316 35.1794 63.9912 0.0000 14.5039 0.0000
# 2 35.1794 134.1985 77.5166 0.0000 2.4141 0.0000
# 3 63.9912 77.5166 161.1370 0.0000 0.4127 0.0000
# 4 0.0000 0.0000 0.0000 58.5055 0.0000 -8.4290
# 5 14.5039 2.4141 0.4127 0.0000 59.2499 0.0000
# 6 0.0000 0.0000 0.0000 -8.4290 0.0000 22.1823
#
#
#
# Elastic Compliance Matrix: (Units=1/GPa)
#
#
# Indices 1 2 3 4 5 6 
#
# 1 0.012137 -0.000484 -0.004580 0.000000 -0.002919 0.000000
# 2 -0.000484 0.010347 -0.004785 0.000000 -0.000270 0.000000
# 3 -0.004580 -0.004785 0.010323 0.000000 0.001244 0.000000
# 4 0.000000 0.000000 0.000000 0.018082 0.000000 0.006871
# 5 -0.002919 -0.000270 0.001244 0.000000 0.017595 0.000000
# 6 0.000000 0.000000 0.000000 0.006871 0.000000 0.047692
#
#
# Mechanical properties :
#
#
# Convention : Reuss Voigt Hill
#
# Bulk Modulus (GPa) = 76.27342 84.46017 80.36680
# Shear Modulus (GPa) = 35.65259 43.32620 39.48940
#
# Velocity S-wave (km/s) = 4.08370 4.50177 4.29782
# Velocity P-wave (km/s) = 7.61003 8.15645 7.88797
#
# Compressibility (1/GPa) = 0.01311073
#
# Stress axis : x y z
#
# Youngs Moduli (GPa) = 82.39462 96.64512 96.86982
#
# Poissons Ratio (x) = 0.04675 0.44362
# Poissons Ratio (y) = 0.03986 0.46350
# Poissons Ratio (z) = 0.37733 0.46243
#
# Static dielectric constant tensor:
#      x y z
#    x 4.143010 0.000000 0.019890 
#    y 0.000000 4.243450 0.000000 
#    z 0.019890 0.000000 4.223660 
# 
# 
# High freq. dielectric constant tensor:
#      x y z
#    x 1.859110 0.000000 0.005030 
#    y 0.000000 1.841120 0.000000 
#    z 0.005030 0.000000 1.860970 
# 
# From -- ./inp_files/49219.got.cif
#   From: 2010.06.25/outbox.cif.g09.slc.cpg/sg15_25_cif.got.tgz:49219.got - 2010.06.28 07:06:18.
