data_PCOD8154367
_publ_section_title
;
Structure prediction by ZEFSAII (Michael W. Deem and Ramdas Pophale) SiO2 
 PCOD8154367
Probable space group: C 2/C
;
_chemical_formula_sum "Si O2"
_cell_formula_units_Z 40
_cell_length_a 7.291125
_cell_length_b 12.034471
_cell_length_c 19.941024
_cell_angle_alpha 90.000000
_cell_angle_beta 98.231681
_cell_angle_gamma 90.000000
_cell_volume 1731.694800
_symmetry_space_group_name_H-M "C 2/C"
_symmetry_group_IT_number 15
_symmetry_cell_setting 'monoclinic'
loop_
_space_group_symop_operation_xyz
x,y,z
-x,y,1/2-z
-x,-y,-z
x,-y,1/2+z
1/2+x,1/2+y,z
1/2-x,1/2+y,1/2-z
1/2-x,1/2-y,-z
1/2+x,1/2-y,1/2+z
loop_
_atom_site_type_symbol
_atom_site_label
_atom_site_fract_x
_atom_site_fract_y
_atom_site_fract_z
Si Si1 0.251983 0.154775 0.320387
Si Si2 0.839387 0.118652 0.331691
Si Si3 0.831007 0.213342 0.573558
Si Si4 0.441540 0.974016 0.421124
Si Si5 0.800139 0.877143 0.376801
O O1 0.259185 0.108574 0.245764
O O2 0.396324 0.085082 0.375097
O O3 0.297574 0.286139 0.316826
O O4 0.046668 0.163715 0.340706
O O5 0.706129 0.189010 0.373928
O O6 0.871514 0.993790 0.355801
O O7 0.750000 0.250000 0.500000
O O8 0.044421 0.181953 0.568034
O O9 0.741321 0.099188 0.593959
O O10 0.500000 0.000000 0.500000
O O11 0.604482 0.896247 0.401709
#
# Coordination Sequence:
#
# PCOD8154367 Si02
#       5
#     8   8   8   8   8
#     4  11  26  46  75 110 146 197 248 300 373 448
#     4  11  26  46  75 110 146 197 248 300 373 448
#     4  12  27  47  74 109 149 194 250 307 372 448
#     4  12  27  47  74 109 149 194 250 307 372 448
#     4  12  26  46  76 104 149 196 238 310 367 436
#
# _framework density 23.098759999999999
#
# number of rings (size 3 to 8) (size 9 to 14) (size 15 to 20)
#    0.000    0.400    4.000    3.600    5.600    6.400 
#    0.000    0.000    0.000    0.000    0.000    0.000 
#    0.000    0.000    0.000    0.000    0.000    0.000 
#
# Total GULP energy -247793.267562 kJ/mol
# GULP energy per Si atom -12389.663378 kJ/mol
# Density = 2.304619 g / cm^3
# Si number density = 23.098760 Si / 1000 Ang^3
#
#
#
# Elastic Constant Matrix: (Units=GPa)
#
#
# Indices 1 2 3 4 5 6 
#
# 1 95.7597 10.4455 11.2551 0.0000 9.0466 0.0000
# 2 10.4455 148.4056 27.3038 0.0000 5.5778 0.0000
# 3 11.2551 27.3038 125.3237 0.0000 10.4608 0.0000
# 4 0.0000 0.0000 0.0000 25.9574 0.0000 4.5301
# 5 9.0466 5.5778 10.4608 0.0000 32.2246 0.0000
# 6 0.0000 0.0000 0.0000 4.5301 0.0000 40.5564
#
#
#
# Elastic Compliance Matrix: (Units=1/GPa)
#
#
# Indices 1 2 3 4 5 6 
#
# 1 0.010835 -0.000544 -0.000625 0.000000 -0.002745 0.000000
# 2 -0.000544 0.007064 -0.001440 0.000000 -0.000602 0.000000
# 3 -0.000625 -0.001440 0.008545 0.000000 -0.002349 0.000000
# 4 0.000000 0.000000 0.000000 0.039291 0.000000 -0.004389
# 5 -0.002745 -0.000602 -0.002349 0.000000 0.032670 0.000000
# 6 0.000000 0.000000 0.000000 -0.004389 0.000000 0.025147
#
#
# Mechanical properties :
#
#
# Convention : Reuss Voigt Hill
#
# Bulk Modulus (GPa) = 47.11395 51.94421 49.52908
# Shear Modulus (GPa) = 36.80636 41.11332 38.95984
#
# Velocity S-wave (km/s) = 3.99611 4.22345 4.11136
# Velocity P-wave (km/s) = 6.46010 6.80589 6.63525
#
# Compressibility (1/GPa) = 0.02122513
#
# Stress axis : x y z
#
# Youngs Moduli (GPa) = 92.29371 141.55969 117.02357
#
# Poissons Ratio (x) = 0.07707 0.07318
# Poissons Ratio (y) = 0.05025 0.16850
# Poissons Ratio (z) = 0.05772 0.20383
#
# Static dielectric constant tensor:
#      x y z
#    x -2.152320 0.000000 -0.296660 
#    y 0.000000 4.392150 0.000000 
#    z -0.296660 0.000000 3.947900 
# 
# 
# High freq. dielectric constant tensor:
#      x y z
#    x 1.937970 0.000000 0.011450 
#    y 0.000000 1.938790 0.000000 
#    z 0.011450 0.000000 1.894130 
# 
# From -- ./inp_files/187970.got.cif
#   From: 2010.06.25/outbox.cif.g09.slc.cpg/sg15_94_cif.got.tgz:187970.got - 2010.06.28 07:06:18.
