data_PCOD8154885
_publ_section_title
;
Structure prediction by ZEFSAII (Michael W. Deem and Ramdas Pophale) SiO2 
 PCOD8154885
Probable space group: C 2/C
;
_chemical_formula_sum "Si O2"
_cell_formula_units_Z 48
_cell_length_a 11.665873
_cell_length_b 17.484374
_cell_length_c 11.547793
_cell_angle_alpha 90.000000
_cell_angle_beta 111.704052
_cell_angle_gamma 90.000000
_cell_volume 2188.425585
_symmetry_space_group_name_H-M "C 2/C"
_symmetry_group_IT_number 15
_symmetry_cell_setting 'monoclinic'
loop_
_space_group_symop_operation_xyz
x,y,z
-x,y,1/2-z
-x,-y,-z
x,-y,1/2+z
1/2+x,1/2+y,z
1/2-x,1/2+y,1/2-z
1/2-x,1/2-y,-z
1/2+x,1/2-y,1/2+z
loop_
_atom_site_type_symbol
_atom_site_label
_atom_site_fract_x
_atom_site_fract_y
_atom_site_fract_z
Si Si1 0.289451 0.589827 0.440350
Si Si2 0.753465 0.585964 0.590992
Si Si3 0.871829 0.299093 0.757721
Si Si4 0.517308 0.650704 0.387551
Si Si5 0.234898 0.647578 0.660606
Si Si6 0.539525 0.824174 0.455157
O O1 0.252191 0.502350 0.442938
O O2 0.176150 0.627312 0.328809
O O3 0.418072 0.603406 0.424192
O O4 0.311222 0.624680 0.575730
O O5 0.652395 0.630499 0.480430
O O6 0.729184 0.593574 0.718890
O O7 0.884095 0.624886 0.607620
O O8 0.767963 0.234415 0.706413
O O9 0.000000 0.270571 0.750000
O O10 0.886100 0.319407 0.897342
O O11 0.500000 0.624136 0.250000
O O12 0.506264 0.741601 0.391929
O O13 0.091797 0.635752 0.574584
#
# Coordination Sequence:
#
# PCOD8154885 Si02
#       6
#     8   8   8   8   8   8
#     4  12  28  47  72 109 149 189 242 305 369 429
#     4  12  29  45  71 110 146 195 234 308 370 426
#     4  12  24  46  76 105 140 192 244 297 364 437
#     4  12  25  48  77 105 144 189 247 297 359 439
#     4  12  26  47  75 105 145 184 247 298 358 444
#     4  12  25  48  74 108 141 190 247 296 358 439
#
# _framework density 21.933575999999999
#
# number of rings (size 3 to 8) (size 9 to 14) (size 15 to 20)
#    0.000    0.000    5.000    5.000    4.667    2.000 
#    0.000    0.000    0.000    0.000    0.000    0.000 
#    0.000    0.000    0.000    0.000    0.000    0.000 
#
# Total GULP energy -297792.559767 kJ/mol
# GULP energy per Si atom -12408.023324 kJ/mol
# Density = 2.188365 g / cm^3
# Si number density = 21.933576 Si / 1000 Ang^3
#
#
#
# Elastic Constant Matrix: (Units=GPa)
#
#
# Indices 1 2 3 4 5 6 
#
# 1 107.9809 12.2767 26.7992 0.0000 -3.5170 0.0000
# 2 12.2767 84.7122 5.7922 0.0000 -1.8264 0.0000
# 3 26.7992 5.7922 141.7074 0.0000 -21.4940 0.0000
# 4 0.0000 0.0000 0.0000 75.7513 0.0000 27.8183
# 5 -3.5170 -1.8264 -21.4940 0.0000 38.9929 0.0000
# 6 0.0000 0.0000 0.0000 27.8183 0.0000 47.9401
#
#
#
# Elastic Compliance Matrix: (Units=1/GPa)
#
#
# Indices 1 2 3 4 5 6 
#
# 1 0.009860 -0.001307 -0.001839 0.000000 -0.000186 0.000000
# 2 -0.001307 0.012015 -0.000193 0.000000 0.000339 0.000000
# 3 -0.001839 -0.000193 0.008060 0.000000 0.004268 0.000000
# 4 0.000000 0.000000 0.000000 0.016776 0.000000 -0.009735
# 5 -0.000186 0.000339 0.004268 0.000000 0.027997 0.000000
# 6 0.000000 0.000000 0.000000 -0.009735 0.000000 0.026508
#
#
# Mechanical properties :
#
#
# Convention : Reuss Voigt Hill
#
# Bulk Modulus (GPa) = 42.99925 47.12629 45.06277
# Shear Modulus (GPa) = 43.23530 51.83900 47.53715
#
# Velocity S-wave (km/s) = 4.44463 4.86681 4.66050
# Velocity P-wave (km/s) = 6.78133 7.28791 7.03918
#
# Compressibility (1/GPa) = 0.02325622
#
# Stress axis : x y z
#
# Youngs Moduli (GPa) = 101.42003 83.23220 124.07125
#
# Poissons Ratio (x) = 0.10880 0.22822
# Poissons Ratio (y) = 0.13257 0.02388
# Poissons Ratio (z) = 0.18656 0.01602
#
# Static dielectric constant tensor:
#      x y z
#    x 4.102830 0.000000 0.040460 
#    y 0.000000 3.773500 0.000000 
#    z 0.040460 0.000000 4.189950 
# 
# 
# High freq. dielectric constant tensor:
#      x y z
#    x 1.874800 0.000000 -0.000150 
#    y 0.000000 1.851230 0.000000 
#    z -0.000150 0.000000 1.885040 
# 
# From -- ./inp_files/87882.got.cif
#   From: 2010.06.25/outbox.cif.g09.slc.cpg/sg15_44_cif.got.tgz:87882.got - 2010.06.28 07:06:18.
