data_PCOD8154877
_publ_section_title
;
Structure prediction by ZEFSAII (Michael W. Deem and Ramdas Pophale) SiO2 
 PCOD8154877
Probable space group: C 2/C
;
_chemical_formula_sum "Si O2"
_cell_formula_units_Z 28
_cell_length_a 7.560991
_cell_length_b 18.153683
_cell_length_c 8.789299
_cell_angle_alpha 90.000000
_cell_angle_beta 96.132680
_cell_angle_gamma 90.000000
_cell_volume 1199.513599
_symmetry_space_group_name_H-M "C 2/C"
_symmetry_group_IT_number 15
_symmetry_cell_setting 'monoclinic'
loop_
_space_group_symop_operation_xyz
x,y,z
-x,y,1/2-z
-x,-y,-z
x,-y,1/2+z
1/2+x,1/2+y,z
1/2-x,1/2+y,1/2-z
1/2-x,1/2-y,-z
1/2+x,1/2-y,1/2+z
loop_
_atom_site_type_symbol
_atom_site_label
_atom_site_fract_x
_atom_site_fract_y
_atom_site_fract_z
Si Si1 0.194964 0.768776 0.818655
Si Si2 0.000000 0.823801 0.250000
Si Si3 0.186505 0.429913 0.685617
Si Si4 0.648974 0.546090 0.591762
O O1 0.328603 0.728411 0.712160
O O2 0.202665 0.855276 0.780143
O O3 0.000000 0.740337 0.750000
O O4 0.250000 0.750000 0.000000
O O5 0.946330 0.875896 0.385759
O O6 0.287426 0.502642 0.754163
O O7 0.178625 0.442144 0.502116
O O8 0.000000 0.420779 0.750000
O O9 0.500000 0.500000 0.500000
#
# Coordination Sequence:
#
# PCOD8154877 Si02
#       4
#     8   4   8   8
#     4  12  28  49  75 113 156 202 252 313 384 456
#     4  12  26  46  76 112 152 202 252 320 378 454
#     4  12  26  47  75 110 147 199 256 313 379 455
#     4  12  24  46  73 106 147 197 248 313 376 447
#
# _framework density 23.342796
#
# number of rings (size 3 to 8) (size 9 to 14) (size 15 to 20)
#    0.000    0.000    7.143    2.571    0.000    4.571 
#    0.000    0.000    0.000    0.000    0.000    0.000 
#    0.000    0.000    0.000    0.000    0.000    0.000 
#
# Total GULP energy -173438.031601 kJ/mol
# GULP energy per Si atom -12388.430829 kJ/mol
# Density = 2.328967 g / cm^3
# Si number density = 23.342796 Si / 1000 Ang^3
#
#
#
# Elastic Constant Matrix: (Units=GPa)
#
#
# Indices 1 2 3 4 5 6 
#
# 1 161.3609 40.7923 63.0822 0.0000 -20.6786 0.0000
# 2 40.7923 137.7704 37.9152 0.0000 -12.3539 0.0000
# 3 63.0822 37.9152 127.5491 0.0000 -28.6443 0.0000
# 4 0.0000 0.0000 0.0000 30.1783 0.0000 -19.7102
# 5 -20.6786 -12.3539 -28.6443 0.0000 53.5583 0.0000
# 6 0.0000 0.0000 0.0000 -19.7102 0.0000 37.1845
#
#
#
# Elastic Compliance Matrix: (Units=1/GPa)
#
#
# Indices 1 2 3 4 5 6 
#
# 1 0.007962 -0.001357 -0.003312 0.000000 0.000990 0.000000
# 2 -0.001357 0.008156 -0.001646 0.000000 0.000477 0.000000
# 3 -0.003312 -0.001646 0.010905 0.000000 0.004174 0.000000
# 4 0.000000 0.000000 0.000000 0.050683 0.000000 0.026865
# 5 0.000990 0.000477 0.004174 0.000000 0.021396 0.000000
# 6 0.000000 0.000000 0.000000 0.026865 0.000000 0.041133
#
#
# Mechanical properties :
#
#
# Convention : Reuss Voigt Hill
#
# Bulk Modulus (GPa) = 69.48283 78.91776 74.20030
# Shear Modulus (GPa) = 31.71332 43.17696 37.44514
#
# Velocity S-wave (km/s) = 3.68991 4.30547 4.00952
# Velocity P-wave (km/s) = 6.92710 7.65491 7.30008
#
# Compressibility (1/GPa) = 0.01439205
#
# Stress axis : x y z
#
# Youngs Moduli (GPa) = 125.59578 122.60764 91.70256
#
# Poissons Ratio (x) = 0.16641 0.30373
# Poissons Ratio (y) = 0.17046 0.15095
# Poissons Ratio (z) = 0.41599 0.20183
#
# Static dielectric constant tensor:
#      x y z
#    x 4.223740 0.000000 -0.676390 
#    y 0.000000 2.873420 0.000000 
#    z -0.676390 0.000000 4.512630 
# 
# 
# High freq. dielectric constant tensor:
#      x y z
#    x 1.925040 0.000000 -0.041680 
#    y 0.000000 1.949350 0.000000 
#    z -0.041680 0.000000 1.913680 
# 
# From -- ./inp_files/21509.got.cif
#   From: 2010.06.25/outbox.cif.g09.slc.cpg/sg15_11_cif.got.tgz:21509.got - 2010.06.28 07:06:18.
