data_PCOD8154699
_publ_section_title
;
Structure prediction by ZEFSAII (Michael W. Deem and Ramdas Pophale) SiO2 
 PCOD8154699
Probable space group: C 2/C
;
_chemical_formula_sum "Si O2"
_cell_formula_units_Z 48
_cell_length_a 17.342574
_cell_length_b 14.001643
_cell_length_c 8.950422
_cell_angle_alpha 90.000000
_cell_angle_beta 91.144912
_cell_angle_gamma 90.000000
_cell_volume 2172.948113
_symmetry_space_group_name_H-M "C 2/C"
_symmetry_group_IT_number 15
_symmetry_cell_setting 'monoclinic'
loop_
_space_group_symop_operation_xyz
x,y,z
-x,y,1/2-z
-x,-y,-z
x,-y,1/2+z
1/2+x,1/2+y,z
1/2-x,1/2+y,1/2-z
1/2-x,1/2-y,-z
1/2+x,1/2-y,1/2+z
loop_
_atom_site_type_symbol
_atom_site_label
_atom_site_fract_x
_atom_site_fract_y
_atom_site_fract_z
Si Si1 0.732343 0.003259 0.993549
Si Si2 0.345113 0.499175 0.241536
Si Si3 0.320000 0.797338 0.093376
Si Si4 0.324807 0.801935 0.449584
Si Si5 0.441050 0.326202 0.125782
Si Si6 0.049471 0.162716 0.381066
O O1 0.816279 0.996819 0.911943
O O2 0.678162 0.090432 0.941791
O O3 0.762318 0.018749 0.162252
O O4 0.678653 0.910369 0.991635
O O5 0.379169 0.395432 0.202109
O O6 0.406465 0.579337 0.205397
O O7 0.321445 0.786204 0.271854
O O8 0.395587 0.741536 0.038975
O O9 0.250000 0.750000 0.000000
O O10 0.250000 0.750000 0.500000
O O11 0.399728 0.757954 0.532237
O O12 0.500000 0.282431 0.250000
O O13 0.495017 0.382380 0.007781
O O14 0.000000 0.215013 0.250000
#
# Coordination Sequence:
#
# PCOD8154699 Si02
#       6
#     8   8   8   8   8   8
#     4  12  24  42  72 104 140 177 239 289 343 410
#     4  12  23  41  69 107 141 179 226 295 359 421
#     4  12  26  45  71 103 138 186 241 282 344 425
#     4  12  25  46  70 100 143 185 236 291 341 420
#     4  12  26  44  68 106 147 183 233 289 361 421
#     4  12  24  43  68  99 146 186 225 292 358 416
#
# _framework density 22.089804000000001
#
# number of rings (size 3 to 8) (size 9 to 14) (size 15 to 20)
#    0.000    0.000    6.667    4.000    2.333    0.000 
#    0.000    1.667    0.000    0.000    0.000    0.000 
#    0.000    0.000    0.000    0.000    0.000    0.000 
#
# Total GULP energy -297476.799840 kJ/mol
# GULP energy per Si atom -12394.866660 kJ/mol
# Density = 2.203953 g / cm^3
# Si number density = 22.089804 Si / 1000 Ang^3
#
#
#
# Elastic Constant Matrix: (Units=GPa)
#
#
# Indices 1 2 3 4 5 6 
#
# 1 81.8694 38.0432 37.2989 0.0000 24.4854 0.0000
# 2 38.0432 116.7958 40.9126 0.0000 13.5038 0.0000
# 3 37.2989 40.9126 92.4843 0.0000 23.3644 0.0000
# 4 0.0000 0.0000 0.0000 32.9923 0.0000 1.3425
# 5 24.4854 13.5038 23.3644 0.0000 53.3388 0.0000
# 6 0.0000 0.0000 0.0000 1.3425 0.0000 13.0655
#
#
#
# Elastic Compliance Matrix: (Units=1/GPa)
#
#
# Indices 1 2 3 4 5 6 
#
# 1 0.017313 -0.003610 -0.004057 0.000000 -0.005256 0.000000
# 2 -0.003610 0.010907 -0.003474 0.000000 0.000418 0.000000
# 3 -0.004057 -0.003474 0.014947 0.000000 -0.003805 0.000000
# 4 0.000000 0.000000 0.000000 0.030437 0.000000 -0.003128
# 5 -0.005256 0.000418 -0.003805 0.000000 0.022722 0.000000
# 6 0.000000 0.000000 0.000000 -0.003128 0.000000 0.076859
#
#
# Mechanical properties :
#
#
# Convention : Reuss Voigt Hill
#
# Bulk Modulus (GPa) = 47.88621 58.18432 53.03526
# Shear Modulus (GPa) = 24.70001 31.53898 28.11950
#
# Velocity S-wave (km/s) = 3.34752 3.78267 3.57173
# Velocity P-wave (km/s) = 6.05527 6.74353 6.40865
#
# Compressibility (1/GPa) = 0.02088284
#
# Stress axis : x y z
#
# Youngs Moduli (GPa) = 57.76122 91.68752 66.90194
#
# Poissons Ratio (x) = 0.33101 0.27144
# Poissons Ratio (y) = 0.20853 0.23244
# Poissons Ratio (z) = 0.23435 0.31856
#
# Static dielectric constant tensor:
#      x y z
#    x 4.045750 0.000000 0.161260 
#    y 0.000000 3.763070 0.000000 
#    z 0.161260 0.000000 4.387550 
# 
# 
# High freq. dielectric constant tensor:
#      x y z
#    x 1.863360 0.000000 0.009470 
#    y 0.000000 1.852990 0.000000 
#    z 0.009470 0.000000 1.898110 
# 
# From -- ./inp_files/47442.got.cif
#   From: 2010.06.25/outbox.cif.g09.slc.cpg/sg15_24_cif.got.tgz:47442.got - 2010.06.28 07:06:18.
