data_PCOD8154577
_publ_section_title
;
Structure prediction by ZEFSAII (Michael W. Deem and Ramdas Pophale) SiO2 
 PCOD8154577
Probable space group: C 2/C
;
_chemical_formula_sum "Si O2"
_cell_formula_units_Z 60
_cell_length_a 20.192764
_cell_length_b 11.857719
_cell_length_c 13.929719
_cell_angle_alpha 90.000000
_cell_angle_beta 119.100985
_cell_angle_gamma 90.000000
_cell_volume 2914.293974
_symmetry_space_group_name_H-M "C 2/C"
_symmetry_group_IT_number 15
_symmetry_cell_setting 'monoclinic'
loop_
_space_group_symop_operation_xyz
x,y,z
-x,y,1/2-z
-x,-y,-z
x,-y,1/2+z
1/2+x,1/2+y,z
1/2-x,1/2+y,1/2-z
1/2-x,1/2-y,-z
1/2+x,1/2-y,1/2+z
loop_
_atom_site_type_symbol
_atom_site_label
_atom_site_fract_x
_atom_site_fract_y
_atom_site_fract_z
Si Si1 0.176119 0.103002 0.706249
Si Si2 0.279067 0.123247 0.511824
Si Si3 0.027947 0.708381 0.582797
Si Si4 0.500000 0.665673 0.250000
Si Si5 0.837667 0.444814 0.256099
Si Si6 0.871584 0.005625 0.636802
Si Si7 0.075689 0.934175 0.526644
Si Si8 0.373950 0.154332 0.392899
O O1 0.266718 0.100644 0.767228
O O2 0.147604 0.216680 0.638348
O O3 0.145261 0.096899 0.792767
O O4 0.147087 0.995794 0.625123
O O5 0.250000 0.250000 0.500000
O O6 0.328082 0.083035 0.637403
O O7 0.206390 0.044402 0.455843
O O8 0.330235 0.106206 0.454515
O O9 0.087934 0.615231 0.653097
O O10 0.071782 0.805601 0.556260
O O11 0.985586 0.758407 0.646486
O O12 0.964160 0.649589 0.472573
O O13 0.575038 0.592373 0.282425
O O14 0.850298 0.578269 0.284659
O O15 0.915452 0.067318 0.581915
O O16 0.000000 0.000000 0.500000
#
# Coordination Sequence:
#
# PCOD8154577 Si02
#       8
#     8   8   8   4   8   8   8   8
#     4  12  24  43  71 104 138 181 230 294 345 410
#     4  12  23  42  73 101 134 183 236 288 333 412
#     4  12  25  44  71 102 141 181 232 288 349 419
#     4  12  22  38  76 106 134 180 230 298 340 404
#     4  12  27  44  71 101 140 189 229 283 353 423
#     4  12  23  41  68 107 139 170 235 290 350 402
#     4  12  22  43  69 103 137 176 230 293 347 400
#     4  12  26  48  69 100 144 184 233 287 355 421
#
# _framework density 20.588176000000001
#
# number of rings (size 3 to 8) (size 9 to 14) (size 15 to 20)
#    0.000    0.000    8.000    2.800    1.867    0.000 
#    2.400    1.333    0.000    0.000    0.000    0.000 
#    0.000    0.000    0.000    0.000    0.000    0.000 
#
# Total GULP energy -372204.698188 kJ/mol
# GULP energy per Si atom -12406.823273 kJ/mol
# Density = 2.054132 g / cm^3
# Si number density = 20.588176 Si / 1000 Ang^3
#
#
#
# Elastic Constant Matrix: (Units=GPa)
#
#
# Indices 1 2 3 4 5 6 
#
# 1 102.1470 27.2516 39.9543 0.0000 -3.2099 0.0000
# 2 27.2516 63.0422 35.8804 0.0000 1.2098 0.0000
# 3 39.9543 35.8804 108.6361 0.0000 0.3623 0.0000
# 4 0.0000 0.0000 0.0000 40.3940 0.0000 0.9617
# 5 -3.2099 1.2098 0.3623 0.0000 55.3263 0.0000
# 6 0.0000 0.0000 0.0000 0.9617 0.0000 27.8201
#
#
#
# Elastic Compliance Matrix: (Units=1/GPa)
#
#
# Indices 1 2 3 4 5 6 
#
# 1 0.011997 -0.003311 -0.003321 0.000000 0.000790 0.000000
# 2 -0.003311 0.020456 -0.005537 0.000000 -0.000603 0.000000
# 3 -0.003321 -0.005537 0.012256 0.000000 -0.000152 0.000000
# 4 0.000000 0.000000 0.000000 0.024777 0.000000 -0.000856
# 5 0.000790 -0.000603 -0.000152 0.000000 0.018135 0.000000
# 6 0.000000 0.000000 0.000000 -0.000856 0.000000 0.035975
#
#
# Mechanical properties :
#
#
# Convention : Reuss Voigt Hill
#
# Bulk Modulus (GPa) = 49.08854 53.33311 51.21082
# Shear Modulus (GPa) = 32.31569 36.09066 34.20317
#
# Velocity S-wave (km/s) = 3.96615 4.19140 4.08033
# Velocity P-wave (km/s) = 6.69840 7.02743 6.86489
#
# Compressibility (1/GPa) = 0.02037135
#
# Stress axis : x y z
#
# Youngs Moduli (GPa) = 83.35344 48.88457 81.59427
#
# Poissons Ratio (x) = 0.16185 0.27101
# Poissons Ratio (y) = 0.27597 0.45176
# Poissons Ratio (z) = 0.27685 0.27066
#
# Static dielectric constant tensor:
#      x y z
#    x 3.894640 0.000000 -0.014250 
#    y 0.000000 3.672040 0.000000 
#    z -0.014250 0.000000 3.923640 
# 
# 
# High freq. dielectric constant tensor:
#      x y z
#    x 1.816540 0.000000 0.006170 
#    y 0.000000 1.791180 0.000000 
#    z 0.006170 0.000000 1.816870 
# 
# From -- ./inp_files/167703.got.cif
#   From: 2010.06.25/outbox.cif.g09.slc.cpg/sg15_84_cif.got.tgz:167703.got - 2010.06.28 07:06:18.
