data_PCOD8154777
_publ_section_title
;
Structure prediction by ZEFSAII (Michael W. Deem and Ramdas Pophale) SiO2 
 PCOD8154777
Probable space group: C 2/C
;
_chemical_formula_sum "Si O2"
_cell_formula_units_Z 48
_cell_length_a 8.106644
_cell_length_b 26.629994
_cell_length_c 13.957860
_cell_angle_alpha 90.000000
_cell_angle_beta 138.555720
_cell_angle_gamma 90.000000
_cell_volume 1994.425102
_symmetry_space_group_name_H-M "C 2/C"
_symmetry_group_IT_number 15
_symmetry_cell_setting 'monoclinic'
loop_
_space_group_symop_operation_xyz
x,y,z
-x,y,1/2-z
-x,-y,-z
x,-y,1/2+z
1/2+x,1/2+y,z
1/2-x,1/2+y,1/2-z
1/2-x,1/2-y,-z
1/2+x,1/2-y,1/2+z
loop_
_atom_site_type_symbol
_atom_site_label
_atom_site_fract_x
_atom_site_fract_y
_atom_site_fract_z
Si Si1 0.003811 0.203688 0.071369
Si Si2 0.302139 0.391313 0.579820
Si Si3 0.864317 0.578701 0.015303
Si Si4 0.188142 0.701378 0.758198
Si Si5 0.000000 0.644206 0.250000
Si Si6 0.000000 0.138898 0.750000
Si Si7 0.762183 0.481290 0.074919
O O1 0.024887 0.252157 0.147863
O O2 0.271767 0.179531 0.174524
O O3 0.818622 0.165591 0.047484
O O4 0.917170 0.218285 0.926045
O O5 0.500000 0.401498 0.750000
O O6 0.335586 0.427811 0.504629
O O7 0.029254 0.406995 0.495929
O O8 0.845212 0.519163 0.025681
O O9 0.976854 0.606256 0.154071
O O10 0.596655 0.602908 0.876495
O O11 0.286178 0.672066 0.707837
O O12 0.000000 0.671614 0.750000
O O13 0.000000 0.476392 0.250000
O O14 0.500000 0.500000 0.000000
#
# Coordination Sequence:
#
# PCOD8154777 Si02
#       7
#     8   8   8   8   4   4   8
#     4  12  27  49  75 109 151 201 256 319 387 456
#     4  12  26  47  79 109 152 205 255 318 389 464
#     4  12  26  48  74 110 156 198 254 313 389 463
#     4  12  28  48  74 107 151 199 258 317 383 453
#     4  12  23  46  76 100 158 200 244 311 388 454
#     4  12  29  46  78 116 154 202 266 319 384 462
#     4  12  28  49  78 117 159 203 255 318 395 475
#
# _framework density 24.067084000000001
#
# number of rings (size 3 to 8) (size 9 to 14) (size 15 to 20)
#    0.000    0.000    4.167    5.000    5.833    2.000 
#    0.000    0.000    0.000    0.000    0.000    0.000 
#    0.000    0.000    0.000    0.000    0.000    0.000 
#
# Total GULP energy -297492.321931 kJ/mol
# GULP energy per Si atom -12395.513414 kJ/mol
# Density = 2.401231 g / cm^3
# Si number density = 24.067084 Si / 1000 Ang^3
#
#
#
# Elastic Constant Matrix: (Units=GPa)
#
#
# Indices 1 2 3 4 5 6 
#
# 1 90.0910 16.3695 -5.0029 0.0000 -5.5203 0.0000
# 2 16.3695 120.3744 47.6175 0.0000 -17.9579 0.0000
# 3 -5.0029 47.6175 145.7782 0.0000 -19.1964 0.0000
# 4 0.0000 0.0000 0.0000 45.0104 0.0000 -4.9037
# 5 -5.5203 -17.9579 -19.1964 0.0000 33.7027 0.0000
# 6 0.0000 0.0000 0.0000 -4.9037 0.0000 29.7639
#
#
#
# Elastic Compliance Matrix: (Units=1/GPa)
#
#
# Indices 1 2 3 4 5 6 
#
# 1 0.011595 -0.001811 0.001203 0.000000 0.001619 0.000000
# 2 -0.001811 0.010239 -0.002948 0.000000 0.003480 0.000000
# 3 0.001203 -0.002948 0.008306 0.000000 0.003357 0.000000
# 4 0.000000 0.000000 0.000000 0.022623 0.000000 0.003727
# 5 0.001619 0.003480 0.003357 0.000000 0.033703 0.000000
# 6 0.000000 0.000000 0.000000 0.003727 0.000000 0.034212
#
#
# Mechanical properties :
#
#
# Convention : Reuss Voigt Hill
#
# Bulk Modulus (GPa) = 43.42774 52.69021 48.05897
# Shear Modulus (GPa) = 36.90936 41.51270 39.21103
#
# Velocity S-wave (km/s) = 3.92037 4.15767 4.04076
# Velocity P-wave (km/s) = 6.21096 6.70737 6.46393
#
# Compressibility (1/GPa) = 0.02302676
#
# Stress axis : x y z
#
# Youngs Moduli (GPa) = 86.24446 97.66432 120.39243
#
# Poissons Ratio (x) = 0.17687 -0.14480
# Poissons Ratio (y) = 0.15619 0.35498
# Poissons Ratio (z) = -0.10373 0.28796
#
# Static dielectric constant tensor:
#      x y z
#    x 4.333550 0.000000 0.045130 
#    y 0.000000 4.474090 0.000000 
#    z 0.045130 0.000000 4.607930 
# 
# 
# High freq. dielectric constant tensor:
#      x y z
#    x 1.968180 0.000000 0.004030 
#    y 0.000000 1.952860 0.000000 
#    z 0.004030 0.000000 1.980350 
# 
# From -- ./inp_files/139104.got.cif
#   From: 2010.06.25/outbox.cif.g09.slc.cpg/sg15_70_cif.got.tgz:139104.got - 2010.06.28 07:06:18.
