data_PCOD8154509
_publ_section_title
;
Structure prediction by ZEFSAII (Michael W. Deem and Ramdas Pophale) SiO2 
 PCOD8154509
Probable space group: C 2/C
;
_chemical_formula_sum "Si O2"
_cell_formula_units_Z 36
_cell_length_a 12.411621
_cell_length_b 19.467565
_cell_length_c 8.776345
_cell_angle_alpha 90.000000
_cell_angle_beta 134.999952
_cell_angle_gamma 90.000000
_cell_volume 1499.474871
_symmetry_space_group_name_H-M "C 2/C"
_symmetry_group_IT_number 15
_symmetry_cell_setting 'monoclinic'
loop_
_space_group_symop_operation_xyz
x,y,z
-x,y,1/2-z
-x,-y,-z
x,-y,1/2+z
1/2+x,1/2+y,z
1/2-x,1/2+y,1/2-z
1/2-x,1/2-y,-z
1/2+x,1/2-y,1/2+z
loop_
_atom_site_type_symbol
_atom_site_label
_atom_site_fract_x
_atom_site_fract_y
_atom_site_fract_z
Si Si1 0.296988 0.688078 0.301259
Si Si2 0.665237 0.567458 0.374867
Si Si3 0.254271 0.438078 0.207284
Si Si4 0.959630 0.682542 0.044393
Si Si5 0.500000 0.625000 0.750000
O O1 0.361191 0.641945 0.227605
O O2 0.116395 0.678391 0.108819
O O3 0.345608 0.768001 0.333757
O O4 0.364957 0.667065 0.533782
O O5 0.500000 0.535760 0.250000
O O6 0.761851 0.518001 0.357457
O O7 0.757576 0.571610 0.623970
O O8 0.418825 0.417065 0.303868
O O9 0.116413 0.391946 0.005223
O O10 0.000000 0.714239 0.250000
#
# Coordination Sequence:
#
# PCOD8154509 Si02
#       5
#     8   8   8   8   4
#     4  12  26  46  75 109 147 195 248 300 365 436
#     4  12  26  47  76 111 148 195 244 303 367 440
#     4  12  26  46  75 109 147 195 248 300 365 436
#     4  12  26  47  76 111 148 195 244 303 367 440
#     4  12  20  44  76 108 144 192 248 302 356 444
#
# _framework density 24.008405
#
# number of rings (size 3 to 8) (size 9 to 14) (size 15 to 20)
#    0.000    0.000    6.667    4.000    0.000    2.667 
#    0.000    0.000    0.000    0.000    0.000    0.000 
#    0.000    0.000    0.000    0.000    0.000    0.000 
#
# Total GULP energy -223203.655429 kJ/mol
# GULP energy per Si atom -12400.203079 kJ/mol
# Density = 2.395376 g / cm^3
# Si number density = 24.008405 Si / 1000 Ang^3
#
#
#
# Elastic Constant Matrix: (Units=GPa)
#
#
# Indices 1 2 3 4 5 6 
#
# 1 90.0246 40.5381 49.8104 0.0000 6.1217 0.0000
# 2 40.5381 119.0704 40.5386 0.0000 0.0001 0.0000
# 3 49.8104 40.5386 90.0262 0.0000 -6.1212 0.0000
# 4 0.0000 0.0000 0.0000 27.3315 0.0000 0.0002
# 5 6.1217 0.0001 -6.1212 0.0000 55.1695 0.0000
# 6 0.0000 0.0000 0.0000 0.0002 0.0000 27.3311
#
#
#
# Elastic Compliance Matrix: (Units=1/GPa)
#
#
# Indices 1 2 3 4 5 6 
#
# 1 0.017323 -0.003033 -0.008413 0.000000 -0.002856 0.000000
# 2 -0.003033 0.010464 -0.003033 0.000000 0.000000 0.000000
# 3 -0.008413 -0.003033 0.017323 0.000000 0.002856 0.000000
# 4 0.000000 0.000000 0.000000 0.036588 0.000000 0.000000
# 5 -0.002856 0.000000 0.002856 0.000000 0.018760 0.000000
# 6 0.000000 0.000000 0.000000 0.000000 0.000000 0.036588
#
#
# Mechanical properties :
#
#
# Convention : Reuss Voigt Hill
#
# Bulk Modulus (GPa) = 61.91914 62.32170 62.12042
# Shear Modulus (GPa) = 29.17347 33.18202 31.17774
#
# Velocity S-wave (km/s) = 3.48966 3.72169 3.60754
# Velocity P-wave (km/s) = 6.48719 6.66953 6.57899
#
# Compressibility (1/GPa) = 0.01615010
#
# Stress axis : x y z
#
# Youngs Moduli (GPa) = 57.72654 95.56630 57.72759
#
# Poissons Ratio (x) = 0.28990 0.48565
# Poissons Ratio (y) = 0.17511 0.17512
# Poissons Ratio (z) = 0.48564 0.28990
#
# Static dielectric constant tensor:
#      x y z
#    x 4.087200 0.000000 0.000000 
#    y 0.000000 4.225330 0.000000 
#    z 0.000000 0.000000 4.087200 
# 
# 
# High freq. dielectric constant tensor:
#      x y z
#    x 1.944180 0.000000 0.000000 
#    y 0.000000 1.954020 0.000000 
#    z 0.000000 0.000000 1.944180 
# 
# From -- ./inp_files/32334.got.cif
#   From: 2010.06.25/outbox.cif.g09.slc.cpg/sg15_17_cif.got.tgz:32334.got - 2010.06.28 07:06:18.
