data_PCOD8154628
_publ_section_title
;
Structure prediction by ZEFSAII (Michael W. Deem and Ramdas Pophale) SiO2 
 PCOD8154628
Probable space group: C 2/C
;
_chemical_formula_sum "Si O2"
_cell_formula_units_Z 44
_cell_length_a 11.585590
_cell_length_b 19.178454
_cell_length_c 8.915945
_cell_angle_alpha 90.000000
_cell_angle_beta 83.447495
_cell_angle_gamma 90.000000
_cell_volume 1968.125931
_symmetry_space_group_name_H-M "C 2/C"
_symmetry_group_IT_number 15
_symmetry_cell_setting 'monoclinic'
loop_
_space_group_symop_operation_xyz
x,y,z
-x,y,1/2-z
-x,-y,-z
x,-y,1/2+z
1/2+x,1/2+y,z
1/2-x,1/2+y,1/2-z
1/2-x,1/2-y,-z
1/2+x,1/2-y,1/2+z
loop_
_atom_site_type_symbol
_atom_site_label
_atom_site_fract_x
_atom_site_fract_y
_atom_site_fract_z
Si Si1 0.267055 0.753105 0.818873
Si Si2 0.092766 0.546076 0.065587
Si Si3 0.618908 0.370725 0.322956
Si Si4 0.745516 0.996175 0.294004
Si Si5 0.000000 0.331133 0.750000
Si Si6 0.621725 0.636138 0.166680
O O1 0.273450 0.673449 0.761829
O O2 0.388416 0.783800 0.737684
O O3 0.164659 0.796195 0.753620
O O4 0.250000 0.750000 0.000000
O O5 0.128942 0.510111 0.216267
O O6 0.035935 0.621798 0.100911
O O7 0.209151 0.548653 0.946167
O O8 0.000000 0.500000 0.000000
O O9 0.500000 0.359093 0.250000
O O10 0.656792 0.451991 0.308739
O O11 0.602321 0.345975 0.495845
O O12 0.789875 0.072590 0.330180
O O13 0.500000 0.611375 0.250000
#
# Coordination Sequence:
#
# PCOD8154628 Si02
#       6
#     8   8   8   8   4   8
#     4  12  26  50  75 106 148 196 244 304 371 444
#     4  12  22  43  70 106 141 185 237 299 365 431
#     4  12  27  46  72 103 144 189 244 302 370 433
#     4  12  25  44  72 106 146 185 244 301 367 436
#     4  12  24  44  80 100 150 190 240 300 370 430
#     4  12  27  47  73 107 147 194 249 304 367 444
#
# _framework density 22.356292
#
# number of rings (size 3 to 8) (size 9 to 14) (size 15 to 20)
#    0.000    0.000    6.364    3.273    2.545    1.455 
#    0.000    0.000    0.000    0.000    0.000    0.000 
#    0.000    0.000    0.000    0.000    0.000    0.000 
#
# Total GULP energy -272807.265351 kJ/mol
# GULP energy per Si atom -12400.330243 kJ/mol
# Density = 2.230541 g / cm^3
# Si number density = 22.356292 Si / 1000 Ang^3
#
#
#
# Elastic Constant Matrix: (Units=GPa)
#
#
# Indices 1 2 3 4 5 6 
#
# 1 98.9190 29.3873 40.8871 0.0000 11.6074 0.0000
# 2 29.3873 94.0735 34.3223 0.0000 9.8984 0.0000
# 3 40.8871 34.3223 158.2872 0.0000 10.3294 0.0000
# 4 0.0000 0.0000 0.0000 37.6745 0.0000 -13.8259
# 5 11.6074 9.8984 10.3294 0.0000 43.2144 0.0000
# 6 0.0000 0.0000 0.0000 -13.8259 0.0000 34.2197
#
#
#
# Elastic Compliance Matrix: (Units=1/GPa)
#
#
# Indices 1 2 3 4 5 6 
#
# 1 0.012153 -0.002696 -0.002420 0.000000 -0.002068 0.000000
# 2 -0.002696 0.012328 -0.001869 0.000000 -0.001653 0.000000
# 3 -0.002420 -0.001869 0.007393 0.000000 -0.000689 0.000000
# 4 0.000000 0.000000 0.000000 0.031164 0.000000 0.012591
# 5 -0.002068 -0.001653 -0.000689 0.000000 0.024239 0.000000
# 6 0.000000 0.000000 0.000000 0.012591 0.000000 0.034310
#
#
# Mechanical properties :
#
#
# Convention : Reuss Voigt Hill
#
# Bulk Modulus (GPa) = 55.85106 62.27480 59.06293
# Shear Modulus (GPa) = 35.32950 39.46726 37.39838
#
# Velocity S-wave (km/s) = 3.97960 4.20620 4.09447
# Velocity P-wave (km/s) = 6.79359 7.17673 6.98779
#
# Compressibility (1/GPa) = 0.01790476
#
# Stress axis : x y z
#
# Youngs Moduli (GPa) = 82.28361 81.11645 135.26552
#
# Poissons Ratio (x) = 0.21869 0.32730
# Poissons Ratio (y) = 0.22184 0.25279
# Poissons Ratio (z) = 0.19910 0.15160
#
# Static dielectric constant tensor:
#      x y z
#    x 3.679250 0.000000 -0.662880 
#    y 0.000000 4.655940 0.000000 
#    z -0.662880 0.000000 3.709520 
# 
# 
# High freq. dielectric constant tensor:
#      x y z
#    x 1.883150 0.000000 -0.008700 
#    y 0.000000 1.886500 0.000000 
#    z -0.008700 0.000000 1.892050 
# 
# From -- ./inp_files/30867.got.cif
#   From: 2010.06.25/outbox.cif.g09.slc.cpg/sg15_16_cif.got.tgz:30867.got - 2010.06.28 07:06:18.
