data_PCOD8154060
_publ_section_title
;
Structure prediction by ZEFSAII (Michael W. Deem and Ramdas Pophale) SiO2 
 PCOD8154060
Probable space group: C 2/C
;
_chemical_formula_sum "Si O2"
_cell_formula_units_Z 48
_cell_length_a 10.751218
_cell_length_b 21.756674
_cell_length_c 13.385954
_cell_angle_alpha 90.000000
_cell_angle_beta 134.105044
_cell_angle_gamma 90.000000
_cell_volume 2248.346683
_symmetry_space_group_name_H-M "C 2/C"
_symmetry_group_IT_number 15
_symmetry_cell_setting 'monoclinic'
loop_
_space_group_symop_operation_xyz
x,y,z
-x,y,1/2-z
-x,-y,-z
x,-y,1/2+z
1/2+x,1/2+y,z
1/2-x,1/2+y,1/2-z
1/2-x,1/2-y,-z
1/2+x,1/2-y,1/2+z
loop_
_atom_site_type_symbol
_atom_site_label
_atom_site_fract_x
_atom_site_fract_y
_atom_site_fract_z
Si Si1 0.988876 0.141119 0.464039
Si Si2 0.674114 0.930770 0.296922
Si Si3 0.050131 0.738346 0.889621
Si Si4 0.917038 0.627386 0.951431
Si Si5 0.366818 0.306087 0.093916
Si Si6 0.866464 0.573222 0.256262
O O1 0.988305 0.170139 0.573415
O O2 0.821230 0.101478 0.353163
O O3 0.162356 0.099082 0.552554
O O4 0.971008 0.195465 0.373098
O O5 0.500000 0.903909 0.250000
O O6 0.674176 0.914720 0.181033
O O7 0.670735 0.003855 0.297529
O O8 0.000000 0.717010 0.750000
O O9 0.997091 0.688083 0.943453
O O10 0.250000 0.750000 0.000000
O O11 0.760941 0.641155 0.939572
O O12 0.059618 0.587047 0.091274
O O13 0.500000 0.281613 0.250000
O O14 0.250000 0.250000 0.000000
O O15 0.000000 0.602360 0.250000
#
# Coordination Sequence:
#
# PCOD8154060 Si02
#       6
#     8   8   8   8   8   8
#     4  12  24  45  70  99 139 175 231 284 344 411
#     4  11  25  46  67  97 138 186 231 281 340 404
#     4  12  26  42  66  99 133 176 220 274 344 413
#     4  12  23  44  70  97 139 175 228 278 346 411
#     4  12  26  41  70 105 135 179 220 282 351 410
#     4  11  25  42  70 102 134 180 231 285 342 405
#
# _framework density 21.349021
#
# number of rings (size 3 to 8) (size 9 to 14) (size 15 to 20)
#    0.000    0.333    5.000    4.500    2.333    0.000 
#    0.000    0.000    3.667    0.000    0.000    0.000 
#    0.000    0.000    0.000    0.000    0.000    0.000 
#
# Total GULP energy -297547.535108 kJ/mol
# GULP energy per Si atom -12397.813963 kJ/mol
# Density = 2.130043 g / cm^3
# Si number density = 21.349021 Si / 1000 Ang^3
#
#
#
# Elastic Constant Matrix: (Units=GPa)
#
#
# Indices 1 2 3 4 5 6 
#
# 1 95.2912 19.8598 7.1989 0.0000 11.5913 0.0000
# 2 19.8598 72.4704 10.0211 0.0000 4.2487 0.0000
# 3 7.1989 10.0211 98.9196 0.0000 8.5761 0.0000
# 4 0.0000 0.0000 0.0000 38.6491 0.0000 4.7169
# 5 11.5913 4.2487 8.5761 0.0000 43.6207 0.0000
# 6 0.0000 0.0000 0.0000 4.7169 0.0000 25.6125
#
#
#
# Elastic Compliance Matrix: (Units=1/GPa)
#
#
# Indices 1 2 3 4 5 6 
#
# 1 0.011458 -0.002940 -0.000302 0.000000 -0.002699 0.000000
# 2 -0.002940 0.014802 -0.001250 0.000000 -0.000415 0.000000
# 3 -0.000302 -0.001250 0.010418 0.000000 -0.001846 0.000000
# 4 0.000000 0.000000 0.000000 0.026469 0.000000 -0.004875
# 5 -0.002699 -0.000415 -0.001846 0.000000 0.024045 0.000000
# 6 0.000000 0.000000 0.000000 -0.004875 0.000000 0.039941
#
#
# Mechanical properties :
#
#
# Convention : Reuss Voigt Hill
#
# Bulk Modulus (GPa) = 36.10855 37.87118 36.98987
# Shear Modulus (GPa) = 34.40038 36.88322 35.64180
#
# Velocity S-wave (km/s) = 4.01850 4.16099 4.09036
# Velocity P-wave (km/s) = 6.20333 6.39239 6.29857
#
# Compressibility (1/GPa) = 0.02769427
#
# Stress axis : x y z
#
# Youngs Moduli (GPa) = 87.27526 67.56065 95.98907
#
# Poissons Ratio (x) = 0.19863 0.02899
# Poissons Ratio (y) = 0.25659 0.11994
# Poissons Ratio (z) = 0.02636 0.08442
#
# Static dielectric constant tensor:
#      x y z
#    x 3.914530 0.000000 0.080690 
#    y 0.000000 3.885230 0.000000 
#    z 0.080690 0.000000 3.674820 
# 
# 
# High freq. dielectric constant tensor:
#      x y z
#    x 1.851680 0.000000 0.004690 
#    y 0.000000 1.842160 0.000000 
#    z 0.004690 0.000000 1.846410 
# 
# From -- ./inp_files/32131.got.cif
#   From: 2010.06.25/outbox.cif.g09.slc.cpg/sg15_17_cif.got.tgz:32131.got - 2010.06.28 07:06:18.
