data_PCOD8154377
_publ_section_title
;
Structure prediction by ZEFSAII (Michael W. Deem and Ramdas Pophale) SiO2 
 PCOD8154377
Probable space group: C 2/C
;
_chemical_formula_sum "Si O2"
_cell_formula_units_Z 32
_cell_length_a 29.475502
_cell_length_b 4.725558
_cell_length_c 9.619205
_cell_angle_alpha 90.000000
_cell_angle_beta 62.746977
_cell_angle_gamma 90.000000
_cell_volume 1191.109864
_symmetry_space_group_name_H-M "C 2/C"
_symmetry_group_IT_number 15
_symmetry_cell_setting 'monoclinic'
loop_
_space_group_symop_operation_xyz
x,y,z
-x,y,1/2-z
-x,-y,-z
x,-y,1/2+z
1/2+x,1/2+y,z
1/2-x,1/2+y,1/2-z
1/2-x,1/2-y,-z
1/2+x,1/2-y,1/2+z
loop_
_atom_site_type_symbol
_atom_site_label
_atom_site_fract_x
_atom_site_fract_y
_atom_site_fract_z
Si Si1 0.669194 0.407895 0.156885
Si Si2 0.757618 0.461641 0.338256
Si Si3 0.103609 0.852185 0.984679
Si Si4 0.033893 0.358938 0.068213
O O1 0.689961 0.099041 0.175780
O O2 0.649237 0.584363 0.315678
O O3 0.716499 0.583509 0.021563
O O4 0.622563 0.389252 0.115656
O O5 0.767859 0.169958 0.242136
O O6 0.087458 0.525958 0.999260
O O7 0.052620 0.036538 0.021270
O O8 0.000000 0.384010 0.250000
O O9 0.000000 0.500000 0.000000
#
# Coordination Sequence:
#
# PCOD8154377 Si02
#       4
#     8   8   8   8
#     4  11  26  47  72 110 144 193 239 296 352 419
#     4  11  26  47  72 103 154 193 243 294 353 421
#     4  12  26  45  75 107 141 186 246 291 354 442
#     4  12  26  48  73 103 143 184 233 301 374 426
#
# _framework density 26.865697999999998
#
# number of rings (size 3 to 8) (size 9 to 14) (size 15 to 20)
#    0.000    0.500    2.500    4.500    3.500    8.000 
#    0.000    0.000    0.000    0.000    0.000    0.000 
#    0.000    0.000    0.000    0.000    0.000    0.000 
#
# Total GULP energy -198478.283299 kJ/mol
# GULP energy per Si atom -12404.892706 kJ/mol
# Density = 2.680455 g / cm^3
# Si number density = 26.865698 Si / 1000 Ang^3
#
#
#
# Elastic Constant Matrix: (Units=GPa)
#
#
# Indices 1 2 3 4 5 6 
#
# 1 93.8856 2.0339 20.3026 0.0000 -4.0777 0.0000
# 2 2.0339 79.1078 26.3578 0.0000 -20.2124 0.0000
# 3 20.3026 26.3578 174.0150 0.0000 -16.5943 0.0000
# 4 0.0000 0.0000 0.0000 11.9679 0.0000 -6.6559
# 5 -4.0777 -20.2124 -16.5943 0.0000 45.8507 0.0000
# 6 0.0000 0.0000 0.0000 -6.6559 0.0000 58.1356
#
#
#
# Elastic Compliance Matrix: (Units=1/GPa)
#
#
# Indices 1 2 3 4 5 6 
#
# 1 0.010946 0.000305 -0.001261 0.000000 0.000652 0.000000
# 2 0.000305 0.014706 -0.001701 0.000000 0.005894 0.000000
# 3 -0.001261 -0.001701 0.006286 0.000000 0.001413 0.000000
# 4 0.000000 0.000000 0.000000 0.089239 0.000000 0.010217
# 5 0.000652 0.005894 0.001413 0.000000 0.024978 0.000000
# 6 0.000000 0.000000 0.000000 0.010217 0.000000 0.018371
#
#
# Mechanical properties :
#
#
# Convention : Reuss Voigt Hill
#
# Bulk Modulus (GPa) = 37.56015 49.37745 43.46880
# Shear Modulus (GPa) = 27.97766 43.07843 35.52805
#
# Velocity S-wave (km/s) = 3.23056 4.00868 3.64047
# Velocity P-wave (km/s) = 5.28454 6.31232 5.82116
#
# Compressibility (1/GPa) = 0.02662396
#
# Stress axis : x y z
#
# Youngs Moduli (GPa) = 91.36031 67.99987 159.07935
#
# Poissons Ratio (x) = -0.02076 0.20062
# Poissons Ratio (y) = -0.02789 0.27059
# Poissons Ratio (z) = 0.11522 0.11567
#
# Static dielectric constant tensor:
#      x y z
#    x 5.009650 0.000000 0.227800 
#    y 0.000000 4.937740 0.000000 
#    z 0.227800 0.000000 5.005750 
# 
# 
# High freq. dielectric constant tensor:
#      x y z
#    x 2.103630 0.000000 0.009580 
#    y 0.000000 2.089410 0.000000 
#    z 0.009580 0.000000 2.097010 
# 
# From -- ./inp_files/67974.got.cif
#   From: 2010.06.25/outbox.cif.g09.slc.cpg/sg15_34_cif.got.tgz:67974.got - 2010.06.28 07:06:18.
