data_PCOD8154528
_publ_section_title
;
Structure prediction by ZEFSAII (Michael W. Deem and Ramdas Pophale) SiO2 
 PCOD8154528
Probable space group: C 2/C
;
_chemical_formula_sum "Si O2"
_cell_formula_units_Z 24
_cell_length_a 11.512566
_cell_length_b 9.542611
_cell_length_c 10.339018
_cell_angle_alpha 90.000000
_cell_angle_beta 55.080012
_cell_angle_gamma 90.000000
_cell_volume 931.337727
_symmetry_space_group_name_H-M "C 2/C"
_symmetry_group_IT_number 15
_symmetry_cell_setting 'monoclinic'
loop_
_space_group_symop_operation_xyz
x,y,z
-x,y,1/2-z
-x,-y,-z
x,-y,1/2+z
1/2+x,1/2+y,z
1/2-x,1/2+y,1/2-z
1/2-x,1/2-y,-z
1/2+x,1/2-y,1/2+z
loop_
_atom_site_type_symbol
_atom_site_label
_atom_site_fract_x
_atom_site_fract_y
_atom_site_fract_z
Si Si1 0.986681 0.723529 0.478710
Si Si2 0.806783 0.526456 0.037154
Si Si3 0.000000 0.691812 0.750000
Si Si4 0.500000 0.555193 0.750000
O O1 0.119213 0.613358 0.392286
O O2 0.017784 0.852245 0.366656
O O3 0.847517 0.638004 0.520724
O O4 0.964775 0.780073 0.641193
O O5 0.637304 0.544197 0.147891
O O6 0.863262 0.592183 0.865924
#
# Coordination Sequence:
#
# PCOD8154528 Si02
#       4
#     8   8   4   4
#     4   9  20  38  70  88 139 175 207 269 349 376
#     4   9  20  37  69  92 133 172 216 268 337 381
#     4   8  17  42  66  83 140 184 187 278 354 365
#     4  12  21  38  76 101 110 180 241 252 316 415
#
# _framework density 25.769386000000001
#
# number of rings (size 3 to 8) (size 9 to 14) (size 15 to 20)
#    2.000    0.667    0.000    2.000    0.000    0.000 
#    0.000    3.333   14.667    2.000    0.000    0.000 
#    0.000    0.000    0.000    0.000    0.000    0.000 
#
# Total GULP energy -148694.235071 kJ/mol
# GULP energy per Si atom -12391.186256 kJ/mol
# Density = 2.571073 g / cm^3
# Si number density = 25.769386 Si / 1000 Ang^3
#
#
#
# Elastic Constant Matrix: (Units=GPa)
#
#
# Indices 1 2 3 4 5 6 
#
# 1 111.5801 30.5459 83.5016 0.0000 -15.6355 0.0000
# 2 30.5459 67.1700 48.7950 0.0000 2.7363 0.0000
# 3 83.5016 48.7950 182.1479 0.0000 3.4721 0.0000
# 4 0.0000 0.0000 0.0000 33.9919 0.0000 1.2791
# 5 -15.6355 2.7363 3.4721 0.0000 75.1225 0.0000
# 6 0.0000 0.0000 0.0000 1.2791 0.0000 29.8694
#
#
#
# Elastic Compliance Matrix: (Units=1/GPa)
#
#
# Indices 1 2 3 4 5 6 
#
# 1 0.014710 -0.002338 -0.006183 0.000000 0.003433 0.000000
# 2 -0.002338 0.018871 -0.003965 0.000000 -0.000991 0.000000
# 3 -0.006183 -0.003965 0.009416 0.000000 -0.001578 0.000000
# 4 0.000000 0.000000 0.000000 0.029466 0.000000 -0.001262
# 5 0.003433 -0.000991 -0.001578 0.000000 0.014135 0.000000
# 6 0.000000 0.000000 0.000000 -0.001262 0.000000 0.033533
#
#
# Mechanical properties :
#
#
# Convention : Reuss Voigt Hill
#
# Bulk Modulus (GPa) = 55.47163 76.28699 65.87931
# Shear Modulus (GPa) = 33.08810 41.00044 37.04427
#
# Velocity S-wave (km/s) = 3.58719 3.99313 3.79559
# Velocity P-wave (km/s) = 6.22336 7.13639 6.69546
#
# Compressibility (1/GPa) = 0.01802723
#
# Stress axis : x y z
#
# Youngs Moduli (GPa) = 67.98110 52.99055 106.19699
#
# Poissons Ratio (x) = 0.12389 0.65657
# Poissons Ratio (y) = 0.15894 0.42104
# Poissons Ratio (z) = 0.42030 0.21009
#
# Static dielectric constant tensor:
#      x y z
#    x 4.342330 0.000000 -0.010870 
#    y 0.000000 4.251600 0.000000 
#    z -0.010870 0.000000 4.453320 
# 
# 
# High freq. dielectric constant tensor:
#      x y z
#    x 2.017820 0.000000 0.000380 
#    y 0.000000 2.024780 0.000000 
#    z 0.000380 0.000000 2.024110 
# 
# From -- ./inp_files/36969.got.cif
#   From: 2010.06.25/outbox.cif.g09.slc.cpg/sg15_19_cif.got.tgz:36969.got - 2010.06.28 07:06:18.
