data_PCOD8154638
_publ_section_title
;
Structure prediction by ZEFSAII (Michael W. Deem and Ramdas Pophale) SiO2 
 PCOD8154638
Probable space group: C 2/C
;
_chemical_formula_sum "Si O2"
_cell_formula_units_Z 56
_cell_length_a 21.163242
_cell_length_b 8.060355
_cell_length_c 13.839149
_cell_angle_alpha 90.000000
_cell_angle_beta 88.077223
_cell_angle_gamma 90.000000
_cell_volume 2359.397732
_symmetry_space_group_name_H-M "C 2/C"
_symmetry_group_IT_number 15
_symmetry_cell_setting 'monoclinic'
loop_
_space_group_symop_operation_xyz
x,y,z
-x,y,1/2-z
-x,-y,-z
x,-y,1/2+z
1/2+x,1/2+y,z
1/2-x,1/2+y,1/2-z
1/2-x,1/2-y,-z
1/2+x,1/2-y,1/2+z
loop_
_atom_site_type_symbol
_atom_site_label
_atom_site_fract_x
_atom_site_fract_y
_atom_site_fract_z
Si Si1 0.306990 0.785047 0.303060
Si Si2 0.790018 0.915642 0.970629
Si Si3 0.897537 0.883605 0.119824
Si Si4 0.674736 0.942399 0.570964
Si Si5 0.934540 0.780597 0.697167
Si Si6 0.187963 0.152418 0.691976
Si Si7 0.936580 0.468211 0.559130
O O1 0.276135 0.766293 0.422397
O O2 0.373564 0.699605 0.269534
O O3 0.255070 0.768351 0.222376
O O4 0.321651 0.978283 0.320847
O O5 0.805182 0.969404 0.854206
O O6 0.851767 0.916450 0.032270
O O7 0.738840 0.048979 0.005392
O O8 0.858656 0.845799 0.217254
O O9 0.940046 0.719067 0.101989
O O10 0.938797 0.051596 0.131175
O O11 0.661870 0.751466 0.599398
O O12 0.619445 0.026879 0.514265
O O13 0.925280 0.611623 0.637812
O O14 0.000000 0.766280 0.750000
O O15 0.000000 0.500000 0.500000
#
# Coordination Sequence:
#
# PCOD8154638 Si02
#       7
#     8   8   8   8   8   8   8
#     4  12  22  44  68 104 150 184 242 302 366 434
#     4  12  23  44  72 109 147 185 246 302 374 437
#     4  12  26  50  77 110 148 195 244 305 375 435
#     4  12  23  42  71 105 148 192 239 306 366 434
#     4  12  28  49  74 105 144 197 250 301 363 444
#     4  12  24  41  74 109 147 189 239 305 371 435
#     4  12  28  49  73 106 148 197 250 304 365 442
#
# _framework density 23.734870999999998
#
# number of rings (size 3 to 8) (size 9 to 14) (size 15 to 20)
#    0.000    0.000    4.286    6.857    0.000    2.286 
#    0.000    0.000    0.000    0.000    0.000    0.000 
#    0.000    0.000    0.000    0.000    0.000    0.000 
#
# Total GULP energy -346976.291374 kJ/mol
# GULP energy per Si atom -12392.010406 kJ/mol
# Density = 2.368085 g / cm^3
# Si number density = 23.734871 Si / 1000 Ang^3
#
#
#
# Elastic Constant Matrix: (Units=GPa)
#
#
# Indices 1 2 3 4 5 6 
#
# 1 90.9687 32.6343 27.7696 0.0000 -6.0511 0.0000
# 2 32.6343 80.6344 28.0240 0.0000 12.5716 0.0000
# 3 27.7696 28.0240 99.9748 0.0000 3.4211 0.0000
# 4 0.0000 0.0000 0.0000 -30.9165 0.0000 29.0842
# 5 -6.0511 12.5716 3.4211 0.0000 26.6136 0.0000
# 6 0.0000 0.0000 0.0000 29.0842 0.0000 15.6642
#
#
#
# Elastic Compliance Matrix: (Units=1/GPa)
#
#
# Indices 1 2 3 4 5 6 
#
# 1 0.014308 -0.005901 -0.002538 0.000000 0.006367 0.000000
# 2 -0.005901 0.017207 -0.002873 0.000000 -0.009101 0.000000
# 3 -0.002538 -0.002873 0.011537 0.000000 -0.000703 0.000000
# 4 0.000000 0.000000 0.000000 -0.011776 0.000000 0.021865
# 5 0.006367 -0.009101 -0.000703 0.000000 0.043412 0.000000
# 6 0.000000 0.000000 0.000000 0.021865 0.000000 0.023242
#
#
# Mechanical properties :
#
#
# Convention : Reuss Voigt Hill
#
# Bulk Modulus (GPa) = 48.95236 49.82596 49.38916
# Shear Modulus (GPa) = 39.25752 14.48229 26.86990
#
# Velocity S-wave (km/s) = 4.07135 2.47284 3.36830
# Velocity P-wave (km/s) = 6.53993 5.40292 5.99843
#
# Compressibility (1/GPa) = 0.02042803
#
# Stress axis : x y z
#
# Youngs Moduli (GPa) = 69.89020 58.11463 86.67908
#
# Poissons Ratio (x) = 0.34296 0.21999
# Poissons Ratio (y) = 0.41245 0.24901
# Poissons Ratio (z) = 0.17738 0.16695
#
# Static dielectric constant tensor:
#      x y z
#    x 4.059990 0.000000 -0.194380 
#    y 0.000000 4.827520 0.000000 
#    z -0.194380 0.000000 4.659490 
# 
# 
# High freq. dielectric constant tensor:
#      x y z
#    x 1.917790 0.000000 -0.009530 
#    y 0.000000 1.986420 0.000000 
#    z -0.009530 0.000000 1.962390 
# 
# From -- ./inp_files/166677.got.cif
#   From: 2010.06.25/outbox.cif.g09.slc.cpg/sg15_84_cif.got.tgz:166677.got - 2010.06.28 07:06:18.
