data_PCOD8154103
_publ_section_title
;
Structure prediction by ZEFSAII (Michael W. Deem and Ramdas Pophale) SiO2 
 PCOD8154103
Probable space group: C 2/C
;
_chemical_formula_sum "Si O2"
_cell_formula_units_Z 44
_cell_length_a 13.483260
_cell_length_b 8.713822
_cell_length_c 19.552620
_cell_angle_alpha 90.000000
_cell_angle_beta 122.591975
_cell_angle_gamma 90.000000
_cell_volume 1935.498411
_symmetry_space_group_name_H-M "C 2/C"
_symmetry_group_IT_number 15
_symmetry_cell_setting 'monoclinic'
loop_
_space_group_symop_operation_xyz
x,y,z
-x,y,1/2-z
-x,-y,-z
x,-y,1/2+z
1/2+x,1/2+y,z
1/2-x,1/2+y,1/2-z
1/2-x,1/2-y,-z
1/2+x,1/2-y,1/2+z
loop_
_atom_site_type_symbol
_atom_site_label
_atom_site_fract_x
_atom_site_fract_y
_atom_site_fract_z
Si Si1 0.239559 0.790943 0.834773
Si Si2 0.833117 0.909908 0.260576
Si Si3 0.901325 0.073888 0.418547
Si Si4 0.557148 0.853100 0.490815
Si Si5 0.000000 0.677037 0.250000
Si Si6 0.155491 0.458463 0.388109
O O1 0.236520 0.694547 0.762829
O O2 0.141474 0.705337 0.843840
O O3 0.218539 0.970235 0.813625
O O4 0.363144 0.769076 0.921711
O O5 0.903127 0.785504 0.244887
O O6 0.905610 0.003489 0.344096
O O7 0.945155 0.249841 0.426280
O O8 0.775908 0.048340 0.410575
O O9 0.000000 0.000000 0.500000
O O10 0.645175 0.911353 0.463404
O O11 0.500000 0.000000 0.500000
O O12 0.950969 0.570893 0.170997
#
# Coordination Sequence:
#
# PCOD8154103 Si02
#       6
#     8   8   8   8   4   8
#     4  11  25  47  71 106 141 196 233 307 358 445
#     4  11  25  44  72 102 148 185 247 292 373 433
#     4  11  25  48  74 106 144 194 243 312 360 448
#     4  12  27  45  75 108 147 192 244 303 377 435
#     4  12  28  46  68 114 140 202 238 306 366 446
#     4  11  27  48  74 105 154 189 257 299 374 449
#
# _framework density 22.733160999999999
#
# number of rings (size 3 to 8) (size 9 to 14) (size 15 to 20)
#    0.000    0.727    3.636    3.818   10.182    0.727 
#    0.000    0.000    0.000    0.000    0.000    0.000 
#    0.000    0.000    0.000    0.000    0.000    0.000 
#
# Total GULP energy -272614.007069 kJ/mol
# GULP energy per Si atom -12391.545776 kJ/mol
# Density = 2.268142 g / cm^3
# Si number density = 22.733161 Si / 1000 Ang^3
#
#
#
# Elastic Constant Matrix: (Units=GPa)
#
#
# Indices 1 2 3 4 5 6 
#
# 1 86.5247 41.8642 25.7834 0.0000 -23.0412 0.0000
# 2 41.8642 142.6955 32.7881 0.0000 -5.5969 0.0000
# 3 25.7834 32.7881 72.0931 0.0000 -8.0705 0.0000
# 4 0.0000 0.0000 0.0000 37.4086 0.0000 12.2691
# 5 -23.0412 -5.5969 -8.0705 0.0000 36.8932 0.0000
# 6 0.0000 0.0000 0.0000 12.2691 0.0000 54.7008
#
#
#
# Elastic Compliance Matrix: (Units=1/GPa)
#
#
# Indices 1 2 3 4 5 6 
#
# 1 0.016834 -0.003831 -0.003246 0.000000 0.009222 0.000000
# 2 -0.003831 0.008704 -0.002776 0.000000 -0.001680 0.000000
# 3 -0.003246 -0.002776 0.016423 0.000000 0.001144 0.000000
# 4 0.000000 0.000000 0.000000 0.028854 0.000000 -0.006472
# 5 0.009222 -0.001680 0.001144 0.000000 0.032860 0.000000
# 6 0.000000 0.000000 0.000000 -0.006472 0.000000 0.019733
#
#
# Mechanical properties :
#
#
# Convention : Reuss Voigt Hill
#
# Bulk Modulus (GPa) = 44.93589 55.79829 50.36709
# Shear Modulus (GPa) = 33.21521 39.19236 36.20379
#
# Velocity S-wave (km/s) = 3.82657 4.15663 3.99501
# Velocity P-wave (km/s) = 6.27161 6.90181 6.59424
#
# Compressibility (1/GPa) = 0.02225393
#
# Stress axis : x y z
#
# Youngs Moduli (GPa) = 59.40292 114.88917 60.89181
#
# Poissons Ratio (x) = 0.44018 0.19764
# Poissons Ratio (y) = 0.22759 0.16906
# Poissons Ratio (z) = 0.19280 0.31898
#
# Static dielectric constant tensor:
#      x y z
#    x 5.144230 0.000000 2.934720 
#    y 0.000000 4.519010 0.000000 
#    z 2.934720 0.000000 9.046420 
# 
# 
# High freq. dielectric constant tensor:
#      x y z
#    x 1.885670 0.000000 -0.008810 
#    y 0.000000 1.926480 0.000000 
#    z -0.008810 0.000000 1.899020 
# 
# From -- ./inp_files/203072.got.cif
#   From: 2010.06.25/outbox.cif.g09.slc.cpg/sg15_102_cif.got.tgz:203072.got - 2010.06.28 07:06:18.
