data_PCOD8154696
_publ_section_title
;
Structure prediction by ZEFSAII (Michael W. Deem and Ramdas Pophale) SiO2 
 PCOD8154696
Probable space group: C 2/C
;
_chemical_formula_sum "Si O2"
_cell_formula_units_Z 32
_cell_length_a 23.575664
_cell_length_b 8.471285
_cell_length_c 18.307139
_cell_angle_alpha 90.000000
_cell_angle_beta 156.460260
_cell_angle_gamma 90.000000
_cell_volume 1460.244230
_symmetry_space_group_name_H-M "C 2/C"
_symmetry_group_IT_number 15
_symmetry_cell_setting 'monoclinic'
loop_
_space_group_symop_operation_xyz
x,y,z
-x,y,1/2-z
-x,-y,-z
x,-y,1/2+z
1/2+x,1/2+y,z
1/2-x,1/2+y,1/2-z
1/2-x,1/2-y,-z
1/2+x,1/2-y,1/2+z
loop_
_atom_site_type_symbol
_atom_site_label
_atom_site_fract_x
_atom_site_fract_y
_atom_site_fract_z
Si Si1 0.021310 0.065299 0.107436
Si Si2 0.570738 0.934000 0.010519
Si Si3 0.742950 0.235971 0.178918
Si Si4 0.592511 0.272965 0.288180
O O1 0.134908 0.212673 0.239295
O O2 0.085204 0.930088 0.232283
O O3 0.875539 0.128394 0.973165
O O4 0.000000 0.000000 0.000000
O O5 0.671110 0.782433 0.145888
O O6 0.670841 0.067136 0.096908
O O7 0.454346 0.879457 0.814517
O O8 0.500000 0.000000 0.000000
O O9 0.500000 0.292133 0.250000
O O10 0.750000 0.250000 0.500000
#
# Coordination Sequence:
#
# PCOD8154696 Si02
#       4
#     8   8   8   8
#     4  12  24  44  73 106 140 189 245 290 348 435
#     4  12  24  43  76 107 139 189 246 294 346 435
#     4  12  23  40  76 104 137 177 259 290 342 408
#     4  12  29  48  72 106 151 189 230 299 378 421
#
# _framework density 21.914144
#
# number of rings (size 3 to 8) (size 9 to 14) (size 15 to 20)
#    0.000    0.000    7.500    1.500    7.000    0.000 
#    0.000    6.250    0.000    0.000    0.000    0.000 
#    0.000    0.000    0.000    0.000    0.000    0.000 
#
# Total GULP energy -198315.342268 kJ/mol
# GULP energy per Si atom -12394.708892 kJ/mol
# Density = 2.186427 g / cm^3
# Si number density = 21.914144 Si / 1000 Ang^3
#
#
#
# Elastic Constant Matrix: (Units=GPa)
#
#
# Indices 1 2 3 4 5 6 
#
# 1 102.0437 35.5429 56.9780 0.0000 -1.7636 0.0000
# 2 35.5429 113.4171 76.3855 0.0000 -16.0215 0.0000
# 3 56.9780 76.3855 188.1385 0.0000 -1.4559 0.0000
# 4 0.0000 0.0000 0.0000 51.9525 0.0000 3.2242
# 5 -1.7636 -16.0215 -1.4559 0.0000 39.4683 0.0000
# 6 0.0000 0.0000 0.0000 3.2242 0.0000 48.0974
#
#
#
# Elastic Compliance Matrix: (Units=1/GPa)
#
#
# Indices 1 2 3 4 5 6 
#
# 1 0.012064 -0.001879 -0.002893 0.000000 -0.000330 0.000000
# 2 -0.001879 0.013387 -0.004826 0.000000 0.005172 0.000000
# 3 -0.002893 -0.004826 0.008137 0.000000 -0.001788 0.000000
# 4 0.000000 0.000000 0.000000 0.019329 0.000000 -0.001296
# 5 -0.000330 0.005172 -0.001788 0.000000 0.027356 0.000000
# 6 0.000000 0.000000 0.000000 -0.001296 0.000000 0.020878
#
#
# Mechanical properties :
#
#
# Convention : Reuss Voigt Hill
#
# Bulk Modulus (GPa) = 69.48546 82.37910 75.93228
# Shear Modulus (GPa) = 39.95410 43.54985 41.75198
#
# Velocity S-wave (km/s) = 4.27454 4.46274 4.36966
# Velocity P-wave (km/s) = 7.49261 8.01425 7.75781
#
# Compressibility (1/GPa) = 0.01439150
#
# Stress axis : x y z
#
# Youngs Moduli (GPa) = 82.89166 74.70092 122.89367
#
# Poissons Ratio (x) = 0.14033 0.35558
# Poissons Ratio (y) = 0.15572 0.59310
# Poissons Ratio (z) = 0.23984 0.36052
#
# Static dielectric constant tensor:
#      x y z
#    x 4.040060 0.000000 0.344480 
#    y 0.000000 3.872600 0.000000 
#    z 0.344480 0.000000 4.413880 
# 
# 
# High freq. dielectric constant tensor:
#      x y z
#    x 1.839690 0.000000 0.031940 
#    y 0.000000 1.877280 0.000000 
#    z 0.031940 0.000000 1.878200 
# 
# From -- ./inp_files/93236.got.cif
#   From: 2010.06.25/outbox.cif.g09.slc.cpg/sg15_47_cif.got.tgz:93236.got - 2010.06.28 07:06:18.
