data_PCOD8154955
_publ_section_title
;
Structure prediction by ZEFSAII (Michael W. Deem and Ramdas Pophale) SiO2 
 PCOD8154955
Probable space group: C 2/C
;
_chemical_formula_sum "Si O2"
_cell_formula_units_Z 44
_cell_length_a 4.881299
_cell_length_b 18.572015
_cell_length_c 20.991404
_cell_angle_alpha 90.000000
_cell_angle_beta 83.091318
_cell_angle_gamma 90.000000
_cell_volume 1889.170096
_symmetry_space_group_name_H-M "C 2/C"
_symmetry_group_IT_number 15
_symmetry_cell_setting 'monoclinic'
loop_
_space_group_symop_operation_xyz
x,y,z
-x,y,1/2-z
-x,-y,-z
x,-y,1/2+z
1/2+x,1/2+y,z
1/2-x,1/2+y,1/2-z
1/2-x,1/2-y,-z
1/2+x,1/2-y,1/2+z
loop_
_atom_site_type_symbol
_atom_site_label
_atom_site_fract_x
_atom_site_fract_y
_atom_site_fract_z
Si Si1 0.268776 0.119678 0.710702
Si Si2 0.000000 0.629245 0.250000
Si Si3 0.454347 0.547730 0.062980
Si Si4 0.392963 0.022122 0.147068
Si Si5 0.616498 0.239175 0.145678
Si Si6 0.141969 0.206877 0.062779
O O1 0.500000 0.156200 0.750000
O O2 0.121874 0.180369 0.672175
O O3 0.000000 0.081916 0.750000
O O4 0.450330 0.058750 0.669751
O O5 0.167411 0.576982 0.292990
O O6 0.186219 0.681846 0.200366
O O7 0.609470 0.512118 0.117502
O O8 0.600655 0.623881 0.045337
O O9 0.133994 0.551895 0.093311
O O10 0.500000 0.500000 0.000000
O O11 0.326269 0.218842 0.120812
O O12 0.842055 0.237701 0.084718
O O13 0.250000 0.250000 0.000000
#
# Coordination Sequence:
#
# PCOD8154955 Si02
#       6
#     8   4   8   8   8   8
#     4  12  26  44  69 110 148 188 234 305 386 457
#     4  12  24  50  74 110 148 192 248 306 380 458
#     4  12  27  48  71 104 141 197 252 306 375 441
#     4  12  27  45  75 104 149 191 244 312 379 456
#     4  12  27  45  75 104 149 191 244 312 379 456
#     4  12  27  48  71 104 141 197 252 306 375 441
#
# _framework density 23.290652000000001
#
# number of rings (size 3 to 8) (size 9 to 14) (size 15 to 20)
#    0.000    0.000    5.455    3.273    5.091    1.455 
#    0.000    0.000    0.000    0.000    0.000    0.000 
#    0.000    0.000    0.000    0.000    0.000    0.000 
#
# Total GULP energy -272731.643570 kJ/mol
# GULP energy per Si atom -12396.892890 kJ/mol
# Density = 2.323764 g / cm^3
# Si number density = 23.290652 Si / 1000 Ang^3
#
#
#
# Elastic Constant Matrix: (Units=GPa)
#
#
# Indices 1 2 3 4 5 6 
#
# 1 84.0008 26.5713 20.4824 0.0000 2.6437 0.0000
# 2 26.5713 174.2074 62.7387 0.0000 3.8724 0.0000
# 3 20.4824 62.7387 119.6140 0.0000 1.9755 0.0000
# 4 0.0000 0.0000 0.0000 50.1054 0.0000 1.5285
# 5 2.6437 3.8724 1.9755 0.0000 35.1251 0.0000
# 6 0.0000 0.0000 0.0000 1.5285 0.0000 40.6248
#
#
#
# Elastic Compliance Matrix: (Units=1/GPa)
#
#
# Indices 1 2 3 4 5 6 
#
# 1 0.012721 -0.001411 -0.001427 0.000000 -0.000722 0.000000
# 2 -0.001411 0.007245 -0.003550 0.000000 -0.000493 0.000000
# 3 -0.001427 -0.003550 0.010468 0.000000 -0.000090 0.000000
# 4 0.000000 0.000000 0.000000 0.019981 0.000000 -0.000752
# 5 -0.000722 -0.000493 -0.000090 0.000000 0.028583 0.000000
# 6 0.000000 0.000000 0.000000 -0.000752 0.000000 0.024644
#
#
# Mechanical properties :
#
#
# Convention : Reuss Voigt Hill
#
# Bulk Modulus (GPa) = 56.62665 66.37855 61.50260
# Shear Modulus (GPa) = 40.88162 43.03970 41.96066
#
# Velocity S-wave (km/s) = 4.19415 4.30343 4.24914
# Velocity P-wave (km/s) = 6.91523 7.29758 7.10897
#
# Compressibility (1/GPa) = 0.01765953
#
# Stress axis : x y z
#
# Youngs Moduli (GPa) = 78.60764 138.02585 95.52717
#
# Poissons Ratio (x) = 0.19469 0.13628
# Poissons Ratio (y) = 0.11088 0.33916
# Poissons Ratio (z) = 0.11214 0.49005
#
# Static dielectric constant tensor:
#      x y z
#    x 4.192780 0.000000 0.074890 
#    y 0.000000 4.276080 0.000000 
#    z 0.074890 0.000000 4.184240 
# 
# 
# High freq. dielectric constant tensor:
#      x y z
#    x 1.922680 0.000000 0.002010 
#    y 0.000000 1.934950 0.000000 
#    z 0.002010 0.000000 1.924120 
# 
# From -- ./inp_files/226976.got.cif
#   From: 2010.06.25/outbox.cif.g09.slc.cpg/sg15_114_cif.got.tgz:226976.got - 2010.06.28 07:06:18.
