data_PCOD8154947
_publ_section_title
;
Structure prediction by ZEFSAII (Michael W. Deem and Ramdas Pophale) SiO2 
 PCOD8154947
Probable space group: C 2/C
;
_chemical_formula_sum "Si O2"
_cell_formula_units_Z 52
_cell_length_a 16.803188
_cell_length_b 6.569660
_cell_length_c 23.288645
_cell_angle_alpha 90.000000
_cell_angle_beta 62.028730
_cell_angle_gamma 90.000000
_cell_volume 2270.541522
_symmetry_space_group_name_H-M "C 2/C"
_symmetry_group_IT_number 15
_symmetry_cell_setting 'monoclinic'
loop_
_space_group_symop_operation_xyz
x,y,z
-x,y,1/2-z
-x,-y,-z
x,-y,1/2+z
1/2+x,1/2+y,z
1/2-x,1/2+y,1/2-z
1/2-x,1/2-y,-z
1/2+x,1/2-y,1/2+z
loop_
_atom_site_type_symbol
_atom_site_label
_atom_site_fract_x
_atom_site_fract_y
_atom_site_fract_z
Si Si1 0.197699 0.334975 0.349974
Si Si2 0.000000 0.875694 0.750000
Si Si3 0.557337 0.862068 0.874675
Si Si4 0.924931 0.661385 0.875443
Si Si5 0.851723 0.978095 0.219033
Si Si6 0.942493 0.011512 0.963292
Si Si7 0.250332 0.111105 0.444218
O O1 0.114592 0.484509 0.397457
O O2 0.157486 0.155474 0.324568
O O3 0.266137 0.467744 0.289049
O O4 0.252098 0.250312 0.386476
O O5 0.075116 0.749475 0.688914
O O6 0.056171 0.005588 0.776244
O O7 0.635879 0.730803 0.819359
O O8 0.474979 0.729843 0.928191
O O9 0.506639 0.002041 0.845897
O O10 0.950648 0.832253 0.914131
O O11 0.829500 0.554426 0.919042
O O12 0.842558 0.992212 0.021685
O O13 0.000000 0.000000 0.000000
O O14 0.250000 0.250000 0.500000
#
# Coordination Sequence:
#
# PCOD8154947 Si02
#       7
#     8   4   8   8   8   8   8
#     4  12  28  49  76 112 152 199 256 315 387 456
#     4  12  28  46  76 110 150 190 252 312 384 446
#     4  12  24  49  77 105 149 194 253 308 381 450
#     4  12  28  48  76 112 149 198 253 314 380 449
#     4  12  27  48  74 114 147 194 249 318 383 453
#     4  12  27  51  78 106 149 201 256 309 374 456
#     4  12  29  49  74 112 153 203 253 310 379 454
#
# _framework density 22.902025999999999
#
# number of rings (size 3 to 8) (size 9 to 14) (size 15 to 20)
#    0.000    0.000    6.154    2.308   10.769    2.462 
#    0.000    0.000    0.000    0.000    0.000    0.000 
#    0.000    0.000    0.000    0.000    0.000    0.000 
#
# Total GULP energy -322193.128012 kJ/mol
# GULP energy per Si atom -12392.043385 kJ/mol
# Density = 2.284990 g / cm^3
# Si number density = 22.902026 Si / 1000 Ang^3
#
#
#
# Elastic Constant Matrix: (Units=GPa)
#
#
# Indices 1 2 3 4 5 6 
#
# 1 131.6433 58.2182 39.6088 -0.0013 6.2394 -0.0007
# 2 58.2182 124.3697 51.9782 -0.0034 2.1176 -0.0009
# 3 39.6088 51.9782 113.9843 0.0000 1.3071 -0.0014
# 4 -0.0013 -0.0034 0.0000 37.9242 0.0000 -16.0848
# 5 6.2394 2.1176 1.3071 0.0000 51.2755 -0.0023
# 6 -0.0007 -0.0009 -0.0014 -16.0848 -0.0023 47.0161
#
#
#
# Elastic Compliance Matrix: (Units=1/GPa)
#
#
# Indices 1 2 3 4 5 6 
#
# 1 0.009868 -0.003921 -0.001629 0.000000 -0.000997 0.000000
# 2 -0.003921 0.011496 -0.003881 0.000001 0.000101 0.000000
# 3 -0.001629 -0.003881 0.011108 0.000000 0.000075 0.000000
# 4 0.000000 0.000001 0.000000 0.030844 0.000000 0.010552
# 5 -0.000997 0.000101 0.000075 0.000000 0.019618 0.000001
# 6 0.000000 0.000000 0.000000 0.010552 0.000001 0.024879
#
#
# Mechanical properties :
#
#
# Convention : Reuss Voigt Hill
#
# Bulk Modulus (GPa) = 73.48015 74.40084 73.94049
# Shear Modulus (GPa) = 38.10581 41.92262 40.01421
#
# Velocity S-wave (km/s) = 4.08347 4.28310 4.18448
# Velocity P-wave (km/s) = 7.37477 7.55096 7.46338
#
# Compressibility (1/GPa) = 0.01360912
#
# Stress axis : x y z
#
# Youngs Moduli (GPa) = 101.33795 86.98375 90.02269
#
# Poissons Ratio (x) = 0.34109 0.14669
# Poissons Ratio (y) = 0.39737 0.34938
# Poissons Ratio (z) = 0.16513 0.33759
#
# Static dielectric constant tensor:
#      x y z
#    x 4.090780 0.000330 -0.031620 
#    y 0.000330 6.566270 0.000200 
#    z -0.031620 0.000200 4.147660 
# 
# 
# High freq. dielectric constant tensor:
#      x y z
#    x 1.921290 0.000000 -0.010690 
#    y 0.000000 1.913950 0.000000 
#    z -0.010690 0.000000 1.907750 
# 
# From -- ./inp_files/297692.got.cif
#   From: 2010.06.25/outbox.cif.g09.slc.cpg/sg15_149_cif.got.tgz:297692.got - 2010.06.28 07:06:18.
