data_PCOD8154007
_publ_section_title
;
Structure prediction by ZEFSAII (Michael W. Deem and Ramdas Pophale) SiO2 
 PCOD8154007
Probable space group: C 2/C
;
_chemical_formula_sum "Si O2"
_cell_formula_units_Z 44
_cell_length_a 33.425356
_cell_length_b 6.679060
_cell_length_c 9.798879
_cell_angle_alpha 90.000000
_cell_angle_beta 106.793517
_cell_angle_gamma 90.000000
_cell_volume 2094.303019
_symmetry_space_group_name_H-M "C 2/C"
_symmetry_group_IT_number 15
_symmetry_cell_setting 'monoclinic'
loop_
_space_group_symop_operation_xyz
x,y,z
-x,y,1/2-z
-x,-y,-z
x,-y,1/2+z
1/2+x,1/2+y,z
1/2-x,1/2+y,1/2-z
1/2-x,1/2-y,-z
1/2+x,1/2-y,1/2+z
loop_
_atom_site_type_symbol
_atom_site_label
_atom_site_fract_x
_atom_site_fract_y
_atom_site_fract_z
Si Si1 0.104283 0.212613 0.701807
Si Si2 0.044029 0.577767 0.595380
Si Si3 0.199926 0.707441 0.313638
Si Si4 0.240402 0.445756 0.577028
Si Si5 0.500000 0.355564 0.750000
Si Si6 0.071629 0.076370 0.946218
O O1 0.072222 0.395537 0.670664
O O2 0.150810 0.294235 0.742529
O O3 0.096392 0.083416 0.829100
O O4 0.097973 0.070250 0.566897
O O5 0.068422 0.700507 0.503405
O O6 0.000000 0.500000 0.500000
O O7 0.035745 0.722782 0.714967
O O8 0.208757 0.582359 0.459478
O O9 0.220755 0.604967 0.203279
O O10 0.216869 0.932923 0.351391
O O11 0.250000 0.250000 0.500000
O O12 0.524262 0.494359 0.882254
#
# Coordination Sequence:
#
# PCOD8154007 Si02
#       6
#     8   8   8   8   4   8
#     4  12  29  44  70 106 140 182 231 295 346 413
#     4  12  24  44  69  96 138 184 236 278 347 409
#     4  11  27  45  75 106 141 183 232 285 351 418
#     4  11  24  48  73 105 140 186 229 282 348 422
#     4  12  22  46  68  96 136 188 236 286 342 418
#     4  12  26  46  66 101 139 182 232 292 349 403
#
# _framework density 21.009378000000002
#
# number of rings (size 3 to 8) (size 9 to 14) (size 15 to 20)
#    0.000    0.364    5.455    2.727    5.091    1.455 
#    0.000    0.000    0.000    0.000    0.000    0.000 
#    0.000    0.000    0.000    0.000    0.000    0.000 
#
# Total GULP energy -272953.182783 kJ/mol
# GULP energy per Si atom -12406.962854 kJ/mol
# Density = 2.096156 g / cm^3
# Si number density = 21.009378 Si / 1000 Ang^3
#
#
#
# Elastic Constant Matrix: (Units=GPa)
#
#
# Indices 1 2 3 4 5 6 
#
# 1 98.0319 34.8920 32.5612 0.0000 15.9287 0.0000
# 2 34.8920 104.6486 40.3810 0.0000 -2.4787 0.0000
# 3 32.5612 40.3810 113.3596 0.0000 -5.8270 0.0000
# 4 0.0000 0.0000 0.0000 43.3569 0.0000 -5.9734
# 5 15.9287 -2.4787 -5.8270 0.0000 35.1939 0.0000
# 6 0.0000 0.0000 0.0000 -5.9734 0.0000 23.6035
#
#
#
# Elastic Compliance Matrix: (Units=1/GPa)
#
#
# Indices 1 2 3 4 5 6 
#
# 1 0.013572 -0.003533 -0.002994 0.000000 -0.006887 0.000000
# 2 -0.003533 0.011999 -0.003161 0.000000 0.001921 0.000000
# 3 -0.002994 -0.003161 0.010959 0.000000 0.002947 0.000000
# 4 0.000000 0.000000 0.000000 0.023898 0.000000 0.006048
# 5 -0.006887 0.001921 0.002947 0.000000 0.032154 0.000000
# 6 0.000000 0.000000 0.000000 0.006048 0.000000 0.043897
#
#
# Mechanical properties :
#
#
# Convention : Reuss Voigt Hill
#
# Bulk Modulus (GPa) = 58.29412 59.07873 58.68643
# Shear Modulus (GPa) = 30.94607 34.31126 32.62866
#
# Velocity S-wave (km/s) = 3.84209 4.04560 3.94515
# Velocity P-wave (km/s) = 6.89123 7.07133 6.98186
#
# Compressibility (1/GPa) = 0.01715439
#
# Stress axis : x y z
#
# Youngs Moduli (GPa) = 73.68298 83.34115 91.25089
#
# Poissons Ratio (x) = 0.29444 0.27319
# Poissons Ratio (y) = 0.26032 0.28842
# Poissons Ratio (z) = 0.22059 0.26342
#
# Static dielectric constant tensor:
#      x y z
#    x 4.014540 0.000000 -0.283360 
#    y 0.000000 4.066190 0.000000 
#    z -0.283360 0.000000 4.183460 
# 
# 
# High freq. dielectric constant tensor:
#      x y z
#    x 1.810870 0.000000 -0.005340 
#    y 0.000000 1.840710 0.000000 
#    z -0.005340 0.000000 1.844410 
# 
# From -- ./inp_files/125060.got.cif
#   From: 2010.06.25/outbox.cif.g09.slc.cpg/sg15_63_cif.got.tgz:125060.got - 2010.06.28 07:06:18.
