data_PCOD8154672
_publ_section_title
;
Structure prediction by ZEFSAII (Michael W. Deem and Ramdas Pophale) SiO2 
 PCOD8154672
Probable space group: C 2/C
;
_chemical_formula_sum "Si O2"
_cell_formula_units_Z 44
_cell_length_a 5.938538
_cell_length_b 26.462711
_cell_length_c 11.742605
_cell_angle_alpha 90.000000
_cell_angle_beta 104.646989
_cell_angle_gamma 90.000000
_cell_volume 1785.378297
_symmetry_space_group_name_H-M "C 2/C"
_symmetry_group_IT_number 15
_symmetry_cell_setting 'monoclinic'
loop_
_space_group_symop_operation_xyz
x,y,z
-x,y,1/2-z
-x,-y,-z
x,-y,1/2+z
1/2+x,1/2+y,z
1/2-x,1/2+y,1/2-z
1/2-x,1/2-y,-z
1/2+x,1/2-y,1/2+z
loop_
_atom_site_type_symbol
_atom_site_label
_atom_site_fract_x
_atom_site_fract_y
_atom_site_fract_z
Si Si1 0.912814 0.575527 0.855334
Si Si2 0.772239 0.923797 0.579861
Si Si3 0.500000 0.875000 0.750000
Si Si4 0.500000 0.500674 0.750000
Si Si5 0.057622 0.826203 0.579861
Si Si6 0.500000 0.750674 0.250000
Si Si7 0.807480 0.174473 0.644666
O O1 0.730154 0.534154 0.788161
O O2 0.832918 0.625000 0.915836
O O3 0.000000 0.600270 0.750000
O O4 0.111860 0.551003 0.960605
O O5 0.618625 0.911336 0.671579
O O6 0.977860 0.963638 0.637246
O O7 0.896717 0.875000 0.543433
O O8 0.302954 0.838664 0.671579
O O9 0.909386 0.786362 0.637246
O O10 0.098745 0.801003 0.460605
O O11 0.308007 0.784154 0.288161
O O12 0.000000 0.149730 0.750000
#
# Coordination Sequence:
#
# PCOD8154672 Si02
#       7
#     8   8   4   4   8   4   8
#     4  12  27  48  74 107 158 203 249 312 382 446
#     4  12  26  49  79 110 152 199 255 315 378 456
#     4  12  22  48  78 102 152 194 246 306 392 422
#     4  12  27  48  75 120 146 199 261 310 374 454
#     4  12  26  49  79 110 152 199 255 315 378 456
#     4  12  27  48  75 120 146 199 261 310 374 454
#     4  12  27  48  74 107 158 203 249 312 382 446
#
# _framework density 24.644636999999999
#
# number of rings (size 3 to 8) (size 9 to 14) (size 15 to 20)
#    0.000    0.000    7.273    2.182    2.545    1.455 
#    0.000    0.000    0.000    0.000    0.000    0.000 
#    0.000    0.000    0.000    0.000    0.000    0.000 
#
# Total GULP energy -272609.567271 kJ/mol
# GULP energy per Si atom -12391.343967 kJ/mol
# Density = 2.458854 g / cm^3
# Si number density = 24.644637 Si / 1000 Ang^3
#
#
#
# Elastic Constant Matrix: (Units=GPa)
#
#
# Indices 1 2 3 4 5 6 
#
# 1 103.5959 44.4815 72.9830 0.0000 3.9768 0.0000
# 2 44.4815 131.3524 54.5652 0.0000 0.3972 0.0000
# 3 72.9830 54.5652 197.8805 0.0000 -0.2629 0.0000
# 4 0.0000 0.0000 0.0000 -2.3368 0.0000 -0.7183
# 5 3.9768 0.3972 -0.2629 0.0000 65.6193 0.0000
# 6 0.0000 0.0000 0.0000 -0.7183 0.0000 15.8979
#
#
#
# Elastic Compliance Matrix: (Units=1/GPa)
#
#
# Indices 1 2 3 4 5 6 
#
# 1 0.014018 -0.002932 -0.004363 0.000000 -0.000849 0.000000
# 2 -0.002932 0.009212 -0.001458 0.000000 0.000116 0.000000
# 3 -0.004363 -0.001458 0.007065 0.000000 0.000302 0.000000
# 4 0.000000 0.000000 0.000000 -0.422074 0.000000 -0.019072
# 5 -0.000849 0.000116 0.000302 0.000000 0.015291 0.000000
# 6 0.000000 0.000000 0.000000 -0.019072 0.000000 0.062040
#
#
# Mechanical properties :
#
#
# Convention : Reuss Voigt Hill
#
# Bulk Modulus (GPa) = 78.19831 86.32091 82.25961
# Shear Modulus (GPa) = -17.08358 33.22267 8.06954
#
# Velocity S-wave (km/s) = -2.63572 3.67559 1.81148
# Velocity P-wave (km/s) = 4.74727 7.28804 6.15029
#
# Compressibility (1/GPa) = 0.01278800
#
# Stress axis : x y z
#
# Youngs Moduli (GPa) = 71.33652 108.55888 141.53845
#
# Poissons Ratio (x) = 0.31832 0.61750
# Poissons Ratio (y) = 0.20917 0.20643
# Poissons Ratio (z) = 0.31122 0.15833
#
# Static dielectric constant tensor:
#      x y z
#    x 4.475800 0.000000 0.006040 
#    y 0.000000 4.335430 0.000000 
#    z 0.006040 0.000000 4.629150 
# 
# 
# High freq. dielectric constant tensor:
#      x y z
#    x 1.970980 0.000000 0.001130 
#    y 0.000000 1.981200 0.000000 
#    z 0.001130 0.000000 1.999600 
# 
# From -- ./inp_files/74022.got.cif
#   From: 2010.06.25/outbox.cif.g09.slc.cpg/sg15_38_cif.got.tgz:74022.got - 2010.06.28 07:06:18.
