data_PCOD8154827
_publ_section_title
;
Structure prediction by ZEFSAII (Michael W. Deem and Ramdas Pophale) SiO2 
 PCOD8154827
Probable space group: C 2/C
;
_chemical_formula_sum "Si O2"
_cell_formula_units_Z 52
_cell_length_a 14.822941
_cell_length_b 11.429376
_cell_length_c 13.794081
_cell_angle_alpha 90.000000
_cell_angle_beta 101.831791
_cell_angle_gamma 90.000000
_cell_volume 2287.299952
_symmetry_space_group_name_H-M "C 2/C"
_symmetry_group_IT_number 15
_symmetry_cell_setting 'monoclinic'
loop_
_space_group_symop_operation_xyz
x,y,z
-x,y,1/2-z
-x,-y,-z
x,-y,1/2+z
1/2+x,1/2+y,z
1/2-x,1/2+y,1/2-z
1/2-x,1/2-y,-z
1/2+x,1/2-y,1/2+z
loop_
_atom_site_type_symbol
_atom_site_label
_atom_site_fract_x
_atom_site_fract_y
_atom_site_fract_z
Si Si1 0.241522 0.604829 0.946483
Si Si2 0.000000 0.058296 0.750000
Si Si3 0.716765 0.949593 0.778416
Si Si4 0.625748 0.736547 0.665935
Si Si5 0.537334 0.127609 0.981971
Si Si6 0.363162 0.615024 0.164942
Si Si7 0.082596 0.348203 0.213960
O O1 0.241010 0.475370 0.897073
O O2 0.284577 0.694167 0.875636
O O3 0.134960 0.630338 0.946607
O O4 0.302369 0.620346 0.054793
O O5 0.074484 0.133126 0.708633
O O6 0.050941 0.971133 0.837492
O O7 0.661185 0.828873 0.754285
O O8 0.810143 0.946742 0.740170
O O9 0.665158 0.061307 0.720245
O O10 0.549626 0.798431 0.581961
O O11 0.457594 0.190490 0.900034
O O12 0.500000 0.000000 0.000000
O O13 0.393710 0.740997 0.210187
O O14 0.000000 0.418477 0.250000
#
# Coordination Sequence:
#
# PCOD8154827 Si02
#       7
#     8   4   8   8   8   8   8
#     4  12  26  48  79 104 151 206 248 310 385 454
#     4  12  30  48  68 112 158 192 244 322 384 434
#     4  12  26  45  74 108 148 194 249 314 374 436
#     4  12  27  47  73 107 156 193 246 317 380 446
#     4  12  25  45  77 118 144 191 261 314 376 451
#     4  12  27  50  74 111 147 200 257 303 378 468
#     4  12  24  43  75 105 143 191 254 306 358 446
#
# _framework density 22.734228999999999
#
# number of rings (size 3 to 8) (size 9 to 14) (size 15 to 20)
#    0.000    0.000    6.923    2.308    3.231    1.846 
#    0.000    0.769    0.000    0.000    0.000    0.000 
#    0.000    0.000    0.000    0.000    0.000    0.000 
#
# Total GULP energy -322165.356514 kJ/mol
# GULP energy per Si atom -12390.975251 kJ/mol
# Density = 2.268249 g / cm^3
# Si number density = 22.734229 Si / 1000 Ang^3
#
#
#
# Elastic Constant Matrix: (Units=GPa)
#
#
# Indices 1 2 3 4 5 6 
#
# 1 90.5734 54.8729 36.4892 0.0000 10.9652 0.0000
# 2 54.8729 130.8501 46.7462 0.0000 10.8611 0.0000
# 3 36.4892 46.7462 128.8811 0.0000 23.3037 0.0000
# 4 0.0000 0.0000 0.0000 43.5350 0.0000 0.9789
# 5 10.9652 10.8611 23.3037 0.0000 36.4447 0.0000
# 6 0.0000 0.0000 0.0000 0.9789 0.0000 42.5908
#
#
#
# Elastic Compliance Matrix: (Units=1/GPa)
#
#
# Indices 1 2 3 4 5 6 
#
# 1 0.015470 -0.005620 -0.002038 0.000000 -0.001676 0.000000
# 2 -0.005620 0.010836 -0.002330 0.000000 -0.000048 0.000000
# 3 -0.002038 -0.002330 0.010114 0.000000 -0.005160 0.000000
# 4 0.000000 0.000000 0.000000 0.022982 0.000000 -0.000528
# 5 -0.001676 -0.000048 -0.005160 0.000000 0.031257 0.000000
# 6 0.000000 0.000000 0.000000 -0.000528 0.000000 0.023491
#
#
# Mechanical properties :
#
#
# Convention : Reuss Voigt Hill
#
# Bulk Modulus (GPa) = 60.81832 69.61347 65.21590
# Shear Modulus (GPa) = 35.81462 38.66050 37.23756
#
# Velocity S-wave (km/s) = 3.97339 4.12824 4.05155
# Velocity P-wave (km/s) = 6.91812 7.30822 7.11585
#
# Compressibility (1/GPa) = 0.01644241
#
# Stress axis : x y z
#
# Youngs Moduli (GPa) = 64.64249 92.28817 98.86945
#
# Poissons Ratio (x) = 0.51866 0.20153
# Poissons Ratio (y) = 0.36329 0.23039
# Poissons Ratio (z) = 0.13176 0.21506
#
# Static dielectric constant tensor:
#      x y z
#    x 4.470000 0.000000 0.254080 
#    y 0.000000 4.286670 0.000000 
#    z 0.254080 0.000000 4.643560 
# 
# 
# High freq. dielectric constant tensor:
#      x y z
#    x 1.910260 0.000000 0.020320 
#    y 0.000000 1.899310 0.000000 
#    z 0.020320 0.000000 1.902160 
# 
# From -- ./inp_files/152677.got.cif
#   From: 2010.06.25/outbox.cif.g09.slc.cpg/sg15_77_cif.got.tgz:152677.got - 2010.06.28 07:06:18.
