data_PCOD8154219
_publ_section_title
;
Structure prediction by ZEFSAII (Michael W. Deem and Ramdas Pophale) SiO2 
 PCOD8154219
Probable space group: C 2/C
;
_chemical_formula_sum "Si O2"
_cell_formula_units_Z 36
_cell_length_a 18.251314
_cell_length_b 6.639533
_cell_length_c 23.899287
_cell_angle_alpha 90.000000
_cell_angle_beta 35.175203
_cell_angle_gamma 90.000000
_cell_volume 1668.393026
_symmetry_space_group_name_H-M "C 2/C"
_symmetry_group_IT_number 15
_symmetry_cell_setting 'monoclinic'
loop_
_space_group_symop_operation_xyz
x,y,z
-x,y,1/2-z
-x,-y,-z
x,-y,1/2+z
1/2+x,1/2+y,z
1/2-x,1/2+y,1/2-z
1/2-x,1/2-y,-z
1/2+x,1/2-y,1/2+z
loop_
_atom_site_type_symbol
_atom_site_label
_atom_site_fract_x
_atom_site_fract_y
_atom_site_fract_z
Si Si1 0.500000 0.561516 0.750000
Si Si2 0.203671 0.980178 0.372102
Si Si3 0.666907 0.787517 0.105481
Si Si4 0.011866 0.304358 0.529616
Si Si5 0.027300 0.600157 0.322142
O O1 0.379372 0.424020 0.840379
O O2 0.466682 0.695083 0.717005
O O3 0.239904 0.892211 0.409369
O O4 0.116860 0.826381 0.391611
O O5 0.129779 0.185787 0.430082
O O6 0.329275 0.022351 0.257061
O O7 0.547546 0.929907 0.165667
O O8 0.750000 0.750000 0.000000
O O9 0.000000 0.500000 0.500000
O O10 0.039602 0.361434 0.576682
#
# Coordination Sequence:
#
# PCOD8154219 Si02
#       5
#     4   8   8   8   8
#     4  12  24  44  72 104 138 184 226 300 354 418
#     4  11  25  47  64 106 137 177 242 279 354 437
#     4  12  25  45  74 103 141 179 239 294 352 423
#     4  11  28  45  70  99 141 189 229 297 360 424
#     4  12  26  45  72 108 137 184 242 291 359 430
#
# _framework density 21.577649999999998
#
# number of rings (size 3 to 8) (size 9 to 14) (size 15 to 20)
#    0.000    0.444    4.444    2.667    9.333    3.556 
#    0.000    0.000    0.000    0.000    0.000    0.000 
#    0.000    0.000    0.000    0.000    0.000    0.000 
#
# Total GULP energy -223336.830129 kJ/mol
# GULP energy per Si atom -12407.601674 kJ/mol
# Density = 2.152854 g / cm^3
# Si number density = 21.577650 Si / 1000 Ang^3
#
#
#
# Elastic Constant Matrix: (Units=GPa)
#
#
# Indices 1 2 3 4 5 6 
#
# 1 81.3009 27.5806 6.8307 -0.0054 11.6124 0.0184
# 2 27.5806 126.0987 35.5788 -0.0084 10.9109 0.0267
# 3 6.8307 35.5788 85.3439 -0.0018 4.6188 0.0064
# 4 -0.0054 -0.0084 -0.0018 23.7372 0.0011 10.4226
# 5 11.6124 10.9109 4.6188 0.0011 45.9370 -0.0056
# 6 0.0184 0.0267 0.0064 10.4226 -0.0056 37.7538
#
#
#
# Elastic Compliance Matrix: (Units=1/GPa)
#
#
# Indices 1 2 3 4 5 6 
#
# 1 0.013632 -0.002804 0.000230 0.000005 -0.002803 -0.000007
# 2 -0.002804 0.009709 -0.003757 0.000005 -0.001220 -0.000007
# 3 0.000230 -0.003757 0.013292 0.000000 -0.000502 0.000000
# 4 0.000005 0.000005 0.000000 0.047939 -0.000005 -0.013234
# 5 -0.002803 -0.001220 -0.000502 -0.000005 0.022818 0.000007
# 6 -0.000007 -0.000007 0.000000 -0.013234 0.000007 0.030141
#
#
# Mechanical properties :
#
#
# Convention : Reuss Voigt Hill
#
# Bulk Modulus (GPa) = 41.71750 48.08042 44.89896
# Shear Modulus (GPa) = 31.60856 36.33583 33.97220
#
# Velocity S-wave (km/s) = 3.83152 4.10806 3.97220
# Velocity P-wave (km/s) = 6.24097 6.69570 6.47233
#
# Compressibility (1/GPa) = 0.02397075
#
# Stress axis : x y z
#
# Youngs Moduli (GPa) = 73.35523 102.99517 75.23071
#
# Poissons Ratio (x) = 0.28879 -0.01727
# Poissons Ratio (y) = 0.20568 0.28266
# Poissons Ratio (z) = -0.01684 0.38698
#
# Static dielectric constant tensor:
#      x y z
#    x 3.894540 -0.000010 -0.099350 
#    y -0.000010 4.363690 -0.000020 
#    z -0.099350 -0.000020 3.925510 
# 
# 
# High freq. dielectric constant tensor:
#      x y z
#    x 1.850510 0.000000 -0.000680 
#    y 0.000000 1.864230 0.000000 
#    z -0.000680 0.000000 1.860510 
# 
# From -- ./inp_files/165046.got.cif
#   From: 2010.06.25/outbox.cif.g09.slc.cpg/sg15_83_cif.got.tgz:165046.got - 2010.06.28 07:06:18.
