data_PCOD8154006
_publ_section_title
;
Structure prediction by ZEFSAII (Michael W. Deem and Ramdas Pophale) SiO2 
 PCOD8154006
Probable space group: C 2/C
;
_chemical_formula_sum "Si O2"
_cell_formula_units_Z 28
_cell_length_a 9.199703
_cell_length_b 11.324096
_cell_length_c 13.849086
_cell_angle_alpha 90.000000
_cell_angle_beta 122.778114
_cell_angle_gamma 90.000000
_cell_volume 1213.046526
_symmetry_space_group_name_H-M "C 2/C"
_symmetry_group_IT_number 15
_symmetry_cell_setting 'monoclinic'
loop_
_space_group_symop_operation_xyz
x,y,z
-x,y,1/2-z
-x,-y,-z
x,-y,1/2+z
1/2+x,1/2+y,z
1/2-x,1/2+y,1/2-z
1/2-x,1/2-y,-z
1/2+x,1/2-y,1/2+z
loop_
_atom_site_type_symbol
_atom_site_label
_atom_site_fract_x
_atom_site_fract_y
_atom_site_fract_z
Si Si1 0.588390 0.110007 0.577969
Si Si2 0.864624 0.831382 0.443161
Si Si3 0.424432 0.483052 0.125069
Si Si4 0.000000 0.336694 0.250000
O O1 0.505081 0.233015 0.516262
O O2 0.784222 0.112929 0.610244
O O3 0.574015 0.087365 0.687742
O O4 0.500000 0.000000 0.500000
O O5 0.675459 0.770874 0.352830
O O6 0.926172 0.911251 0.376138
O O7 0.841822 0.915800 0.528216
O O8 0.500000 0.544142 0.250000
#
# Coordination Sequence:
#
# PCOD8154006 Si02
#       4
#     8   8   8   4
#     4  12  26  46  69 106 144 184 239 292 354 430
#     4  11  26  46  74 105 139 192 236 291 364 420
#     4  11  24  48  73 104 144 184 239 297 356 426
#     4  12  24  46  68 106 140 190 240 286 362 420
#
# _framework density 23.082377999999999
#
# number of rings (size 3 to 8) (size 9 to 14) (size 15 to 20)
#    0.000    0.571    5.714    1.714    2.000    0.000 
#    2.571    0.000    0.000    0.000    0.000    0.000 
#    0.000    0.000    0.000    0.000    0.000    0.000 
#
# Total GULP energy -173449.989312 kJ/mol
# GULP energy per Si atom -12389.284951 kJ/mol
# Density = 2.302984 g / cm^3
# Si number density = 23.082378 Si / 1000 Ang^3
#
#
#
# Elastic Constant Matrix: (Units=GPa)
#
#
# Indices 1 2 3 4 5 6 
#
# 1 134.1707 23.8790 80.4236 0.0000 -0.7496 0.0000
# 2 23.8790 67.7137 40.6834 0.0000 -3.7722 0.0000
# 3 80.4236 40.6834 157.6666 0.0000 -4.0848 0.0000
# 4 0.0000 0.0000 0.0000 17.0410 0.0000 5.6499
# 5 -0.7496 -3.7722 -4.0848 0.0000 57.8743 0.0000
# 6 0.0000 0.0000 0.0000 5.6499 0.0000 37.6907
#
#
#
# Elastic Compliance Matrix: (Units=1/GPa)
#
#
# Indices 1 2 3 4 5 6 
#
# 1 0.010760 -0.000601 -0.005340 0.000000 -0.000277 0.000000
# 2 -0.000601 0.017550 -0.004200 0.000000 0.000840 0.000000
# 3 -0.005340 -0.004200 0.010160 0.000000 0.000374 0.000000
# 4 0.000000 0.000000 0.000000 0.061751 0.000000 -0.009257
# 5 -0.000277 0.000840 0.000374 0.000000 0.017356 0.000000
# 6 0.000000 0.000000 0.000000 -0.009257 0.000000 0.027919
#
#
# Mechanical properties :
#
#
# Convention : Reuss Voigt Hill
#
# Bulk Modulus (GPa) = 54.98564 72.16924 63.57744
# Shear Modulus (GPa) = 29.09636 36.82552 32.96094
#
# Velocity S-wave (km/s) = 3.55427 3.99857 3.78295
# Velocity P-wave (km/s) = 6.38098 7.25617 6.83260
#
# Compressibility (1/GPa) = 0.01818657
#
# Stress axis : x y z
#
# Youngs Moduli (GPa) = 92.93870 56.97878 98.42439
#
# Poissons Ratio (x) = 0.03425 0.52563
# Poissons Ratio (y) = 0.05587 0.41340
# Poissons Ratio (z) = 0.49634 0.23932
#
# Static dielectric constant tensor:
#      x y z
#    x 5.088440 0.000000 -0.275210 
#    y 0.000000 3.168250 0.000000 
#    z -0.275210 0.000000 4.260820 
# 
# 
# High freq. dielectric constant tensor:
#      x y z
#    x 1.946520 0.000000 -0.006170 
#    y 0.000000 1.873190 0.000000 
#    z -0.006170 0.000000 1.937200 
# 
# From -- ./inp_files/74803.got.cif
#   From: 2010.06.25/outbox.cif.g09.slc.cpg/sg15_38_cif.got.tgz:74803.got - 2010.06.28 07:06:18.
