data_PCOD8154190
_publ_section_title
;
Structure prediction by ZEFSAII (Michael W. Deem and Ramdas Pophale) SiO2 
 PCOD8154190
Probable space group: C 2/C
;
_chemical_formula_sum "Si O2"
_cell_formula_units_Z 32
_cell_length_a 17.374589
_cell_length_b 8.515892
_cell_length_c 8.710284
_cell_angle_alpha 90.000000
_cell_angle_beta 102.217483
_cell_angle_gamma 90.000000
_cell_volume 1259.585710
_symmetry_space_group_name_H-M "C 2/C"
_symmetry_group_IT_number 15
_symmetry_cell_setting 'monoclinic'
loop_
_space_group_symop_operation_xyz
x,y,z
-x,y,1/2-z
-x,-y,-z
x,-y,1/2+z
1/2+x,1/2+y,z
1/2-x,1/2+y,1/2-z
1/2-x,1/2-y,-z
1/2+x,1/2-y,1/2+z
loop_
_atom_site_type_symbol
_atom_site_label
_atom_site_fract_x
_atom_site_fract_y
_atom_site_fract_z
Si Si1 0.802522 0.375234 0.330891
Si Si2 0.551043 0.612939 0.420596
Si Si3 0.298301 0.460470 0.938128
Si Si4 0.553943 0.097752 0.129369
O O1 0.778007 0.418667 0.493369
O O2 0.728209 0.399551 0.186791
O O3 0.826301 0.190981 0.347285
O O4 0.872025 0.487375 0.295828
O O5 0.500000 0.664687 0.250000
O O6 0.500000 0.500000 0.500000
O O7 0.631604 0.517899 0.419002
O O8 0.580299 0.755045 0.539162
O O9 0.500000 0.152307 0.250000
O O10 0.500000 0.000000 0.000000
#
# Coordination Sequence:
#
# PCOD8154190 Si02
#       4
#     8   8   8   8
#     4  11  25  46  73 104 139 179 230 290 351 420
#     4  12  26  45  71 104 144 189 237 291 353 420
#     4  11  25  46  72 104 139 179 230 289 352 418
#     4  12  26  45  70 104 144 187 237 291 352 423
#
# _framework density 25.405180999999999
#
# number of rings (size 3 to 8) (size 9 to 14) (size 15 to 20)
#    0.000    0.500    0.000    7.500    0.000   14.000 
#    0.000    2.500    0.000    0.000    0.000    0.000 
#    0.000    0.000    0.000    0.000    0.000    0.000 
#
# Total GULP energy -198337.982627 kJ/mol
# GULP energy per Si atom -12396.123914 kJ/mol
# Density = 2.534736 g / cm^3
# Si number density = 25.405181 Si / 1000 Ang^3
#
#
#
# Elastic Constant Matrix: (Units=GPa)
#
#
# Indices 1 2 3 4 5 6 
#
# 1 127.8386 53.2335 36.3532 0.0000 16.5758 0.0000
# 2 53.2335 110.7211 34.4382 0.0000 10.9433 0.0000
# 3 36.3532 34.4382 112.9915 0.0000 18.6850 0.0000
# 4 0.0000 0.0000 0.0000 43.9900 0.0000 3.6184
# 5 16.5758 10.9433 18.6850 0.0000 48.0984 0.0000
# 6 0.0000 0.0000 0.0000 3.6184 0.0000 42.6681
#
#
#
# Elastic Compliance Matrix: (Units=1/GPa)
#
#
# Indices 1 2 3 4 5 6 
#
# 1 0.010325 -0.004242 -0.001710 0.000000 -0.001929 0.000000
# 2 -0.004242 0.011781 -0.002164 0.000000 -0.000378 0.000000
# 3 -0.001710 -0.002164 0.010559 0.000000 -0.003020 0.000000
# 4 0.000000 0.000000 0.000000 0.022892 0.000000 -0.001941
# 5 -0.001929 -0.000378 -0.003020 0.000000 0.022715 0.000000
# 6 0.000000 0.000000 0.000000 -0.001941 0.000000 0.023601
#
#
# Mechanical properties :
#
#
# Convention : Reuss Voigt Hill
#
# Bulk Modulus (GPa) = 60.84563 66.62233 63.73398
# Shear Modulus (GPa) = 40.45864 42.11973 41.28918
#
# Velocity S-wave (km/s) = 3.99499 4.07617 4.03578
# Velocity P-wave (km/s) = 6.72919 6.95948 6.84530
#
# Compressibility (1/GPa) = 0.01643504
#
# Stress axis : x y z
#
# Youngs Moduli (GPa) = 96.85210 84.88000 94.70292
#
# Poissons Ratio (x) = 0.36003 0.16196
# Poissons Ratio (y) = 0.41081 0.20490
# Poissons Ratio (z) = 0.16563 0.18364
#
# Static dielectric constant tensor:
#      x y z
#    x 5.248550 0.000000 0.539530 
#    y 0.000000 4.166300 0.000000 
#    z 0.539530 0.000000 4.509980 
# 
# 
# High freq. dielectric constant tensor:
#      x y z
#    x 2.022930 0.000000 0.002850 
#    y 0.000000 2.018930 0.000000 
#    z 0.002850 0.000000 2.016050 
# 
# From -- ./inp_files/53471.got.cif
#   From: 2010.06.25/outbox.cif.g09.slc.cpg/sg15_27_cif.got.tgz:53471.got - 2010.06.28 07:06:18.
