data_PCOD8154945
_publ_section_title
;
Structure prediction by ZEFSAII (Michael W. Deem and Ramdas Pophale) SiO2 
 PCOD8154945
Probable space group: C 2/C
;
_chemical_formula_sum "Si O2"
_cell_formula_units_Z 36
_cell_length_a 10.630960
_cell_length_b 16.632585
_cell_length_c 9.493589
_cell_angle_alpha 90.000000
_cell_angle_beta 102.390834
_cell_angle_gamma 90.000000
_cell_volume 1639.558030
_symmetry_space_group_name_H-M "C 2/C"
_symmetry_group_IT_number 15
_symmetry_cell_setting 'monoclinic'
loop_
_space_group_symop_operation_xyz
x,y,z
-x,y,1/2-z
-x,-y,-z
x,-y,1/2+z
1/2+x,1/2+y,z
1/2-x,1/2+y,1/2-z
1/2-x,1/2-y,-z
1/2+x,1/2-y,1/2+z
loop_
_atom_site_type_symbol
_atom_site_label
_atom_site_fract_x
_atom_site_fract_y
_atom_site_fract_z
Si Si1 0.856206 0.086484 0.241688
Si Si2 0.472815 0.918851 0.575749
Si Si3 0.668832 0.786030 0.608976
Si Si4 0.811319 0.943893 0.033067
Si Si5 0.000000 0.833346 0.250000
O O1 0.768051 0.165503 0.231856
O O2 0.854847 0.035715 0.385047
O O3 0.000000 0.116279 0.250000
O O4 0.799142 0.029286 0.107011
O O5 0.500000 0.928101 0.750000
O O6 0.558064 0.847342 0.529482
O O7 0.324593 0.897377 0.507894
O O8 0.500000 0.000000 0.500000
O O9 0.750000 0.750000 0.500000
O O10 0.600903 0.717947 0.684433
O O11 0.918902 0.888327 0.126774
#
# Coordination Sequence:
#
# PCOD8154945 Si02
#       5
#     8   8   8   8   4
#     4  12  25  45  74 107 143 190 250 295 361 443
#     4  12  24  49  76 106 143 193 250 301 363 440
#     4  12  27  46  73 110 150 187 245 306 371 432
#     4  12  25  45  78 102 145 193 240 305 360 438
#     4  12  28  48  70 110 152 188 240 306 378 426
#
# _framework density 21.957136999999999
#
# number of rings (size 3 to 8) (size 9 to 14) (size 15 to 20)
#    0.000    0.000    6.667    2.000    3.111    7.111 
#    0.000    0.000    0.000    0.000    0.000    0.000 
#    0.000    0.000    0.000    0.000    0.000    0.000 
#
# Total GULP energy -223223.157873 kJ/mol
# GULP energy per Si atom -12401.286549 kJ/mol
# Density = 2.190716 g / cm^3
# Si number density = 21.957137 Si / 1000 Ang^3
#
#
#
# Elastic Constant Matrix: (Units=GPa)
#
#
# Indices 1 2 3 4 5 6 
#
# 1 155.4709 31.9600 53.5983 0.0000 13.5081 0.0000
# 2 31.9600 79.0189 34.2847 0.0000 0.3481 0.0000
# 3 53.5983 34.2847 123.9500 0.0000 -0.6609 0.0000
# 4 0.0000 0.0000 0.0000 25.8968 0.0000 -8.0746
# 5 13.5081 0.3481 -0.6609 0.0000 55.4648 0.0000
# 6 0.0000 0.0000 0.0000 -8.0746 0.0000 40.2858
#
#
#
# Elastic Compliance Matrix: (Units=1/GPa)
#
#
# Indices 1 2 3 4 5 6 
#
# 1 0.008019 -0.001961 -0.002936 0.000000 -0.001976 0.000000
# 2 -0.001961 0.014862 -0.003261 0.000000 0.000345 0.000000
# 3 -0.002936 -0.003261 0.010244 0.000000 0.000857 0.000000
# 4 0.000000 0.000000 0.000000 0.041189 0.000000 0.008256
# 5 -0.001976 0.000345 0.000857 0.000000 0.018519 0.000000
# 6 0.000000 0.000000 0.000000 0.008256 0.000000 0.026477
#
#
# Mechanical properties :
#
#
# Convention : Reuss Voigt Hill
#
# Bulk Modulus (GPa) = 59.49111 66.45842 62.97477
# Shear Modulus (GPa) = 35.40391 40.23595 37.81993
#
# Velocity S-wave (km/s) = 4.01984 4.28539 4.15474
# Velocity P-wave (km/s) = 6.97843 7.40399 7.19436
#
# Compressibility (1/GPa) = 0.01680923
#
# Stress axis : x y z
#
# Youngs Moduli (GPa) = 124.70563 67.28727 97.62026
#
# Poissons Ratio (x) = 0.13194 0.28658
# Poissons Ratio (y) = 0.24453 0.31834
# Poissons Ratio (z) = 0.36609 0.21942
#
# Static dielectric constant tensor:
#      x y z
#    x 4.440030 0.000000 0.175270 
#    y 0.000000 3.932530 0.000000 
#    z 0.175270 0.000000 3.885700 
# 
# 
# High freq. dielectric constant tensor:
#      x y z
#    x 1.900880 0.000000 0.002200 
#    y 0.000000 1.858620 0.000000 
#    z 0.002200 0.000000 1.863510 
# 
# From -- ./inp_files/29413.got.cif
#   From: 2010.06.25/outbox.cif.g09.slc.cpg/sg15_15_cif.got.tgz:29413.got - 2010.06.28 07:06:18.
