data_PCOD8154838
_publ_section_title
;
Structure prediction by ZEFSAII (Michael W. Deem and Ramdas Pophale) SiO2 
 PCOD8154838
Probable space group: C 2/C
;
_chemical_formula_sum "Si O2"
_cell_formula_units_Z 40
_cell_length_a 11.501379
_cell_length_b 29.296897
_cell_length_c 5.232411
_cell_angle_alpha 90.000000
_cell_angle_beta 64.961465
_cell_angle_gamma 90.000000
_cell_volume 1597.396678
_symmetry_space_group_name_H-M "C 2/C"
_symmetry_group_IT_number 15
_symmetry_cell_setting 'monoclinic'
loop_
_space_group_symop_operation_xyz
x,y,z
-x,y,1/2-z
-x,-y,-z
x,-y,1/2+z
1/2+x,1/2+y,z
1/2-x,1/2+y,1/2-z
1/2-x,1/2-y,-z
1/2+x,1/2-y,1/2+z
loop_
_atom_site_type_symbol
_atom_site_label
_atom_site_fract_x
_atom_site_fract_y
_atom_site_fract_z
Si Si1 0.500000 0.911795 0.750000
Si Si2 0.000000 0.908828 0.250000
Si Si3 0.248276 0.029510 0.555342
Si Si4 0.811396 0.348907 0.725149
Si Si5 0.080512 0.253049 0.928948
Si Si6 0.338228 0.652135 0.621090
O O1 0.618050 0.943444 0.560435
O O2 0.446724 0.876314 0.583211
O O3 0.125942 0.939409 0.102667
O O4 0.024912 0.873856 0.467698
O O5 0.242532 0.991180 0.343341
O O6 0.821743 0.294150 0.709144
O O7 0.728477 0.367878 0.567880
O O8 0.745289 0.361531 0.054346
O O9 0.152502 0.206317 0.924130
O O10 0.000000 0.244646 0.750000
O O11 0.000000 0.267941 0.250000
#
# Coordination Sequence:
#
# PCOD8154838 Si02
#       6
#     4   4   8   8   8   8
#     4  12  28  53  84 116 154 200 258 321 384 464
#     4  12  28  53  84 116 154 200 258 321 384 464
#     4  12  30  54  82 113 154 197 250 322 404 470
#     4  12  27  47  76 111 159 206 259 312 372 452
#     4  12  24  44  72 109 161 211 255 311 372 439
#     4  12  27  47  76 111 159 206 259 312 372 452
#
# _framework density 25.040742000000002
#
# number of rings (size 3 to 8) (size 9 to 14) (size 15 to 20)
#    0.000    0.000    4.000    4.800    2.800    3.200 
#    0.000    0.000    0.000    0.000    0.000    0.000 
#    0.000    0.000    0.000    0.000    0.000    0.000 
#
# Total GULP energy -247891.962702 kJ/mol
# GULP energy per Si atom -12394.598135 kJ/mol
# Density = 2.498375 g / cm^3
# Si number density = 25.040742 Si / 1000 Ang^3
#
#
#
# Elastic Constant Matrix: (Units=GPa)
#
#
# Indices 1 2 3 4 5 6 
#
# 1 179.0652 52.3513 33.1503 0.0000 10.1334 0.0000
# 2 52.3513 131.8434 -1.1476 0.0000 -10.1772 0.0000
# 3 33.1503 -1.1476 95.8804 0.0000 15.0168 0.0000
# 4 0.0000 0.0000 0.0000 -1.6901 0.0000 -19.5781
# 5 10.1334 -10.1772 15.0168 0.0000 49.3350 0.0000
# 6 0.0000 0.0000 0.0000 -19.5781 0.0000 83.1788
#
#
#
# Elastic Compliance Matrix: (Units=1/GPa)
#
#
# Indices 1 2 3 4 5 6 
#
# 1 0.006908 -0.002865 -0.002213 0.000000 -0.001336 0.000000
# 2 -0.002865 0.008898 0.000753 0.000000 0.002195 0.000000
# 3 -0.002213 0.000753 0.011664 0.000000 -0.002940 0.000000
# 4 0.000000 0.000000 0.000000 -0.158773 0.000000 -0.037371
# 5 -0.001336 0.002195 -0.002940 0.000000 0.021892 0.000000
# 6 0.000000 0.000000 0.000000 -0.037371 0.000000 0.003226
#
#
# Mechanical properties :
#
#
# Convention : Reuss Voigt Hill
#
# Bulk Modulus (GPa) = 53.13430 63.94410 58.53920
# Shear Modulus (GPa) = -54.78799 47.66040 -3.56380
#
# Velocity S-wave (km/s) = -4.68263 4.36743 -1.19427
# Velocity P-wave (km/s) = 2.82327 7.14311 4.63968
#
# Compressibility (1/GPa) = 0.01882023
#
# Stress axis : x y z
#
# Youngs Moduli (GPa) = 144.76829 112.37936 85.73054
#
# Poissons Ratio (x) = 0.32199 0.18975
# Poissons Ratio (y) = 0.41479 -0.06459
# Poissons Ratio (z) = 0.32042 -0.08467
#
# Static dielectric constant tensor:
#      x y z
#    x 5.000140 0.000000 0.156670 
#    y 0.000000 4.940810 0.000000 
#    z 0.156670 0.000000 4.563060 
# 
# 
# High freq. dielectric constant tensor:
#      x y z
#    x 2.022420 0.000000 0.010710 
#    y 0.000000 2.020370 0.000000 
#    z 0.010710 0.000000 1.986920 
# 
# From -- ./inp_files/5734.got.cif
#   From: 2010.06.25/outbox.cif.g09.slc.cpg/sg15_3_cif.got.tgz:5734.got - 2010.06.28 07:06:18.
