data_PCOD8154104
_publ_section_title
;
Structure prediction by ZEFSAII (Michael W. Deem and Ramdas Pophale) SiO2 
 PCOD8154104
Probable space group: C 2/C
;
_chemical_formula_sum "Si O2"
_cell_formula_units_Z 60
_cell_length_a 17.179295
_cell_length_b 18.267076
_cell_length_c 16.972639
_cell_angle_alpha 90.000000
_cell_angle_beta 150.195008
_cell_angle_gamma 90.000000
_cell_volume 2647.423655
_symmetry_space_group_name_H-M "C 2/C"
_symmetry_group_IT_number 15
_symmetry_cell_setting 'monoclinic'
loop_
_space_group_symop_operation_xyz
x,y,z
-x,y,1/2-z
-x,-y,-z
x,-y,1/2+z
1/2+x,1/2+y,z
1/2-x,1/2+y,1/2-z
1/2-x,1/2-y,-z
1/2+x,1/2-y,1/2+z
loop_
_atom_site_type_symbol
_atom_site_label
_atom_site_fract_x
_atom_site_fract_y
_atom_site_fract_z
Si Si1 0.984329 0.802954 0.895722
Si Si2 0.378931 0.990311 0.247142
Si Si3 0.228629 0.496055 0.021041
Si Si4 0.634006 0.624452 0.748841
Si Si5 0.674738 0.612910 0.113839
Si Si6 0.853329 0.725054 0.161973
Si Si7 0.000000 0.887094 0.750000
Si Si8 0.700623 0.160245 0.754812
O O1 0.858609 0.854764 0.829055
O O2 0.935811 0.718331 0.851110
O O3 0.020800 0.833565 0.841867
O O4 0.138947 0.799894 0.083478
O O5 0.565907 0.991714 0.425049
O O6 0.285548 0.042303 0.226347
O O7 0.326535 0.907112 0.210664
O O8 0.319831 0.020544 0.111051
O O9 0.319667 0.427009 0.137387
O O10 0.343576 0.565484 0.125812
O O11 0.485720 0.589874 0.572001
O O12 0.583969 0.703695 0.736632
O O13 0.784268 0.632614 0.822476
O O14 0.767799 0.673003 0.146901
O O15 0.000000 0.683349 0.250000
O O16 0.750000 0.750000 0.000000
#
# Coordination Sequence:
#
# PCOD8154104 Si02
#       8
#     8   8   8   8   8   8   4   8
#     4  11  27  47  75 103 148 194 244 310 355 443
#     4  11  26  46  71 105 147 186 243 302 361 436
#     4  11  26  45  70 106 145 185 241 301 360 434
#     4  11  25  44  72 103 147 194 235 294 362 445
#     4  11  25  46  70 106 147 190 241 294 368 437
#     4  12  24  39  65 101 140 186 231 285 353 433
#     4  12  26  48  74 104 138 200 246 300 374 418
#     4  11  26  49  72 107 144 191 249 300 366 431
#
# _framework density 22.663544000000002
#
# number of rings (size 3 to 8) (size 9 to 14) (size 15 to 20)
#    0.000    0.800    4.000    1.600    8.400    4.267 
#    0.000    0.000    0.000    0.000    0.000    0.000 
#    0.000    0.000    0.000    0.000    0.000    0.000 
#
# Total GULP energy -372084.893484 kJ/mol
# GULP energy per Si atom -12402.829783 kJ/mol
# Density = 2.261196 g / cm^3
# Si number density = 22.663544 Si / 1000 Ang^3
#
#
#
# Elastic Constant Matrix: (Units=GPa)
#
#
# Indices 1 2 3 4 5 6 
#
# 1 101.8686 49.7438 33.0613 0.0038 0.5071 -0.0030
# 2 49.7438 139.9688 38.2225 0.0084 9.7250 -0.0063
# 3 33.0613 38.2225 75.0538 0.0115 13.4111 -0.0110
# 4 0.0038 0.0084 0.0115 33.7660 0.0024 8.7138
# 5 0.5071 9.7250 13.4111 0.0024 37.4830 -0.0087
# 6 -0.0030 -0.0063 -0.0110 8.7138 -0.0087 40.2751
#
#
#
# Elastic Compliance Matrix: (Units=1/GPa)
#
#
# Indices 1 2 3 4 5 6 
#
# 1 0.012949 -0.003591 -0.004284 0.000001 0.002289 0.000000
# 2 -0.003591 0.009311 -0.002924 -0.000001 -0.001321 0.000000
# 3 -0.004284 -0.002924 0.017685 -0.000005 -0.005511 0.000004
# 4 0.000001 -0.000001 -0.000005 0.031367 -0.000001 -0.006786
# 5 0.002289 -0.001321 -0.005511 -0.000001 0.028962 0.000005
# 6 0.000000 0.000000 0.000004 -0.006786 0.000005 0.026298
#
#
# Mechanical properties :
#
#
# Convention : Reuss Voigt Hill
#
# Bulk Modulus (GPa) = 54.50700 62.10514 58.30607
# Shear Modulus (GPa) = 32.40736 35.36239 33.88488
#
# Velocity S-wave (km/s) = 3.78555 3.95437 3.87088
# Velocity P-wave (km/s) = 6.57342 6.95069 6.76469
#
# Compressibility (1/GPa) = 0.01834627
#
# Stress axis : x y z
#
# Youngs Moduli (GPa) = 77.22441 107.40060 56.54576
#
# Poissons Ratio (x) = 0.38569 0.24226
# Poissons Ratio (y) = 0.27733 0.16533
# Poissons Ratio (z) = 0.33086 0.31402
#
# Static dielectric constant tensor:
#      x y z
#    x 4.124650 -0.000200 0.075000 
#    y -0.000200 4.729180 -0.000250 
#    z 0.075000 -0.000250 3.990830 
# 
# 
# High freq. dielectric constant tensor:
#      x y z
#    x 1.904520 0.000000 0.008970 
#    y 0.000000 1.892420 0.000000 
#    z 0.008970 0.000000 1.893860 
# 
# From -- ./inp_files/211783.got.cif
#   From: 2010.06.25/outbox.cif.g09.slc.cpg/sg15_106_cif.got.tgz:211783.got - 2010.06.28 07:06:18.
