data_PCOD8154626
_publ_section_title
;
Structure prediction by ZEFSAII (Michael W. Deem and Ramdas Pophale) SiO2 
 PCOD8154626
Probable space group: C 2/C
;
_chemical_formula_sum "Si O2"
_cell_formula_units_Z 60
_cell_length_a 22.517961
_cell_length_b 19.575660
_cell_length_c 9.545688
_cell_angle_alpha 90.000000
_cell_angle_beta 138.425430
_cell_angle_gamma 90.000000
_cell_volume 2792.256582
_symmetry_space_group_name_H-M "C 2/C"
_symmetry_group_IT_number 15
_symmetry_cell_setting 'monoclinic'
loop_
_space_group_symop_operation_xyz
x,y,z
-x,y,1/2-z
-x,-y,-z
x,-y,1/2+z
1/2+x,1/2+y,z
1/2-x,1/2+y,1/2-z
1/2-x,1/2-y,-z
1/2+x,1/2-y,1/2+z
loop_
_atom_site_type_symbol
_atom_site_label
_atom_site_fract_x
_atom_site_fract_y
_atom_site_fract_z
Si Si1 0.816794 0.335432 0.877243
Si Si2 0.431213 0.777441 0.310670
Si Si3 0.000000 0.842285 0.750000
Si Si4 0.759101 0.041664 0.111953
Si Si5 0.299158 0.792243 0.318198
Si Si6 0.820428 0.077643 0.924133
Si Si7 0.561302 0.006461 0.240067
Si Si8 0.593248 0.845188 0.748358
O O1 0.741509 0.386798 0.804326
O O2 0.779784 0.259769 0.788745
O O3 0.844231 0.363196 0.773615
O O4 0.903508 0.325473 0.130541
O O5 0.470877 0.705040 0.329617
O O6 0.345023 0.765699 0.256445
O O7 0.500664 0.815746 0.531030
O O8 0.917085 0.890254 0.559765
O O9 0.801111 0.982085 0.279476
O O10 0.819209 0.047186 0.079060
O O11 0.655531 0.030769 0.888060
O O12 0.257844 0.866965 0.224858
O O13 0.364261 0.791736 0.567541
O O14 0.500000 0.971368 0.250000
O O15 0.578285 0.085412 0.307340
O O16 0.500000 0.000000 0.000000
#
# Coordination Sequence:
#
# PCOD8154626 Si02
#       8
#     8   8   4   8   8   8   8   8
#     4  12  23  43  71 100 134 189 240 288 349 427
#     4  12  22  43  69 105 132 182 240 294 356 420
#     4  12  26  48  80  98 136 194 254 308 350 420
#     4  12  26  45  70 104 145 192 235 290 359 440
#     4  12  24  44  71 100 142 183 232 303 361 421
#     4  12  26  49  72 103 143 190 246 296 366 426
#     4  12  24  40  63  99 139 180 217 272 347 427
#     4  12  24  39  64 102 144 175 220 290 360 421
#
# _framework density 21.487995999999999
#
# number of rings (size 3 to 8) (size 9 to 14) (size 15 to 20)
#    0.000    0.000    5.333    6.000    0.000    0.533 
#    0.000    0.000    0.000    0.000    0.000    0.000 
#    0.000    0.000    0.000    0.000    0.000    0.000 
#
# Total GULP energy -372119.604575 kJ/mol
# GULP energy per Si atom -12403.986819 kJ/mol
# Density = 2.143909 g / cm^3
# Si number density = 21.487996 Si / 1000 Ang^3
#
#
#
# Elastic Constant Matrix: (Units=GPa)
#
#
# Indices 1 2 3 4 5 6 
#
# 1 113.1774 30.3401 40.9455 0.0000 -8.0307 0.0000
# 2 30.3401 110.4101 33.8353 0.0000 2.3218 0.0000
# 3 40.9455 33.8353 82.2864 0.0000 -3.3146 0.0000
# 4 0.0000 0.0000 0.0000 36.9158 0.0000 5.5132
# 5 -8.0307 2.3218 -3.3146 0.0000 33.0563 0.0000
# 6 0.0000 0.0000 0.0000 5.5132 0.0000 37.5053
#
#
#
# Elastic Compliance Matrix: (Units=1/GPa)
#
#
# Indices 1 2 3 4 5 6 
#
# 1 0.011178 -0.001654 -0.004787 0.000000 0.002352 0.000000
# 2 -0.001654 0.010652 -0.003618 0.000000 -0.001513 0.000000
# 3 -0.004787 -0.003618 0.016051 0.000000 0.000701 0.000000
# 4 0.000000 0.000000 0.000000 0.027697 0.000000 -0.004071
# 5 0.002352 -0.001513 0.000701 0.000000 0.030999 0.000000
# 6 0.000000 0.000000 0.000000 -0.004071 0.000000 0.027261
#
#
# Mechanical properties :
#
#
# Convention : Reuss Voigt Hill
#
# Bulk Modulus (GPa) = 56.29900 57.34619 56.82260
# Shear Modulus (GPa) = 33.36061 34.87902 34.11982
#
# Velocity S-wave (km/s) = 3.94448 4.03325 3.98911
# Velocity P-wave (km/s) = 6.85583 6.95952 6.90787
#
# Compressibility (1/GPa) = 0.01776230
#
# Stress axis : x y z
#
# Youngs Moduli (GPa) = 89.46232 93.87729 62.30268
#
# Poissons Ratio (x) = 0.15528 0.29826
# Poissons Ratio (y) = 0.14797 0.22541
# Poissons Ratio (z) = 0.42828 0.33964
#
# Static dielectric constant tensor:
#      x y z
#    x 3.889030 0.000000 -0.148190 
#    y 0.000000 4.029110 0.000000 
#    z -0.148190 0.000000 3.753210 
# 
# 
# High freq. dielectric constant tensor:
#      x y z
#    x 1.850980 0.000000 -0.007150 
#    y 0.000000 1.846860 0.000000 
#    z -0.007150 0.000000 1.844170 
# 
# From -- ./inp_files/58117.got.cif
#   From: 2010.06.25/outbox.cif.g09.slc.cpg/sg15_30_cif.got.tgz:58117.got - 2010.06.28 07:06:18.
