data_PCOD8154988
_publ_section_title
;
Structure prediction by ZEFSAII (Michael W. Deem and Ramdas Pophale) SiO2 
 PCOD8154988
Probable space group: C 2/C
;
_chemical_formula_sum "Si O2"
_cell_formula_units_Z 36
_cell_length_a 24.925382
_cell_length_b 7.250502
_cell_length_c 8.868739
_cell_angle_alpha 90.000000
_cell_angle_beta 114.320879
_cell_angle_gamma 90.000000
_cell_volume 1460.531296
_symmetry_space_group_name_H-M "C 2/C"
_symmetry_group_IT_number 15
_symmetry_cell_setting 'monoclinic'
loop_
_space_group_symop_operation_xyz
x,y,z
-x,y,1/2-z
-x,-y,-z
x,-y,1/2+z
1/2+x,1/2+y,z
1/2-x,1/2+y,1/2-z
1/2-x,1/2-y,-z
1/2+x,1/2-y,1/2+z
loop_
_atom_site_type_symbol
_atom_site_label
_atom_site_fract_x
_atom_site_fract_y
_atom_site_fract_z
Si Si1 0.925158 0.341676 0.779332
Si Si2 0.000000 0.978260 0.250000
Si Si3 0.079913 0.681842 0.888292
Si Si4 0.689477 0.688611 0.357713
Si Si5 0.812218 0.194314 0.502666
O O1 0.968748 0.162434 0.831517
O O2 0.866700 0.324182 0.608222
O O3 0.905777 0.383239 0.926833
O O4 0.042448 0.476066 0.254217
O O5 0.049623 0.116993 0.369954
O O6 0.138797 0.676753 0.855537
O O7 0.750000 0.750000 0.500000
O O8 0.669454 0.495400 0.400892
O O9 0.694757 0.681994 0.184418
O O10 0.750000 0.250000 0.500000
#
# Coordination Sequence:
#
# PCOD8154988 Si02
#       5
#     8   4   8   8   8
#     4  12  27  48  75 110 151 198 252 310 374 445
#     4  12  28  48  80 108 154 200 260 306 378 438
#     4  12  27  48  75 110 151 198 252 310 374 445
#     4  12  25  45  73 107 148 194 246 308 375 445
#     4  12  25  45  73 107 148 194 246 308 375 445
#
# _framework density 24.648565999999999
#
# number of rings (size 3 to 8) (size 9 to 14) (size 15 to 20)
#    0.000    0.000    2.222    8.000    0.000    7.111 
#    0.000    0.000    0.000    0.000    0.000    0.000 
#    0.000    0.000    0.000    0.000    0.000    0.000 
#
# Total GULP energy -223044.576003 kJ/mol
# GULP energy per Si atom -12391.365334 kJ/mol
# Density = 2.459246 g / cm^3
# Si number density = 24.648566 Si / 1000 Ang^3
#
#
#
# Elastic Constant Matrix: (Units=GPa)
#
#
# Indices 1 2 3 4 5 6 
#
# 1 161.5321 43.4069 81.4218 0.0000 -16.6293 0.0000
# 2 43.4069 160.0644 40.4192 0.0000 -22.7676 0.0000
# 3 81.4218 40.4192 156.1677 0.0000 -68.1873 0.0000
# 4 0.0000 0.0000 0.0000 35.5235 0.0000 -6.8049
# 5 -16.6293 -22.7676 -68.1873 0.0000 48.3365 0.0000
# 6 0.0000 0.0000 0.0000 -6.8049 0.0000 28.9026
#
#
#
# Elastic Compliance Matrix: (Units=1/GPa)
#
#
# Indices 1 2 3 4 5 6 
#
# 1 0.010563 -0.001964 -0.009936 0.000000 -0.011308 0.000000
# 2 -0.001964 0.007113 0.000913 0.000000 0.003963 0.000000
# 3 -0.009936 0.000913 0.026149 0.000000 0.033900 0.000000
# 4 0.000000 0.000000 0.000000 0.029480 0.000000 0.006941
# 5 -0.011308 0.003963 0.033900 0.000000 0.066487 0.000000
# 6 0.000000 0.000000 0.000000 0.006941 0.000000 0.036233
#
#
# Mechanical properties :
#
#
# Convention : Reuss Voigt Hill
#
# Bulk Modulus (GPa) = 45.76321 89.80665 67.78493
# Shear Modulus (GPa) = 24.35669 43.38693 33.87181
#
# Velocity S-wave (km/s) = 3.14691 4.20005 3.71103
# Velocity P-wave (km/s) = 5.64009 7.74819 6.77662
#
# Compressibility (1/GPa) = 0.02185161
#
# Stress axis : x y z
#
# Youngs Moduli (GPa) = 94.67194 140.58486 38.24210
#
# Poissons Ratio (x) = 0.27608 0.37998
# Poissons Ratio (y) = 0.18592 -0.03493
# Poissons Ratio (z) = 0.94069 -0.12840
#
# Static dielectric constant tensor:
#      x y z
#    x 4.717260 0.000000 0.023560 
#    y 0.000000 5.294710 0.000000 
#    z 0.023560 0.000000 4.110320 
# 
# 
# High freq. dielectric constant tensor:
#      x y z
#    x 2.008960 0.000000 -0.002870 
#    y 0.000000 2.006460 0.000000 
#    z -0.002870 0.000000 1.970940 
# 
# From -- ./inp_files/64620.got.cif
#   From: 2010.06.25/outbox.cif.g09.slc.cpg/sg15_33_cif.got.tgz:64620.got - 2010.06.28 07:06:18.
