data_PCOD8154390
_publ_section_title
;
Structure prediction by ZEFSAII (Michael W. Deem and Ramdas Pophale) SiO2 
 PCOD8154390
Probable space group: C 2/C
;
_chemical_formula_sum "Si O2"
_cell_formula_units_Z 44
_cell_length_a 17.716144
_cell_length_b 6.741590
_cell_length_c 18.323215
_cell_angle_alpha 90.000000
_cell_angle_beta 108.179781
_cell_angle_gamma 90.000000
_cell_volume 2079.191077
_symmetry_space_group_name_H-M "C 2/C"
_symmetry_group_IT_number 15
_symmetry_cell_setting 'monoclinic'
loop_
_space_group_symop_operation_xyz
x,y,z
-x,y,1/2-z
-x,-y,-z
x,-y,1/2+z
1/2+x,1/2+y,z
1/2-x,1/2+y,1/2-z
1/2-x,1/2-y,-z
1/2+x,1/2-y,1/2+z
loop_
_atom_site_type_symbol
_atom_site_label
_atom_site_fract_x
_atom_site_fract_y
_atom_site_fract_z
Si Si1 0.705945 0.781791 0.911194
Si Si2 0.046675 0.198714 0.531565
Si Si3 0.500000 0.217144 0.750000
Si Si4 0.666581 0.573571 0.301299
Si Si5 0.706885 0.418825 0.157064
Si Si6 0.049178 0.501769 0.903033
O O1 0.676485 0.570098 0.873452
O O2 0.766574 0.874465 0.870937
O O3 0.634126 0.933794 0.899706
O O4 0.750000 0.750000 0.000000
O O5 0.131496 0.160205 0.591455
O O6 0.061016 0.317723 0.461896
O O7 0.994891 0.319328 0.573473
O O8 0.000000 0.000000 0.500000
O O9 0.423798 0.357039 0.727125
O O10 0.496344 0.077170 0.819735
O O11 0.685473 0.452121 0.234326
O O12 0.723718 0.759406 0.328253
#
# Coordination Sequence:
#
# PCOD8154390 Si02
#       6
#     8   8   4   8   8   8
#     4  12  27  46  75 106 143 185 246 300 358 427
#     4  11  26  47  75 105 146 191 235 295 366 426
#     4  12  28  46  72 104 148 188 242 290 364 428
#     4  12  28  47  71 108 144 194 234 299 360 430
#     4  12  26  47  75 104 147 186 241 292 363 424
#     4  11  27  46  70 109 144 188 239 295 353 435
#
# _framework density 21.162078000000001
#
# number of rings (size 3 to 8) (size 9 to 14) (size 15 to 20)
#    0.000    0.364    3.636    3.273   12.727    4.364 
#    0.000    0.000    0.000    0.000    0.000    0.000 
#    0.000    0.000    0.000    0.000    0.000    0.000 
#
# Total GULP energy -272994.641969 kJ/mol
# GULP energy per Si atom -12408.847362 kJ/mol
# Density = 2.111391 g / cm^3
# Si number density = 21.162078 Si / 1000 Ang^3
#
#
#
# Elastic Constant Matrix: (Units=GPa)
#
#
# Indices 1 2 3 4 5 6 
#
# 1 93.6877 43.7309 52.0655 0.0000 14.1984 0.0000
# 2 43.7309 130.7796 69.2548 0.0000 5.1492 0.0000
# 3 52.0655 69.2548 165.4032 0.0000 8.5487 0.0000
# 4 0.0000 0.0000 0.0000 66.3729 0.0000 -4.4384
# 5 14.1984 5.1492 8.5487 0.0000 43.8623 0.0000
# 6 0.0000 0.0000 0.0000 -4.4384 0.0000 44.1459
#
#
#
# Elastic Compliance Matrix: (Units=1/GPa)
#
#
# Indices 1 2 3 4 5 6 
#
# 1 0.014348 -0.003034 -0.003055 0.000000 -0.003693 0.000000
# 2 -0.003034 0.010472 -0.003452 0.000000 0.000426 0.000000
# 3 -0.003055 -0.003452 0.008466 0.000000 -0.000256 0.000000
# 4 0.000000 0.000000 0.000000 0.015168 0.000000 0.001525
# 5 -0.003693 0.000426 -0.000256 0.000000 0.023994 0.000000
# 6 0.000000 0.000000 0.000000 0.001525 0.000000 0.022805
#
#
# Mechanical properties :
#
#
# Convention : Reuss Voigt Hill
#
# Bulk Modulus (GPa) = 70.40422 79.99700 75.20061
# Shear Modulus (GPa) = 41.99221 45.86415 43.92818
#
# Velocity S-wave (km/s) = 4.45940 4.66046 4.56103
# Velocity P-wave (km/s) = 7.73668 8.17581 7.95928
#
# Compressibility (1/GPa) = 0.01420369
#
# Stress axis : x y z
#
# Youngs Moduli (GPa) = 69.69841 95.49127 118.12178
#
# Poissons Ratio (x) = 0.28977 0.36085
# Poissons Ratio (y) = 0.21150 0.40770
# Poissons Ratio (z) = 0.21292 0.32959
#
# Static dielectric constant tensor:
#      x y z
#    x 3.873760 0.000000 -0.121030 
#    y 0.000000 3.925800 0.000000 
#    z -0.121030 0.000000 4.044580 
# 
# 
# High freq. dielectric constant tensor:
#      x y z
#    x 1.845290 0.000000 -0.001780 
#    y 0.000000 1.846580 0.000000 
#    z -0.001780 0.000000 1.850890 
# 
# From -- ./inp_files/246532.got.cif
#   From: 2010.06.25/outbox.cif.g09.slc.cpg/sg15_124_cif.got.tgz:246532.got - 2010.06.28 07:06:18.
