data_PCOD8154600
_publ_section_title
;
Structure prediction by ZEFSAII (Michael W. Deem and Ramdas Pophale) SiO2 
 PCOD8154600
Probable space group: C 2/C
;
_chemical_formula_sum "Si O2"
_cell_formula_units_Z 44
_cell_length_a 20.679536
_cell_length_b 18.001046
_cell_length_c 16.316774
_cell_angle_alpha 90.000000
_cell_angle_beta 160.870390
_cell_angle_gamma 90.000000
_cell_volume 1990.478470
_symmetry_space_group_name_H-M "C 2/C"
_symmetry_group_IT_number 15
_symmetry_cell_setting 'monoclinic'
loop_
_space_group_symop_operation_xyz
x,y,z
-x,y,1/2-z
-x,-y,-z
x,-y,1/2+z
1/2+x,1/2+y,z
1/2-x,1/2+y,1/2-z
1/2-x,1/2-y,-z
1/2+x,1/2-y,1/2+z
loop_
_atom_site_type_symbol
_atom_site_label
_atom_site_fract_x
_atom_site_fract_y
_atom_site_fract_z
Si Si1 0.385355 0.316660 0.691467
Si Si2 0.324541 0.682933 0.819093
Si Si3 0.307191 0.040504 0.563178
Si Si4 0.459468 0.080980 0.919505
Si Si5 0.350814 0.337905 0.918740
Si Si6 0.500000 0.423152 0.250000
O O1 0.500000 0.346537 0.750000
O O2 0.250000 0.250000 0.500000
O O3 0.268104 0.389812 0.582440
O O4 0.526814 0.286558 0.932676
O O5 0.180247 0.620754 0.681690
O O6 0.190936 0.750022 0.625508
O O7 0.452528 0.647821 0.898969
O O8 0.500000 0.007150 0.750000
O O9 0.347733 0.075696 0.700277
O O10 0.150864 0.974122 0.379811
O O11 0.664574 0.123546 0.152931
O O12 0.500000 0.000000 0.000000
O O13 0.380575 0.370960 0.044784
#
# Coordination Sequence:
#
# PCOD8154600 Si02
#       6
#     8   8   8   8   8   4
#     4  12  22  41  71 103 144 179 232 295 360 436
#     4  12  25  48  73 106 147 190 241 299 365 427
#     4  12  25  47  72 106 144 187 232 300 365 430
#     4  12  25  47  74 111 145 188 246 297 364 440
#     4  12  27  47  75 104 143 195 242 301 363 428
#     4  12  28  48  70 108 142 188 256 294 356 432
#
# _framework density 22.105239000000001
#
# number of rings (size 3 to 8) (size 9 to 14) (size 15 to 20)
#    0.000    0.000    6.364    3.818    2.545    1.455 
#    0.000    0.000    0.000    0.000    0.000    0.000 
#    0.000    0.000    0.000    0.000    0.000    0.000 
#
# Total GULP energy -272932.764262 kJ/mol
# GULP energy per Si atom -12406.034739 kJ/mol
# Density = 2.205493 g / cm^3
# Si number density = 22.105239 Si / 1000 Ang^3
#
#
#
# Elastic Constant Matrix: (Units=GPa)
#
#
# Indices 1 2 3 4 5 6 
#
# 1 70.3820 36.6071 34.5705 -0.0003 14.7791 -0.0001
# 2 36.6071 141.1038 61.1197 0.0000 6.1332 0.0001
# 3 34.5705 61.1197 111.7399 0.0050 13.8150 0.0034
# 4 -0.0003 0.0000 0.0050 38.0432 0.0019 -8.6398
# 5 14.7791 6.1332 13.8150 0.0019 55.4261 0.0012
# 6 -0.0001 0.0001 0.0034 -8.6398 0.0012 26.1244
#
#
#
# Elastic Compliance Matrix: (Units=1/GPa)
#
#
# Indices 1 2 3 4 5 6 
#
# 1 0.018305 -0.003057 -0.003539 0.000001 -0.003661 0.000001
# 2 -0.003057 0.009801 -0.004521 0.000001 0.000858 0.000001
# 3 -0.003539 -0.004521 0.012731 -0.000002 -0.001729 -0.000002
# 4 0.000001 0.000001 -0.000002 0.028420 -0.000001 0.009399
# 5 -0.003661 0.000858 -0.001729 -0.000001 0.019354 -0.000001
# 6 0.000001 0.000001 -0.000002 0.009399 -0.000001 0.041387
#
#
# Mechanical properties :
#
#
# Convention : Reuss Voigt Hill
#
# Bulk Modulus (GPa) = 53.75363 65.31338 59.53351
# Shear Modulus (GPa) = 31.55893 36.64731 34.10312
#
# Velocity S-wave (km/s) = 3.78255 4.07610 3.93206
# Velocity P-wave (km/s) = 6.59142 7.19468 6.89965
#
# Compressibility (1/GPa) = 0.01860339
#
# Stress axis : x y z
#
# Youngs Moduli (GPa) = 54.62998 102.02785 78.54845
#
# Poissons Ratio (x) = 0.31191 0.27794
# Poissons Ratio (y) = 0.16701 0.35514
# Poissons Ratio (z) = 0.19331 0.46130
#
# Static dielectric constant tensor:
#      x y z
#    x 4.042280 0.000000 0.160560 
#    y 0.000000 3.959670 0.000000 
#    z 0.160560 0.000000 3.594300 
# 
# 
# High freq. dielectric constant tensor:
#      x y z
#    x 1.863260 0.000000 0.011750 
#    y 0.000000 1.875860 0.000000 
#    z 0.011750 0.000000 1.884860 
# 
# From -- ./inp_files/216204.got.cif
#   From: 2010.06.25/outbox.cif.g09.slc.cpg/sg15_109_cif.got.tgz:216204.got - 2010.06.28 07:06:18.
