data_PCOD8154133
_publ_section_title
;
Structure prediction by ZEFSAII (Michael W. Deem and Ramdas Pophale) SiO2 
 PCOD8154133
Probable space group: C 2/C
;
_chemical_formula_sum "Si O2"
_cell_formula_units_Z 44
_cell_length_a 15.658332
_cell_length_b 17.347118
_cell_length_c 9.036073
_cell_angle_alpha 90.000000
_cell_angle_beta 55.558662
_cell_angle_gamma 90.000000
_cell_volume 2024.191237
_symmetry_space_group_name_H-M "C 2/C"
_symmetry_group_IT_number 15
_symmetry_cell_setting 'monoclinic'
loop_
_space_group_symop_operation_xyz
x,y,z
-x,y,1/2-z
-x,-y,-z
x,-y,1/2+z
1/2+x,1/2+y,z
1/2-x,1/2+y,1/2-z
1/2-x,1/2-y,-z
1/2+x,1/2-y,1/2+z
loop_
_atom_site_type_symbol
_atom_site_label
_atom_site_fract_x
_atom_site_fract_y
_atom_site_fract_z
Si Si1 0.500248 0.210459 0.999798
Si Si2 0.396439 0.457683 0.040798
Si Si3 0.154347 0.695285 0.095234
Si Si4 0.257272 0.458597 0.449664
Si Si5 0.563938 0.950446 0.049529
Si Si6 0.500000 0.668024 0.250000
O O1 0.445668 0.140738 0.967102
O O2 0.534022 0.278183 0.853843
O O3 0.605978 0.189163 0.978512
O O4 0.420137 0.232661 0.208231
O O5 0.330090 0.427372 0.245379
O O6 0.500000 0.500000 0.000000
O O7 0.329647 0.517435 0.013587
O O8 0.414300 0.387314 0.908233
O O9 0.250000 0.750000 0.000000
O O10 0.187857 0.607649 0.094185
O O11 0.184209 0.526193 0.454888
O O12 0.500000 0.975682 0.250000
O O13 0.500000 0.000000 0.000000
#
# Coordination Sequence:
#
# PCOD8154133 Si02
#       6
#     8   8   8   8   8   4
#     4  11  25  46  70 106 145 189 230 306 365 422
#     4  12  26  48  70 107 143 192 245 299 358 436
#     4  11  25  45  70 104 144 190 242 290 367 439
#     4  12  25  44  77 107 140 193 245 299 368 433
#     4  12  23  44  70 106 143 181 236 296 361 430
#     4  12  26  48  72 100 152 186 236 298 364 422
#
# _framework density 21.737075999999998
#
# number of rings (size 3 to 8) (size 9 to 14) (size 15 to 20)
#    0.000    0.364    4.545    4.364    2.545    1.455 
#    0.000    2.727    0.000    0.000    0.000    0.000 
#    0.000    0.000    0.000    0.000    0.000    0.000 
#
# Total GULP energy -272593.376128 kJ/mol
# GULP energy per Si atom -12390.608006 kJ/mol
# Density = 2.168760 g / cm^3
# Si number density = 21.737076 Si / 1000 Ang^3
#
#
#
# Elastic Constant Matrix: (Units=GPa)
#
#
# Indices 1 2 3 4 5 6 
#
# 1 167.4770 56.9853 31.6459 0.0000 3.1416 0.0000
# 2 56.9853 114.0173 25.6025 0.0000 4.8775 0.0000
# 3 31.6459 25.6025 120.0700 0.0000 10.3427 0.0000
# 4 0.0000 0.0000 0.0000 47.2572 0.0000 1.0004
# 5 3.1416 4.8775 10.3427 0.0000 35.4834 0.0000
# 6 0.0000 0.0000 0.0000 1.0004 0.0000 32.6552
#
#
#
# Elastic Compliance Matrix: (Units=1/GPa)
#
#
# Indices 1 2 3 4 5 6 
#
# 1 0.007360 -0.003410 -0.001228 0.000000 0.000175 0.000000
# 2 -0.003410 0.010809 -0.001338 0.000000 -0.000794 0.000000
# 3 -0.001228 -0.001338 0.009142 0.000000 -0.002372 0.000000
# 4 0.000000 0.000000 0.000000 0.021175 0.000000 -0.000649
# 5 0.000175 -0.000794 -0.002372 0.000000 0.028967 0.000000
# 6 0.000000 0.000000 0.000000 -0.000649 0.000000 0.030643
#
#
# Mechanical properties :
#
#
# Convention : Reuss Voigt Hill
#
# Bulk Modulus (GPa) = 65.10561 70.00351 67.55456
# Shear Modulus (GPa) = 39.94662 42.23454 41.09058
#
# Velocity S-wave (km/s) = 4.29151 4.41270 4.35253
# Velocity P-wave (km/s) = 7.38732 7.63132 7.51031
#
# Compressibility (1/GPa) = 0.01535966
#
# Stress axis : x y z
#
# Youngs Moduli (GPa) = 135.86843 92.51211 109.38992
#
# Poissons Ratio (x) = 0.31550 0.13430
# Poissons Ratio (y) = 0.46336 0.14633
# Poissons Ratio (z) = 0.16681 0.12375
#
# Static dielectric constant tensor:
#      x y z
#    x 4.028900 0.000000 0.056060 
#    y 0.000000 3.063290 0.000000 
#    z 0.056060 0.000000 4.195270 
# 
# 
# High freq. dielectric constant tensor:
#      x y z
#    x 1.859720 0.000000 0.008920 
#    y 0.000000 1.849800 0.000000 
#    z 0.008920 0.000000 1.877440 
# 
# From -- ./inp_files/39530.got.cif
#   From: 2010.06.25/outbox.cif.g09.slc.cpg/sg15_20_cif.got.tgz:39530.got - 2010.06.28 07:06:18.
