data_PCOD8154893
_publ_section_title
;
Structure prediction by ZEFSAII (Michael W. Deem and Ramdas Pophale) SiO2 
 PCOD8154893
Probable space group: C 2/C
;
_chemical_formula_sum "Si O2"
_cell_formula_units_Z 40
_cell_length_a 5.389294
_cell_length_b 18.080646
_cell_length_c 18.219464
_cell_angle_alpha 90.000000
_cell_angle_beta 77.781560
_cell_angle_gamma 90.000000
_cell_volume 1735.124209
_symmetry_space_group_name_H-M "C 2/C"
_symmetry_group_IT_number 15
_symmetry_cell_setting 'monoclinic'
loop_
_space_group_symop_operation_xyz
x,y,z
-x,y,1/2-z
-x,-y,-z
x,-y,1/2+z
1/2+x,1/2+y,z
1/2-x,1/2+y,1/2-z
1/2-x,1/2-y,-z
1/2+x,1/2-y,1/2+z
loop_
_atom_site_type_symbol
_atom_site_label
_atom_site_fract_x
_atom_site_fract_y
_atom_site_fract_z
Si Si1 0.361626 0.699201 0.056717
Si Si2 0.937991 0.613578 0.170530
Si Si3 0.144916 0.258171 0.170818
Si Si4 0.410357 0.028378 0.583451
Si Si5 0.594954 0.618591 0.918295
O O1 0.170258 0.643917 0.108296
O O2 0.476275 0.756191 0.107959
O O3 0.250000 0.750000 0.000000
O O4 0.569761 0.646204 0.004458
O O5 0.000000 0.594427 0.250000
O O6 0.721286 0.675058 0.185391
O O7 0.833226 0.539363 0.140387
O O8 0.383575 0.311085 0.138266
O O9 0.000000 0.291736 0.250000
O O10 0.645413 0.072227 0.605349
O O11 0.155863 0.075977 0.591311
O O12 0.500000 0.000000 0.500000
#
# Coordination Sequence:
#
# PCOD8154893 Si02
#       5
#     8   8   8   8   8
#     4  12  24  46  78 114 147 194 264 322 379 458
#     4  12  27  47  75 111 152 201 255 322 388 462
#     4  12  27  47  77 111 155 202 255 324 389 461
#     4  12  27  48  76 108 151 198 251 313 381 458
#     4  12  27  48  78 111 149 197 255 313 378 462
#
# _framework density 23.053106
#
# number of rings (size 3 to 8) (size 9 to 14) (size 15 to 20)
#    0.000    0.000    6.000    3.600    2.800    0.800 
#    0.000    4.000    0.000    0.000    0.000    0.000 
#    0.000    0.000    0.000    0.000    0.000    0.000 
#
# Total GULP energy -248056.196668 kJ/mol
# GULP energy per Si atom -12402.809833 kJ/mol
# Density = 2.300064 g / cm^3
# Si number density = 23.053106 Si / 1000 Ang^3
#
#
#
# Elastic Constant Matrix: (Units=GPa)
#
#
# Indices 1 2 3 4 5 6 
#
# 1 141.2213 59.4256 54.3660 0.0000 1.4839 0.0000
# 2 59.4256 124.7644 68.2223 0.0000 6.8064 0.0000
# 3 54.3660 68.2223 179.9295 0.0000 -0.3275 0.0000
# 4 0.0000 0.0000 0.0000 28.6504 0.0000 -2.5040
# 5 1.4839 6.8064 -0.3275 0.0000 42.0350 0.0000
# 6 0.0000 0.0000 0.0000 -2.5040 0.0000 40.7982
#
#
#
# Elastic Compliance Matrix: (Units=1/GPa)
#
#
# Indices 1 2 3 4 5 6 
#
# 1 0.009130 -0.003600 -0.001393 0.000000 0.000250 0.000000
# 2 -0.003600 0.011650 -0.003332 0.000000 -0.001785 0.000000
# 3 -0.001393 -0.003332 0.007243 0.000000 0.000645 0.000000
# 4 0.000000 0.000000 0.000000 0.035092 0.000000 0.002154
# 5 0.000250 -0.001785 0.000645 0.000000 0.024075 0.000000
# 6 0.000000 0.000000 0.000000 0.002154 0.000000 0.024643
#
#
# Mechanical properties :
#
#
# Convention : Reuss Voigt Hill
#
# Bulk Modulus (GPa) = 87.94334 89.99366 88.96850
# Shear Modulus (GPa) = 37.80014 39.89013 38.84513
#
# Velocity S-wave (km/s) = 4.05371 4.16427 4.10936
# Velocity P-wave (km/s) = 7.75507 7.88948 7.82256
#
# Compressibility (1/GPa) = 0.01137096
#
# Stress axis : x y z
#
# Youngs Moduli (GPa) = 109.53163 85.83966 138.05813
#
# Poissons Ratio (x) = 0.30906 0.19231
# Poissons Ratio (y) = 0.39437 0.46007
# Poissons Ratio (z) = 0.15257 0.28606
#
# Static dielectric constant tensor:
#      x y z
#    x 4.130500 0.000000 -0.081750 
#    y 0.000000 4.538080 0.000000 
#    z -0.081750 0.000000 4.313320 
# 
# 
# High freq. dielectric constant tensor:
#      x y z
#    x 1.910300 0.000000 -0.008370 
#    y 0.000000 1.922740 0.000000 
#    z -0.008370 0.000000 1.922980 
# 
# From -- ./inp_files/184213.got.cif
#   From: 2010.06.25/outbox.cif.g09.slc.cpg/sg15_93_cif.got.tgz:184213.got - 2010.06.28 07:06:18.
