data_PCOD8154313
_publ_section_title
;
Structure prediction by ZEFSAII (Michael W. Deem and Ramdas Pophale) SiO2 
 PCOD8154313
Probable space group: C 2/C
;
_chemical_formula_sum "Si O2"
_cell_formula_units_Z 52
_cell_length_a 18.686247
_cell_length_b 12.832861
_cell_length_c 16.556018
_cell_angle_alpha 90.000000
_cell_angle_beta 146.872611
_cell_angle_gamma 90.000000
_cell_volume 2169.669083
_symmetry_space_group_name_H-M "C 2/C"
_symmetry_group_IT_number 15
_symmetry_cell_setting 'monoclinic'
loop_
_space_group_symop_operation_xyz
x,y,z
-x,y,1/2-z
-x,-y,-z
x,-y,1/2+z
1/2+x,1/2+y,z
1/2-x,1/2+y,1/2-z
1/2-x,1/2-y,-z
1/2+x,1/2-y,1/2+z
loop_
_atom_site_type_symbol
_atom_site_label
_atom_site_fract_x
_atom_site_fract_y
_atom_site_fract_z
Si Si1 0.278510 0.657447 0.135880
Si Si2 0.692250 0.541649 0.492709
Si Si3 0.046302 0.807723 0.961057
Si Si4 0.113110 0.219815 0.700631
Si Si5 0.682507 0.953632 0.113504
Si Si6 0.599757 0.042762 0.200173
Si Si7 0.500000 0.625718 0.750000
O O1 0.405799 0.719373 0.288576
O O2 0.281239 0.544868 0.181613
O O3 0.287745 0.639864 0.048214
O O4 0.146032 0.716033 0.032763
O O5 0.599529 0.581549 0.477899
O O6 0.832873 0.503285 0.656486
O O7 0.626213 0.445726 0.384234
O O8 0.031462 0.814130 0.043808
O O9 0.249238 0.157694 0.831767
O O10 0.151586 0.340885 0.731817
O O11 0.025511 0.198311 0.696730
O O12 0.636318 0.965812 0.161717
O O13 0.556649 0.955590 0.935272
#
# Coordination Sequence:
#
# PCOD8154313 Si02
#       7
#     8   8   8   8   8   8   4
#     4  12  27  49  76 117 155 202 260 321 387 461
#     4  12  25  49  71 110 157 199 257 316 388 455
#     4  12  27  46  82 111 150 208 257 321 387 459
#     4  12  27  48  80 107 152 199 266 316 387 465
#     4  11  25  51  72 113 153 193 262 317 386 466
#     4  11  28  45  79 110 148 206 251 320 395 457
#     4  12  28  46  70 110 150 194 264 316 374 466
#
# _framework density 23.966787
#
# number of rings (size 3 to 8) (size 9 to 14) (size 15 to 20)
#    0.000    0.308    6.154    0.462    8.615    3.692 
#    0.000    0.000    0.000    0.000    0.000    0.000 
#    0.000    0.000    0.000    0.000    0.000    0.000 
#
# Total GULP energy -322606.663944 kJ/mol
# GULP energy per Si atom -12407.948613 kJ/mol
# Density = 2.391224 g / cm^3
# Si number density = 23.966787 Si / 1000 Ang^3
#
#
#
# Elastic Constant Matrix: (Units=GPa)
#
#
# Indices 1 2 3 4 5 6 
#
# 1 125.5604 30.5795 58.9704 0.0000 -18.0490 0.0000
# 2 30.5795 79.8337 42.1958 0.0000 3.9072 0.0000
# 3 58.9704 42.1958 202.4620 -0.0001 -3.6406 -0.0001
# 4 0.0000 0.0000 -0.0001 31.0984 -0.0001 5.9242
# 5 -18.0490 3.9072 -3.6406 -0.0001 43.3997 0.0000
# 6 0.0000 0.0000 -0.0001 5.9242 0.0000 37.5387
#
#
#
# Elastic Compliance Matrix: (Units=1/GPa)
#
#
# Indices 1 2 3 4 5 6 
#
# 1 0.010418 -0.002971 -0.002336 0.000000 0.004404 0.000000
# 2 -0.002971 0.015024 -0.002316 0.000000 -0.002783 0.000000
# 3 -0.002336 -0.002316 0.006098 0.000000 -0.000251 0.000000
# 4 0.000000 0.000000 0.000000 0.033153 0.000000 -0.005232
# 5 0.004404 -0.002783 -0.000251 0.000000 0.025103 0.000000
# 6 0.000000 0.000000 0.000000 -0.005232 0.000000 0.027465
#
#
# Mechanical properties :
#
#
# Convention : Reuss Voigt Hill
#
# Bulk Modulus (GPa) = 61.37310 74.59415 67.98362
# Shear Modulus (GPa) = 36.24805 40.81473 38.53139
#
# Velocity S-wave (km/s) = 3.89321 4.13118 4.01396
# Velocity P-wave (km/s) = 6.77293 7.34487 7.06469
#
# Compressibility (1/GPa) = 0.01629378
#
# Stress axis : x y z
#
# Youngs Moduli (GPa) = 95.98591 66.55813 163.99570
#
# Poissons Ratio (x) = 0.19778 0.38309
# Poissons Ratio (y) = 0.28522 0.37979
# Poissons Ratio (z) = 0.22422 0.15414
#
# Static dielectric constant tensor:
#      x y z
#    x 4.329840 0.000000 -0.175080 
#    y 0.000000 4.253900 0.000000 
#    z -0.175080 0.000000 4.384200 
# 
# 
# High freq. dielectric constant tensor:
#      x y z
#    x 1.952150 0.000000 -0.005730 
#    y 0.000000 1.951790 0.000000 
#    z -0.005730 0.000000 1.955960 
# 
# From -- ./inp_files/215606.got.cif
#   From: 2010.06.25/outbox.cif.g09.slc.cpg/sg15_108_cif.got.tgz:215606.got - 2010.06.28 07:06:18.
