data_PCOD8154671
_publ_section_title
;
Structure prediction by ZEFSAII (Michael W. Deem and Ramdas Pophale) SiO2 
 PCOD8154671
Probable space group: C 2/C
;
_chemical_formula_sum "Si O2"
_cell_formula_units_Z 36
_cell_length_a 19.366315
_cell_length_b 6.717874
_cell_length_c 18.046801
_cell_angle_alpha 90.000000
_cell_angle_beta 40.687067
_cell_angle_gamma 90.000000
_cell_volume 1530.658175
_symmetry_space_group_name_H-M "C 2/C"
_symmetry_group_IT_number 15
_symmetry_cell_setting 'monoclinic'
loop_
_space_group_symop_operation_xyz
x,y,z
-x,y,1/2-z
-x,-y,-z
x,-y,1/2+z
1/2+x,1/2+y,z
1/2-x,1/2+y,1/2-z
1/2-x,1/2-y,-z
1/2+x,1/2-y,1/2+z
loop_
_atom_site_type_symbol
_atom_site_label
_atom_site_fract_x
_atom_site_fract_y
_atom_site_fract_z
Si Si1 0.500000 0.575425 0.250000
Si Si2 0.631666 0.787200 0.612668
Si Si3 0.114167 0.101806 0.916643
Si Si4 0.483784 0.874719 0.387099
Si Si5 0.670656 0.885938 0.745163
O O1 0.413492 0.434757 0.358496
O O2 0.535912 0.717912 0.287566
O O3 0.750000 0.750000 0.500000
O O4 0.615885 0.855984 0.709789
O O5 0.581534 0.947564 0.598419
O O6 0.160016 0.187365 0.802301
O O7 0.206622 0.947683 0.865041
O O8 0.100770 0.273636 0.988703
O O9 0.000000 0.000000 0.000000
O O10 0.588152 0.952215 0.347203
#
# Coordination Sequence:
#
# PCOD8154671 Si02
#       5
#     4   8   8   8   8
#     4  12  22  48  72 110 150 180 242 304 366 426
#     4  12  27  44  79 109 144 191 244 305 368 438
#     4  12  29  47  77 105 152 203 243 304 372 444
#     4  12  26  49  76 113 146 192 251 303 369 444
#     4  12  26  50  70 111 147 193 247 304 370 438
#
# _framework density 23.519292
#
# number of rings (size 3 to 8) (size 9 to 14) (size 15 to 20)
#    0.000    0.000    4.444    4.667    9.333    1.778 
#    0.000    0.000    0.000    0.000    0.000    0.000 
#    0.000    0.000    0.000    0.000    0.000    0.000 
#
# Total GULP energy -223080.238613 kJ/mol
# GULP energy per Si atom -12393.346590 kJ/mol
# Density = 2.346576 g / cm^3
# Si number density = 23.519292 Si / 1000 Ang^3
#
#
#
# Elastic Constant Matrix: (Units=GPa)
#
#
# Indices 1 2 3 4 5 6 
#
# 1 86.1594 39.5744 23.5304 -0.0071 -13.2620 0.0071
# 2 39.5744 118.6026 34.2688 -0.0178 -15.1012 0.0244
# 3 23.5304 34.2688 119.0265 -0.0038 -28.6343 0.0089
# 4 -0.0071 -0.0178 -0.0038 61.1888 0.0022 0.4276
# 5 -13.2620 -15.1012 -28.6343 0.0022 49.6826 -0.0055
# 6 0.0071 0.0244 0.0089 0.4276 -0.0055 30.4904
#
#
#
# Elastic Compliance Matrix: (Units=1/GPa)
#
#
# Indices 1 2 3 4 5 6 
#
# 1 0.014106 -0.004139 -0.001154 0.000000 0.001842 0.000001
# 2 -0.004139 0.010505 -0.001978 0.000002 0.000948 -0.000007
# 3 -0.001154 -0.001978 0.010426 0.000000 0.005100 0.000000
# 4 0.000000 0.000002 0.000000 0.016344 0.000000 -0.000229
# 5 0.001842 0.000948 0.005100 0.000000 0.023847 0.000002
# 6 0.000001 -0.000007 0.000000 -0.000229 0.000002 0.032800
#
#
# Mechanical properties :
#
#
# Convention : Reuss Voigt Hill
#
# Bulk Modulus (GPa) = 48.79167 57.61507 53.20337
# Shear Modulus (GPa) = 38.63926 43.36670 41.00298
#
# Velocity S-wave (km/s) = 4.05764 4.29870 4.17991
# Velocity P-wave (km/s) = 6.53781 7.01345 6.77980
#
# Compressibility (1/GPa) = 0.02049530
#
# Stress axis : x y z
#
# Youngs Moduli (GPa) = 70.89109 95.19434 95.91452
#
# Poissons Ratio (x) = 0.39400 0.11067
# Poissons Ratio (y) = 0.29341 0.18973
# Poissons Ratio (z) = 0.08179 0.18831
#
# Static dielectric constant tensor:
#      x y z
#    x 4.514780 -0.000030 0.264240 
#    y -0.000030 4.571620 0.000000 
#    z 0.264240 0.000000 4.530750 
# 
# 
# High freq. dielectric constant tensor:
#      x y z
#    x 1.927960 0.000000 -0.002800 
#    y 0.000000 1.943330 0.000000 
#    z -0.002800 0.000000 1.951260 
# 
# From -- ./inp_files/179937.got.cif
#   From: 2010.06.25/outbox.cif.g09.slc.cpg/sg15_90_cif.got.tgz:179937.got - 2010.06.28 07:06:18.
