data_PCOD8154536
_publ_section_title
;
Structure prediction by ZEFSAII (Michael W. Deem and Ramdas Pophale) SiO2 
 PCOD8154536
Probable space group: C 2/C
;
_chemical_formula_sum "Si O2"
_cell_formula_units_Z 48
_cell_length_a 19.799625
_cell_length_b 13.749191
_cell_length_c 13.749710
_cell_angle_alpha 90.000000
_cell_angle_beta 139.935643
_cell_angle_gamma 90.000000
_cell_volume 2409.216568
_symmetry_space_group_name_H-M "C 2/C"
_symmetry_group_IT_number 15
_symmetry_cell_setting 'monoclinic'
loop_
_space_group_symop_operation_xyz
x,y,z
-x,y,1/2-z
-x,-y,-z
x,-y,1/2+z
1/2+x,1/2+y,z
1/2-x,1/2+y,1/2-z
1/2-x,1/2-y,-z
1/2+x,1/2-y,1/2+z
loop_
_atom_site_type_symbol
_atom_site_label
_atom_site_fract_x
_atom_site_fract_y
_atom_site_fract_z
Si Si1 0.233758 0.593061 0.860212
Si Si2 0.031780 0.287775 0.176814
Si Si3 0.790901 0.902636 0.828804
Si Si4 0.356303 0.584340 0.191845
Si Si5 0.853087 0.229809 0.847497
Si Si6 0.519557 0.387247 0.166310
O O1 0.119583 0.640395 0.731898
O O2 0.225981 0.480864 0.819886
O O3 0.311393 0.645513 0.871238
O O4 0.278588 0.602771 0.017424
O O5 0.068547 0.176602 0.214205
O O6 0.000000 0.319935 0.250000
O O7 0.933627 0.297366 0.996119
O O8 0.783753 0.928106 0.706787
O O9 0.741332 0.797300 0.794598
O O10 0.912686 0.902983 0.990729
O O11 0.427907 0.490961 0.254740
O O12 0.904637 0.182643 0.809776
O O13 0.500000 0.338107 0.250000
#
# Coordination Sequence:
#
# PCOD8154536 Si02
#       6
#     8   8   8   8   8   8
#     4  12  24  42  66  99 131 168 215 265 319 380
#     4  12  23  39  68 100 132 162 213 270 327 371
#     4  12  25  42  65  98 129 169 220 258 324 381
#     4  12  21  40  70  99 124 159 214 279 310 366
#     4  12  24  42  66  93 134 173 209 266 316 388
#     4  12  24  42  66  95 128 169 217 267 315 378
#
# _framework density 19.923489
#
# number of rings (size 3 to 8) (size 9 to 14) (size 15 to 20)
#    0.000    0.000    8.333    3.500    0.000    1.333 
#    0.000    0.833    0.000    0.000    0.000    0.000 
#    0.000    0.000    0.000    0.000    0.000    0.000 
#
# Total GULP energy -297789.083321 kJ/mol
# GULP energy per Si atom -12407.878472 kJ/mol
# Density = 1.987814 g / cm^3
# Si number density = 19.923489 Si / 1000 Ang^3
#
#
#
# Elastic Constant Matrix: (Units=GPa)
#
#
# Indices 1 2 3 4 5 6 
#
# 1 130.9309 25.9179 16.5498 0.0000 -15.5750 0.0000
# 2 25.9179 65.6569 20.7282 0.0000 1.6363 0.0000
# 3 16.5498 20.7282 43.1605 0.0000 -0.2993 0.0000
# 4 0.0000 0.0000 0.0000 18.3041 0.0000 -8.5688
# 5 -15.5750 1.6363 -0.2993 0.0000 32.7686 0.0000
# 6 0.0000 0.0000 0.0000 -8.5688 0.0000 15.3569
#
#
#
# Elastic Compliance Matrix: (Units=1/GPa)
#
#
# Indices 1 2 3 4 5 6 
#
# 1 0.009015 -0.003049 -0.001962 0.000000 0.004419 0.000000
# 2 -0.003049 0.019015 -0.007980 0.000000 -0.002472 0.000000
# 3 -0.001962 -0.007980 0.027752 0.000000 -0.000280 0.000000
# 4 0.000000 0.000000 0.000000 0.073948 0.000000 0.041262
# 5 0.004419 -0.002472 -0.000280 0.000000 0.032738 0.000000
# 6 0.000000 0.000000 0.000000 0.041262 0.000000 0.088141
#
#
# Mechanical properties :
#
#
# Convention : Reuss Voigt Hill
#
# Bulk Modulus (GPa) = 33.55699 40.68223 37.11961
# Shear Modulus (GPa) = 17.45046 25.05609 21.25327
#
# Velocity S-wave (km/s) = 2.96273 3.55013 3.26965
# Velocity P-wave (km/s) = 5.34632 6.10477 5.73809
#
# Compressibility (1/GPa) = 0.02980005
#
# Stress axis : x y z
#
# Youngs Moduli (GPa) = 110.92759 52.58883 36.03333
#
# Poissons Ratio (x) = 0.16037 0.07068
# Poissons Ratio (y) = 0.33827 0.28755
# Poissons Ratio (z) = 0.21759 0.41967
#
# Static dielectric constant tensor:
#      x y z
#    x 3.900230 0.000000 -0.201390 
#    y 0.000000 3.546700 0.000000 
#    z -0.201390 0.000000 3.774520 
# 
# 
# High freq. dielectric constant tensor:
#      x y z
#    x 1.794020 0.000000 -0.005690 
#    y 0.000000 1.766730 0.000000 
#    z -0.005690 0.000000 1.777880 
# 
# From -- ./inp_files/96824.got.cif
#   From: 2010.06.25/outbox.cif.g09.slc.cpg/sg15_49_cif.got.tgz:96824.got - 2010.06.28 07:06:18.
