data_PCOD8154784
_publ_section_title
;
Structure prediction by ZEFSAII (Michael W. Deem and Ramdas Pophale) SiO2 
 PCOD8154784
Probable space group: C 2/C
;
_chemical_formula_sum "Si O2"
_cell_formula_units_Z 36
_cell_length_a 8.415307
_cell_length_b 16.022120
_cell_length_c 12.573459
_cell_angle_alpha 90.000000
_cell_angle_beta 109.617404
_cell_angle_gamma 90.000000
_cell_volume 1596.890388
_symmetry_space_group_name_H-M "C 2/C"
_symmetry_group_IT_number 15
_symmetry_cell_setting 'monoclinic'
loop_
_space_group_symop_operation_xyz
x,y,z
-x,y,1/2-z
-x,-y,-z
x,-y,1/2+z
1/2+x,1/2+y,z
1/2-x,1/2+y,1/2-z
1/2-x,1/2-y,-z
1/2+x,1/2-y,1/2+z
loop_
_atom_site_type_symbol
_atom_site_label
_atom_site_fract_x
_atom_site_fract_y
_atom_site_fract_z
Si Si1 0.167538 0.980889 0.601171
Si Si2 0.666813 0.840525 0.006187
Si Si3 0.293672 0.212096 0.399236
Si Si4 0.000000 0.105055 0.250000
Si Si5 0.815028 0.360504 0.242685
O O1 0.270391 0.910895 0.560708
O O2 0.118914 0.950095 0.705068
O O3 0.277685 0.061871 0.655563
O O4 0.000000 0.000000 0.500000
O O5 0.467271 0.838331 0.941636
O O6 0.750000 0.750000 0.000000
O O7 0.703945 0.873260 0.134534
O O8 0.250000 0.250000 0.500000
O O9 0.310521 0.284148 0.313528
O O10 0.130700 0.155871 0.348425
O O11 0.000000 0.330004 0.250000
#
# Coordination Sequence:
#
# PCOD8154784 Si02
#       5
#     8   8   8   4   8
#     4  12  28  47  72 108 150 195 245 316 377 451
#     4  12  27  47  79 112 146 202 262 309 376 471
#     4  12  23  47  74 104 144 194 248 306 375 448
#     4  12  26  46  70 102 142 194 238 306 374 440
#     4  12  26  46  74 107 151 193 244 314 384 442
#
# _framework density 22.543813
#
# number of rings (size 3 to 8) (size 9 to 14) (size 15 to 20)
#    0.000    0.000    3.333    6.667    3.111    5.333 
#    0.000    0.000    0.000    0.000    0.000    0.000 
#    0.000    0.000    0.000    0.000    0.000    0.000 
#
# Total GULP energy -223135.484239 kJ/mol
# GULP energy per Si atom -12396.415791 kJ/mol
# Density = 2.249250 g / cm^3
# Si number density = 22.543813 Si / 1000 Ang^3
#
#
#
# Elastic Constant Matrix: (Units=GPa)
#
#
# Indices 1 2 3 4 5 6 
#
# 1 118.8030 27.0392 38.5956 0.0000 8.4385 0.0000
# 2 27.0392 92.9660 26.0542 0.0000 8.2169 0.0000
# 3 38.5956 26.0542 121.8813 0.0000 -0.0411 0.0000
# 4 0.0000 0.0000 0.0000 47.7400 0.0000 -4.8449
# 5 8.4385 8.2169 -0.0411 0.0000 52.8608 0.0000
# 6 0.0000 0.0000 0.0000 -4.8449 0.0000 52.2498
#
#
#
# Elastic Compliance Matrix: (Units=1/GPa)
#
#
# Indices 1 2 3 4 5 6 
#
# 1 0.009834 -0.001995 -0.002688 0.000000 -0.001262 0.000000
# 2 -0.001995 0.012017 -0.001937 0.000000 -0.001551 0.000000
# 3 -0.002688 -0.001937 0.009470 0.000000 0.000738 0.000000
# 4 0.000000 0.000000 0.000000 0.021146 0.000000 0.001961
# 5 -0.001262 -0.001551 0.000738 0.000000 0.019361 0.000000
# 6 0.000000 0.000000 0.000000 0.001961 0.000000 0.019321
#
#
# Mechanical properties :
#
#
# Convention : Reuss Voigt Hill
#
# Bulk Modulus (GPa) = 55.31047 57.44759 56.37903
# Shear Modulus (GPa) = 45.28269 46.70088 45.99178
#
# Velocity S-wave (km/s) = 4.48666 4.55638 4.52165
# Velocity P-wave (km/s) = 7.17134 7.29512 7.23349
#
# Compressibility (1/GPa) = 0.01807976
#
# Stress axis : x y z
#
# Youngs Moduli (GPa) = 101.68438 83.21497 105.59290
#
# Poissons Ratio (x) = 0.16605 0.28384
# Poissons Ratio (y) = 0.20291 0.20458
# Poissons Ratio (z) = 0.27333 0.16123
#
# Static dielectric constant tensor:
#      x y z
#    x 3.957630 0.000000 -0.041960 
#    y 0.000000 3.874370 0.000000 
#    z -0.041960 0.000000 4.372020 
# 
# 
# High freq. dielectric constant tensor:
#      x y z
#    x 1.897800 0.000000 0.003780 
#    y 0.000000 1.897590 0.000000 
#    z 0.003780 0.000000 1.916490 
# 
# From -- ./inp_files/76321.got.cif
#   From: 2010.06.25/outbox.cif.g09.slc.cpg/sg15_39_cif.got.tgz:76321.got - 2010.06.28 07:06:18.
