data_PCOD8154290
_publ_section_title
;
Structure prediction by ZEFSAII (Michael W. Deem and Ramdas Pophale) SiO2 
 PCOD8154290
Probable space group: C 2/C
;
_chemical_formula_sum "Si O2"
_cell_formula_units_Z 40
_cell_length_a 8.020383
_cell_length_b 11.812279
_cell_length_c 18.319801
_cell_angle_alpha 90.000000
_cell_angle_beta 85.258303
_cell_angle_gamma 90.000000
_cell_volume 1729.659554
_symmetry_space_group_name_H-M "C 2/C"
_symmetry_group_IT_number 15
_symmetry_cell_setting 'monoclinic'
loop_
_space_group_symop_operation_xyz
x,y,z
-x,y,1/2-z
-x,-y,-z
x,-y,1/2+z
1/2+x,1/2+y,z
1/2-x,1/2+y,1/2-z
1/2-x,1/2-y,-z
1/2+x,1/2-y,1/2+z
loop_
_atom_site_type_symbol
_atom_site_label
_atom_site_fract_x
_atom_site_fract_y
_atom_site_fract_z
Si Si1 0.308663 0.467746 0.780922
Si Si2 0.305200 0.095542 0.936995
Si Si3 0.217636 0.377444 0.636937
Si Si4 0.912537 0.330924 0.176876
Si Si5 0.641564 0.172400 0.407114
O O1 0.500000 0.470135 0.750000
O O2 0.192436 0.429421 0.718126
O O3 0.252351 0.594174 0.803537
O O4 0.280833 0.379358 0.847942
O O5 0.468378 0.096640 0.879638
O O6 0.182160 0.197290 0.921495
O O7 0.218479 0.974640 0.921957
O O8 0.357711 0.098719 0.019241
O O9 0.359202 0.281017 0.634617
O O10 0.041585 0.326112 0.619733
O O11 0.000000 0.295557 0.250000
#
# Coordination Sequence:
#
# PCOD8154290 Si02
#       5
#     8   8   8   8   8
#     4  12  26  45  73 103 140 190 236 291 349 418
#     4  11  25  49  72 106 145 182 234 291 350 417
#     4  12  25  44  76 102 140 186 234 284 357 412
#     4  12  25  47  71 103 145 182 237 295 347 416
#     4  11  25  49  74 103 147 183 231 293 351 418
#
# _framework density 23.125938000000001
#
# number of rings (size 3 to 8) (size 9 to 14) (size 15 to 20)
#    0.000    0.400    4.000    4.200    2.800    0.800 
#    0.000    3.000    0.000    0.000    0.000    0.000 
#    0.000    0.000    0.000    0.000    0.000    0.000 
#
# Total GULP energy -248130.572813 kJ/mol
# GULP energy per Si atom -12406.528641 kJ/mol
# Density = 2.307330 g / cm^3
# Si number density = 23.125938 Si / 1000 Ang^3
#
#
#
# Elastic Constant Matrix: (Units=GPa)
#
#
# Indices 1 2 3 4 5 6 
#
# 1 112.5392 36.4618 54.7730 0.0000 22.2086 0.0000
# 2 36.4618 79.8914 1.4478 0.0000 16.8986 0.0000
# 3 54.7730 1.4478 120.5951 0.0000 16.2210 0.0000
# 4 0.0000 0.0000 0.0000 44.4147 0.0000 5.3782
# 5 22.2086 16.8986 16.2210 0.0000 28.3482 0.0000
# 6 0.0000 0.0000 0.0000 5.3782 0.0000 30.1137
#
#
#
# Elastic Compliance Matrix: (Units=1/GPa)
#
#
# Indices 1 2 3 4 5 6 
#
# 1 0.014445 -0.005495 -0.005865 0.000000 -0.004685 0.000000
# 2 -0.005495 0.016539 0.003298 0.000000 -0.007441 0.000000
# 3 -0.005865 0.003298 0.011444 0.000000 -0.003920 0.000000
# 4 0.000000 0.000000 0.000000 0.023013 0.000000 -0.004110
# 5 -0.004685 -0.007441 -0.003920 0.000000 0.045625 0.000000
# 6 0.000000 0.000000 0.000000 -0.004110 0.000000 0.033942
#
#
# Mechanical properties :
#
#
# Convention : Reuss Voigt Hill
#
# Bulk Modulus (GPa) = 38.01657 55.37677 46.69667
# Shear Modulus (GPa) = 29.42934 35.26485 32.34710
#
# Velocity S-wave (km/s) = 3.57118 3.90924 3.74403
# Velocity P-wave (km/s) = 5.78611 6.66138 6.23911
#
# Compressibility (1/GPa) = 0.02630432
#
# Stress axis : x y z
#
# Youngs Moduli (GPa) = 69.22733 60.46228 87.38572
#
# Poissons Ratio (x) = 0.33226 0.51249
# Poissons Ratio (y) = 0.38043 -0.28822
# Poissons Ratio (z) = 0.40600 -0.19942
#
# Static dielectric constant tensor:
#      x y z
#    x 3.904710 0.000000 0.178740 
#    y 0.000000 4.311660 0.000000 
#    z 0.178740 0.000000 4.383860 
# 
# 
# High freq. dielectric constant tensor:
#      x y z
#    x 1.908420 0.000000 0.013100 
#    y 0.000000 1.933670 0.000000 
#    z 0.013100 0.000000 1.918420 
# 
# From -- ./inp_files/187794.got.cif
#   From: 2010.06.25/outbox.cif.g09.slc.cpg/sg15_94_cif.got.tgz:187794.got - 2010.06.28 07:06:18.
