data_PCOD8154470
_publ_section_title
;
Structure prediction by ZEFSAII (Michael W. Deem and Ramdas Pophale) SiO2 
 PCOD8154470
Probable space group: C 2/C
;
_chemical_formula_sum "Si O2"
_cell_formula_units_Z 28
_cell_length_a 12.902058
_cell_length_b 4.694325
_cell_length_c 18.676908
_cell_angle_alpha 90.000000
_cell_angle_beta 116.907824
_cell_angle_gamma 90.000000
_cell_volume 1008.726188
_symmetry_space_group_name_H-M "C 2/C"
_symmetry_group_IT_number 15
_symmetry_cell_setting 'monoclinic'
loop_
_space_group_symop_operation_xyz
x,y,z
-x,y,1/2-z
-x,-y,-z
x,-y,1/2+z
1/2+x,1/2+y,z
1/2-x,1/2+y,1/2-z
1/2-x,1/2-y,-z
1/2+x,1/2-y,1/2+z
loop_
_atom_site_type_symbol
_atom_site_label
_atom_site_fract_x
_atom_site_fract_y
_atom_site_fract_z
Si Si1 0.296333 0.210155 0.118279
Si Si2 0.139558 0.713021 0.066854
Si Si3 0.000000 0.446834 0.250000
Si Si4 0.475907 0.422217 0.602076
O O1 0.185115 0.403190 0.106545
O O2 0.363878 0.370836 0.075626
O O3 0.252138 0.901457 0.077991
O O4 0.387306 0.153795 0.211607
O O5 0.049104 0.701950 0.971659
O O6 0.082729 0.868750 0.117272
O O7 0.007670 0.253513 0.182192
#
# Coordination Sequence:
#
# PCOD8154470 Si02
#       4
#     8   8   4   8
#     4  12  26  51  74 116 150 205 249 334 376 466
#     4  11  28  48  88 104 152 206 271 301 393 457
#     4  12  28  50  76 114 176 192 260 328 404 446
#     4  11  27  53  76 118 149 206 259 326 371 481
#
# _framework density 27.757781000000001
#
# number of rings (size 3 to 8) (size 9 to 14) (size 15 to 20)
#    0.000    0.571    2.857    2.571    8.000    2.286 
#   10.286    0.000    0.000    0.000    0.000    0.000 
#    0.000    0.000    0.000    0.000    0.000    0.000 
#
# Total GULP energy -173660.125740 kJ/mol
# GULP energy per Si atom -12404.294696 kJ/mol
# Density = 2.769460 g / cm^3
# Si number density = 27.757781 Si / 1000 Ang^3
#
#
#
# Elastic Constant Matrix: (Units=GPa)
#
#
# Indices 1 2 3 4 5 6 
#
# 1 70.4957 20.9810 53.7104 0.0000 4.9667 0.0000
# 2 20.9810 129.1220 57.6490 0.0000 1.3654 0.0000
# 3 53.7104 57.6490 170.1157 0.0000 7.0416 0.0000
# 4 0.0000 0.0000 0.0000 51.4723 0.0000 20.0160
# 5 4.9667 1.3654 7.0416 0.0000 42.5480 0.0000
# 6 0.0000 0.0000 0.0000 20.0160 0.0000 29.7871
#
#
#
# Elastic Compliance Matrix: (Units=1/GPa)
#
#
# Indices 1 2 3 4 5 6 
#
# 1 0.018767 -0.000487 -0.005709 0.000000 -0.001230 0.000000
# 2 -0.000487 0.009140 -0.002954 0.000000 0.000252 0.000000
# 3 -0.005709 -0.002954 0.008710 0.000000 -0.000680 0.000000
# 4 0.000000 0.000000 0.000000 0.026300 0.000000 -0.017673
# 5 -0.001230 0.000252 -0.000680 0.000000 0.023751 0.000000
# 6 0.000000 0.000000 0.000000 -0.017673 0.000000 0.045447
#
#
# Mechanical properties :
#
#
# Convention : Reuss Voigt Hill
#
# Bulk Modulus (GPa) = 54.59748 70.49044 62.54396
# Shear Modulus (GPa) = 31.94450 40.58770 36.26610
#
# Velocity S-wave (km/s) = 3.39607 3.82803 3.61850
# Velocity P-wave (km/s) = 5.92365 6.70734 6.32764
#
# Compressibility (1/GPa) = 0.01831586
#
# Stress axis : x y z
#
# Youngs Moduli (GPa) = 53.28580 109.40946 114.80984
#
# Poissons Ratio (x) = 0.05333 0.65546
# Poissons Ratio (y) = 0.02597 0.33914
# Poissons Ratio (z) = 0.30421 0.32319
#
# Static dielectric constant tensor:
#      x y z
#    x 5.251160 0.000000 0.348640 
#    y 0.000000 5.263020 0.000000 
#    z 0.348640 0.000000 4.701160 
# 
# 
# High freq. dielectric constant tensor:
#      x y z
#    x 2.132420 0.000000 0.022500 
#    y 0.000000 2.144770 0.000000 
#    z 0.022500 0.000000 2.100730 
# 
# From -- ./inp_files/201775.got.cif
#   From: 2010.06.25/outbox.cif.g09.slc.cpg/sg15_101_cif.got.tgz:201775.got - 2010.06.28 07:06:18.
