data_PCOD8154637
_publ_section_title
;
Structure prediction by ZEFSAII (Michael W. Deem and Ramdas Pophale) SiO2 
 PCOD8154637
Probable space group: C 2/C
;
_chemical_formula_sum "Si O2"
_cell_formula_units_Z 40
_cell_length_a 12.875177
_cell_length_b 22.640135
_cell_length_c 7.870043
_cell_angle_alpha 90.000000
_cell_angle_beta 46.397503
_cell_angle_gamma 90.000000
_cell_volume 1661.242169
_symmetry_space_group_name_H-M "C 2/C"
_symmetry_group_IT_number 15
_symmetry_cell_setting 'monoclinic'
loop_
_space_group_symop_operation_xyz
x,y,z
-x,y,1/2-z
-x,-y,-z
x,-y,1/2+z
1/2+x,1/2+y,z
1/2-x,1/2+y,1/2-z
1/2-x,1/2-y,-z
1/2+x,1/2-y,1/2+z
loop_
_atom_site_type_symbol
_atom_site_label
_atom_site_fract_x
_atom_site_fract_y
_atom_site_fract_z
Si Si1 0.000000 0.743448 0.750000
Si Si2 0.163784 0.655041 0.377383
Si Si3 0.741507 0.423254 0.216036
Si Si4 0.000000 0.643360 0.250000
Si Si5 0.986466 0.168157 0.955022
Si Si6 0.154289 0.463160 0.047620
O O1 0.999741 0.781743 0.581247
O O2 0.137275 0.699142 0.568629
O O3 0.109112 0.588254 0.466660
O O4 0.070891 0.681624 0.323347
O O5 0.327777 0.643782 0.150422
O O6 0.595471 0.386192 0.358731
O O7 0.773684 0.428660 0.378213
O O8 0.730159 0.489998 0.154483
O O9 0.868893 0.393221 0.971945
O O10 0.000000 0.195361 0.750000
O O11 0.000000 0.495632 0.250000
#
# Coordination Sequence:
#
# PCOD8154637 Si02
#       6
#     4   8   8   4   8   8
#     4  12  28  53  82 110 152 219 266 318 378 472
#     4  12  26  49  80 113 154 201 270 323 387 462
#     4  12  25  45  74 114 156 203 260 316 392 467
#     4  12  22  43  76 110 150 207 256 314 386 470
#     4  12  29  51  76 116 162 202 258 329 397 456
#     4  12  23  44  77 114 151 206 259 320 380 469
#
# _framework density 24.078365999999999
#
# number of rings (size 3 to 8) (size 9 to 14) (size 15 to 20)
#    0.000    0.000    6.000    3.600    1.400    3.200 
#    0.000    0.000    0.000    0.000    0.000    0.000 
#    0.000    0.000    0.000    0.000    0.000    0.000 
#
# Total GULP energy -247824.308523 kJ/mol
# GULP energy per Si atom -12391.215426 kJ/mol
# Density = 2.402356 g / cm^3
# Si number density = 24.078366 Si / 1000 Ang^3
#
#
#
# Elastic Constant Matrix: (Units=GPa)
#
#
# Indices 1 2 3 4 5 6 
#
# 1 135.3801 59.7971 74.1443 0.0000 -1.4370 0.0000
# 2 59.7971 133.9130 72.9457 0.0000 0.9453 0.0000
# 3 74.1443 72.9457 145.8330 0.0000 -5.2045 0.0000
# 4 0.0000 0.0000 0.0000 1238.8822 0.0000 690.0881
# 5 -1.4370 0.9453 -5.2045 0.0000 44.6952 0.0000
# 6 0.0000 0.0000 0.0000 690.0881 0.0000 410.1824
#
#
#
# Elastic Compliance Matrix: (Units=1/GPa)
#
#
# Indices 1 2 3 4 5 6 
#
# 1 0.010824 -0.002520 -0.004246 0.000000 -0.000093 0.000000
# 2 -0.002520 0.010881 -0.004190 0.000000 -0.000799 0.000000
# 3 -0.004246 -0.004190 0.011156 0.000000 0.001251 0.000000
# 4 0.000000 0.000000 0.000000 0.012840 0.000000 -0.021602
# 5 -0.000093 -0.000799 0.001251 0.000000 0.022533 0.000000
# 6 0.000000 0.000000 0.000000 -0.021602 0.000000 0.038780
#
#
# Mechanical properties :
#
#
# Convention : Reuss Voigt Hill
#
# Bulk Modulus (GPa) = 91.32762 92.10002 91.71382
# Shear Modulus (GPa) = 37.71413 352.63456 195.17435
#
# Velocity S-wave (km/s) = 3.96195 12.11490 9.01299
# Velocity P-wave (km/s) = 7.67731 15.29796 12.10307
#
# Compressibility (1/GPa) = 0.01094959
#
# Stress axis : x y z
#
# Youngs Moduli (GPa) = 92.38665 91.90584 89.63421
#
# Poissons Ratio (x) = 0.23158 0.38060
# Poissons Ratio (y) = 0.23279 0.37556
# Poissons Ratio (z) = 0.39229 0.38508
#
# Static dielectric constant tensor:
#      x y z
#    x 4.445060 0.000000 0.280120 
#    y 0.000000 4.217090 0.000000 
#    z 0.280120 0.000000 4.868270 
# 
# 
# High freq. dielectric constant tensor:
#      x y z
#    x 1.953220 0.000000 0.014480 
#    y 0.000000 1.953130 0.000000 
#    z 0.014480 0.000000 1.972570 
# 
# From -- ./inp_files/41969.got.cif
#   From: 2010.06.25/outbox.cif.g09.slc.cpg/sg15_21_cif.got.tgz:41969.got - 2010.06.28 07:06:18.
