data_PCOD8154283
_publ_section_title
;
Structure prediction by ZEFSAII (Michael W. Deem and Ramdas Pophale) SiO2 
 PCOD8154283
Probable space group: C 2/C
;
_chemical_formula_sum "Si O2"
_cell_formula_units_Z 40
_cell_length_a 16.446655
_cell_length_b 10.170230
_cell_length_c 14.198464
_cell_angle_alpha 90.000000
_cell_angle_beta 131.422873
_cell_angle_gamma 90.000000
_cell_volume 1780.829678
_symmetry_space_group_name_H-M "C 2/C"
_symmetry_group_IT_number 15
_symmetry_cell_setting 'monoclinic'
loop_
_space_group_symop_operation_xyz
x,y,z
-x,y,1/2-z
-x,-y,-z
x,-y,1/2+z
1/2+x,1/2+y,z
1/2-x,1/2+y,1/2-z
1/2-x,1/2-y,-z
1/2+x,1/2-y,1/2+z
loop_
_atom_site_type_symbol
_atom_site_label
_atom_site_fract_x
_atom_site_fract_y
_atom_site_fract_z
Si Si1 0.238963 0.848772 0.077104
Si Si2 0.164894 0.794642 0.673640
Si Si3 0.654819 0.110542 0.327425
Si Si4 0.547424 0.776190 0.916602
Si Si5 0.989806 0.970634 0.633965
O O1 0.263503 0.778381 0.194684
O O2 0.330152 0.959587 0.129517
O O3 0.250000 0.750000 0.000000
O O4 0.118551 0.907255 0.991767
O O5 0.238862 0.853322 0.648400
O O6 0.087924 0.694984 0.554474
O O7 0.094896 0.912627 0.662955
O O8 0.550204 0.124090 0.180183
O O9 0.641402 0.199605 0.410694
O O10 0.507085 0.626298 0.877498
O O11 0.000000 0.930838 0.750000
#
# Coordination Sequence:
#
# PCOD8154283 Si02
#       5
#     8   8   8   8   8
#     4  12  28  46  71 107 147 193 242 302 368 429
#     4  12  26  43  76 108 148 189 251 295 363 436
#     4  11  26  44  75 110 141 192 244 302 363 435
#     4  11  25  48  77 106 147 190 248 297 372 433
#     4  12  24  47  76 102 147 202 237 301 364 444
#
# _framework density 22.46144
#
# number of rings (size 3 to 8) (size 9 to 14) (size 15 to 20)
#    0.000    0.400    6.000    2.400    2.800    5.600 
#    0.000    0.000    0.000    0.000    0.000    0.000 
#    0.000    0.000    0.000    0.000    0.000    0.000 
#
# Total GULP energy -248016.867775 kJ/mol
# GULP energy per Si atom -12400.843389 kJ/mol
# Density = 2.241032 g / cm^3
# Si number density = 22.461440 Si / 1000 Ang^3
#
#
#
# Elastic Constant Matrix: (Units=GPa)
#
#
# Indices 1 2 3 4 5 6 
#
# 1 114.5666 42.8278 41.2213 0.0000 -0.5810 0.0000
# 2 42.8278 124.5153 65.2992 0.0000 5.3316 0.0000
# 3 41.2213 65.2992 170.4337 0.0000 -18.0963 0.0000
# 4 0.0000 0.0000 0.0000 42.6274 0.0000 7.7870
# 5 -0.5810 5.3316 -18.0963 0.0000 46.9151 0.0000
# 6 0.0000 0.0000 0.0000 7.7870 0.0000 21.3793
#
#
#
# Elastic Compliance Matrix: (Units=1/GPa)
#
#
# Indices 1 2 3 4 5 6 
#
# 1 0.010283 -0.002781 -0.001433 0.000000 -0.000110 0.000000
# 2 -0.002781 0.011152 -0.003898 0.000000 -0.002805 0.000000
# 3 -0.001433 -0.003898 0.008084 0.000000 0.003543 0.000000
# 4 0.000000 0.000000 0.000000 0.025131 0.000000 -0.009154
# 5 -0.000110 -0.002805 0.003543 0.000000 0.022999 0.000000
# 6 0.000000 0.000000 0.000000 -0.009154 0.000000 0.050108
#
#
# Mechanical properties :
#
#
# Convention : Reuss Voigt Hill
#
# Bulk Modulus (GPa) = 75.21717 78.69024 76.95370
# Shear Modulus (GPa) = 33.68974 39.52884 36.60929
#
# Velocity S-wave (km/s) = 3.87705 4.19961 4.04155
# Velocity P-wave (km/s) = 7.32133 7.65671 7.49090
#
# Compressibility (1/GPa) = 0.01329484
#
# Stress axis : x y z
#
# Youngs Moduli (GPa) = 97.24620 89.67087 123.70458
#
# Poissons Ratio (x) = 0.24933 0.17732
# Poissons Ratio (y) = 0.27040 0.48221
# Poissons Ratio (z) = 0.13939 0.34954
#
# Static dielectric constant tensor:
#      x y z
#    x 4.111960 0.000000 -0.089220 
#    y 0.000000 4.045400 0.000000 
#    z -0.089220 0.000000 4.582720 
# 
# 
# High freq. dielectric constant tensor:
#      x y z
#    x 1.893560 0.000000 -0.003500 
#    y 0.000000 1.873550 0.000000 
#    z -0.003500 0.000000 1.911270 
# 
# From -- ./inp_files/151518.got.cif
#   From: 2010.06.25/outbox.cif.g09.slc.cpg/sg15_76_cif.got.tgz:151518.got - 2010.06.28 07:06:18.
