data_PCOD8154602
_publ_section_title
;
Structure prediction by ZEFSAII (Michael W. Deem and Ramdas Pophale) SiO2 
 PCOD8154602
Probable space group: C 2/C
;
_chemical_formula_sum "Si O2"
_cell_formula_units_Z 60
_cell_length_a 26.298188
_cell_length_b 18.804986
_cell_length_c 10.860192
_cell_angle_alpha 90.000000
_cell_angle_beta 148.763879
_cell_angle_gamma 90.000000
_cell_volume 2785.098191
_symmetry_space_group_name_H-M "C 2/C"
_symmetry_group_IT_number 15
_symmetry_cell_setting 'monoclinic'
loop_
_space_group_symop_operation_xyz
x,y,z
-x,y,1/2-z
-x,-y,-z
x,-y,1/2+z
1/2+x,1/2+y,z
1/2-x,1/2+y,1/2-z
1/2-x,1/2-y,-z
1/2+x,1/2-y,1/2+z
loop_
_atom_site_type_symbol
_atom_site_label
_atom_site_fract_x
_atom_site_fract_y
_atom_site_fract_z
Si Si1 0.220859 0.297963 0.081645
Si Si2 0.205286 0.083224 0.332969
Si Si3 0.522797 0.763034 0.566934
Si Si4 0.812357 0.309114 0.201177
Si Si5 0.705098 0.853968 0.718053
Si Si6 0.989926 0.891633 0.372110
Si Si7 0.301379 0.427532 0.120625
Si Si8 0.000000 0.300142 0.250000
O O1 0.207443 0.301563 0.197990
O O2 0.265621 0.219337 0.149147
O O3 0.298567 0.359347 0.205586
O O4 0.118220 0.310444 0.796548
O O5 0.278678 0.112970 0.588071
O O6 0.220433 0.127209 0.238143
O O7 0.223249 0.998891 0.354555
O O8 0.094986 0.096356 0.152650
O O9 0.427566 0.803182 0.417889
O O10 0.539452 0.690459 0.675077
O O11 0.510756 0.751643 0.394242
O O12 0.750000 0.250000 0.000000
O O13 0.595302 0.850870 0.437032
O O14 0.717604 0.916667 0.843190
O O15 0.907309 0.936280 0.273513
O O16 0.000000 0.914530 0.250000
#
# Coordination Sequence:
#
# PCOD8154602 Si02
#       8
#     8   8   8   8   8   8   8   4
#     4  12  24  45  72 102 139 188 240 286 344 417
#     4  12  26  45  68 101 146 186 228 293 359 412
#     4  12  22  41  71 109 133 182 244 287 341 414
#     4  12  23  42  68 102 137 185 238 286 341 410
#     4  12  23  48  69  99 141 186 235 294 345 410
#     4  12  23  43  73 100 142 186 231 286 355 423
#     4  12  27  44  70 104 141 186 234 286 355 426
#     4  12  24  40  70 106 138 176 242 296 338 398
#
# _framework density 21.543225
#
# number of rings (size 3 to 8) (size 9 to 14) (size 15 to 20)
#    0.000    0.000    8.000    2.800    1.867    0.000 
#    0.000    2.667    0.000    0.000    0.000    0.000 
#    0.000    0.000    0.000    0.000    0.000    0.000 
#
# Total GULP energy -372040.295903 kJ/mol
# GULP energy per Si atom -12401.343197 kJ/mol
# Density = 2.149419 g / cm^3
# Si number density = 21.543225 Si / 1000 Ang^3
#
#
#
# Elastic Constant Matrix: (Units=GPa)
#
#
# Indices 1 2 3 4 5 6 
#
# 1 99.8155 22.6344 32.2561 0.0000 5.1261 0.0000
# 2 22.6344 105.8428 20.7264 0.0000 14.4614 0.0000
# 3 32.2561 20.7264 101.0067 0.0000 16.3905 0.0000
# 4 0.0000 0.0000 0.0000 18.7915 0.0000 -4.1158
# 5 5.1261 14.4614 16.3905 0.0000 39.9599 0.0000
# 6 0.0000 0.0000 0.0000 -4.1158 0.0000 27.6000
#
#
#
# Elastic Compliance Matrix: (Units=1/GPa)
#
#
# Indices 1 2 3 4 5 6 
#
# 1 0.011508 -0.001879 -0.003386 0.000000 0.000592 0.000000
# 2 -0.001879 0.010481 -0.001044 0.000000 -0.003124 0.000000
# 3 -0.003386 -0.001044 0.011853 0.000000 -0.004050 0.000000
# 4 0.000000 0.000000 0.000000 0.055012 0.000000 0.008204
# 5 0.000592 -0.003124 -0.004050 0.000000 0.027741 0.000000
# 6 0.000000 0.000000 0.000000 0.008204 0.000000 0.037455
#
#
# Mechanical properties :
#
#
# Convention : Reuss Voigt Hill
#
# Bulk Modulus (GPa) = 47.11350 50.87763 48.99557
# Shear Modulus (GPa) = 28.77829 32.67351 30.72590
#
# Velocity S-wave (km/s) = 3.65888 3.89864 3.78066
# Velocity P-wave (km/s) = 6.30608 6.62825 6.46917
#
# Compressibility (1/GPa) = 0.02122534
#
# Stress axis : x y z
#
# Youngs Moduli (GPa) = 86.89422 95.41086 84.36784
#
# Poissons Ratio (x) = 0.17927 0.28564
# Poissons Ratio (y) = 0.16327 0.08806
# Poissons Ratio (z) = 0.29420 0.09958
#
# Static dielectric constant tensor:
#      x y z
#    x 4.113660 0.000000 0.080960 
#    y 0.000000 3.779310 0.000000 
#    z 0.080960 0.000000 4.244110 
# 
# 
# High freq. dielectric constant tensor:
#      x y z
#    x 1.866380 0.000000 0.002810 
#    y 0.000000 1.811750 0.000000 
#    z 0.002810 0.000000 1.856730 
# 
# From -- ./inp_files/124026.got.cif
#   From: 2010.06.25/outbox.cif.g09.slc.cpg/sg15_63_cif.got.tgz:124026.got - 2010.06.28 07:06:18.
