data_PCOD8154853
_publ_section_title
;
Structure prediction by ZEFSAII (Michael W. Deem and Ramdas Pophale) SiO2 
 PCOD8154853
Probable space group: C 2/C
;
_chemical_formula_sum "Si O2"
_cell_formula_units_Z 36
_cell_length_a 17.304591
_cell_length_b 15.971616
_cell_length_c 8.094643
_cell_angle_alpha 90.000000
_cell_angle_beta 44.095520
_cell_angle_gamma 90.000000
_cell_volume 1556.781553
_symmetry_space_group_name_H-M "C 2/C"
_symmetry_group_IT_number 15
_symmetry_cell_setting 'monoclinic'
loop_
_space_group_symop_operation_xyz
x,y,z
-x,y,1/2-z
-x,-y,-z
x,-y,1/2+z
1/2+x,1/2+y,z
1/2-x,1/2+y,1/2-z
1/2-x,1/2-y,-z
1/2+x,1/2-y,1/2+z
loop_
_atom_site_type_symbol
_atom_site_label
_atom_site_fract_x
_atom_site_fract_y
_atom_site_fract_z
Si Si1 0.000000 0.638160 0.250000
Si Si2 0.364797 0.747718 0.728886
Si Si3 0.627292 0.115489 0.518452
Si Si4 0.431950 0.572658 0.512827
Si Si5 0.688652 0.041974 0.766216
O O1 0.959649 0.696073 0.163492
O O2 0.897457 0.584797 0.476083
O O3 0.342710 0.788888 0.580187
O O4 0.414864 0.654786 0.650461
O O5 0.250000 0.750000 0.000000
O O6 0.500000 0.105114 0.750000
O O7 0.693811 0.085136 0.578823
O O8 0.654535 0.056094 0.317307
O O9 0.500000 0.601628 0.250000
O O10 0.500000 0.500000 0.500000
O O11 0.311099 0.540678 0.651797
#
# Coordination Sequence:
#
# PCOD8154853 Si02
#       5
#     4   8   8   8   8
#     4  12  24  46  78 118 150 204 270 320 402 466
#     4  12  28  48  76 112 157 208 262 330 395 475
#     4  12  24  44  77 115 153 191 262 327 393 467
#     4  12  30  52  74 111 159 213 263 319 404 473
#     4  12  25  46  80 115 152 207 255 328 396 472
#
# _framework density 23.124631999999998
#
# number of rings (size 3 to 8) (size 9 to 14) (size 15 to 20)
#    0.000    0.000    5.556    4.000    4.667    2.667 
#    0.000    0.000    0.000    0.000    0.000    0.000 
#    0.000    0.000    0.000    0.000    0.000    0.000 
#
# Total GULP energy -223184.538987 kJ/mol
# GULP energy per Si atom -12399.141055 kJ/mol
# Density = 2.307200 g / cm^3
# Si number density = 23.124632 Si / 1000 Ang^3
#
#
#
# Elastic Constant Matrix: (Units=GPa)
#
#
# Indices 1 2 3 4 5 6 
#
# 1 119.8914 57.1216 51.4555 0.0000 -10.8558 0.0000
# 2 57.1216 163.8443 53.7206 0.0000 -4.2420 0.0000
# 3 51.4555 53.7206 136.3283 0.0000 -19.0644 0.0000
# 4 0.0000 0.0000 0.0000 48.1405 0.0000 8.0652
# 5 -10.8558 -4.2420 -19.0644 0.0000 47.5371 0.0000
# 6 0.0000 0.0000 0.0000 8.0652 0.0000 22.2459
#
#
#
# Elastic Compliance Matrix: (Units=1/GPa)
#
#
# Indices 1 2 3 4 5 6 
#
# 1 0.011049 -0.002879 -0.002881 0.000000 0.001111 0.000000
# 2 -0.002879 0.007771 -0.002088 0.000000 -0.000801 0.000000
# 3 -0.002881 -0.002088 0.009669 0.000000 0.003034 0.000000
# 4 0.000000 0.000000 0.000000 0.022116 0.000000 -0.008018
# 5 0.001111 -0.000801 0.003034 0.000000 0.022435 0.000000
# 6 0.000000 0.000000 0.000000 -0.008018 0.000000 0.047859
#
#
# Mechanical properties :
#
#
# Convention : Reuss Voigt Hill
#
# Bulk Modulus (GPa) = 78.15342 82.73993 80.44667
# Shear Modulus (GPa) = 35.49651 40.76912 38.13282
#
# Velocity S-wave (km/s) = 3.92217 4.20338 4.06521
# Velocity P-wave (km/s) = 7.37436 7.70815 7.54310
#
# Compressibility (1/GPa) = 0.01279534
#
# Stress axis : x y z
#
# Youngs Moduli (GPa) = 90.50197 128.68771 103.41984
#
# Poissons Ratio (x) = 0.37049 0.29792
# Poissons Ratio (y) = 0.26055 0.21589
# Poissons Ratio (z) = 0.26070 0.26864
#
# Static dielectric constant tensor:
#      x y z
#    x 4.425370 0.000000 0.205960 
#    y 0.000000 4.735970 0.000000 
#    z 0.205960 0.000000 4.474830 
# 
# 
# High freq. dielectric constant tensor:
#      x y z
#    x 1.911410 0.000000 -0.003290 
#    y 0.000000 1.924650 0.000000 
#    z -0.003290 0.000000 1.933800 
# 
# From -- ./inp_files/48260.got.cif
#   From: 2010.06.25/outbox.cif.g09.slc.cpg/sg15_25_cif.got.tgz:48260.got - 2010.06.28 07:06:18.
