data_PCOD8154710
_publ_section_title
;
Structure prediction by ZEFSAII (Michael W. Deem and Ramdas Pophale) SiO2 
 PCOD8154710
Probable space group: C 2/C
;
_chemical_formula_sum "Si O2"
_cell_formula_units_Z 48
_cell_length_a 12.005756
_cell_length_b 15.846485
_cell_length_c 19.480337
_cell_angle_alpha 90.000000
_cell_angle_beta 37.568997
_cell_angle_gamma 90.000000
_cell_volume 2259.679121
_symmetry_space_group_name_H-M "C 2/C"
_symmetry_group_IT_number 15
_symmetry_cell_setting 'monoclinic'
loop_
_space_group_symop_operation_xyz
x,y,z
-x,y,1/2-z
-x,-y,-z
x,-y,1/2+z
1/2+x,1/2+y,z
1/2-x,1/2+y,1/2-z
1/2-x,1/2-y,-z
1/2+x,1/2-y,1/2+z
loop_
_atom_site_type_symbol
_atom_site_label
_atom_site_fract_x
_atom_site_fract_y
_atom_site_fract_z
Si Si1 0.667644 0.809546 0.402658
Si Si2 0.975907 0.982784 0.931909
Si Si3 0.663674 0.300688 0.480573
Si Si4 0.000000 0.374679 0.250000
Si Si5 0.858953 0.464287 0.186840
Si Si6 0.500000 0.802510 0.750000
Si Si7 0.144636 0.402648 0.549982
O O1 0.487344 0.753913 0.483698
O O2 0.658047 0.892271 0.361140
O O3 0.842012 0.755156 0.294069
O O4 0.690642 0.831858 0.471366
O O5 0.921048 0.886013 0.947304
O O6 0.161836 0.999905 0.801176
O O7 0.825146 0.043158 0.973622
O O8 0.000000 0.000000 0.000000
O O9 0.750000 0.250000 0.500000
O O10 0.820460 0.317942 0.347705
O O11 0.969569 0.432754 0.199126
O O12 0.981577 0.540539 0.098018
O O13 0.584932 0.861202 0.650259
#
# Coordination Sequence:
#
# PCOD8154710 Si02
#       7
#     8   8   8   4   8   4   8
#     4  12  27  45  68 103 143 174 225 296 352 403
#     4  12  23  42  73  98 132 187 236 276 337 424
#     4  12  25  44  69 107 137 180 228 291 349 409
#     4  12  23  42  72  97 136 176 238 272 341 418
#     4  12  24  44  71  98 135 182 231 281 340 413
#     4  12  27  44  68 101 134 184 222 276 345 416
#     4  12  25  46  68 102 135 179 229 283 342 415
#
# _framework density 21.241954
#
# number of rings (size 3 to 8) (size 9 to 14) (size 15 to 20)
#    0.000    0.000    5.000    5.500    2.333    1.333 
#    0.000    0.000    0.000    0.000    0.000    0.000 
#    0.000    0.000    0.000    0.000    0.000    0.000 
#
# Total GULP energy -297794.263790 kJ/mol
# GULP energy per Si atom -12408.094325 kJ/mol
# Density = 2.119361 g / cm^3
# Si number density = 21.241954 Si / 1000 Ang^3
#
#
#
# Elastic Constant Matrix: (Units=GPa)
#
#
# Indices 1 2 3 4 5 6 
#
# 1 104.8428 47.8916 30.1236 -0.0005 -13.6858 0.0003
# 2 47.8916 103.3346 21.9031 -0.0005 -18.2932 -0.0005
# 3 30.1236 21.9031 92.7104 0.0008 -36.8190 -0.0013
# 4 -0.0005 -0.0005 0.0008 25.8024 -0.0006 4.8491
# 5 -13.6858 -18.2932 -36.8190 -0.0006 45.3771 0.0006
# 6 0.0003 -0.0005 -0.0013 4.8491 0.0006 33.3185
#
#
#
# Elastic Compliance Matrix: (Units=1/GPa)
#
#
# Indices 1 2 3 4 5 6 
#
# 1 0.012829 -0.005424 -0.003274 0.000000 -0.000974 0.000000
# 2 -0.005424 0.012801 0.000204 0.000000 0.003690 0.000000
# 3 -0.003274 0.000204 0.016883 0.000000 0.012793 0.000001
# 4 0.000000 0.000000 0.000000 0.039846 0.000000 -0.005799
# 5 -0.000974 0.003690 0.012793 0.000000 0.033612 0.000000
# 6 0.000000 0.000000 0.000001 -0.005799 0.000000 0.030857
#
#
# Mechanical properties :
#
#
# Convention : Reuss Voigt Hill
#
# Bulk Modulus (GPa) = 39.17850 55.63604 47.40727
# Shear Modulus (GPa) = 29.01482 34.29757 31.65620
#
# Velocity S-wave (km/s) = 3.69985 4.02259 3.86459
# Velocity P-wave (km/s) = 6.06100 6.91544 6.50227
#
# Compressibility (1/GPa) = 0.02552420
#
# Stress axis : x y z
#
# Youngs Moduli (GPa) = 77.94575 78.11663 59.23258
#
# Poissons Ratio (x) = 0.42374 0.19391
# Poissons Ratio (y) = 0.42281 -0.01206
# Poissons Ratio (z) = 0.25517 -0.01590
#
# Static dielectric constant tensor:
#      x y z
#    x 3.837690 -0.000020 -0.269870 
#    y -0.000020 4.236770 0.000200 
#    z -0.269870 0.000200 4.076570 
# 
# 
# High freq. dielectric constant tensor:
#      x y z
#    x 1.839420 0.000000 -0.016990 
#    y 0.000000 1.851160 0.000000 
#    z -0.016990 0.000000 1.846980 
# 
# From -- ./inp_files/144107.got.cif
#   From: 2010.06.25/outbox.cif.g09.slc.cpg/sg15_73_cif.got.tgz:144107.got - 2010.06.28 07:06:18.
