data_PCOD8154760
_publ_section_title
;
Structure prediction by ZEFSAII (Michael W. Deem and Ramdas Pophale) SiO2 
 PCOD8154760
Probable space group: C 2/C
;
_chemical_formula_sum "Si O2"
_cell_formula_units_Z 48
_cell_length_a 13.562742
_cell_length_b 13.555411
_cell_length_c 14.182010
_cell_angle_alpha 90.000000
_cell_angle_beta 118.957869
_cell_angle_gamma 90.000000
_cell_volume 2281.361457
_symmetry_space_group_name_H-M "C 2/C"
_symmetry_group_IT_number 15
_symmetry_cell_setting 'monoclinic'
loop_
_space_group_symop_operation_xyz
x,y,z
-x,y,1/2-z
-x,-y,-z
x,-y,1/2+z
1/2+x,1/2+y,z
1/2-x,1/2+y,1/2-z
1/2-x,1/2-y,-z
1/2+x,1/2-y,1/2+z
loop_
_atom_site_type_symbol
_atom_site_label
_atom_site_fract_x
_atom_site_fract_y
_atom_site_fract_z
Si Si1 0.000000 0.663853 0.250000
Si Si2 0.455391 0.093522 0.925977
Si Si3 0.500000 0.671325 0.250000
Si Si4 0.574832 0.424115 0.592130
Si Si5 0.847351 0.314614 0.088563
Si Si6 0.182280 0.498039 0.303190
Si Si7 0.624079 0.755125 0.977533
O O1 0.110887 0.596143 0.291258
O O2 0.028288 0.734918 0.351460
O O3 0.556272 0.167592 0.944830
O O4 0.383467 0.064610 0.803365
O O5 0.373087 0.146548 0.959824
O O6 0.500000 0.000000 0.000000
O O7 0.485636 0.605519 0.337664
O O8 0.393140 0.744632 0.193457
O O9 0.500000 0.500000 0.500000
O O10 0.694649 0.471807 0.675102
O O11 0.592562 0.335169 0.528944
O O12 0.806701 0.423136 0.103223
O O13 0.750000 0.250000 0.000000
O O14 0.750000 0.750000 0.000000
#
# Coordination Sequence:
#
# PCOD8154760 Si02
#       7
#     4   8   4   8   8   8   8
#     4  12  23  45  76 104 146 190 240 302 362 434
#     4  12  24  44  74 107 139 187 243 296 360 434
#     4  12  25  51  68 104 148 190 248 298 360 444
#     4  12  29  49  72 109 150 191 241 302 373 433
#     4  12  24  43  74 105 140 187 242 301 357 427
#     4  12  23  46  74 106 143 188 244 296 359 439
#     4  12  26  46  72 108 147 189 245 300 360 434
#
# _framework density 21.040068000000002
#
# number of rings (size 3 to 8) (size 9 to 14) (size 15 to 20)
#    0.000    0.000    8.333    1.000    2.333    3.333 
#    0.000    0.000    0.000    0.000    0.000    0.000 
#    0.000    0.000    0.000    0.000    0.000    0.000 
#
# Total GULP energy -297578.543929 kJ/mol
# GULP energy per Si atom -12399.105997 kJ/mol
# Density = 2.099218 g / cm^3
# Si number density = 21.040068 Si / 1000 Ang^3
#
#
#
# Elastic Constant Matrix: (Units=GPa)
#
#
# Indices 1 2 3 4 5 6 
#
# 1 121.8969 66.0096 48.3556 0.0000 -3.7977 0.0000
# 2 66.0096 120.0431 59.8814 0.0000 -2.3186 0.0000
# 3 48.3556 59.8814 119.1622 0.0000 0.2474 0.0000
# 4 0.0000 0.0000 0.0000 54.9210 0.0000 3.3604
# 5 -3.7977 -2.3186 0.2474 0.0000 43.5836 0.0000
# 6 0.0000 0.0000 0.0000 3.3604 0.0000 37.4172
#
#
#
# Elastic Compliance Matrix: (Units=1/GPa)
#
#
# Indices 1 2 3 4 5 6 
#
# 1 0.012083 -0.005582 -0.002100 0.000000 0.000768 0.000000
# 2 -0.005582 0.013713 -0.004626 0.000000 0.000269 0.000000
# 3 -0.002100 -0.004626 0.011570 0.000000 -0.000495 0.000000
# 4 0.000000 0.000000 0.000000 0.018309 0.000000 -0.001644
# 5 0.000768 0.000269 -0.000495 0.000000 0.023028 0.000000
# 6 0.000000 0.000000 0.000000 -0.001644 0.000000 0.026873
#
#
# Mechanical properties :
#
#
# Convention : Reuss Voigt Hill
#
# Bulk Modulus (GPa) = 78.43456 78.84392 78.63924
# Shear Modulus (GPa) = 37.19050 39.64141 38.41596
#
# Velocity S-wave (km/s) = 4.20885 4.34532 4.27763
# Velocity P-wave (km/s) = 7.80889 7.92025 7.86477
#
# Compressibility (1/GPa) = 0.01274948
#
# Stress axis : x y z
#
# Youngs Moduli (GPa) = 82.75807 72.92447 86.43134
#
# Poissons Ratio (x) = 0.40708 0.18149
# Poissons Ratio (y) = 0.46197 0.39986
# Poissons Ratio (z) = 0.17378 0.33737
#
# Static dielectric constant tensor:
#      x y z
#    x 3.994140 0.000000 -0.197100 
#    y 0.000000 4.155810 0.000000 
#    z -0.197100 0.000000 4.339980 
# 
# 
# High freq. dielectric constant tensor:
#      x y z
#    x 1.823610 0.000000 0.000120 
#    y 0.000000 1.841250 0.000000 
#    z 0.000120 0.000000 1.836320 
# 
# From -- ./inp_files/152792.got.cif
#   From: 2010.06.25/outbox.cif.g09.slc.cpg/sg15_77_cif.got.tgz:152792.got - 2010.06.28 07:06:18.
