data_PCOD8154894
_publ_section_title
;
Structure prediction by ZEFSAII (Michael W. Deem and Ramdas Pophale) SiO2 
 PCOD8154894
Probable space group: C 2/C
;
_chemical_formula_sum "Si O2"
_cell_formula_units_Z 40
_cell_length_a 16.744744
_cell_length_b 8.949919
_cell_length_c 10.749282
_cell_angle_alpha 90.000000
_cell_angle_beta 78.210111
_cell_angle_gamma 90.000000
_cell_volume 1576.946420
_symmetry_space_group_name_H-M "C 2/C"
_symmetry_group_IT_number 15
_symmetry_cell_setting 'monoclinic'
loop_
_space_group_symop_operation_xyz
x,y,z
-x,y,1/2-z
-x,-y,-z
x,-y,1/2+z
1/2+x,1/2+y,z
1/2-x,1/2+y,1/2-z
1/2-x,1/2-y,-z
1/2+x,1/2-y,1/2+z
loop_
_atom_site_type_symbol
_atom_site_label
_atom_site_fract_x
_atom_site_fract_y
_atom_site_fract_z
Si Si1 0.000000 0.301138 0.750000
Si Si2 0.279236 0.537460 0.634791
Si Si3 0.843697 0.718764 0.679783
Si Si4 0.565195 0.289906 0.481000
Si Si5 0.118048 0.525460 0.054767
Si Si6 0.500000 0.283781 0.750000
O O1 0.975384 0.193525 0.642391
O O2 0.925282 0.410410 0.808147
O O3 0.237020 0.625738 0.761719
O O4 0.320581 0.391561 0.678364
O O5 0.346014 0.638432 0.545980
O O6 0.212698 0.504968 0.550937
O O7 0.884582 0.662948 0.540675
O O8 0.912982 0.695151 0.766393
O O9 0.510653 0.367222 0.611308
O O10 0.570477 0.112819 0.507921
#
# Coordination Sequence:
#
# PCOD8154894 Si02
#       6
#     4   8   8   8   8   4
#     4  12  25  47  80 114 151 197 256 304 371 445
#     4  12  28  48  77 109 155 195 252 309 382 441
#     4  12  27  49  75 114 149 200 249 315 369 450
#     4  12  27  48  78 113 148 202 247 314 368 450
#     4  12  24  46  78 114 149 200 251 310 366 451
#     4  12  27  51  78 110 153 199 254 302 379 447
#
# _framework density 25.365479000000001
#
# number of rings (size 3 to 8) (size 9 to 14) (size 15 to 20)
#    0.000    0.000    4.000    6.000    2.800    1.600 
#    0.000    0.000    0.000    0.000    0.000    0.000 
#    0.000    0.000    0.000    0.000    0.000    0.000 
#
# Total GULP energy -248001.835554 kJ/mol
# GULP energy per Si atom -12400.091778 kJ/mol
# Density = 2.530775 g / cm^3
# Si number density = 25.365479 Si / 1000 Ang^3
#
#
#
# Elastic Constant Matrix: (Units=GPa)
#
#
# Indices 1 2 3 4 5 6 
#
# 1 135.3894 29.7506 57.9143 0.0000 -4.7074 0.0000
# 2 29.7506 94.6272 33.7092 0.0000 -19.4267 0.0000
# 3 57.9143 33.7092 192.1633 0.0000 -8.5784 0.0000
# 4 0.0000 0.0000 0.0000 17.0250 0.0000 -4.6884
# 5 -4.7074 -19.4267 -8.5784 0.0000 50.5429 0.0000
# 6 0.0000 0.0000 0.0000 -4.6884 0.0000 27.8082
#
#
#
# Elastic Compliance Matrix: (Units=1/GPa)
#
#
# Indices 1 2 3 4 5 6 
#
# 1 0.008808 -0.002015 -0.002316 0.000000 -0.000347 0.000000
# 2 -0.002015 0.012610 -0.001407 0.000000 0.004420 0.000000
# 3 -0.002316 -0.001407 0.006162 0.000000 0.000289 0.000000
# 4 0.000000 0.000000 0.000000 0.061597 0.000000 0.010385
# 5 -0.000347 0.004420 0.000289 0.000000 0.021501 0.000000
# 6 0.000000 0.000000 0.000000 0.010385 0.000000 0.037712
#
#
# Mechanical properties :
#
#
# Convention : Reuss Voigt Hill
#
# Bulk Modulus (GPa) = 62.10583 73.88087 67.99335
# Shear Modulus (GPa) = 30.25997 39.12894 34.69445
#
# Velocity S-wave (km/s) = 3.45767 3.93186 3.70237
# Velocity P-wave (km/s) = 6.36225 7.05709 6.71866
#
# Compressibility (1/GPa) = 0.01610155
#
# Stress axis : x y z
#
# Youngs Moduli (GPa) = 113.53625 79.30088 162.28922
#
# Poissons Ratio (x) = 0.15981 0.37594
# Poissons Ratio (y) = 0.22881 0.22840
# Poissons Ratio (z) = 0.26300 0.11161
#
# Static dielectric constant tensor:
#      x y z
#    x 4.635460 0.000000 -0.193390 
#    y 0.000000 4.198140 0.000000 
#    z -0.193390 0.000000 4.779070 
# 
# 
# High freq. dielectric constant tensor:
#      x y z
#    x 2.029980 0.000000 -0.006910 
#    y 0.000000 1.990660 0.000000 
#    z -0.006910 0.000000 2.033650 
# 
# From -- ./inp_files/102747.got.cif
#   From: 2010.06.25/outbox.cif.g09.slc.cpg/sg15_52_cif.got.tgz:102747.got - 2010.06.28 07:06:18.
