data_PCOD8154647
_publ_section_title
;
Structure prediction by ZEFSAII (Michael W. Deem and Ramdas Pophale) SiO2 
 PCOD8154647
Probable space group: C 2/C
;
_chemical_formula_sum "Si O2"
_cell_formula_units_Z 56
_cell_length_a 16.436825
_cell_length_b 9.891502
_cell_length_c 18.341760
_cell_angle_alpha 90.000000
_cell_angle_beta 124.254191
_cell_angle_gamma 90.000000
_cell_volume 2464.844720
_symmetry_space_group_name_H-M "C 2/C"
_symmetry_group_IT_number 15
_symmetry_cell_setting 'monoclinic'
loop_
_space_group_symop_operation_xyz
x,y,z
-x,y,1/2-z
-x,-y,-z
x,-y,1/2+z
1/2+x,1/2+y,z
1/2-x,1/2+y,1/2-z
1/2-x,1/2-y,-z
1/2+x,1/2-y,1/2+z
loop_
_atom_site_type_symbol
_atom_site_label
_atom_site_fract_x
_atom_site_fract_y
_atom_site_fract_z
Si Si1 0.523991 0.721993 0.965813
Si Si2 0.778519 0.069250 0.451227
Si Si3 0.506443 0.197578 0.887601
Si Si4 0.558768 0.088653 0.354260
Si Si5 0.680627 0.646752 0.423288
Si Si6 0.306832 0.307241 0.738246
Si Si7 0.666825 0.577311 0.656460
O O1 0.507912 0.820154 0.889618
O O2 0.450447 0.595342 0.915103
O O3 0.637269 0.675511 0.029251
O O4 0.495303 0.800295 0.025364
O O5 0.671079 0.138229 0.397334
O O6 0.798750 0.006955 0.541074
O O7 0.779614 0.945870 0.394003
O O8 0.567710 0.322807 0.886536
O O9 0.398368 0.209160 0.799619
O O10 0.558826 0.063249 0.884606
O O11 0.500000 0.103786 0.250000
O O12 0.750000 0.750000 0.500000
O O13 0.700533 0.648767 0.348386
O O14 0.311765 0.445003 0.785562
O O15 0.212130 0.215819 0.712550
#
# Coordination Sequence:
#
# PCOD8154647 Si02
#       7
#     8   8   8   8   8   8   8
#     4  12  27  46  76 104 153 194 243 306 376 435
#     4  12  24  49  73 102 146 196 241 301 371 438
#     4  12  23  46  74 107 140 200 252 299 363 440
#     4  12  28  45  71 109 155 191 245 309 368 436
#     4  12  22  44  73 103 138 190 246 297 362 436
#     4  12  27  43  78 108 148 190 251 305 370 436
#     4  12  26  48  74 108 146 195 243 308 365 437
#
# _framework density 22.719484999999999
#
# number of rings (size 3 to 8) (size 9 to 14) (size 15 to 20)
#    0.000    0.000    5.714    4.286    4.000    2.286 
#    0.000    0.000    0.000    0.000    0.000    0.000 
#    0.000    0.000    0.000    0.000    0.000    0.000 
#
# Total GULP energy -347326.030818 kJ/mol
# GULP energy per Si atom -12404.501101 kJ/mol
# Density = 2.266777 g / cm^3
# Si number density = 22.719485 Si / 1000 Ang^3
#
#
#
# Elastic Constant Matrix: (Units=GPa)
#
#
# Indices 1 2 3 4 5 6 
#
# 1 103.1452 28.1256 43.4659 0.0000 13.0277 0.0000
# 2 28.1256 60.6076 42.2873 0.0000 -7.1816 0.0000
# 3 43.4659 42.2873 119.3126 0.0000 -3.2255 0.0000
# 4 0.0000 0.0000 0.0000 27.7737 0.0000 -3.7836
# 5 13.0277 -7.1816 -3.2255 0.0000 38.1509 0.0000
# 6 0.0000 0.0000 0.0000 -3.7836 0.0000 43.0484
#
#
#
# Elastic Compliance Matrix: (Units=1/GPa)
#
#
# Indices 1 2 3 4 5 6 
#
# 1 0.012989 -0.004355 -0.003338 0.000000 -0.005537 0.000000
# 2 -0.004355 0.023850 -0.006721 0.000000 0.005408 0.000000
# 3 -0.003338 -0.006721 0.012003 0.000000 0.000890 0.000000
# 4 0.000000 0.000000 0.000000 0.036442 0.000000 0.003203
# 5 -0.005537 0.005408 0.000890 0.000000 0.029196 0.000000
# 6 0.000000 0.000000 0.000000 0.003203 0.000000 0.023511
#
#
# Mechanical properties :
#
#
# Convention : Reuss Voigt Hill
#
# Bulk Modulus (GPa) = 49.96032 56.75809 53.35920
# Shear Modulus (GPa) = 28.82024 33.07370 30.94697
#
# Velocity S-wave (km/s) = 3.56550 3.81956 3.69471
# Velocity P-wave (km/s) = 6.24405 6.66996 6.46052
#
# Compressibility (1/GPa) = 0.02001589
#
# Stress axis : x y z
#
# Youngs Moduli (GPa) = 76.99112 41.92821 83.30971
#
# Poissons Ratio (x) = 0.18258 0.27810
# Poissons Ratio (y) = 0.33526 0.55989
# Poissons Ratio (z) = 0.25700 0.28178
#
# Static dielectric constant tensor:
#      x y z
#    x 4.323010 0.000000 -0.099110 
#    y 0.000000 3.972700 0.000000 
#    z -0.099110 0.000000 4.394100 
# 
# 
# High freq. dielectric constant tensor:
#      x y z
#    x 1.908630 0.000000 0.002190 
#    y 0.000000 1.886260 0.000000 
#    z 0.002190 0.000000 1.909880 
# 
# From -- ./inp_files/210675.got.cif
#   From: 2010.06.25/outbox.cif.g09.slc.cpg/sg15_106_cif.got.tgz:210675.got - 2010.06.28 07:06:18.
