data_PCOD8154067
_publ_section_title
;
Structure prediction by ZEFSAII (Michael W. Deem and Ramdas Pophale) SiO2 
 PCOD8154067
Probable space group: C 2/C
;
_chemical_formula_sum "Si O2"
_cell_formula_units_Z 48
_cell_length_a 6.370264
_cell_length_b 25.859359
_cell_length_c 14.162520
_cell_angle_alpha 90.000000
_cell_angle_beta 95.517806
_cell_angle_gamma 90.000000
_cell_volume 2322.194987
_symmetry_space_group_name_H-M "C 2/C"
_symmetry_group_IT_number 15
_symmetry_cell_setting 'monoclinic'
loop_
_space_group_symop_operation_xyz
x,y,z
-x,y,1/2-z
-x,-y,-z
x,-y,1/2+z
1/2+x,1/2+y,z
1/2-x,1/2+y,1/2-z
1/2-x,1/2-y,-z
1/2+x,1/2-y,1/2+z
loop_
_atom_site_type_symbol
_atom_site_label
_atom_site_fract_x
_atom_site_fract_y
_atom_site_fract_z
Si Si1 0.989251 0.583510 0.986475
Si Si2 0.500000 0.298451 0.250000
Si Si3 0.114440 0.235683 0.161401
Si Si4 0.133624 0.669207 0.850581
Si Si5 0.500000 0.443463 0.750000
Si Si6 0.322736 0.133857 0.165781
Si Si7 0.184029 0.999494 0.933787
O O1 0.783481 0.557233 0.929948
O O2 0.099119 0.623178 0.920491
O O3 0.940270 0.611233 0.081722
O O4 0.151768 0.539115 0.014137
O O5 0.332529 0.264629 0.187305
O O6 0.621537 0.330625 0.172564
O O7 0.181256 0.181413 0.116550
O O8 0.000000 0.216002 0.250000
O O9 0.948671 0.276008 0.104547
O O10 0.000000 0.661470 0.750000
O O11 0.327031 0.409023 0.794978
O O12 0.614033 0.481429 0.827834
O O13 0.500000 0.151851 0.250000
O O14 0.000000 0.000000 0.000000
#
# Coordination Sequence:
#
# PCOD8154067 Si02
#       7
#     8   4   8   8   4   8   8
#     4  11  25  43  65  99 130 161 219 275 318 382
#     4   8  16  36  59  82 130 170 211 244 308 368
#     4   9  18  34  63  93 128 166 214 252 307 386
#     4   9  21  40  62  91 130 172 209 258 316 381
#     4  12  24  44  69  94 124 178 211 258 344 376
#     4  12  22  39  69  97 128 171 209 266 325 382
#     4  11  25  44  66  93 127 165 220 272 317 390
#
# _framework density 20.670100000000001
#
# number of rings (size 3 to 8) (size 9 to 14) (size 15 to 20)
#    0.000    2.000    5.000    0.000    0.000    4.667 
#    0.000    1.667    0.000    0.000    0.000    0.000 
#    0.000    0.000    0.000    0.000    0.000    0.000 
#
# Total GULP energy -297322.502124 kJ/mol
# GULP energy per Si atom -12388.437589 kJ/mol
# Density = 2.062305 g / cm^3
# Si number density = 20.670100 Si / 1000 Ang^3
#
#
#
# Elastic Constant Matrix: (Units=GPa)
#
#
# Indices 1 2 3 4 5 6 
#
# 1 130.0342 51.6030 42.0965 0.0000 -28.8713 0.0000
# 2 51.6030 121.9457 51.6798 0.0000 -17.6759 0.0000
# 3 42.0965 51.6798 82.9718 0.0000 -15.2618 0.0000
# 4 0.0000 0.0000 0.0000 -45.7671 0.0000 -93.4920
# 5 -28.8713 -17.6759 -15.2618 0.0000 38.0578 0.0000
# 6 0.0000 0.0000 0.0000 -93.4920 0.0000 -43.6062
#
#
#
# Elastic Compliance Matrix: (Units=1/GPa)
#
#
# Indices 1 2 3 4 5 6 
#
# 1 0.010961 -0.002556 -0.002870 0.000000 0.005977 0.000000
# 2 -0.002556 0.011977 -0.005935 0.000000 0.001244 0.000000
# 3 -0.002870 -0.005935 0.017595 0.000000 0.002123 0.000000
# 4 0.000000 0.000000 0.000000 0.006465 0.000000 -0.013861
# 5 0.005977 0.001244 0.002123 0.000000 0.032239 0.000000
# 6 0.000000 0.000000 0.000000 -0.013861 0.000000 0.006785
#
#
# Mechanical properties :
#
#
# Convention : Reuss Voigt Hill
#
# Bulk Modulus (GPa) = 56.13883 69.52334 62.83109
# Shear Modulus (GPa) = 43.59955 2.37506 22.98731
#
# Velocity S-wave (km/s) = 4.59770 1.07309 3.33844
# Velocity P-wave (km/s) = 7.44335 5.93659 6.73226
#
# Compressibility (1/GPa) = 0.01781298
#
# Stress axis : x y z
#
# Youngs Moduli (GPa) = 91.23617 83.49190 56.83379
#
# Poissons Ratio (x) = 0.21337 0.16310
# Poissons Ratio (y) = 0.23316 0.33729
# Poissons Ratio (z) = 0.26183 0.49550
#
# Static dielectric constant tensor:
#      x y z
#    x 4.554620 0.000000 -0.025830 
#    y 0.000000 3.972640 0.000000 
#    z -0.025830 0.000000 4.456610 
# 
# 
# High freq. dielectric constant tensor:
#      x y z
#    x 1.831060 0.000000 -0.019360 
#    y 0.000000 1.817250 0.000000 
#    z -0.019360 0.000000 1.780030 
# 
# From -- ./inp_files/130097.got.cif
#   From: 2010.06.25/outbox.cif.g09.slc.cpg/sg15_66_cif.got.tgz:130097.got - 2010.06.28 07:06:18.
