data_PCOD8154128
_publ_section_title
;
Structure prediction by ZEFSAII (Michael W. Deem and Ramdas Pophale) SiO2 
 PCOD8154128
Probable space group: C 2/C
;
_chemical_formula_sum "Si O2"
_cell_formula_units_Z 64
_cell_length_a 28.536156
_cell_length_b 18.259733
_cell_length_c 9.102952
_cell_angle_alpha 90.000000
_cell_angle_beta 141.229696
_cell_angle_gamma 90.000000
_cell_volume 2970.195747
_symmetry_space_group_name_H-M "C 2/C"
_symmetry_group_IT_number 15
_symmetry_cell_setting 'monoclinic'
loop_
_space_group_symop_operation_xyz
x,y,z
-x,y,1/2-z
-x,-y,-z
x,-y,1/2+z
1/2+x,1/2+y,z
1/2-x,1/2+y,1/2-z
1/2-x,1/2-y,-z
1/2+x,1/2-y,1/2+z
loop_
_atom_site_type_symbol
_atom_site_label
_atom_site_fract_x
_atom_site_fract_y
_atom_site_fract_z
Si Si1 0.079412 0.446363 0.892133
Si Si2 0.308881 0.843955 0.490451
Si Si3 0.621360 0.930565 0.308611
Si Si4 0.318400 0.589278 0.650678
Si Si5 0.293709 0.683489 0.037025
Si Si6 0.709806 0.445723 0.744109
Si Si7 0.907474 0.230730 0.875691
Si Si8 0.072560 0.731462 0.749386
O O1 0.120167 0.394023 0.875275
O O2 0.064042 0.522984 0.769402
O O3 0.000000 0.413024 0.750000
O O4 0.128253 0.458099 0.157646
O O5 0.262829 0.873957 0.517894
O O6 0.342332 0.764692 0.613802
O O7 0.251649 0.842528 0.215754
O O8 0.701957 0.948746 0.573866
O O9 0.594473 0.847075 0.237030
O O10 0.325383 0.519430 0.774499
O O11 0.328699 0.566841 0.506651
O O12 0.386400 0.645800 0.850636
O O13 0.304999 0.619802 0.180884
O O14 0.376545 0.706705 0.197632
O O15 0.250000 0.750000 0.000000
O O16 0.911187 0.273603 0.038209
O O17 0.988898 0.242745 0.002301
#
# Coordination Sequence:
#
# PCOD8154128 Si02
#       8
#     8   8   8   8   8   8   8   8
#     4  12  26  40  61  96 144 178 222 271 344 413
#     4  12  23  42  68 100 134 182 233 285 339 413
#     4  12  24  42  63 100 137 185 219 279 344 418
#     4  12  25  44  70 105 134 176 235 284 353 411
#     4  12  23  43  70 101 136 181 232 292 342 408
#     4  12  24  43  73 104 134 177 230 293 344 409
#     4  11  26  43  71 101 137 185 228 292 342 415
#     4  11  25  45  69  98 142 179 236 284 356 410
#
# _framework density 21.547402000000002
#
# number of rings (size 3 to 8) (size 9 to 14) (size 15 to 20)
#    0.000    0.250    5.000    4.500    3.500    0.000 
#    0.000    3.750    0.000    0.000    0.000    0.000 
#    0.000    0.000    0.000    0.000    0.000    0.000 
#
# Total GULP energy -396868.260990 kJ/mol
# GULP energy per Si atom -12402.133156 kJ/mol
# Density = 2.149836 g / cm^3
# Si number density = 21.547402 Si / 1000 Ang^3
#
#
#
# Elastic Constant Matrix: (Units=GPa)
#
#
# Indices 1 2 3 4 5 6 
#
# 1 104.2651 47.2748 36.9912 0.0000 0.8710 0.0000
# 2 47.2748 122.7772 35.3309 0.0000 2.0491 0.0000
# 3 36.9912 35.3309 70.9670 0.0000 -11.8883 0.0000
# 4 0.0000 0.0000 0.0000 24.0082 0.0000 -3.0554
# 5 0.8710 2.0491 -11.8883 0.0000 34.6738 0.0000
# 6 0.0000 0.0000 0.0000 -3.0554 0.0000 43.6205
#
#
#
# Elastic Compliance Matrix: (Units=1/GPa)
#
#
# Indices 1 2 3 4 5 6 
#
# 1 0.013102 -0.003444 -0.005449 0.000000 -0.001994 0.000000
# 2 -0.003444 0.010591 -0.003785 0.000000 -0.001837 0.000000
# 3 -0.005449 -0.003785 0.020027 0.000000 0.007227 0.000000
# 4 0.000000 0.000000 0.000000 0.042027 0.000000 0.002944
# 5 -0.001994 -0.001837 0.007227 0.000000 0.031477 0.000000
# 6 0.000000 0.000000 0.000000 0.002944 0.000000 0.023131
#
#
# Mechanical properties :
#
#
# Convention : Reuss Voigt Hill
#
# Bulk Modulus (GPa) = 54.45636 59.68924 57.07280
# Shear Modulus (GPa) = 29.09822 32.35464 30.72643
#
# Velocity S-wave (km/s) = 3.67880 3.87920 3.78033
# Velocity P-wave (km/s) = 6.58578 6.91561 6.75271
#
# Compressibility (1/GPa) = 0.01836333
#
# Stress axis : x y z
#
# Youngs Moduli (GPa) = 76.32316 94.42198 49.93367
#
# Poissons Ratio (x) = 0.32515 0.27209
# Poissons Ratio (y) = 0.26283 0.18902
# Poissons Ratio (z) = 0.41589 0.35743
#
# Static dielectric constant tensor:
#      x y z
#    x 3.824420 0.000000 -0.007330 
#    y 0.000000 3.842750 0.000000 
#    z -0.007330 0.000000 3.646690 
# 
# 
# High freq. dielectric constant tensor:
#      x y z
#    x 1.859610 0.000000 -0.012240 
#    y 0.000000 1.849110 0.000000 
#    z -0.012240 0.000000 1.832830 
# 
# From -- ./inp_files/70618.got.cif
#   From: 2010.06.25/outbox.cif.g09.slc.cpg/sg15_36_cif.got.tgz:70618.got - 2010.06.28 07:06:18.
