data_PCOD8154605
_publ_section_title
;
Structure prediction by ZEFSAII (Michael W. Deem and Ramdas Pophale) SiO2 
 PCOD8154605
Probable space group: C 2/C
;
_chemical_formula_sum "Si O2"
_cell_formula_units_Z 44
_cell_length_a 21.837938
_cell_length_b 13.014614
_cell_length_c 8.497749
_cell_angle_alpha 90.000000
_cell_angle_beta 120.249709
_cell_angle_gamma 90.000000
_cell_volume 2086.311521
_symmetry_space_group_name_H-M "C 2/C"
_symmetry_group_IT_number 15
_symmetry_cell_setting 'monoclinic'
loop_
_space_group_symop_operation_xyz
x,y,z
-x,y,1/2-z
-x,-y,-z
x,-y,1/2+z
1/2+x,1/2+y,z
1/2-x,1/2+y,1/2-z
1/2-x,1/2-y,-z
1/2+x,1/2-y,1/2+z
loop_
_atom_site_type_symbol
_atom_site_label
_atom_site_fract_x
_atom_site_fract_y
_atom_site_fract_z
Si Si1 0.857248 0.367916 0.979044
Si Si2 0.644207 0.552747 0.933905
Si Si3 0.943739 0.913322 0.883506
Si Si4 0.500000 0.237672 0.750000
Si Si5 0.785020 0.195020 0.691027
Si Si6 0.293674 0.960238 0.208882
O O1 0.813890 0.270170 0.861226
O O2 0.853886 0.461582 0.849984
O O3 0.937864 0.337569 0.114236
O O4 0.819980 0.403127 0.089618
O O5 0.602640 0.451084 0.825495
O O6 0.648427 0.628317 0.788370
O O7 0.604763 0.609008 0.027148
O O8 0.723181 0.525740 0.087611
O O9 0.978713 0.807106 0.873052
O O10 0.000000 0.000000 0.000000
O O11 0.750000 0.250000 0.500000
O O12 0.723266 0.124368 0.681948
#
# Coordination Sequence:
#
# PCOD8154605 Si02
#       6
#     8   8   8   4   8   8
#     4  12  26  47  70 102 142 188 240 289 354 427
#     4  12  22  41  71  98 137 176 225 294 360 392
#     4  12  23  43  66 101 141 182 226 285 356 418
#     4  12  28  44  70 102 144 196 246 274 346 442
#     4  12  24  41  70 110 136 174 236 293 359 419
#     4  12  24  46  71 101 142 181 232 302 357 408
#
# _framework density 21.089850999999999
#
# number of rings (size 3 to 8) (size 9 to 14) (size 15 to 20)
#    0.000    0.000    7.273    2.727    2.545    0.727 
#    0.000    0.000    0.000    0.000    0.000    0.000 
#    0.000    0.000    0.000    0.000    0.000    0.000 
#
# Total GULP energy -272909.437478 kJ/mol
# GULP energy per Si atom -12404.974431 kJ/mol
# Density = 2.104185 g / cm^3
# Si number density = 21.089851 Si / 1000 Ang^3
#
#
#
# Elastic Constant Matrix: (Units=GPa)
#
#
# Indices 1 2 3 4 5 6 
#
# 1 135.1371 60.9849 60.7001 0.0000 -13.4451 0.0000
# 2 60.9849 119.5551 60.8195 0.0000 1.9601 0.0000
# 3 60.7001 60.8195 113.1636 0.0000 3.2057 0.0000
# 4 0.0000 0.0000 0.0000 53.9622 0.0000 7.6323
# 5 -13.4451 1.9601 3.2057 0.0000 49.3283 0.0000
# 6 0.0000 0.0000 0.0000 7.6323 0.0000 16.8619
#
#
#
# Elastic Compliance Matrix: (Units=1/GPa)
#
#
# Indices 1 2 3 4 5 6 
#
# 1 0.011287 -0.003695 -0.004167 0.000000 0.003494 0.000000
# 2 -0.003695 0.012721 -0.004821 0.000000 -0.001199 0.000000
# 3 -0.004167 -0.004821 0.013715 0.000000 -0.001836 0.000000
# 4 0.000000 0.000000 0.000000 0.019799 0.000000 -0.008962
# 5 0.003494 -0.001199 -0.001836 0.000000 0.021392 0.000000
# 6 0.000000 0.000000 0.000000 -0.008962 0.000000 0.063362
#
#
# Mechanical properties :
#
#
# Convention : Reuss Voigt Hill
#
# Bulk Modulus (GPa) = 80.92784 81.42941 81.17862
# Shear Modulus (GPa) = 29.11015 36.38723 32.74869
#
# Velocity S-wave (km/s) = 3.71926 4.15823 3.94486
# Velocity P-wave (km/s) = 7.54321 7.85806 7.70224
#
# Compressibility (1/GPa) = 0.01235669
#
# Stress axis : x y z
#
# Youngs Moduli (GPa) = 88.59963 78.60847 72.91098
#
# Poissons Ratio (x) = 0.29043 0.30385
# Poissons Ratio (y) = 0.32734 0.35153
# Poissons Ratio (z) = 0.36924 0.37899
#
# Static dielectric constant tensor:
#      x y z
#    x 4.345530 0.000000 -0.127100 
#    y 0.000000 3.569490 0.000000 
#    z -0.127100 0.000000 4.024110 
# 
# 
# High freq. dielectric constant tensor:
#      x y z
#    x 1.826050 0.000000 -0.012480 
#    y 0.000000 1.828180 0.000000 
#    z -0.012480 0.000000 1.840500 
# 
# From -- ./inp_files/54337.got.cif
#   From: 2010.06.25/outbox.cif.g09.slc.cpg/sg15_28_cif.got.tgz:54337.got - 2010.06.28 07:06:18.
