data_PCOD8154210
_publ_section_title
;
Structure prediction by ZEFSAII (Michael W. Deem and Ramdas Pophale) SiO2 
 PCOD8154210
Probable space group: C 2/C
;
_chemical_formula_sum "Si O2"
_cell_formula_units_Z 44
_cell_length_a 13.154882
_cell_length_b 25.816328
_cell_length_c 15.258410
_cell_angle_alpha 90.000000
_cell_angle_beta 160.272716
_cell_angle_gamma 90.000000
_cell_volume 1749.123657
_symmetry_space_group_name_H-M "C 2/C"
_symmetry_group_IT_number 15
_symmetry_cell_setting 'monoclinic'
loop_
_space_group_symop_operation_xyz
x,y,z
-x,y,1/2-z
-x,-y,-z
x,-y,1/2+z
1/2+x,1/2+y,z
1/2-x,1/2+y,1/2-z
1/2-x,1/2-y,-z
1/2+x,1/2-y,1/2+z
loop_
_atom_site_type_symbol
_atom_site_label
_atom_site_fract_x
_atom_site_fract_y
_atom_site_fract_z
Si Si1 0.500000 0.714551 0.750000
Si Si2 0.000000 0.381044 0.250000
Si Si3 0.751126 0.066959 0.797477
Si Si4 0.500000 0.681613 0.250000
Si Si5 0.208357 0.779176 0.740609
Si Si6 0.413905 0.962437 0.778974
Si Si7 0.608814 0.134732 0.528347
O O1 0.250000 0.750000 0.500000
O O2 0.366492 0.676072 0.714969
O O3 0.246695 0.414403 0.395386
O O4 0.196545 0.350290 0.481781
O O5 0.615354 0.113883 0.632197
O O6 0.544384 0.014495 0.628520
O O7 0.072789 0.055347 0.016459
O O8 0.457726 0.717455 0.301042
O O9 0.018676 0.751448 0.511162
O O10 0.287644 0.835337 0.763841
O O11 0.500000 0.975952 0.750000
O O12 0.628240 0.915109 0.980846
#
# Coordination Sequence:
#
# PCOD8154210 Si02
#       7
#     4   4   8   4   8   8   8
#     4  12  30  52  80 118 154 208 270 332 396 466
#     4  12  24  47  75 114 152 205 244 323 372 476
#     4  11  25  46  75 114 153 206 261 315 402 470
#     4  12  24  45  73 102 150 193 254 295 394 440
#     4  12  26  44  70 104 145 195 250 313 376 457
#     4  11  25  47  76 112 154 202 263 325 395 475
#     4  12  26  47  76 104 153 201 257 321 395 465
#
# _framework density 25.155456000000001
#
# number of rings (size 3 to 8) (size 9 to 14) (size 15 to 20)
#    0.000    0.364    2.727    5.455    6.364    0.000 
#    0.000    0.000    0.000    0.000    0.000    0.000 
#    0.000    0.000    0.000    0.000    0.000    0.000 
#
# Total GULP energy -272648.137386 kJ/mol
# GULP energy per Si atom -12393.097154 kJ/mol
# Density = 2.509820 g / cm^3
# Si number density = 25.155456 Si / 1000 Ang^3
#
#
#
# Elastic Constant Matrix: (Units=GPa)
#
#
# Indices 1 2 3 4 5 6 
#
# 1 133.0194 54.4926 28.5815 -0.0105 12.6450 -0.0102
# 2 54.4926 152.6220 45.8852 -0.0068 0.0582 -0.0069
# 3 28.5815 45.8852 108.4481 -0.0105 -1.1651 -0.0252
# 4 -0.0105 -0.0068 -0.0105 28.9268 -0.0049 6.2405
# 5 12.6450 0.0582 -1.1651 -0.0049 32.6482 -0.0083
# 6 -0.0102 -0.0069 -0.0252 6.2405 -0.0083 67.5899
#
#
#
# Elastic Compliance Matrix: (Units=1/GPa)
#
#
# Indices 1 2 3 4 5 6 
#
# 1 0.009347 -0.002960 -0.001250 0.000002 -0.003659 0.000000
# 2 -0.002960 0.008445 -0.002782 0.000000 0.001032 -0.000001
# 3 -0.001250 -0.002782 0.010737 0.000002 0.000872 0.000003
# 4 0.000002 0.000000 0.000002 0.035273 0.000004 -0.003257
# 5 -0.003659 0.001032 0.000872 0.000004 0.032076 0.000003
# 6 0.000000 -0.000001 0.000003 -0.003257 0.000003 0.015096
#
#
# Mechanical properties :
#
#
# Convention : Reuss Voigt Hill
#
# Bulk Modulus (GPa) = 68.75514 72.44534 70.60024
# Shear Modulus (GPa) = 38.51910 43.50832 41.01371
#
# Velocity S-wave (km/s) = 3.91735 4.16333 4.04221
# Velocity P-wave (km/s) = 6.91754 7.20921 7.06488
#
# Compressibility (1/GPa) = 0.01454437
#
# Stress axis : x y z
#
# Youngs Moduli (GPa) = 106.98873 118.41416 93.13632
#
# Poissons Ratio (x) = 0.35050 0.11645
# Poissons Ratio (y) = 0.31668 0.25910
# Poissons Ratio (z) = 0.13377 0.32942
#
# Static dielectric constant tensor:
#      x y z
#    x 4.778830 0.000090 0.248930 
#    y 0.000090 4.962860 -0.000080 
#    z 0.248930 -0.000080 4.242050 
# 
# 
# High freq. dielectric constant tensor:
#      x y z
#    x 2.023730 0.000000 0.018290 
#    y 0.000000 2.026550 -0.000010 
#    z 0.018290 -0.000010 1.974700 
# 
# From -- ./inp_files/207401.got.cif
#   From: 2010.06.25/outbox.cif.g09.slc.cpg/sg15_104_cif.got.tgz:207401.got - 2010.06.28 07:06:18.
