data_PCOD8154906
_publ_section_title
;
Structure prediction by ZEFSAII (Michael W. Deem and Ramdas Pophale) SiO2 
 PCOD8154906
Probable space group: C 2/C
;
_chemical_formula_sum "Si O2"
_cell_formula_units_Z 28
_cell_length_a 9.585105
_cell_length_b 24.107193
_cell_length_c 5.150382
_cell_angle_alpha 90.000000
_cell_angle_beta 72.442887
_cell_angle_gamma 90.000000
_cell_volume 1134.659960
_symmetry_space_group_name_H-M "C 2/C"
_symmetry_group_IT_number 15
_symmetry_cell_setting 'monoclinic'
loop_
_space_group_symop_operation_xyz
x,y,z
-x,y,1/2-z
-x,-y,-z
x,-y,1/2+z
1/2+x,1/2+y,z
1/2-x,1/2+y,1/2-z
1/2-x,1/2-y,-z
1/2+x,1/2-y,1/2+z
loop_
_atom_site_type_symbol
_atom_site_label
_atom_site_fract_x
_atom_site_fract_y
_atom_site_fract_z
Si Si1 0.258054 0.211984 0.241864
Si Si2 0.681673 0.967042 0.494174
Si Si3 0.000000 0.367313 0.750000
Si Si4 0.500000 0.364478 0.750000
Si Si5 0.500000 0.568678 0.750000
O O1 0.250000 0.250000 0.500000
O O2 0.402454 0.174124 0.131941
O O3 0.121946 0.171409 0.321955
O O4 0.250000 0.250000 0.000000
O O5 0.610012 0.905557 0.516708
O O6 0.858600 0.966460 0.415225
O O7 0.625078 0.004484 0.290055
O O8 0.560591 0.399218 0.471337
#
# Coordination Sequence:
#
# PCOD8154906 Si02
#       5
#     8   8   4   4   4
#     4  12  27  48  76 109 148 198 255 313 383 449
#     4  12  27  48  77 114 152 201 254 305 381 456
#     4  12  28  51  80 111 161 194 249 330 374 436
#     4  12  24  47  74 105 147 198 252 297 384 456
#     4  12  24  48  76 106 154 200 243 307 370 456
#
# _framework density 24.676995000000002
#
# number of rings (size 3 to 8) (size 9 to 14) (size 15 to 20)
#    0.000    0.000    2.857    6.857    0.000    2.286 
#    0.000    0.000    0.000    0.000    0.000    0.000 
#    0.000    0.000    0.000    0.000    0.000    0.000 
#
# Total GULP energy -173624.306591 kJ/mol
# GULP energy per Si atom -12401.736185 kJ/mol
# Density = 2.462083 g / cm^3
# Si number density = 24.676995 Si / 1000 Ang^3
#
#
#
# Elastic Constant Matrix: (Units=GPa)
#
#
# Indices 1 2 3 4 5 6 
#
# 1 143.8533 59.0835 35.4415 0.0000 6.5866 0.0000
# 2 59.0835 137.2622 68.6069 0.0000 15.2515 0.0000
# 3 35.4415 68.6069 184.3557 0.0000 25.9177 0.0000
# 4 0.0000 0.0000 0.0000 117.9612 0.0000 9.9091
# 5 6.5866 15.2515 25.9177 0.0000 43.8006 0.0000
# 6 0.0000 0.0000 0.0000 9.9091 0.0000 41.0836
#
#
#
# Elastic Compliance Matrix: (Units=1/GPa)
#
#
# Indices 1 2 3 4 5 6 
#
# 1 0.008462 -0.003483 -0.000351 0.000000 0.000148 0.000000
# 2 -0.003483 0.010447 -0.003033 0.000000 -0.001319 0.000000
# 3 -0.000351 -0.003033 0.007051 0.000000 -0.003063 0.000000
# 4 0.000000 0.000000 0.000000 0.008653 0.000000 -0.002087
# 5 0.000148 -0.001319 -0.003063 0.000000 0.025081 0.000000
# 6 0.000000 0.000000 0.000000 -0.002087 0.000000 0.024844
#
#
# Mechanical properties :
#
#
# Convention : Reuss Voigt Hill
#
# Bulk Modulus (GPa) = 81.79585 87.97057 84.88321
# Shear Modulus (GPa) = 48.85336 60.72503 54.78919
#
# Velocity S-wave (km/s) = 4.45422 4.96602 4.71707
# Velocity P-wave (km/s) = 7.72477 8.28300 8.00875
#
# Compressibility (1/GPa) = 0.01222556
#
# Stress axis : x y z
#
# Youngs Moduli (GPa) = 118.17616 95.72046 141.82144
#
# Poissons Ratio (x) = 0.33342 0.04983
# Poissons Ratio (y) = 0.41164 0.43010
# Poissons Ratio (z) = 0.04152 0.29029
#
# Static dielectric constant tensor:
#      x y z
#    x 4.764530 0.000000 -0.206420 
#    y 0.000000 4.762560 0.000000 
#    z -0.206420 0.000000 4.358300 
# 
# 
# High freq. dielectric constant tensor:
#      x y z
#    x 2.011460 0.000000 0.000220 
#    y 0.000000 1.992040 0.000000 
#    z 0.000220 0.000000 1.982500 
# 
# From -- ./inp_files/1979.got.cif
#   From: 2010.06.25/outbox.cif.g09.slc.cpg/sg15_1_cif.got.tgz:1979.got - 2010.06.28 07:06:18.
