data_PCOD8154968
_publ_section_title
;
Structure prediction by ZEFSAII (Michael W. Deem and Ramdas Pophale) SiO2 
 PCOD8154968
Probable space group: C 2/C
;
_chemical_formula_sum "Si O2"
_cell_formula_units_Z 48
_cell_length_a 8.798478
_cell_length_b 23.661427
_cell_length_c 16.253256
_cell_angle_alpha 90.000000
_cell_angle_beta 141.074715
_cell_angle_gamma 90.000000
_cell_volume 2125.985865
_symmetry_space_group_name_H-M "C 2/C"
_symmetry_group_IT_number 15
_symmetry_cell_setting 'monoclinic'
loop_
_space_group_symop_operation_xyz
x,y,z
-x,y,1/2-z
-x,-y,-z
x,-y,1/2+z
1/2+x,1/2+y,z
1/2-x,1/2+y,1/2-z
1/2-x,1/2-y,-z
1/2+x,1/2-y,1/2+z
loop_
_atom_site_type_symbol
_atom_site_label
_atom_site_fract_x
_atom_site_fract_y
_atom_site_fract_z
Si Si1 0.921641 0.798347 0.309786
Si Si2 0.202724 0.895677 0.520774
Si Si3 0.708949 0.497314 0.402339
Si Si4 0.888052 0.307691 0.047774
Si Si5 0.015689 0.109665 0.400389
Si Si6 0.123247 0.324724 0.648839
O O1 0.637289 0.804613 0.200412
O O2 0.981753 0.734116 0.360382
O O3 0.000000 0.809939 0.250000
O O4 0.042262 0.843958 0.419660
O O5 0.477783 0.876242 0.628660
O O6 0.148434 0.909766 0.592854
O O7 0.172983 0.954112 0.461079
O O8 0.500000 0.476994 0.250000
O O9 0.617455 0.558516 0.390202
O O10 0.000000 0.500000 0.500000
O O11 0.750000 0.250000 0.000000
O O12 0.745804 0.357480 0.034308
O O13 0.920813 0.324042 0.966428
O O14 0.893531 0.157611 0.289377
#
# Coordination Sequence:
#
# PCOD8154968 Si02
#       6
#     8   8   8   8   8   8
#     4  12  25  43  71 103 144 188 238 290 352 423
#     4  12  26  46  73 105 141 185 240 295 359 423
#     4  12  28  51  78 106 142 192 248 304 365 432
#     4  12  25  43  68 104 142 186 237 293 352 425
#     4  12  26  46  72 105 145 186 236 296 361 431
#     4  12  25  45  72 103 147 193 234 291 362 435
#
# _framework density 22.577762
#
# number of rings (size 3 to 8) (size 9 to 14) (size 15 to 20)
#    0.000    0.000    3.333    7.500    2.333    2.000 
#    0.000    1.667    0.000    0.000    0.000    0.000 
#    0.000    0.000    0.000    0.000    0.000    0.000 
#
# Total GULP energy -297483.998911 kJ/mol
# GULP energy per Si atom -12395.166621 kJ/mol
# Density = 2.252637 g / cm^3
# Si number density = 22.577762 Si / 1000 Ang^3
#
#
#
# Elastic Constant Matrix: (Units=GPa)
#
#
# Indices 1 2 3 4 5 6 
#
# 1 93.8099 4.7565 14.1099 -0.0007 -3.6673 0.0017
# 2 4.7565 93.3379 11.7029 -0.0007 0.2218 0.0009
# 3 14.1099 11.7029 71.0903 -0.0016 9.6587 0.0064
# 4 -0.0007 -0.0007 -0.0016 41.3479 -0.0002 -2.0173
# 5 -3.6673 0.2218 9.6587 -0.0002 37.7177 0.0022
# 6 0.0017 0.0009 0.0064 -2.0173 0.0022 42.6060
#
#
#
# Elastic Compliance Matrix: (Units=1/GPa)
#
#
# Indices 1 2 3 4 5 6 
#
# 1 0.011099 -0.000270 -0.002388 0.000000 0.001692 0.000000
# 2 -0.000270 0.010952 -0.001800 0.000000 0.000370 0.000000
# 3 -0.002388 -0.001800 0.015403 0.000000 -0.004166 -0.000002
# 4 0.000000 0.000000 0.000000 0.024241 0.000000 0.001148
# 5 0.001692 0.000370 -0.004166 0.000000 0.027742 -0.000001
# 6 0.000000 0.000000 -0.000002 0.001148 -0.000001 0.023525
#
#
# Mechanical properties :
#
#
# Convention : Reuss Voigt Hill
#
# Bulk Modulus (GPa) = 35.04120 35.48630 35.26375
# Shear Modulus (GPa) = 38.05427 39.51223 38.78325
#
# Velocity S-wave (km/s) = 4.10991 4.18790 4.14909
# Velocity P-wave (km/s) = 6.17055 6.25589 6.21337
#
# Compressibility (1/GPa) = 0.02853783
#
# Stress axis : x y z
#
# Youngs Moduli (GPa) = 90.09868 91.30506 64.92276
#
# Poissons Ratio (x) = 0.02467 0.15506
# Poissons Ratio (y) = 0.02434 0.11684
# Poissons Ratio (z) = 0.21519 0.16432
#
# Static dielectric constant tensor:
#      x y z
#    x 1.373290 -0.000310 -4.274790 
#    y -0.000310 4.060680 -0.000480 
#    z -4.274790 -0.000480 -2.911220 
# 
# 
# High freq. dielectric constant tensor:
#      x y z
#    x 1.904540 0.000000 0.012370 
#    y 0.000000 1.897440 0.000000 
#    z 0.012370 0.000000 1.900890 
# 
# From -- ./inp_files/139037.got.cif
#   From: 2010.06.25/outbox.cif.g09.slc.cpg/sg15_70_cif.got.tgz:139037.got - 2010.06.28 07:06:18.
