data_PCOD8154951
_publ_section_title
;
Structure prediction by ZEFSAII (Michael W. Deem and Ramdas Pophale) SiO2 
 PCOD8154951
Probable space group: C 2/C
;
_chemical_formula_sum "Si O2"
_cell_formula_units_Z 44
_cell_length_a 12.730069
_cell_length_b 13.461070
_cell_length_c 11.770128
_cell_angle_alpha 90.000000
_cell_angle_beta 95.795182
_cell_angle_gamma 90.000000
_cell_volume 2006.625116
_symmetry_space_group_name_H-M "C 2/C"
_symmetry_group_IT_number 15
_symmetry_cell_setting 'monoclinic'
loop_
_space_group_symop_operation_xyz
x,y,z
-x,y,1/2-z
-x,-y,-z
x,-y,1/2+z
1/2+x,1/2+y,z
1/2-x,1/2+y,1/2-z
1/2-x,1/2-y,-z
1/2+x,1/2-y,1/2+z
loop_
_atom_site_type_symbol
_atom_site_label
_atom_site_fract_x
_atom_site_fract_y
_atom_site_fract_z
Si Si1 0.501034 0.614749 0.529069
Si Si2 0.671630 0.112850 0.214501
Si Si3 0.815546 0.223461 0.395292
Si Si4 0.500000 0.275297 0.250000
Si Si5 0.881851 0.395939 0.241610
Si Si6 0.258378 0.362810 0.485855
O O1 0.500000 0.500000 0.500000
O O2 0.432798 0.680172 0.432760
O O3 0.456594 0.650819 0.647192
O O4 0.624427 0.628243 0.544197
O O5 0.755998 0.134807 0.322730
O O6 0.589741 0.204882 0.204185
O O7 0.610052 0.010193 0.221392
O O8 0.734614 0.090408 0.105402
O O9 0.750000 0.250000 0.500000
O O10 0.819569 0.323697 0.320848
O O11 0.826395 0.400454 0.113835
O O12 0.000000 0.353059 0.250000
O O13 0.250000 0.250000 0.500000
#
# Coordination Sequence:
#
# PCOD8154951 Si02
#       6
#     8   8   8   4   8   8
#     4  12  28  46  76 107 147 195 241 300 373 441
#     4  12  27  46  78 104 151 190 243 308 374 426
#     4  12  27  48  72 109 151 191 249 306 360 445
#     4  12  24  50  70 110 148 190 238 314 368 420
#     4  12  28  47  77 111 140 197 254 303 364 447
#     4  12  25  48  70 105 148 188 233 303 368 428
#
# _framework density 21.927364000000001
#
# number of rings (size 3 to 8) (size 9 to 14) (size 15 to 20)
#    0.000    0.000    6.364    2.182    5.091    2.182 
#    0.000    0.000    0.000    0.000    0.000    0.000 
#    0.000    0.000    0.000    0.000    0.000    0.000 
#
# Total GULP energy -272604.887990 kJ/mol
# GULP energy per Si atom -12391.131272 kJ/mol
# Density = 2.187746 g / cm^3
# Si number density = 21.927364 Si / 1000 Ang^3
#
#
#
# Elastic Constant Matrix: (Units=GPa)
#
#
# Indices 1 2 3 4 5 6 
#
# 1 106.8048 12.2328 35.0084 0.0000 11.8748 0.0000
# 2 12.2328 129.9177 28.4286 0.0000 -6.2276 0.0000
# 3 35.0084 28.4286 133.2233 0.0000 -0.9691 0.0000
# 4 0.0000 0.0000 0.0000 23.9883 0.0000 4.7930
# 5 11.8748 -6.2276 -0.9691 0.0000 43.2029 0.0000
# 6 0.0000 0.0000 0.0000 4.7930 0.0000 35.4983
#
#
#
# Elastic Compliance Matrix: (Units=1/GPa)
#
#
# Indices 1 2 3 4 5 6 
#
# 1 0.010654 -0.000559 -0.002703 0.000000 -0.003070 0.000000
# 2 -0.000559 0.008159 -0.001585 0.000000 0.001294 0.000000
# 3 -0.002703 -0.001585 0.008560 0.000000 0.000706 0.000000
# 4 0.000000 0.000000 0.000000 0.042843 0.000000 -0.005785
# 5 -0.003070 0.001294 0.000706 0.000000 0.024193 0.000000
# 6 0.000000 0.000000 0.000000 -0.005785 0.000000 0.028951
#
#
# Mechanical properties :
#
#
# Convention : Reuss Voigt Hill
#
# Bulk Modulus (GPa) = 56.56192 57.92061 57.24126
# Shear Modulus (GPa) = 35.98543 40.15630 38.07086
#
# Velocity S-wave (km/s) = 4.05547 4.28405 4.17133
# Velocity P-wave (km/s) = 6.91232 7.13743 7.02578
#
# Compressibility (1/GPa) = 0.01767974
#
# Stress axis : x y z
#
# Youngs Moduli (GPa) = 93.86082 122.57008 116.82628
#
# Poissons Ratio (x) = 0.06850 0.31575
# Poissons Ratio (y) = 0.05246 0.18513
# Poissons Ratio (z) = 0.25368 0.19424
#
# Static dielectric constant tensor:
#      x y z
#    x 3.949720 0.000000 0.129420 
#    y 0.000000 8.020640 0.000000 
#    z 0.129420 0.000000 4.126790 
# 
# 
# High freq. dielectric constant tensor:
#      x y z
#    x 1.875820 0.000000 0.003700 
#    y 0.000000 1.873950 0.000000 
#    z 0.003700 0.000000 1.870970 
# 
# From -- ./inp_files/86197.got.cif
#   From: 2010.06.25/outbox.cif.g09.slc.cpg/sg15_44_cif.got.tgz:86197.got - 2010.06.28 07:06:18.
