data_PCOD8154329
_publ_section_title
;
Structure prediction by ZEFSAII (Michael W. Deem and Ramdas Pophale) SiO2 
 PCOD8154329
Probable space group: C 2/C
;
_chemical_formula_sum "Si O2"
_cell_formula_units_Z 48
_cell_length_a 20.727097
_cell_length_b 5.151733
_cell_length_c 29.208182
_cell_angle_alpha 90.000000
_cell_angle_beta 140.032565
_cell_angle_gamma 90.000000
_cell_volume 2003.408486
_symmetry_space_group_name_H-M "C 2/C"
_symmetry_group_IT_number 15
_symmetry_cell_setting 'monoclinic'
loop_
_space_group_symop_operation_xyz
x,y,z
-x,y,1/2-z
-x,-y,-z
x,-y,1/2+z
1/2+x,1/2+y,z
1/2-x,1/2+y,1/2-z
1/2-x,1/2-y,-z
1/2+x,1/2-y,1/2+z
loop_
_atom_site_type_symbol
_atom_site_label
_atom_site_fract_x
_atom_site_fract_y
_atom_site_fract_z
Si Si1 0.325021 0.549302 0.062003
Si Si2 0.870349 0.398458 0.763738
Si Si3 0.338049 0.236177 0.979838
Si Si4 0.553553 0.975609 0.593487
Si Si5 0.971603 0.117858 0.284599
Si Si6 0.153832 0.966444 0.611093
O O1 0.358869 0.354279 0.040894
O O2 0.425826 0.686049 0.133343
O O3 0.250000 0.750000 0.000000
O O4 0.268021 0.416468 0.074111
O O5 0.906528 0.483310 0.833290
O O6 0.909904 0.614364 0.749453
O O7 0.750374 0.403081 0.694794
O O8 0.909172 0.110130 0.774718
O O9 0.434029 0.054184 0.023543
O O10 0.323288 0.442105 0.930733
O O11 0.612690 0.752815 0.598063
O O12 0.570941 0.254378 0.579862
O O13 0.000000 0.020258 0.250000
#
# Coordination Sequence:
#
# PCOD8154329 Si02
#       6
#     8   8   8   8   8   8
#     4  11  26  44  74 100 144 185 228 292 354 414
#     4  12  25  47  70 102 144 181 237 285 348 415
#     4  11  26  45  70 106 140 185 235 289 352 415
#     4  12  25  47  70 104 141 188 231 290 348 409
#     4  12  26  45  73 104 141 184 232 286 348 416
#     4  12  27  44  74 103 141 184 240 286 343 416
#
# _framework density 23.959168999999999
#
# number of rings (size 3 to 8) (size 9 to 14) (size 15 to 20)
#    0.000    0.333    1.667    6.500    9.333    0.000 
#    0.000    0.000    0.000    0.000    0.000    0.000 
#    0.000    0.000    0.000    0.000    0.000    0.000 
#
# Total GULP energy -297714.494414 kJ/mol
# GULP energy per Si atom -12404.770601 kJ/mol
# Density = 2.390464 g / cm^3
# Si number density = 23.959169 Si / 1000 Ang^3
#
#
#
# Elastic Constant Matrix: (Units=GPa)
#
#
# Indices 1 2 3 4 5 6 
#
# 1 87.7703 3.8363 7.9670 -0.0016 -2.9195 0.0015
# 2 3.8363 69.3895 -6.7261 -0.0252 13.0040 0.1308
# 3 7.9670 -6.7261 72.7995 0.0301 12.3935 -0.0399
# 4 -0.0016 -0.0252 0.0301 31.2493 -0.0068 3.4774
# 5 -2.9195 13.0040 12.3935 -0.0068 41.7813 -0.0082
# 6 0.0015 0.1308 -0.0399 3.4774 -0.0082 23.1503
#
#
#
# Elastic Compliance Matrix: (Units=1/GPa)
#
#
# Indices 1 2 3 4 5 6 
#
# 1 0.011648 -0.001115 -0.001659 0.000001 0.001653 0.000003
# 2 -0.001115 0.015800 0.002562 0.000019 -0.005755 -0.000090
# 3 -0.001659 0.002562 0.015071 -0.000015 -0.005384 0.000012
# 4 0.000001 0.000019 -0.000015 0.032545 0.000003 -0.004889
# 5 0.001653 -0.005755 -0.005384 0.000003 0.027438 0.000032
# 6 0.000003 -0.000090 0.000012 -0.004889 0.000032 0.043931
#
#
# Mechanical properties :
#
#
# Convention : Reuss Voigt Hill
#
# Bulk Modulus (GPa) = 23.75598 26.67932 25.21765
# Shear Modulus (GPa) = 31.07752 34.22832 32.65292
#
# Velocity S-wave (km/s) = 3.60544 3.78380 3.69569
# Velocity P-wave (km/s) = 5.22197 5.49991 5.36274
#
# Compressibility (1/GPa) = 0.04209466
#
# Stress axis : x y z
#
# Youngs Moduli (GPa) = 85.85412 63.29088 66.35206
#
# Poissons Ratio (x) = 0.07054 0.11008
# Poissons Ratio (y) = 0.09569 -0.16996
# Poissons Ratio (z) = 0.14244 -0.16212
#
# Static dielectric constant tensor:
#      x y z
#    x 4.438350 -0.008410 0.312610 
#    y -0.008410 9.811770 -0.006030 
#    z 0.312610 -0.006030 4.208000 
# 
# 
# High freq. dielectric constant tensor:
#      x y z
#    x 1.966510 -0.000010 0.003060 
#    y -0.000010 1.949410 0.000000 
#    z 0.003060 0.000000 1.963260 
# 
# From -- ./inp_files/250858.got.cif
#   From: 2010.06.25/outbox.cif.g09.slc.cpg/sg15_126_cif.got.tgz:250858.got - 2010.06.28 07:06:18.
