data_PCOD8154439
_publ_section_title
;
Structure prediction by ZEFSAII (Michael W. Deem and Ramdas Pophale) SiO2 
 PCOD8154439
Probable space group: C 2/C
;
_chemical_formula_sum "Si O2"
_cell_formula_units_Z 36
_cell_length_a 16.207560
_cell_length_b 9.263843
_cell_length_c 17.632838
_cell_angle_alpha 90.000000
_cell_angle_beta 36.661876
_cell_angle_gamma 90.000000
_cell_volume 1580.781870
_symmetry_space_group_name_H-M "C 2/C"
_symmetry_group_IT_number 15
_symmetry_cell_setting 'monoclinic'
loop_
_space_group_symop_operation_xyz
x,y,z
-x,y,1/2-z
-x,-y,-z
x,-y,1/2+z
1/2+x,1/2+y,z
1/2-x,1/2+y,1/2-z
1/2-x,1/2-y,-z
1/2+x,1/2-y,1/2+z
loop_
_atom_site_type_symbol
_atom_site_label
_atom_site_fract_x
_atom_site_fract_y
_atom_site_fract_z
Si Si1 0.999428 0.041817 0.342565
Si Si2 0.698768 0.054921 0.857108
Si Si3 0.500000 0.961760 0.750000
Si Si4 0.020608 0.367217 0.091665
Si Si5 0.274333 0.678526 0.060987
O O1 0.980027 0.198450 0.392229
O O2 0.000000 0.040307 0.250000
O O3 0.139604 0.971696 0.270474
O O4 0.878288 0.952507 0.471330
O O5 0.630190 0.077255 0.825039
O O6 0.664579 0.203488 0.926674
O O7 0.633673 0.913707 0.945714
O O8 0.378381 0.870551 0.799542
O O9 0.432542 0.059010 0.864856
O O10 0.250000 0.750000 0.000000
#
# Coordination Sequence:
#
# PCOD8154439 Si02
#       5
#     8   8   4   8   8
#     4  12  25  44  74 101 135 185 231 277 342 415
#     4  11  27  47  66 104 143 177 227 288 340 411
#     4  12  24  44  70  96 134 182 226 284 336 406
#     4  11  27  45  69 100 141 177 229 286 343 400
#     4  12  24  43  71 100 136 183 228 277 347 408
#
# _framework density 22.773540000000001
#
# number of rings (size 3 to 8) (size 9 to 14) (size 15 to 20)
#    0.000    0.444    5.556    1.333    6.222    4.444 
#    0.000    0.000    0.000    0.000    0.000    0.000 
#    0.000    0.000    0.000    0.000    0.000    0.000 
#
# Total GULP energy -223200.508002 kJ/mol
# GULP energy per Si atom -12400.028222 kJ/mol
# Density = 2.272171 g / cm^3
# Si number density = 22.773540 Si / 1000 Ang^3
#
#
#
# Elastic Constant Matrix: (Units=GPa)
#
#
# Indices 1 2 3 4 5 6 
#
# 1 82.4069 29.5422 17.5658 0.0000 -15.9069 0.0000
# 2 29.5422 145.5816 49.4876 0.0000 -4.0618 0.0000
# 3 17.5658 49.4876 100.4637 0.0000 -29.4235 0.0000
# 4 0.0000 0.0000 0.0000 29.3286 0.0000 -5.6882
# 5 -15.9069 -4.0618 -29.4235 0.0000 40.2999 0.0000
# 6 0.0000 0.0000 0.0000 -5.6882 0.0000 34.8867
#
#
#
# Elastic Compliance Matrix: (Units=1/GPa)
#
#
# Indices 1 2 3 4 5 6 
#
# 1 0.014162 -0.002938 0.000663 0.000000 0.005778 0.000000
# 2 -0.002938 0.009101 -0.005139 0.000000 -0.003995 0.000000
# 3 0.000663 -0.005139 0.015638 0.000000 0.011162 0.000000
# 4 0.000000 0.000000 0.000000 0.035210 0.000000 0.005741
# 5 0.005778 -0.003995 0.011162 0.000000 0.034841 0.000000
# 6 0.000000 0.000000 0.000000 0.005741 0.000000 0.029600
#
#
# Mechanical properties :
#
#
# Convention : Reuss Voigt Hill
#
# Bulk Modulus (GPa) = 41.53955 57.96035 49.74995
# Shear Modulus (GPa) = 30.97798 36.36015 33.66906
#
# Velocity S-wave (km/s) = 3.69217 4.00008 3.84921
# Velocity P-wave (km/s) = 6.03789 6.84399 6.45353
#
# Compressibility (1/GPa) = 0.02407345
#
# Stress axis : x y z
#
# Youngs Moduli (GPa) = 70.61065 109.88134 63.94536
#
# Poissons Ratio (x) = 0.32285 -0.04242
# Poissons Ratio (y) = 0.20747 0.32862
# Poissons Ratio (z) = -0.04684 0.56470
#
# Static dielectric constant tensor:
#      x y z
#    x 4.235250 0.000000 -0.048500 
#    y 0.000000 3.579540 0.000000 
#    z -0.048500 0.000000 3.784480 
# 
# 
# High freq. dielectric constant tensor:
#      x y z
#    x 1.908710 0.000000 -0.011120 
#    y 0.000000 1.912490 0.000000 
#    z -0.011120 0.000000 1.892530 
# 
# From -- ./inp_files/102440.got.cif
#   From: 2010.06.25/outbox.cif.g09.slc.cpg/sg15_52_cif.got.tgz:102440.got - 2010.06.28 07:06:18.
