data_PCOD8154459
_publ_section_title
;
Structure prediction by ZEFSAII (Michael W. Deem and Ramdas Pophale) SiO2 
 PCOD8154459
Probable space group: C 2/C
;
_chemical_formula_sum "Si O2"
_cell_formula_units_Z 48
_cell_length_a 8.544592
_cell_length_b 25.691421
_cell_length_c 14.575748
_cell_angle_alpha 90.000000
_cell_angle_beta 139.602833
_cell_angle_gamma 90.000000
_cell_volume 2073.673756
_symmetry_space_group_name_H-M "C 2/C"
_symmetry_group_IT_number 15
_symmetry_cell_setting 'monoclinic'
loop_
_space_group_symop_operation_xyz
x,y,z
-x,y,1/2-z
-x,-y,-z
x,-y,1/2+z
1/2+x,1/2+y,z
1/2-x,1/2+y,1/2-z
1/2-x,1/2-y,-z
1/2+x,1/2-y,1/2+z
loop_
_atom_site_type_symbol
_atom_site_label
_atom_site_fract_x
_atom_site_fract_y
_atom_site_fract_z
Si Si1 0.749919 0.700239 0.259588
Si Si2 0.237702 0.050718 0.897030
Si Si3 0.000000 0.711751 0.750000
Si Si4 0.000000 0.766472 0.250000
Si Si5 0.383500 0.638465 0.005128
Si Si6 0.216931 0.843266 0.482528
Si Si7 0.603708 0.964671 0.399199
O O1 0.705804 0.749921 0.304477
O O2 0.773820 0.728062 0.170125
O O3 0.998467 0.669869 0.389600
O O4 0.519301 0.661168 0.156363
O O5 0.420019 0.055095 0.893765
O O6 0.000000 0.023232 0.750000
O O7 0.184059 0.109118 0.899756
O O8 0.309635 0.019889 0.021755
O O9 0.141046 0.672766 0.881939
O O10 0.064383 0.797006 0.370186
O O11 0.315639 0.578224 0.988812
O O12 0.590166 0.641126 0.020421
O O13 0.500000 0.972820 0.250000
#
# Coordination Sequence:
#
# PCOD8154459 Si02
#       7
#     8   8   4   4   8   8   8
#     4  12  26  43  69 105 148 194 239 295 355 435
#     4  11  27  49  76 108 142 192 243 306 377 437
#     4  12  26  42  66 108 146 192 240 292 364 424
#     4  12  22  44  68 100 146 190 242 288 350 436
#     4  12  25  45  71 104 143 190 241 300 363 430
#     4  12  25  44  73 103 142 191 244 297 363 431
#     4  11  27  49  77 107 145 187 246 310 370 439
#
# _framework density 23.147326
#
# number of rings (size 3 to 8) (size 9 to 14) (size 15 to 20)
#    0.000    0.333    5.000    3.000    4.667    6.667 
#    0.000    0.000    0.000    0.000    0.000    0.000 
#    0.000    0.000    0.000    0.000    0.000    0.000 
#
# Total GULP energy -297329.134722 kJ/mol
# GULP energy per Si atom -12388.713947 kJ/mol
# Density = 2.309464 g / cm^3
# Si number density = 23.147326 Si / 1000 Ang^3
#
#
#
# Elastic Constant Matrix: (Units=GPa)
#
#
# Indices 1 2 3 4 5 6 
#
# 1 80.6764 48.8439 27.4163 -0.0006 4.3564 0.0005
# 2 48.8439 88.2860 38.7450 0.0000 -1.5505 0.0000
# 3 27.4163 38.7450 115.5085 -0.0005 9.2831 0.0004
# 4 -0.0006 0.0000 -0.0005-4190.2447 -0.0004 3484.1944
# 5 4.3564 -1.5505 9.2831 -0.0004 39.8443 0.0004
# 6 0.0005 0.0000 0.0004 3484.1944 0.0004-2838.6065
#
#
#
# Elastic Compliance Matrix: (Units=1/GPa)
#
#
# Indices 1 2 3 4 5 6 
#
# 1 0.018960 -0.010124 -0.000923 0.000000 -0.002252 0.000000
# 2 -0.010124 0.018787 -0.004124 0.000000 0.002799 0.000000
# 3 -0.000923 -0.004124 0.010460 0.000000 -0.002497 0.000000
# 4 0.000000 0.000000 0.000000 0.011579 0.000000 0.014212
# 5 -0.002252 0.002799 -0.002497 0.000000 0.026034 0.000000
# 6 0.000000 0.000000 0.000000 0.014212 0.000000 0.017092
#
#
# Mechanical properties :
#
#
# Convention : Reuss Voigt Hill
#
# Bulk Modulus (GPa) = 55.97454 57.16461 56.56957
# Shear Modulus (GPa) = 35.91725 -1386.50367 -675.29321
#
# Velocity S-wave (km/s) = 3.94341 -24.50084 -17.09884
# Velocity P-wave (km/s) = 6.70584 27.85029 19.11374
#
# Compressibility (1/GPa) = 0.01786527
#
# Stress axis : x y z
#
# Youngs Moduli (GPa) = 52.74316 53.22952 95.59896
#
# Poissons Ratio (x) = 0.53888 0.08828
# Poissons Ratio (y) = 0.53396 0.39421
# Poissons Ratio (z) = 0.04870 0.21950
#
# Static dielectric constant tensor:
#      x y z
#    x 4.653670 0.000000 0.129500 
#    y 0.000000 4.249210 0.000000 
#    z 0.129500 0.000000 4.115710 
# 
# 
# High freq. dielectric constant tensor:
#      x y z
#    x 1.928540 0.000000 0.004620 
#    y 0.000000 1.925710 0.000000 
#    z 0.004620 0.000000 1.913300 
# 
# From -- ./inp_files/139089.got.cif
#   From: 2010.06.25/outbox.cif.g09.slc.cpg/sg15_70_cif.got.tgz:139089.got - 2010.06.28 07:06:18.
