data_PCOD8154173
_publ_section_title
;
Structure prediction by ZEFSAII (Michael W. Deem and Ramdas Pophale) SiO2 
 PCOD8154173
Probable space group: C 2/C
;
_chemical_formula_sum "Si O2"
_cell_formula_units_Z 40
_cell_length_a 20.462933
_cell_length_b 6.442869
_cell_length_c 13.382157
_cell_angle_alpha 90.000000
_cell_angle_beta 80.607194
_cell_angle_gamma 90.000000
_cell_volume 1740.648919
_symmetry_space_group_name_H-M "C 2/C"
_symmetry_group_IT_number 15
_symmetry_cell_setting 'monoclinic'
loop_
_space_group_symop_operation_xyz
x,y,z
-x,y,1/2-z
-x,-y,-z
x,-y,1/2+z
1/2+x,1/2+y,z
1/2-x,1/2+y,1/2-z
1/2-x,1/2-y,-z
1/2+x,1/2-y,1/2+z
loop_
_atom_site_type_symbol
_atom_site_label
_atom_site_fract_x
_atom_site_fract_y
_atom_site_fract_z
Si Si1 0.182180 0.529442 0.059495
Si Si2 0.167568 0.211771 0.761367
Si Si3 0.229075 0.115649 0.119133
Si Si4 0.467074 0.476353 0.157521
Si Si5 0.450773 0.191271 0.501940
O O1 0.184510 0.631319 0.167576
O O2 0.180096 0.280602 0.079255
O O3 0.247388 0.555229 0.970599
O O4 0.119552 0.603869 0.013123
O O5 0.205518 0.274499 0.852320
O O6 0.090436 0.193171 0.807946
O O7 0.189848 0.985123 0.719898
O O8 0.500000 0.559940 0.250000
O O9 0.441605 0.682803 0.107576
O O10 0.524484 0.356565 0.084734
O O11 0.500000 0.000000 0.500000
#
# Coordination Sequence:
#
# PCOD8154173 Si02
#       5
#     8   8   8   8   8
#     4  11  25  46  68 102 143 184 238 296 356 425
#     4  12  24  45  72 101 144 184 235 296 359 424
#     4  11  26  42  71 107 137 188 243 292 358 429
#     4  11  26  46  70 108 141 184 241 292 348 430
#     4  11  26  46  73 102 143 188 235 291 355 423
#
# _framework density 22.979937
#
# number of rings (size 3 to 8) (size 9 to 14) (size 15 to 20)
#    0.000    0.800    4.000    1.800    5.600    5.600 
#    0.000    0.000    0.000    0.000    0.000    0.000 
#    0.000    0.000    0.000    0.000    0.000    0.000 
#
# Total GULP energy -247999.119944 kJ/mol
# GULP energy per Si atom -12399.955997 kJ/mol
# Density = 2.292763 g / cm^3
# Si number density = 22.979937 Si / 1000 Ang^3
#
#
#
# Elastic Constant Matrix: (Units=GPa)
#
#
# Indices 1 2 3 4 5 6 
#
# 1 98.7378 41.7712 40.4177 0.0000 9.4486 0.0000
# 2 41.7712 89.5658 48.4539 0.0000 11.2350 0.0000
# 3 40.4177 48.4539 132.7778 0.0000 10.2237 0.0000
# 4 0.0000 0.0000 0.0000 52.6850 0.0000 3.4865
# 5 9.4486 11.2350 10.2237 0.0000 42.6053 0.0000
# 6 0.0000 0.0000 0.0000 3.4865 0.0000 41.6736
#
#
#
# Elastic Compliance Matrix: (Units=1/GPa)
#
#
# Indices 1 2 3 4 5 6 
#
# 1 0.013162 -0.004830 -0.002157 0.000000 -0.001128 0.000000
# 2 -0.004830 0.015949 -0.004186 0.000000 -0.002130 0.000000
# 3 -0.002157 -0.004186 0.009774 0.000000 -0.000763 0.000000
# 4 0.000000 0.000000 0.000000 0.019086 0.000000 -0.001597
# 5 -0.001128 -0.002130 -0.000763 0.000000 0.024466 0.000000
# 6 0.000000 0.000000 0.000000 -0.001597 0.000000 0.024130
#
#
# Mechanical properties :
#
#
# Convention : Reuss Voigt Hill
#
# Bulk Modulus (GPa) = 60.46150 64.70744 62.58447
# Shear Modulus (GPa) = 37.19473 40.08868 38.64171
#
# Velocity S-wave (km/s) = 4.02752 4.18126 4.10511
# Velocity P-wave (km/s) = 6.92788 7.17844 7.05427
#
# Compressibility (1/GPa) = 0.01653945
#
# Stress axis : x y z
#
# Youngs Moduli (GPa) = 75.97568 62.69837 102.30843
#
# Poissons Ratio (x) = 0.30284 0.22069
# Poissons Ratio (y) = 0.36697 0.42827
# Poissons Ratio (z) = 0.16389 0.26246
#
# Static dielectric constant tensor:
#      x y z
#    x 3.992520 0.000000 -0.044170 
#    y 0.000000 4.194960 0.000000 
#    z -0.044170 0.000000 4.380250 
# 
# 
# High freq. dielectric constant tensor:
#      x y z
#    x 1.900800 0.000000 0.001480 
#    y 0.000000 1.911330 0.000000 
#    z 0.001480 0.000000 1.931710 
# 
# From -- ./inp_files/170489.got.cif
#   From: 2010.06.25/outbox.cif.g09.slc.cpg/sg15_86_cif.got.tgz:170489.got - 2010.06.28 07:06:18.
