data_PCOD8155733
_publ_section_title
;
Structure prediction by ZEFSAII (Michael W. Deem and Ramdas Pophale) SiO2 
 PCOD8155733
Probable space group: P 2 2 21
;
_chemical_formula_sum "Si O2"
_cell_formula_units_Z 12
_cell_length_a 4.784827
_cell_length_b 8.441544
_cell_length_c 12.680182
_cell_angle_alpha 90.000000
_cell_angle_beta 90.000000
_cell_angle_gamma 90.000000
_cell_volume 512.169386
_symmetry_space_group_name_H-M "P 2 2 21"
_symmetry_group_IT_number 17
_symmetry_cell_setting 'orthorhombic'
loop_
_space_group_symop_operation_xyz
x,y,z
-x,-y,1/2+z
x,-y,-z
-x,y,1/2-z
loop_
_atom_site_type_symbol
_atom_site_label
_atom_site_fract_x
_atom_site_fract_y
_atom_site_fract_z
Si Si1 0.021066 0.691090 0.373493
Si Si2 0.747692 0.368782 0.177981
Si Si3 0.497072 0.821789 0.008868
O O1 0.127809 0.511390 0.392271
O O2 0.239904 0.820573 0.413596
O O3 0.000000 0.723921 0.250000
O O4 0.739275 0.709521 0.441173
O O5 0.500000 0.440253 0.250000
O O6 0.000000 0.296234 0.250000
O O7 0.606354 0.236596 0.104897
O O8 0.381627 0.000000 0.000000
#
# Coordination Sequence:
#
# PCOD8155733 Si02
#       3
#     4   4   4
#     4  11  24  44  68  98 133 179 228 277 331 400
#     4  11  24  44  71 102 133 178 232 282 330 397
#     4  12  26  44  69 102 139 177 219 279 346 403
#
# _framework density 23.429749999999999
#
# number of rings (size 3 to 8) (size 9 to 14) (size 15 to 20)
#    0.000    0.667    0.000    9.000    0.000    9.333 
#    0.000    0.000    0.000    0.000    0.000    0.000 
#    0.000    0.000    0.000    0.000    0.000    0.000 
#
# Total GULP energy -148802.156384 kJ/mol
# GULP energy per Si atom -12400.179699 kJ/mol
# Density = 2.337642 g / cm^3
# Si number density = 23.429750 Si / 1000 Ang^3
#
#
#
# Elastic Constant Matrix: (Units=GPa)
#
#
# Indices 1 2 3 4 5 6 
#
# 1 162.8917 28.9981 72.5919 0.0000 0.0000 0.0000
# 2 28.9981 98.6367 70.0898 0.0000 0.0000 0.0000
# 3 72.5919 70.0898 120.5789 0.0000 0.0000 0.0000
# 4 0.0000 0.0000 0.0000 14.9777 0.0000 0.0000
# 5 0.0000 0.0000 0.0000 0.0000 66.6313 0.0000
# 6 0.0000 0.0000 0.0000 0.0000 0.0000 1191.8637
#
#
#
# Elastic Compliance Matrix: (Units=1/GPa)
#
#
# Indices 1 2 3 4 5 6 
#
# 1 0.008607 0.001962 -0.006322 0.000000 0.000000 0.000000
# 2 0.001962 0.017720 -0.011481 0.000000 0.000000 0.000000
# 3 -0.006322 -0.011481 0.018773 0.000000 0.000000 0.000000
# 4 0.000000 0.000000 0.000000 0.066766 0.000000 0.000000
# 5 0.000000 0.000000 0.000000 0.000000 0.015008 0.000000
# 6 0.000000 0.000000 0.000000 0.000000 0.000000 0.000839
#
#
# Mechanical properties :
#
#
# Convention : Reuss Voigt Hill
#
# Bulk Modulus (GPa) = 74.53060 80.60744 77.56902
# Shear Modulus (GPa) = 30.51207 268.72302 149.61754
#
# Velocity S-wave (km/s) = 3.61263 10.72110 7.99979
# Velocity P-wave (km/s) = 7.02002 13.70163 10.88612
#
# Compressibility (1/GPa) = 0.01341731
#
# Stress axis : x y z
#
# Youngs Moduli (GPa) = 116.18066 56.43371 53.26665
#
# Poissons Ratio (x) = -0.11073 0.33677
# Poissons Ratio (y) = -0.22796 0.61158
# Poissons Ratio (z) = 0.73454 0.64794
#
# Static dielectric constant tensor:
#      x y z
#    x 4.611040 0.000000 0.000000 
#    y 0.000000 3.833600 0.000000 
#    z 0.000000 0.000000 4.247740 
# 
# 
# High freq. dielectric constant tensor:
#      x y z
#    x 1.952480 0.000000 0.000000 
#    y 0.000000 1.895980 0.000000 
#    z 0.000000 0.000000 1.945180 
# 
# From -- ./inp_files/5660.got.cif
#   From: 2010.03.12/outbox.cif.g09.slc.cpg/sg17_3_cif.got.tgz:5660.got - 2010.04.10 18:46:23.
