data_PCOD8155509
_publ_section_title
;
Structure prediction by ZEFSAII (Michael W. Deem and Ramdas Pophale) SiO2 
 PCOD8155509
Probable space group: P 2 2 21
;
_chemical_formula_sum "Si O2"
_cell_formula_units_Z 20
_cell_length_a 11.665942
_cell_length_b 14.991144
_cell_length_c 5.376309
_cell_angle_alpha 90.000000
_cell_angle_beta 90.000000
_cell_angle_gamma 90.000000
_cell_volume 940.240189
_symmetry_space_group_name_H-M "P 2 2 21"
_symmetry_group_IT_number 17
_symmetry_cell_setting 'orthorhombic'
loop_
_space_group_symop_operation_xyz
x,y,z
-x,-y,1/2+z
x,-y,-z
-x,y,1/2-z
loop_
_atom_site_type_symbol
_atom_site_label
_atom_site_fract_x
_atom_site_fract_y
_atom_site_fract_z
Si Si1 0.725202 0.000000 0.000000
Si Si2 0.368747 0.830308 0.708820
Si Si3 0.000000 0.191127 0.250000
Si Si4 0.187464 0.109545 0.917305
Si Si5 0.135669 0.450551 0.749596
Si Si6 0.811166 0.733071 0.058071
O O1 0.644631 0.913750 0.980409
O O2 0.799008 0.012649 0.735416
O O3 0.500000 0.806128 0.750000
O O4 0.308567 0.742144 0.593193
O O5 0.307422 0.859360 0.962811
O O6 0.080053 0.266692 0.375789
O O7 0.923166 0.121197 0.407079
O O8 0.163180 0.175562 0.694275
O O9 0.178339 0.500000 0.500000
O O10 0.191384 0.352081 0.739479
O O11 0.000000 0.442420 0.750000
O O12 0.179663 0.500000 0.000000
#
# Coordination Sequence:
#
# PCOD8155509 Si02
#       6
#     2   4   2   4   4   4
#     4  10  22  36  60  90 122 156 218 280 324 366
#     4  10  23  39  65  90 118 165 219 272 327 378
#     4  10  20  36  66  84 130 174 216 250 322 400
#     4  10  21  38  62  88 121 167 212 261 325 386
#     4  10  22  35  60 101 136 170 209 260 320 389
#     4  10  22  38  63  91 130 170 208 259 318 396
#
# _framework density 21.271159000000001
#
# number of rings (size 3 to 8) (size 9 to 14) (size 15 to 20)
#    0.000    2.000    0.000    2.400   12.600    2.400 
#    0.000    0.000  158.400    0.000    5.200    0.000 
#    0.000    0.000    0.000    0.000    0.000    0.000 
#
# Total GULP energy -247808.312508 kJ/mol
# GULP energy per Si atom -12390.415625 kJ/mol
# Density = 2.122275 g / cm^3
# Si number density = 21.271159 Si / 1000 Ang^3
#
#
#
# Elastic Constant Matrix: (Units=GPa)
#
#
# Indices 1 2 3 4 5 6 
#
# 1 146.5395 42.3730 56.9514 0.0000 0.0000 0.0000
# 2 42.3730 92.5664 25.4478 0.0000 0.0000 0.0000
# 3 56.9514 25.4478 122.4328 0.0000 0.0000 0.0000
# 4 0.0000 0.0000 0.0000 39.2650 0.0000 0.0000
# 5 0.0000 0.0000 0.0000 0.0000 11.9860 0.0000
# 6 0.0000 0.0000 0.0000 0.0000 0.0000 15.6738
#
#
#
# Elastic Compliance Matrix: (Units=1/GPa)
#
#
# Indices 1 2 3 4 5 6 
#
# 1 0.009144 -0.003199 -0.003588 0.000000 0.000000 0.000000
# 2 -0.003199 0.012577 -0.001126 0.000000 0.000000 0.000000
# 3 -0.003588 -0.001126 0.010071 0.000000 0.000000 0.000000
# 4 0.000000 0.000000 0.000000 0.025468 0.000000 0.000000
# 5 0.000000 0.000000 0.000000 0.000000 0.083431 0.000000
# 6 0.000000 0.000000 0.000000 0.000000 0.000000 0.063801
#
#
# Mechanical properties :
#
#
# Convention : Reuss Voigt Hill
#
# Bulk Modulus (GPa) = 62.63836 67.89813 65.26824
# Shear Modulus (GPa) = 22.15918 29.16938 25.66428
#
# Velocity S-wave (km/s) = 3.23111 3.70714 3.47728
# Velocity P-wave (km/s) = 6.59027 7.09320 6.84635
#
# Compressibility (1/GPa) = 0.01596466
#
# Stress axis : x y z
#
# Youngs Moduli (GPa) = 109.36428 79.50997 99.29503
#
# Poissons Ratio (x) = 0.25436 0.35631
# Poissons Ratio (y) = 0.34987 0.11181
# Poissons Ratio (z) = 0.39244 0.08953
#
# Static dielectric constant tensor:
#      x y z
#    x 3.528330 0.000000 0.000000 
#    y 0.000000 3.842520 0.000000 
#    z 0.000000 0.000000 4.706980 
# 
# 
# High freq. dielectric constant tensor:
#      x y z
#    x 1.794590 0.000000 0.000000 
#    y 0.000000 1.820660 0.000000 
#    z 0.000000 0.000000 1.861280 
# 
# From -- ./inp_files/1490.got.cif
#   From: 2010.03.12/outbox.cif.g09.slc.cpg/sg17_1_cif.got.tgz:1490.got - 2010.04.10 18:46:23.
