data_PCOD8155295
_publ_section_title
;
Structure prediction by ZEFSAII (Michael W. Deem and Ramdas Pophale) SiO2 
 PCOD8155295
Probable space group: P 2 2 2
;
_chemical_formula_sum "Si O2"
_cell_formula_units_Z 22
_cell_length_a 12.979920
_cell_length_b 15.991297
_cell_length_c 5.098872
_cell_angle_alpha 90.000000
_cell_angle_beta 90.000000
_cell_angle_gamma 90.000000
_cell_volume 1058.351220
_symmetry_space_group_name_H-M "P 2 2 2"
_symmetry_group_IT_number 16
_symmetry_cell_setting 'orthorhombic'
loop_
_space_group_symop_operation_xyz
x,y,z
-x,-y,z
x,-y,-z
-x,y,-z
loop_
_atom_site_type_symbol
_atom_site_label
_atom_site_fract_x
_atom_site_fract_y
_atom_site_fract_z
Si Si1 0.243464 0.557662 0.756077
Si Si2 0.500000 0.826183 0.000000
Si Si3 0.066633 0.688777 0.739352
Si Si4 0.600364 0.691198 0.369398
Si Si5 0.769234 0.191126 0.517533
Si Si6 0.292642 0.902981 0.031642
O O1 0.235389 0.500000 0.500000
O O2 0.144774 0.615141 0.806636
O O3 0.345468 0.614554 0.774351
O O4 0.254836 0.500000 0.000000
O O5 0.558544 0.766895 0.198733
O O6 0.411075 0.885437 0.125183
O O7 0.123607 0.771140 0.624499
O O8 0.000000 0.653403 0.500000
O O9 0.000000 0.710723 0.000000
O O10 0.500000 0.650590 0.500000
O O11 0.688293 0.733684 0.554881
O O12 0.783785 0.137530 0.250664
O O13 0.725345 0.133696 0.745721
O O14 0.269861 0.000000 0.000000
#
# Coordination Sequence:
#
# PCOD8155295 Si02
#       6
#     4   2   4   4   4   4
#     4  11  26  42  60  93 130 160 209 272 328 384
#     4  10  21  36  59  86 124 170 230 254 287 372
#     4  11  23  42  71  93 116 162 214 266 329 391
#     4  10  21  39  61  82 124 175 217 252 306 365
#     4  10  22  39  61  91 126 160 212 259 305 388
#     4  11  21  36  60  92 130 166 202 259 319 363
#
# _framework density 20.787051000000002
#
# number of rings (size 3 to 8) (size 9 to 14) (size 15 to 20)
#    0.000    1.455    1.818    3.000    2.545    5.455 
#    0.000    1.818    0.000    8.182    0.000    0.000 
#    0.000    0.000    0.000    0.000    0.000    0.000 
#
# Total GULP energy -272631.293827 kJ/mol
# GULP energy per Si atom -12392.331538 kJ/mol
# Density = 2.073974 g / cm^3
# Si number density = 20.787051 Si / 1000 Ang^3
#
#
#
# Elastic Constant Matrix: (Units=GPa)
#
#
# Indices 1 2 3 4 5 6 
#
# 1 116.3038 49.8588 34.4365 0.0000 0.0000 0.0000
# 2 49.8588 120.9211 43.6862 0.0000 0.0000 0.0000
# 3 34.4365 43.6862 111.4062 0.0000 0.0000 0.0000
# 4 0.0000 0.0000 0.0000 38.3439 0.0000 0.0000
# 5 0.0000 0.0000 0.0000 0.0000 31.3592 0.0000
# 6 0.0000 0.0000 0.0000 0.0000 0.0000 17.8845
#
#
#
# Elastic Compliance Matrix: (Units=1/GPa)
#
#
# Indices 1 2 3 4 5 6 
#
# 1 0.010761 -0.003769 -0.001848 0.000000 0.000000 0.000000
# 2 -0.003769 0.010955 -0.003131 0.000000 0.000000 0.000000
# 3 -0.001848 -0.003131 0.010775 0.000000 0.000000 0.000000
# 4 0.000000 0.000000 0.000000 0.026080 0.000000 0.000000
# 5 0.000000 0.000000 0.000000 0.000000 0.031889 0.000000
# 6 0.000000 0.000000 0.000000 0.000000 0.000000 0.055914
#
#
# Mechanical properties :
#
#
# Convention : Reuss Voigt Hill
#
# Bulk Modulus (GPa) = 66.69000 67.17713 66.93357
# Shear Modulus (GPa) = 29.60867 32.22749 30.91808
#
# Velocity S-wave (km/s) = 3.77819 3.94174 3.86083
# Velocity P-wave (km/s) = 7.15438 7.28721 7.22110
#
# Compressibility (1/GPa) = 0.01499475
#
# Stress axis : x y z
#
# Youngs Moduli (GPa) = 92.92498 91.28125 92.80610
#
# Poissons Ratio (x) = 0.34408 0.17153
# Poissons Ratio (y) = 0.35027 0.29055
# Poissons Ratio (z) = 0.17175 0.28578
#
# Static dielectric constant tensor:
#      x y z
#    x 4.388040 0.000000 0.000000 
#    y 0.000000 3.794200 0.000000 
#    z 0.000000 0.000000 3.438380 
# 
# 
# High freq. dielectric constant tensor:
#      x y z
#    x 1.816670 0.000000 0.000000 
#    y 0.000000 1.812390 0.000000 
#    z 0.000000 0.000000 1.811700 
# 
# From -- ./inp_files/1458.got.cif
#   From: 2010.03.12/outbox.cif.g09.slc.cpg/sg16_1_cif.got.tgz:1458.got - 2010.03.31 00:51:45.
