data_PCOD8155950
_publ_section_title
;
Structure prediction by ZEFSAII (Michael W. Deem and Ramdas Pophale) SiO2 
 PCOD8155950
Probable space group: P 21 21 2
;
_chemical_formula_sum "Si O2"
_cell_formula_units_Z 24
_cell_length_a 14.969027
_cell_length_b 9.286352
_cell_length_c 8.743103
_cell_angle_alpha 90.000000
_cell_angle_beta 90.000000
_cell_angle_gamma 90.000000
_cell_volume 1215.358235
_symmetry_space_group_name_H-M "P 21 21 2"
_symmetry_group_IT_number 18
_symmetry_cell_setting 'orthorhombic'
loop_
_space_group_symop_operation_xyz
x,y,z
-x,-y,z
1/2+x,1/2-y,-z
1/2-x,1/2+y,-z
loop_
_atom_site_type_symbol
_atom_site_label
_atom_site_fract_x
_atom_site_fract_y
_atom_site_fract_z
Si Si1 0.209187 0.420205 0.180465
Si Si2 0.520118 0.167649 0.831550
Si Si3 0.654327 0.782519 0.321973
Si Si4 0.479882 0.832353 0.168443
Si Si5 0.345673 0.217481 0.678024
Si Si6 0.290813 0.920205 0.180466
O O1 0.123058 0.320544 0.223953
O O2 0.293668 0.360974 0.273020
O O3 0.194092 0.584967 0.227024
O O4 0.227499 0.415197 1.000000
O O5 0.450841 0.242712 0.715556
O O6 0.500000 0.000000 0.842746
O O7 0.508499 0.237643 0.999997
O O8 0.549159 0.757297 0.284441
O O9 0.665368 0.813294 0.499999
O O10 0.694094 0.915031 0.227022
O O11 0.376944 0.820549 0.223953
O O12 0.500000 0.000000 0.157224
O O13 0.293666 0.360971 0.726976
#
# Coordination Sequence:
#
# PCOD8155950 Si02
#       6
#     4   4   4   4   4   4
#     4  10  20  36  56  76 103 140 178 211 249 307
#     4   8  16  32  53  74  98 135 177 209 246 305
#     4  11  21  33  53  81 109 134 167 216 265 304
#     4   8  16  32  53  74  98 135 177 209 246 305
#     4  11  21  33  53  81 109 134 167 216 265 304
#     4  10  20  36  56  76 103 140 178 211 249 307
#
# _framework density 19.747264999999999
#
# number of rings (size 3 to 8) (size 9 to 14) (size 15 to 20)
#    0.000    2.333    0.000    6.000    0.000    7.333 
#    0.000    1.667    0.000   10.000    0.000    0.000 
#    0.000    0.000    0.000    0.000    0.000    0.000 
#
# Total GULP energy -297521.105115 kJ/mol
# GULP energy per Si atom -12396.712713 kJ/mol
# Density = 1.970232 g / cm^3
# Si number density = 19.747265 Si / 1000 Ang^3
#
#
#
# Elastic Constant Matrix: (Units=GPa)
#
#
# Indices 1 2 3 4 5 6 
#
# 1 30.9043 -8.1276 22.4768 0.0000 0.0000 0.0000
# 2 -8.1276 18.1093 2.9538 0.0000 0.0000 0.0000
# 3 22.4768 2.9538 88.4640 0.0000 0.0000 0.0000
# 4 0.0000 0.0000 0.0000 26.1584 0.0000 0.0000
# 5 0.0000 0.0000 0.0000 0.0000 18.2032 0.0000
# 6 0.0000 0.0000 0.0000 0.0000 0.0000 30.0261
#
#
#
# Elastic Compliance Matrix: (Units=1/GPa)
#
#
# Indices 1 2 3 4 5 6 
#
# 1 0.048037 0.023679 -0.012996 0.000000 0.000000 0.000000
# 2 0.023679 0.067195 -0.008260 0.000000 0.000000 0.000000
# 3 -0.012996 -0.008260 0.014882 0.000000 0.000000 0.000000
# 4 0.000000 0.000000 0.000000 0.038229 0.000000 0.000000
# 5 0.000000 0.000000 0.000000 0.000000 0.054936 0.000000
# 6 0.000000 0.000000 0.000000 0.000000 0.000000 0.033304
#
#
# Mechanical properties :
#
#
# Convention : Reuss Voigt Hill
#
# Bulk Modulus (GPa) = 7.40955 19.12040 13.26498
# Shear Modulus (GPa) = 16.85073 22.88917 19.86995
#
# Velocity S-wave (km/s) = 2.92433 3.40826 3.17553
# Velocity P-wave (km/s) = 3.89392 5.01915 4.49191
#
# Compressibility (1/GPa) = 0.13496089
#
# Stress axis : x y z
#
# Youngs Moduli (GPa) = 20.81712 14.88205 67.19612
#
# Poissons Ratio (x) = -0.35240 0.87327
# Poissons Ratio (y) = -0.49293 0.55504
# Poissons Ratio (z) = 0.27054 0.12293
#
# Static dielectric constant tensor:
#      x y z
#    x 4.182810 0.000000 0.000000 
#    y 0.000000 3.068190 0.000000 
#    z 0.000000 0.000000 3.499270 
# 
# 
# High freq. dielectric constant tensor:
#      x y z
#    x 1.782500 0.000000 0.000000 
#    y 0.000000 1.721480 0.000000 
#    z 0.000000 0.000000 1.768400 
# 
# From -- ./inp_files/4170.got.cif
#   From: 2010.03.12/outbox.cif.g09.slc.cpg/sg18_3_cif.got.tgz:4170.got - 2010.04.10 18:53:55.
