data_PCOD8155967
_publ_section_title
;
Structure prediction by ZEFSAII (Michael W. Deem and Ramdas Pophale) SiO2 
 PCOD8155967
Probable space group: P 21 21 2
;
_chemical_formula_sum "Si O2"
_cell_formula_units_Z 30
_cell_length_a 5.103335
_cell_length_b 21.517846
_cell_length_c 12.604957
_cell_angle_alpha 90.000000
_cell_angle_beta 90.000000
_cell_angle_gamma 90.000000
_cell_volume 1384.185327
_symmetry_space_group_name_H-M "P 21 21 2"
_symmetry_group_IT_number 18
_symmetry_cell_setting 'orthorhombic'
loop_
_space_group_symop_operation_xyz
x,y,z
-x,-y,z
1/2+x,1/2-y,-z
1/2-x,1/2+y,-z
loop_
_atom_site_type_symbol
_atom_site_label
_atom_site_fract_x
_atom_site_fract_y
_atom_site_fract_z
Si Si1 0.113632 0.862625 0.883924
Si Si2 0.500000 0.000000 0.257616
Si Si3 0.124994 0.627284 0.396516
Si Si4 0.466644 0.125204 0.362217
Si Si5 0.486819 0.339760 0.753247
Si Si6 0.118964 0.937386 0.091263
Si Si7 0.377881 0.433840 0.324706
Si Si8 0.894620 0.295357 0.191085
O O1 0.204854 0.895281 0.992800
O O2 0.105710 0.917677 0.798840
O O3 0.330911 0.811502 0.862031
O O4 0.833893 0.827276 0.879367
O O5 0.378655 0.053041 0.336399
O O6 0.672874 0.040149 0.177431
O O7 0.047288 0.644109 0.515166
O O8 0.431265 0.610035 0.393532
O O9 0.094725 0.684452 0.314708
O O10 0.924330 0.572165 0.361016
O O11 0.763215 0.136538 0.326684
O O12 0.259157 0.172220 0.307616
O O13 0.374575 0.278972 0.812067
O O14 0.567505 0.392268 0.840154
O O15 0.000000 0.000000 0.042181
O O16 0.500000 0.500000 0.344665
#
# Coordination Sequence:
#
# PCOD8155967 Si02
#       8
#     4   2   4   4   4   4   4   4
#     4  10  23  39  65  87 124 160 206 255 315 366
#     4  10  24  40  60  90 130 156 210 256 306 382
#     4  10  22  38  60  88 128 160 210 253 311 364
#     4  11  23  40  61  93 119 172 202 254 314 362
#     4  11  24  41  65  89 129 162 212 256 305 361
#     4  11  23  42  63  91 125 163 204 257 312 375
#     4  10  20  37  55  90 120 161 202 258 308 373
#     4  10  23  43  61  95 124 161 210 261 298 377
#
# _framework density 21.673397999999999
#
# number of rings (size 3 to 8) (size 9 to 14) (size 15 to 20)
#    0.000    1.600    1.333    2.400    3.733    2.133 
#    2.400    0.000    0.000    0.000    0.000    0.000 
#    0.000    0.000    0.000    0.000    0.000    0.000 
#
# Total GULP energy -371661.318050 kJ/mol
# GULP energy per Si atom -12388.710602 kJ/mol
# Density = 2.162407 g / cm^3
# Si number density = 21.673398 Si / 1000 Ang^3
#
#
#
# Elastic Constant Matrix: (Units=GPa)
#
#
# Indices 1 2 3 4 5 6 
#
# 1 86.5235 6.8065 20.4991 0.0000 0.0000 0.0000
# 2 6.8065 98.7604 33.1881 0.0000 0.0000 0.0000
# 3 20.4991 33.1881 76.0483 0.0000 0.0000 0.0000
# 4 0.0000 0.0000 0.0000 16.2575 0.0000 0.0000
# 5 0.0000 0.0000 0.0000 0.0000 16.8177 0.0000
# 6 0.0000 0.0000 0.0000 0.0000 0.0000 24.3933
#
#
#
# Elastic Compliance Matrix: (Units=1/GPa)
#
#
# Indices 1 2 3 4 5 6 
#
# 1 0.012354 0.000314 -0.003467 0.000000 0.000000 0.000000
# 2 0.000314 0.011874 -0.005266 0.000000 0.000000 0.000000
# 3 -0.003467 -0.005266 0.016382 0.000000 0.000000 0.000000
# 4 0.000000 0.000000 0.000000 0.061510 0.000000 0.000000
# 5 0.000000 0.000000 0.000000 0.000000 0.059461 0.000000
# 6 0.000000 0.000000 0.000000 0.000000 0.000000 0.040995
#
#
# Mechanical properties :
#
#
# Convention : Reuss Voigt Hill
#
# Bulk Modulus (GPa) = 42.06825 42.47996 42.27411
# Shear Modulus (GPa) = 21.99356 24.88293 23.43824
#
# Velocity S-wave (km/s) = 3.18900 3.39202 3.29208
# Velocity P-wave (km/s) = 5.74560 5.91470 5.83076
#
# Compressibility (1/GPa) = 0.02377090
#
# Stress axis : x y z
#
# Youngs Moduli (GPa) = 80.94358 84.22028 61.04132
#
# Poissons Ratio (x) = -0.02641 0.21163
# Poissons Ratio (y) = -0.02539 0.32146
# Poissons Ratio (z) = 0.28063 0.44353
#
# Static dielectric constant tensor:
#      x y z
#    x 3.594030 0.000000 0.000000 
#    y 0.000000 4.119690 0.000000 
#    z 0.000000 0.000000 3.896250 
# 
# 
# High freq. dielectric constant tensor:
#      x y z
#    x 1.851760 0.000000 0.000000 
#    y 0.000000 1.847760 0.000000 
#    z 0.000000 0.000000 1.850920 
# 
# From -- ./inp_files/5236.got.cif
#   From: 2010.03.12/outbox.cif.g09.slc.cpg/sg18_3_cif.got.tgz:5236.got - 2010.04.10 18:53:55.
