data_PCOD8155265
_publ_section_title
;
Structure prediction by ZEFSAII (Michael W. Deem and Ramdas Pophale) SiO2 
 PCOD8155265
Probable space group: P 2 2 2
;
_chemical_formula_sum "Si O2"
_cell_formula_units_Z 32
_cell_length_a 8.923928
_cell_length_b 12.214625
_cell_length_c 14.940758
_cell_angle_alpha 90.000000
_cell_angle_beta 90.000000
_cell_angle_gamma 90.000000
_cell_volume 1628.578989
_symmetry_space_group_name_H-M "P 2 2 2"
_symmetry_group_IT_number 16
_symmetry_cell_setting 'orthorhombic'
loop_
_space_group_symop_operation_xyz
x,y,z
-x,-y,z
x,-y,-z
-x,y,-z
loop_
_atom_site_type_symbol
_atom_site_label
_atom_site_fract_x
_atom_site_fract_y
_atom_site_fract_z
Si Si1 0.677928 0.621131 0.500000
Si Si2 0.169347 1.000000 0.859641
Si Si3 0.167236 0.000000 0.352631
Si Si4 0.824483 0.371383 0.000000
Si Si5 0.322558 0.222294 0.857116
Si Si6 0.324197 0.782266 0.651494
Si Si7 0.677443 0.222294 0.857116
Si Si8 0.324197 0.782266 0.348506
O O1 0.749216 0.500000 0.500000
O O2 0.500000 0.613946 0.500000
O O3 0.732474 0.682637 0.410249
O O4 0.732474 0.682637 0.589751
O O5 0.169555 1.000000 0.753675
O O6 0.255686 0.892124 0.893896
O O7 0.255686 0.107876 0.893895
O O8 0.000000 0.000000 0.897754
O O9 0.249820 0.108039 0.387424
O O10 0.249820 0.891961 0.387424
O O11 0.000000 0.000000 0.391192
O O12 0.749020 0.321681 0.088436
O O13 0.792791 0.500000 0.000000
O O14 0.749021 0.321681 0.911564
O O15 0.000000 0.344489 0.000000
O O16 0.500000 0.220098 0.871343
O O17 0.278036 0.242042 0.753699
O O18 0.278036 0.757959 0.753699
O O19 0.500000 0.800290 0.643540
#
# Coordination Sequence:
#
# PCOD8155265 Si02
#       8
#     4   4   4   4   4   4   4   4
#     4   9  18  33  53  78 106 139 182 223 260 311
#     4   9  17  32  55  82 112 144 176 212 263 327
#     4   9  17  30  51  78 109 142 175 214 261 317
#     4  11  25  42  57  76 105 143 185 223 264 321
#     4  10  20  35  57  84 111 139 176 224 272 315
#     4   9  18  33  55  81 109 140 174 217 265 313
#     4  10  20  35  57  84 111 139 176 224 272 315
#     4   9  18  33  55  81 109 140 174 217 265 313
#
# _framework density 19.649031999999998
#
# number of rings (size 3 to 8) (size 9 to 14) (size 15 to 20)
#    0.000    2.500    0.000    1.875    0.000    7.000 
#    0.000    8.125    0.000    1.500    0.000    0.000 
#    0.000    0.000    0.000    0.000    0.000    0.000 
#
# Total GULP energy -396809.239764 kJ/mol
# GULP energy per Si atom -12400.288743 kJ/mol
# Density = 1.960431 g / cm^3
# Si number density = 19.649032 Si / 1000 Ang^3
#
#
#
# Elastic Constant Matrix: (Units=GPa)
#
#
# Indices 1 2 3 4 5 6 
#
# 1 91.9836 65.3231 40.3793 0.0000 0.0000 0.0000
# 2 65.3231 185.0644 76.4252 0.0000 0.0000 0.0000
# 3 40.3793 76.4252 104.1459 0.0000 0.0000 0.0000
# 4 0.0000 0.0000 0.0000 12.2785 0.0000 0.0000
# 5 0.0000 0.0000 0.0000 0.0000 14.2699 0.0000
# 6 0.0000 0.0000 0.0000 0.0000 0.0000 28.9977
#
#
#
# Elastic Compliance Matrix: (Units=1/GPa)
#
#
# Indices 1 2 3 4 5 6 
#
# 1 0.015049 -0.004164 -0.002779 0.000000 0.000000 0.000000
# 2 -0.004164 0.008905 -0.004920 0.000000 0.000000 0.000000
# 3 -0.002779 -0.004920 0.014290 0.000000 0.000000 0.000000
# 4 0.000000 0.000000 0.000000 0.081443 0.000000 0.000000
# 5 0.000000 0.000000 0.000000 0.000000 0.070078 0.000000
# 6 0.000000 0.000000 0.000000 0.000000 0.000000 0.034485
#
#
# Mechanical properties :
#
#
# Convention : Reuss Voigt Hill
#
# Bulk Modulus (GPa) = 68.88430 82.82767 75.85598
# Shear Modulus (GPa) = 19.77718 24.38030 22.07874
#
# Velocity S-wave (km/s) = 3.17601 3.52631 3.35573
# Velocity P-wave (km/s) = 6.97014 7.66974 7.32829
#
# Compressibility (1/GPa) = 0.01451710
#
# Stress axis : x y z
#
# Youngs Moduli (GPa) = 66.45121 112.29159 69.97856
#
# Poissons Ratio (x) = 0.46761 0.19446
# Poissons Ratio (y) = 0.27672 0.34433
# Poissons Ratio (z) = 0.18465 0.55253
#
# Static dielectric constant tensor:
#      x y z
#    x 3.546160 0.000000 0.000000 
#    y 0.000000 3.753270 0.000000 
#    z 0.000000 0.000000 3.570830 
# 
# 
# High freq. dielectric constant tensor:
#      x y z
#    x 1.757020 0.000000 0.000000 
#    y 0.000000 1.765220 0.000000 
#    z 0.000000 0.000000 1.765650 
# 
# From -- ./inp_files/8009.got.cif
#   From: 2010.03.12/outbox.cif.g09.slc.cpg/sg16_5_cif.got.tgz:8009.got - 2010.03.31 00:51:45.
