data_PCOD8155636
_publ_section_title
;
Structure prediction by ZEFSAII (Michael W. Deem and Ramdas Pophale) SiO2 
 PCOD8155636
Probable space group: P 2 2 21
;
_chemical_formula_sum "Si O2"
_cell_formula_units_Z 20
_cell_length_a 7.639265
_cell_length_b 12.611028
_cell_length_c 9.921214
_cell_angle_alpha 90.000000
_cell_angle_beta 90.000000
_cell_angle_gamma 90.000000
_cell_volume 955.799685
_symmetry_space_group_name_H-M "P 2 2 21"
_symmetry_group_IT_number 17
_symmetry_cell_setting 'orthorhombic'
loop_
_space_group_symop_operation_xyz
x,y,z
-x,-y,1/2+z
x,-y,-z
-x,y,1/2-z
loop_
_atom_site_type_symbol
_atom_site_label
_atom_site_fract_x
_atom_site_fract_y
_atom_site_fract_z
Si Si1 0.701688 0.571462 0.767625
Si Si2 0.802999 0.338597 0.751111
Si Si3 0.680036 0.745433 0.977010
Si Si4 0.014014 0.898831 0.594395
Si Si5 0.714483 0.733122 0.537718
O O1 0.500000 0.540109 0.750000
O O2 0.810102 0.463907 0.779257
O O3 0.768699 0.641563 0.642302
O O4 0.735349 0.636426 0.904211
O O5 0.697012 0.273657 0.863781
O O6 0.711503 0.317516 0.609586
O O7 0.000000 0.294527 0.750000
O O8 0.802733 0.839446 0.926047
O O9 0.481853 0.775964 0.934545
O O10 0.000000 0.933597 0.750000
O O11 0.850035 0.827980 0.550824
O O12 0.011645 0.000000 0.500000
#
# Coordination Sequence:
#
# PCOD8155636 Si02
#       5
#     4   4   4   4   4
#     4  10  22  40  64  97 136 183 224 262 318 393
#     4  12  24  36  66 104 141 180 220 265 321 389
#     4  11  24  45  68  96 138 179 220 271 328 392
#     4  12  28  48  73  99 130 166 223 283 339 394
#     4  11  24  45  68  96 138 179 220 271 328 392
#
# _framework density 20.924887999999999
#
# number of rings (size 3 to 8) (size 9 to 14) (size 15 to 20)
#    0.000    0.800    4.000    3.000    5.600    5.600 
#    0.000    0.000    0.000    0.000    0.000    0.000 
#    0.000    0.000    0.000    0.000    0.000    0.000 
#
# Total GULP energy -248126.615532 kJ/mol
# GULP energy per Si atom -12406.330777 kJ/mol
# Density = 2.087726 g / cm^3
# Si number density = 20.924888 Si / 1000 Ang^3
#
#
#
# Elastic Constant Matrix: (Units=GPa)
#
#
# Indices 1 2 3 4 5 6 
#
# 1 92.0125 35.0244 6.4200 0.0000 0.0000 0.0000
# 2 35.0244 83.7732 14.9983 0.0000 0.0000 0.0000
# 3 6.4200 14.9983 102.5212 0.0000 0.0000 0.0000
# 4 0.0000 0.0000 0.0000 36.1866 0.0000 0.0000
# 5 0.0000 0.0000 0.0000 0.0000 28.6654 0.0000
# 6 0.0000 0.0000 0.0000 0.0000 0.0000 18.3839
#
#
#
# Elastic Compliance Matrix: (Units=1/GPa)
#
#
# Indices 1 2 3 4 5 6 
#
# 1 0.012925 -0.005400 -0.000019 0.000000 0.000000 0.000000
# 2 -0.005400 0.014514 -0.001785 0.000000 0.000000 0.000000
# 3 -0.000019 -0.001785 0.010016 0.000000 0.000000 0.000000
# 4 0.000000 0.000000 0.000000 0.027635 0.000000 0.000000
# 5 0.000000 0.000000 0.000000 0.000000 0.034885 0.000000
# 6 0.000000 0.000000 0.000000 0.000000 0.000000 0.054395
#
#
# Mechanical properties :
#
#
# Convention : Reuss Voigt Hill
#
# Bulk Modulus (GPa) = 43.39116 43.46582 43.42849
# Shear Modulus (GPa) = 28.33456 31.43813 29.88635
#
# Velocity S-wave (km/s) = 3.68381 3.88032 3.78334
# Velocity P-wave (km/s) = 6.23503 6.39478 6.31541
#
# Compressibility (1/GPa) = 0.02304617
#
# Stress axis : x y z
#
# Youngs Moduli (GPa) = 77.36905 68.89705 99.83571
#
# Poissons Ratio (x) = 0.37207 0.00193
# Poissons Ratio (y) = 0.41782 0.17823
# Poissons Ratio (z) = 0.00150 0.12299
#
# Static dielectric constant tensor:
#      x y z
#    x 3.922350 0.000000 0.000000 
#    y 0.000000 3.523010 0.000000 
#    z 0.000000 0.000000 4.044250 
# 
# 
# High freq. dielectric constant tensor:
#      x y z
#    x 1.831600 0.000000 0.000000 
#    y 0.000000 1.795420 0.000000 
#    z 0.000000 0.000000 1.841290 
# 
# From -- ./inp_files/4044.got.cif
#   From: 2010.03.12/outbox.cif.g09.slc.cpg/sg17_3_cif.got.tgz:4044.got - 2010.04.10 18:46:23.
