data_PCOD8155199
_publ_section_title
;
Structure prediction by ZEFSAII (Michael W. Deem and Ramdas Pophale) SiO2 
 PCOD8155199
Probable space group: C 2/C
;
_chemical_formula_sum "Si O2"
_cell_formula_units_Z 48
_cell_length_a 16.705004
_cell_length_b 12.884515
_cell_length_c 20.461946
_cell_angle_alpha 90.000000
_cell_angle_beta 39.180602
_cell_angle_gamma 90.000000
_cell_volume 2782.392944
_symmetry_space_group_name_H-M "C 2/C"
_symmetry_group_IT_number 15
_symmetry_cell_setting 'monoclinic'
loop_
_space_group_symop_operation_xyz
x,y,z
-x,y,1/2-z
-x,-y,-z
x,-y,1/2+z
1/2+x,1/2+y,z
1/2-x,1/2+y,1/2-z
1/2-x,1/2-y,-z
1/2+x,1/2-y,1/2+z
loop_
_atom_site_type_symbol
_atom_site_label
_atom_site_fract_x
_atom_site_fract_y
_atom_site_fract_z
Si Si1 0.142296 0.011501 0.681363
Si Si2 0.960258 0.949295 0.623223
Si Si3 0.704666 0.366424 0.528717
Si Si4 0.816739 0.320357 0.011733
Si Si5 0.630736 0.961716 0.632054
Si Si6 0.627899 0.625571 0.455661
O O1 0.219310 0.116770 0.619266
O O2 0.000000 0.036248 0.750000
O O3 0.144386 0.980680 0.756417
O O4 0.199830 0.915153 0.604296
O O5 0.887594 0.889742 0.611729
O O6 0.064736 0.871324 0.586103
O O7 0.028589 0.054376 0.556914
O O8 0.750000 0.250000 0.500000
O O9 0.805214 0.427693 0.421164
O O10 0.900183 0.245521 0.005916
O O11 0.750000 0.250000 0.000000
O O12 0.898822 0.402589 0.917759
O O13 0.500000 0.982196 0.750000
O O14 0.726763 0.897415 0.617261
#
# Coordination Sequence:
#
# PCOD8155199 Si02
#       6
#     8   8   8   8   8   8
#     4   9  17  31  51  73  97 126 163 206 244 288
#     4   9  18  34  51  70  98 130 163 202 242 289
#     4   9  18  33  51  70  93 128 171 203 234 285
#     4   9  17  29  48  75  99 123 160 200 244 295
#     4   9  18  31  49  73 100 125 157 203 247 291
#     4   9  18  32  50  73  99 126 159 198 245 296
#
# _framework density 17.251338000000001
#
# number of rings (size 3 to 8) (size 9 to 14) (size 15 to 20)
#    0.000    3.000    0.000    3.000    0.000    7.333 
#    0.000    8.333    0.000    4.000    0.000    0.000 
#    0.000    0.000    0.000    0.000    0.000    0.000 
#
# Total GULP energy -297473.297764 kJ/mol
# GULP energy per Si atom -12394.720740 kJ/mol
# Density = 1.721207 g / cm^3
# Si number density = 17.251338 Si / 1000 Ang^3
#
#
#
# Elastic Constant Matrix: (Units=GPa)
#
#
# Indices 1 2 3 4 5 6 
#
# 1 84.3970 44.4419 43.9837 0.0000 21.8282 0.0000
# 2 44.4419 117.4670 39.2042 0.0000 8.7678 0.0000
# 3 43.9837 39.2042 119.2553 -0.0001 12.8798 0.0000
# 4 0.0000 0.0000 -0.0001 19.4585 0.0000 3.1551
# 5 21.8282 8.7678 12.8798 0.0000 26.3791 0.0000
# 6 0.0000 0.0000 0.0000 3.1551 0.0000 28.0655
#
#
#
# Elastic Compliance Matrix: (Units=1/GPa)
#
#
# Indices 1 2 3 4 5 6 
#
# 1 0.020187 -0.005231 -0.004338 0.000000 -0.012847 0.000000
# 2 -0.005231 0.010993 -0.001855 0.000000 0.001580 0.000000
# 3 -0.004338 -0.001855 0.010706 0.000000 -0.001021 0.000000
# 4 0.000000 0.000000 0.000000 0.052346 0.000000 -0.005885
# 5 -0.012847 0.001580 -0.001021 0.000000 0.048513 0.000000
# 6 0.000000 0.000000 0.000000 -0.005885 0.000000 0.036293
#
#
# Mechanical properties :
#
#
# Convention : Reuss Voigt Hill
#
# Bulk Modulus (GPa) = 52.52904 64.04211 58.28558
# Shear Modulus (GPa) = 24.01180 27.67991 25.84585
#
# Velocity S-wave (km/s) = 3.73484 4.00998 3.87485
# Velocity P-wave (km/s) = 7.00814 7.65790 7.34021
#
# Compressibility (1/GPa) = 0.01903709
#
# Stress axis : x y z
#
# Youngs Moduli (GPa) = 49.53734 90.96502 93.40911
#
# Poissons Ratio (x) = 0.47580 0.40523
# Poissons Ratio (y) = 0.25911 0.17332
# Poissons Ratio (z) = 0.21490 0.16878
#
# Static dielectric constant tensor:
#      x y z
#    x 3.222860 0.000000 0.334400 
#    y 0.000000 3.285400 0.000000 
#    z 0.334400 0.000000 3.371820 
# 
# 
# High freq. dielectric constant tensor:
#      x y z
#    x 1.638270 0.000000 0.017370 
#    y 0.000000 1.664650 0.000000 
#    z 0.017370 0.000000 1.667440 
# 
# From -- ./inp_files/248293.got.cif
#   From: 2010.06.25/outbox.cif.g09.slc.cpg/sg15_125_cif.got.tgz:248293.got - 2010.06.28 07:06:18.
