data_PCOD8155848
_publ_section_title
;
Structure prediction by ZEFSAII (Michael W. Deem and Ramdas Pophale) SiO2 
 PCOD8155848
Probable space group: P 21 21 2
;
_chemical_formula_sum "Si O2"
_cell_formula_units_Z 28
_cell_length_a 12.598533
_cell_length_b 5.045896
_cell_length_c 23.593300
_cell_angle_alpha 90.000000
_cell_angle_beta 90.000000
_cell_angle_gamma 90.000000
_cell_volume 1499.847015
_symmetry_space_group_name_H-M "P 21 21 2"
_symmetry_group_IT_number 18
_symmetry_cell_setting 'orthorhombic'
loop_
_space_group_symop_operation_xyz
x,y,z
-x,-y,z
1/2+x,1/2-y,-z
1/2-x,1/2+y,-z
loop_
_atom_site_type_symbol
_atom_site_label
_atom_site_fract_x
_atom_site_fract_y
_atom_site_fract_z
Si Si1 0.187676 0.935159 0.011120
Si Si2 0.621158 0.973255 0.685801
Si Si3 0.879436 0.973029 0.240185
Si Si4 0.753944 0.970245 0.574394
Si Si5 0.884670 0.957492 0.895979
Si Si6 0.250203 0.041094 0.128112
Si Si7 0.125506 0.530872 0.537375
O O1 0.163091 0.007905 0.076974
O O2 0.288223 0.122314 0.993721
O O3 0.099248 0.007705 0.964358
O O4 0.643823 0.183471 0.735169
O O5 0.500000 0.000000 0.664059
O O6 0.644128 0.683495 0.710523
O O7 0.700606 0.022601 0.634493
O O8 0.804597 0.022834 0.187088
O O9 0.000000 0.000000 0.219020
O O10 0.812972 0.689289 0.573828
O O11 0.660758 0.988442 0.527952
O O12 0.844138 0.187185 0.563401
O O13 0.846191 0.663533 0.881389
O O14 0.799029 0.165041 0.871552
O O15 0.000000 0.000000 0.867739
O O16 0.000000 0.500000 0.541405
#
# Coordination Sequence:
#
# PCOD8155848 Si02
#       7
#     4   4   4   4   4   4   4
#     4   8  16  29  46  69  95 124 158 199 249 299
#     4  10  20  36  56  79 104 132 173 215 256 307
#     4  10  21  35  55  78 100 133 172 216 264 301
#     4  10  20  34  56  80 108 144 172 209 260 301
#     4  10  19  32  52  75 101 135 168 203 253 310
#     4  10  19  34  52  74 104 131 166 214 256 303
#     4  10  20  34  54  83 112 139 174 210 253 307
#
# _framework density 18.668571
#
# number of rings (size 3 to 8) (size 9 to 14) (size 15 to 20)
#    0.000    2.286    0.000    3.000    0.000    0.571 
#    0.000    4.286    0.000   25.714    0.000    0.000 
#    0.000    0.000    0.000    0.000    0.000    0.000 
#
# Total GULP energy -347100.209640 kJ/mol
# GULP energy per Si atom -12396.436059 kJ/mol
# Density = 1.862608 g / cm^3
# Si number density = 18.668571 Si / 1000 Ang^3
#
#
#
# Elastic Constant Matrix: (Units=GPa)
#
#
# Indices 1 2 3 4 5 6 
#
# 1 77.1714 6.1171 43.5170 0.0000 0.0000 0.0000
# 2 6.1171 75.0791 1.8852 0.0000 0.0000 0.0000
# 3 43.5170 1.8852 79.6697 0.0000 0.0000 0.0000
# 4 0.0000 0.0000 0.0000 8.1696 0.0000 0.0000
# 5 0.0000 0.0000 0.0000 0.0000 16.6629 0.0000
# 6 0.0000 0.0000 0.0000 0.0000 0.0000 17.5456
#
#
#
# Elastic Compliance Matrix: (Units=1/GPa)
#
#
# Indices 1 2 3 4 5 6 
#
# 1 0.018848 -0.001278 -0.010265 0.000000 0.000000 0.000000
# 2 -0.001278 0.013414 0.000381 0.000000 0.000000 0.000000
# 3 -0.010265 0.000381 0.018150 0.000000 0.000000 0.000000
# 4 0.000000 0.000000 0.000000 0.122405 0.000000 0.000000
# 5 0.000000 0.000000 0.000000 0.000000 0.060014 0.000000
# 6 0.000000 0.000000 0.000000 0.000000 0.000000 0.056994
#
#
# Mechanical properties :
#
#
# Convention : Reuss Voigt Hill
#
# Bulk Modulus (GPa) = 35.60349 37.21765 36.41057
# Shear Modulus (GPa) = 15.55158 20.50234 18.02696
#
# Velocity S-wave (km/s) = 2.88937 3.31755 3.11083
# Velocity P-wave (km/s) = 5.49945 5.88677 5.69641
#
# Compressibility (1/GPa) = 0.02808714
#
# Stress axis : x y z
#
# Youngs Moduli (GPa) = 53.05670 74.54988 55.09764
#
# Poissons Ratio (x) = 0.09526 0.56556
# Poissons Ratio (y) = 0.06780 -0.02097
# Poissons Ratio (z) = 0.54461 -0.02837
#
# Static dielectric constant tensor:
#      x y z
#    x 3.115050 0.000000 0.000000 
#    y 0.000000 3.580680 0.000000 
#    z 0.000000 0.000000 3.262640 
# 
# 
# High freq. dielectric constant tensor:
#      x y z
#    x 1.699280 0.000000 0.000000 
#    y 0.000000 1.747350 0.000000 
#    z 0.000000 0.000000 1.712740 
# 
# From -- ./inp_files/7481.got.cif
#   From: 2010.03.12/outbox.cif.g09.slc.cpg/sg18_4_cif.got.tgz:7481.got - 2010.04.10 18:53:55.
