data_PCOD8155090
_publ_section_title
;
Structure prediction by ZEFSAII (Michael W. Deem and Ramdas Pophale) SiO2 
 PCOD8155090
Probable space group: C 2/C
;
_chemical_formula_sum "Si O2"
_cell_formula_units_Z 36
_cell_length_a 22.839987
_cell_length_b 8.701886
_cell_length_c 19.078382
_cell_angle_alpha 90.000000
_cell_angle_beta 156.559960
_cell_angle_gamma 90.000000
_cell_volume 1508.355506
_symmetry_space_group_name_H-M "C 2/C"
_symmetry_group_IT_number 15
_symmetry_cell_setting 'monoclinic'
loop_
_space_group_symop_operation_xyz
x,y,z
-x,y,1/2-z
-x,-y,-z
x,-y,1/2+z
1/2+x,1/2+y,z
1/2-x,1/2+y,1/2-z
1/2-x,1/2-y,-z
1/2+x,1/2-y,1/2+z
loop_
_atom_site_type_symbol
_atom_site_label
_atom_site_fract_x
_atom_site_fract_y
_atom_site_fract_z
Si Si1 0.500000 0.625283 0.250000
Si Si2 0.371205 0.172734 0.485987
Si Si3 0.638245 0.653698 0.831890
Si Si4 0.879087 0.331317 0.492330
Si Si5 0.060200 0.166313 0.084711
O O1 0.589909 0.731049 0.402288
O O2 0.380847 0.519636 0.160347
O O3 0.195176 0.157329 0.287396
O O4 0.426698 0.250190 0.476040
O O5 0.444507 0.003486 0.568649
O O6 0.708888 0.660223 0.831252
O O7 0.475671 0.727065 0.651250
O O8 0.750000 0.750000 0.000000
O O9 0.884645 0.261907 0.421433
O O10 0.000000 0.000000 0.000000
#
# Coordination Sequence:
#
# PCOD8155090 Si02
#       5
#     4   8   8   8   8
#     4  12  28  48  76 116 154 196 256 306 386 456
#     4  12  28  46  78 111 154 196 250 315 375 453
#     4  12  26  47  74 106 149 194 248 304 373 450
#     4  12  26  47  74 107 143 200 250 311 376 440
#     4  12  27  51  75 110 151 198 256 314 377 446
#
# _framework density 23.867052999999999
#
# number of rings (size 3 to 8) (size 9 to 14) (size 15 to 20)
#    0.000    0.000    2.222    7.333    6.222    1.778 
#    0.000    0.000    0.000    0.000    0.000    0.000 
#    0.000    0.000    0.000    0.000    0.000    0.000 
#
# Total GULP energy -223258.226673 kJ/mol
# GULP energy per Si atom -12403.234815 kJ/mol
# Density = 2.381273 g / cm^3
# Si number density = 23.867053 Si / 1000 Ang^3
#
#
#
# Elastic Constant Matrix: (Units=GPa)
#
#
# Indices 1 2 3 4 5 6 
#
# 1 124.7814 66.9215 41.7160 0.0000 12.2909 0.0000
# 2 66.9215 198.2537 56.2051 0.0000 -9.8174 0.0000
# 3 41.7160 56.2051 133.6849 -0.0001 -6.9796 0.0000
# 4 0.0000 0.0000 -0.0001 40.4742 -0.0001 -8.8454
# 5 12.2909 -9.8174 -6.9796 -0.0001 47.5538 0.0000
# 6 0.0000 0.0000 0.0000 -8.8454 0.0000 52.7084
#
#
#
# Elastic Compliance Matrix: (Units=1/GPa)
#
#
# Indices 1 2 3 4 5 6 
#
# 1 0.010863 -0.003222 -0.002234 0.000000 -0.003801 0.000000
# 2 -0.003222 0.006715 -0.001715 0.000000 0.001967 0.000000
# 3 -0.002234 -0.001715 0.008979 0.000000 0.001541 0.000000
# 4 0.000000 0.000000 0.000000 0.025648 0.000000 0.004304
# 5 -0.003801 0.001967 0.001541 0.000000 0.022643 0.000000
# 6 0.000000 0.000000 0.000000 0.004304 0.000000 0.019695
#
#
# Mechanical properties :
#
#
# Convention : Reuss Voigt Hill
#
# Bulk Modulus (GPa) = 81.86154 87.37836 84.61995
# Shear Modulus (GPa) = 44.26490 47.60579 45.93535
#
# Velocity S-wave (km/s) = 4.31123 4.47097 4.39182
# Velocity P-wave (km/s) = 7.69128 7.95881 7.82619
#
# Compressibility (1/GPa) = 0.01221575
#
# Stress axis : x y z
#
# Youngs Moduli (GPa) = 92.05552 148.91427 111.37262
#
# Poissons Ratio (x) = 0.47978 0.24877
# Poissons Ratio (y) = 0.29659 0.19103
# Poissons Ratio (z) = 0.20562 0.25542
#
# Static dielectric constant tensor:
#      x y z
#    x 3.942940 0.000000 -0.771600 
#    y 0.000000 4.465800 0.000000 
#    z -0.771600 0.000000 2.941160 
# 
# 
# High freq. dielectric constant tensor:
#      x y z
#    x 1.969860 0.000000 0.001500 
#    y 0.000000 1.961070 0.000000 
#    z 0.001500 0.000000 1.948430 
# 
# From -- ./inp_files/283345.got.cif
#   From: 2010.06.25/outbox.cif.g09.slc.cpg/sg15_142_cif.got.tgz:283345.got - 2010.06.28 07:06:18.
