data_PCOD8155948
_publ_section_title
;
Structure prediction by ZEFSAII (Michael W. Deem and Ramdas Pophale) SiO2 
 PCOD8155948
Probable space group: P 21 21 2
;
_chemical_formula_sum "Si O2"
_cell_formula_units_Z 20
_cell_length_a 14.230818
_cell_length_b 5.057361
_cell_length_c 12.439812
_cell_angle_alpha 90.000000
_cell_angle_beta 90.000000
_cell_angle_gamma 90.000000
_cell_volume 895.298046
_symmetry_space_group_name_H-M "P 21 21 2"
_symmetry_group_IT_number 18
_symmetry_cell_setting 'orthorhombic'
loop_
_space_group_symop_operation_xyz
x,y,z
-x,-y,z
1/2+x,1/2-y,-z
1/2-x,1/2+y,-z
loop_
_atom_site_type_symbol
_atom_site_label
_atom_site_fract_x
_atom_site_fract_y
_atom_site_fract_z
Si Si1 0.345748 0.761251 0.102134
Si Si2 0.500000 0.000000 0.591068
Si Si3 0.000000 0.000000 0.269007
Si Si4 0.661596 0.467659 0.883611
Si Si5 0.671319 0.743795 0.222260
Si Si6 0.690685 0.872793 0.468697
O O1 0.232554 0.795767 0.080864
O O2 0.369273 0.541881 0.192477
O O3 0.386531 0.033296 0.152968
O O4 0.387555 0.672207 0.987237
O O5 0.531240 0.250855 0.660802
O O6 0.590455 0.921951 0.522277
O O7 0.084189 0.904398 0.192838
O O8 0.719563 0.252194 0.814030
O O9 0.665522 0.792354 0.348113
O O10 0.755311 0.134639 0.470974
#
# Coordination Sequence:
#
# PCOD8155948 Si02
#       6
#     4   2   2   4   4   4
#     4  10  20  35  65  89 127 162 220 256 318 420
#     4  12  28  48  62 110 132 176 240 308 320 434
#     4  12  28  38  70  94 142 164 222 294 360 376
#     4  10  21  39  61  97 124 173 206 274 326 418
#     4  10  20  36  63  89 118 176 212 266 322 401
#     4  12  25  44  71  95 136 185 231 284 354 405
#
# _framework density 22.338927999999999
#
# number of rings (size 3 to 8) (size 9 to 14) (size 15 to 20)
#    1.200    0.000    2.000    4.800    5.600    0.000 
#    0.000    2.000    0.000    0.000    0.000    0.000 
#    0.000    0.000    0.000    0.000    0.000    0.000 
#
# Total GULP energy -247870.321933 kJ/mol
# GULP energy per Si atom -12393.516097 kJ/mol
# Density = 2.228808 g / cm^3
# Si number density = 22.338928 Si / 1000 Ang^3
#
#
#
# Elastic Constant Matrix: (Units=GPa)
#
#
# Indices 1 2 3 4 5 6 
#
# 1 60.1787 8.0249 17.3999 0.0000 0.0000 0.0000
# 2 8.0249 116.8586 18.7659 0.0000 0.0000 0.0000
# 3 17.3999 18.7659 128.4595 0.0000 0.0000 0.0000
# 4 0.0000 0.0000 0.0000 31.8830 0.0000 0.0000
# 5 0.0000 0.0000 0.0000 0.0000 9.1493 0.0000
# 6 0.0000 0.0000 0.0000 0.0000 0.0000 21.0287
#
#
#
# Elastic Compliance Matrix: (Units=1/GPa)
#
#
# Indices 1 2 3 4 5 6 
#
# 1 0.017374 -0.000835 -0.002231 0.000000 0.000000 0.000000
# 2 -0.000835 0.008803 -0.001173 0.000000 0.000000 0.000000
# 3 -0.002231 -0.001173 0.008258 0.000000 0.000000 0.000000
# 4 0.000000 0.000000 0.000000 0.031365 0.000000 0.000000
# 5 0.000000 0.000000 0.000000 0.000000 0.109298 0.000000
# 6 0.000000 0.000000 0.000000 0.000000 0.000000 0.047554
#
#
# Mechanical properties :
#
#
# Convention : Reuss Voigt Hill
#
# Bulk Modulus (GPa) = 38.52552 43.76423 41.14488
# Shear Modulus (GPa) = 20.85228 29.83262 25.34245
#
# Velocity S-wave (km/s) = 3.05856 3.65835 3.37182
# Velocity P-wave (km/s) = 5.45494 6.12195 5.79804
#
# Compressibility (1/GPa) = 0.02595682
#
# Stress axis : x y z
#
# Youngs Moduli (GPa) = 57.55844 113.59726 121.09278
#
# Poissons Ratio (x) = 0.09483 0.27020
# Poissons Ratio (y) = 0.04805 0.14203
# Poissons Ratio (z) = 0.12843 0.13324
#
# Static dielectric constant tensor:
#      x y z
#    x 3.601460 0.000000 0.000000 
#    y 0.000000 4.013490 0.000000 
#    z 0.000000 0.000000 3.948440 
# 
# 
# High freq. dielectric constant tensor:
#      x y z
#    x 1.842830 0.000000 0.000000 
#    y 0.000000 1.885440 0.000000 
#    z 0.000000 0.000000 1.893620 
# 
# From -- ./inp_files/5998.got.cif
#   From: 2010.03.12/outbox.cif.g09.slc.cpg/sg18_3_cif.got.tgz:5998.got - 2010.04.10 18:53:55.
