data_PCOD8155193
_publ_section_title
;
Structure prediction by ZEFSAII (Michael W. Deem and Ramdas Pophale) SiO2 
 PCOD8155193
Probable space group: C 2/C
;
_chemical_formula_sum "Si O2"
_cell_formula_units_Z 48
_cell_length_a 9.737458
_cell_length_b 30.556938
_cell_length_c 8.942619
_cell_angle_alpha 90.000000
_cell_angle_beta 114.001118
_cell_angle_gamma 90.000000
_cell_volume 2430.785001
_symmetry_space_group_name_H-M "C 2/C"
_symmetry_group_IT_number 15
_symmetry_cell_setting 'monoclinic'
loop_
_space_group_symop_operation_xyz
x,y,z
-x,y,1/2-z
-x,-y,-z
x,-y,1/2+z
1/2+x,1/2+y,z
1/2-x,1/2+y,1/2-z
1/2-x,1/2-y,-z
1/2+x,1/2-y,1/2+z
loop_
_atom_site_type_symbol
_atom_site_label
_atom_site_fract_x
_atom_site_fract_y
_atom_site_fract_z
Si Si1 0.176386 0.043005 0.168416
Si Si2 0.309219 0.628381 0.816169
Si Si3 0.097279 0.787307 0.640080
Si Si4 0.299248 0.276370 0.378959
Si Si5 0.336321 0.628892 0.493110
Si Si6 0.817608 0.043768 0.992062
O O1 0.241201 0.043426 0.364690
O O2 0.996999 0.044265 0.078935
O O3 0.237935 0.086333 0.114882
O O4 0.239732 0.999806 0.115950
O O5 0.248972 0.672771 0.868219
O O6 0.258334 0.632654 0.620857
O O7 0.487016 0.623893 0.906057
O O8 0.245966 0.585411 0.872295
O O9 0.217491 0.747788 0.704898
O O10 0.190946 0.829993 0.630060
O O11 0.000000 0.796087 0.750000
O O12 0.981451 0.774827 0.454171
O O13 0.250000 0.250000 0.500000
#
# Coordination Sequence:
#
# PCOD8155193 Si02
#       6
#     8   8   8   8   8   8
#     4   9  16  23  37  57  82 118 149 187 221 281
#     4   9  17  28  40  60  86 120 152 191 226 277
#     4   9  18  30  47  66  91 124 156 195 230 277
#     4   9  18  30  47  66  91 122 158 194 231 274
#     4   9  17  26  42  60  87 117 155 184 233 275
#     4   9  16  24  37  55  85 115 152 183 229 270
#
# _framework density 19.746706
#
# number of rings (size 3 to 8) (size 9 to 14) (size 15 to 20)
#    0.000    3.000    0.000    1.000    9.333    4.667 
#    0.000    0.000    0.000    0.000    0.000    0.000 
#    0.000    1.333    1.333    0.333    1.000    1.167 
#
# Total GULP energy -297346.649273 kJ/mol
# GULP energy per Si atom -12389.443720 kJ/mol
# Density = 1.970176 g / cm^3
# Si number density = 19.746706 Si / 1000 Ang^3
#
#
#
# Elastic Constant Matrix: (Units=GPa)
#
#
# Indices 1 2 3 4 5 6 
#
# 1 13.1871 31.0914 25.8013 0.0000 -3.1375 0.0000
# 2 31.0914 222.4275 88.9417 0.0000 -10.5382 0.0000
# 3 25.8013 88.9417 111.3213 0.0000 -19.9271 0.0000
# 4 0.0000 0.0000 0.0000 41.3393 0.0000 -5.7705
# 5 -3.1375 -10.5382 -19.9271 0.0000 24.3187 0.0000
# 6 0.0000 0.0000 0.0000 -5.7705 0.0000 18.4981
#
#
#
# Elastic Compliance Matrix: (Units=1/GPa)
#
#
# Indices 1 2 3 4 5 6 
#
# 1 0.155712 -0.010479 -0.029220 0.000000 -0.008395 0.000000
# 2 -0.010479 0.007373 -0.003671 0.000000 -0.001165 0.000000
# 3 -0.029220 -0.003671 0.020776 0.000000 0.011664 0.000000
# 4 0.000000 0.000000 0.000000 0.025291 0.000000 0.007890
# 5 -0.008395 -0.001165 0.011664 0.000000 0.049090 0.000000
# 6 0.000000 0.000000 0.000000 0.007890 0.000000 0.056521
#
#
# Mechanical properties :
#
#
# Convention : Reuss Voigt Hill
#
# Bulk Modulus (GPa) = 10.29640 70.95605 40.62623
# Shear Modulus (GPa) = 11.52401 30.23799 20.88100
#
# Velocity S-wave (km/s) = 2.41838 3.91742 3.25536
# Velocity P-wave (km/s) = 3.60883 7.51483 5.89476
#
# Compressibility (1/GPa) = 0.09712129
#
# Stress axis : x y z
#
# Youngs Moduli (GPa) = 6.42212 135.62535 48.13263
#
# Poissons Ratio (x) = 1.42126 1.40643
# Poissons Ratio (y) = 0.06730 0.17668
# Poissons Ratio (z) = 0.18765 0.49783
#
# Static dielectric constant tensor:
#      x y z
#    x 2.965960 0.000000 0.024310 
#    y 0.000000 4.036470 0.000000 
#    z 0.024310 0.000000 4.011650 
# 
# 
# High freq. dielectric constant tensor:
#      x y z
#    x 1.679010 0.000000 -0.019070 
#    y 0.000000 1.788860 0.000000 
#    z -0.019070 0.000000 1.773960 
# 
# From -- ./inp_files/34765.got.cif
#   From: 2010.06.25/outbox.cif.g09.slc.cpg/sg15_18_cif.got.tgz:34765.got - 2010.06.28 07:06:18.
