data_PCOD8155719
_publ_section_title
;
Structure prediction by ZEFSAII (Michael W. Deem and Ramdas Pophale) SiO2 
 PCOD8155719
Probable space group: P 2 2 21
;
_chemical_formula_sum "Si O2"
_cell_formula_units_Z 20
_cell_length_a 9.606031
_cell_length_b 4.969644
_cell_length_c 19.476247
_cell_angle_alpha 90.000000
_cell_angle_beta 90.000000
_cell_angle_gamma 90.000000
_cell_volume 929.767875
_symmetry_space_group_name_H-M "P 2 2 21"
_symmetry_group_IT_number 17
_symmetry_cell_setting 'orthorhombic'
loop_
_space_group_symop_operation_xyz
x,y,z
-x,-y,1/2+z
x,-y,-z
-x,y,1/2-z
loop_
_atom_site_type_symbol
_atom_site_label
_atom_site_fract_x
_atom_site_fract_y
_atom_site_fract_z
Si Si1 0.213698 0.365668 0.711117
Si Si2 0.076754 0.331168 0.853950
Si Si3 0.473370 0.756368 0.957310
Si Si4 0.605465 0.147778 0.189188
Si Si5 0.847301 0.838352 0.563950
O O1 0.170988 0.414312 0.789806
O O2 0.261815 0.659128 0.688328
O O3 0.082499 0.275443 0.665901
O O4 0.339250 0.155833 0.698839
O O5 0.078911 0.559361 0.913624
O O6 0.146632 0.049279 0.874278
O O7 0.525755 0.789352 0.880599
O O8 0.307247 0.756694 0.956737
O O9 0.527213 0.500000 0.000000
O O10 0.536463 0.000000 0.000000
O O11 0.500000 0.220663 0.250000
O O12 0.919725 0.000000 0.500000
#
# Coordination Sequence:
#
# PCOD8155719 Si02
#       5
#     4   4   4   4   4
#     4  11  24  40  63  91 123 161 202 256 320 367
#     4  11  22  41  62  89 125 157 200 260 313 366
#     4  11  23  41  63  89 125 163 202 255 313 368
#     4  12  24  41  65  94 123 162 214 258 308 379
#     4  11  22  39  64  91 119 160 209 252 303 369
#
# _framework density 21.510745
#
# number of rings (size 3 to 8) (size 9 to 14) (size 15 to 20)
#    0.000    0.800    0.000    9.600    0.000    3.200 
#    0.000   10.000    0.000    0.000    0.000    0.000 
#    0.000    0.000    0.000    0.000    0.000    0.000 
#
# Total GULP energy -247979.743099 kJ/mol
# GULP energy per Si atom -12398.987155 kJ/mol
# Density = 2.146179 g / cm^3
# Si number density = 21.510745 Si / 1000 Ang^3
#
#
#
# Elastic Constant Matrix: (Units=GPa)
#
#
# Indices 1 2 3 4 5 6 
#
# 1 48.9227 25.1144 36.3853 0.0000 0.0000 0.0000
# 2 25.1144 119.9800 25.5785 0.0000 0.0000 0.0000
# 3 36.3853 25.5785 121.1665 0.0000 0.0000 0.0000
# 4 0.0000 0.0000 0.0000 46.5261 0.0000 0.0000
# 5 0.0000 0.0000 0.0000 0.0000 32.4613 0.0000
# 6 0.0000 0.0000 0.0000 0.0000 0.0000 39.0882
#
#
#
# Elastic Compliance Matrix: (Units=1/GPa)
#
#
# Indices 1 2 3 4 5 6 
#
# 1 0.028293 -0.004305 -0.007588 0.000000 0.000000 0.000000
# 2 -0.004305 0.009382 -0.000688 0.000000 0.000000 0.000000
# 3 -0.007588 -0.000688 0.010677 0.000000 0.000000 0.000000
# 4 0.000000 0.000000 0.000000 0.021493 0.000000 0.000000
# 5 0.000000 0.000000 0.000000 0.000000 0.030806 0.000000
# 6 0.000000 0.000000 0.000000 0.000000 0.000000 0.025583
#
#
# Mechanical properties :
#
#
# Convention : Reuss Voigt Hill
#
# Bulk Modulus (GPa) = 43.11820 51.58061 47.34941
# Shear Modulus (GPa) = 31.42157 37.14785 34.28471
#
# Velocity S-wave (km/s) = 3.82611 4.16016 3.99663
# Velocity P-wave (km/s) = 6.29343 6.86345 6.58461
#
# Compressibility (1/GPa) = 0.02319206
#
# Stress axis : x y z
#
# Youngs Moduli (GPa) = 35.34397 106.58159 93.66102
#
# Poissons Ratio (x) = 0.45882 0.71065
# Poissons Ratio (y) = 0.15215 0.06443
# Poissons Ratio (z) = 0.26817 0.07332
#
# Static dielectric constant tensor:
#      x y z
#    x 3.663560 0.000000 0.000000 
#    y 0.000000 3.953440 0.000000 
#    z 0.000000 0.000000 4.092960 
# 
# 
# High freq. dielectric constant tensor:
#      x y z
#    x 1.825290 0.000000 0.000000 
#    y 0.000000 1.864600 0.000000 
#    z 0.000000 0.000000 1.859030 
# 
# From -- ./inp_files/9261.got.cif
#   From: 2010.03.12/outbox.cif.g09.slc.cpg/sg17_5_cif.got.tgz:9261.got - 2010.04.10 18:46:23.
