data_PCOD8155523
_publ_section_title
;
Structure prediction by ZEFSAII (Michael W. Deem and Ramdas Pophale) SiO2 
 PCOD8155523
Probable space group: P 2 2 21
;
_chemical_formula_sum "Si O2"
_cell_formula_units_Z 22
_cell_length_a 6.471056
_cell_length_b 11.485795
_cell_length_c 14.304488
_cell_angle_alpha 90.000000
_cell_angle_beta 90.000000
_cell_angle_gamma 90.000000
_cell_volume 1063.184255
_symmetry_space_group_name_H-M "P 2 2 21"
_symmetry_group_IT_number 17
_symmetry_cell_setting 'orthorhombic'
loop_
_space_group_symop_operation_xyz
x,y,z
-x,-y,1/2+z
x,-y,-z
-x,y,1/2-z
loop_
_atom_site_type_symbol
_atom_site_label
_atom_site_fract_x
_atom_site_fract_y
_atom_site_fract_z
Si Si1 0.366954 0.809341 0.960463
Si Si2 0.294015 0.326786 0.368654
Si Si3 0.320742 0.000000 0.500000
Si Si4 0.280402 0.589678 0.073755
Si Si5 0.975425 0.893284 0.854543
Si Si6 0.500000 0.504704 0.250000
Si Si7 0.107235 0.500000 0.500000
O O1 0.486410 0.738289 0.879615
O O2 0.191978 0.886830 0.910116
O O3 0.532249 0.888877 0.015684
O O4 0.271585 0.721470 0.035986
O O5 0.315543 0.423010 0.287969
O O6 0.113777 0.236822 0.344354
O O7 0.242588 0.391429 0.466003
O O8 0.177679 0.019676 0.409150
O O9 0.404610 0.587026 0.170425
O O10 0.042284 0.546013 0.084583
O O11 0.391208 0.500000 0.000000
O O12 0.000000 0.944818 0.750000
#
# Coordination Sequence:
#
# PCOD8155523 Si02
#       7
#     4   4   2   4   4   2   2
#     4  11  21  46  64  94 137 172 219 275 335 387
#     4  11  21  34  63  97 132 174 217 271 324 393
#     4  10  26  42  72  94 128 176 224 282 332 378
#     4  10  21  39  60  94 138 175 207 273 324 396
#     4  11  23  41  68  99 126 169 224 280 327 387
#     4  12  22  36  64 104 134 180 224 256 332 398
#     4  10  20  38  60  92 142 174 210 268 340 386
#
# _framework density 20.692556
#
# number of rings (size 3 to 8) (size 9 to 14) (size 15 to 20)
#    0.545    0.727    3.636    2.727    2.545    2.182 
#    0.000    3.636    0.000    0.000    0.000    0.000 
#    0.000    0.000    0.000    0.000    0.000    0.000 
#
# Total GULP energy -272739.928204 kJ/mol
# GULP energy per Si atom -12397.269464 kJ/mol
# Density = 2.064546 g / cm^3
# Si number density = 20.692556 Si / 1000 Ang^3
#
#
#
# Elastic Constant Matrix: (Units=GPa)
#
#
# Indices 1 2 3 4 5 6 
#
# 1 107.0159 31.9189 39.7316 0.0000 0.0000 0.0000
# 2 31.9189 74.2020 39.5612 0.0000 0.0000 0.0000
# 3 39.7316 39.5612 113.8391 0.0000 0.0000 0.0000
# 4 0.0000 0.0000 0.0000 31.8759 0.0000 0.0000
# 5 0.0000 0.0000 0.0000 0.0000 30.9228 0.0000
# 6 0.0000 0.0000 0.0000 0.0000 0.0000 37.9513
#
#
#
# Elastic Compliance Matrix: (Units=1/GPa)
#
#
# Indices 1 2 3 4 5 6 
#
# 1 0.011400 -0.003415 -0.002792 0.000000 0.000000 0.000000
# 2 -0.003415 0.017565 -0.004912 0.000000 0.000000 0.000000
# 3 -0.002792 -0.004912 0.011466 0.000000 0.000000 0.000000
# 4 0.000000 0.000000 0.000000 0.031372 0.000000 0.000000
# 5 0.000000 0.000000 0.000000 0.000000 0.032339 0.000000
# 6 0.000000 0.000000 0.000000 0.000000 0.000000 0.026350
#
#
# Mechanical properties :
#
#
# Convention : Reuss Voigt Hill
#
# Bulk Modulus (GPa) = 54.96969 57.49784 56.23377
# Shear Modulus (GPa) = 31.48773 32.40634 31.94704
#
# Velocity S-wave (km/s) = 3.90512 3.96167 3.93350
# Velocity P-wave (km/s) = 6.85244 6.98381 6.91843
#
# Compressibility (1/GPa) = 0.01819184
#
# Stress axis : x y z
#
# Youngs Moduli (GPa) = 87.72288 56.93224 87.21632
#
# Poissons Ratio (x) = 0.19444 0.24349
# Poissons Ratio (y) = 0.29959 0.42842
# Poissons Ratio (z) = 0.24490 0.27966
#
# Static dielectric constant tensor:
#      x y z
#    x 3.863200 0.000000 0.000000 
#    y 0.000000 3.619730 0.000000 
#    z 0.000000 0.000000 3.482150 
# 
# 
# High freq. dielectric constant tensor:
#      x y z
#    x 1.826390 0.000000 0.000000 
#    y 0.000000 1.793600 0.000000 
#    z 0.000000 0.000000 1.784230 
# 
# From -- ./inp_files/7674.got.cif
#   From: 2010.03.12/outbox.cif.g09.slc.cpg/sg17_4_cif.got.tgz:7674.got - 2010.04.10 18:46:23.
