data_PCOD8155691
_publ_section_title
;
Structure prediction by ZEFSAII (Michael W. Deem and Ramdas Pophale) SiO2 
 PCOD8155691
Probable space group: P 2 2 21
;
_chemical_formula_sum "Si O2"
_cell_formula_units_Z 24
_cell_length_a 15.092644
_cell_length_b 9.272801
_cell_length_c 7.426300
_cell_angle_alpha 90.000000
_cell_angle_beta 90.000000
_cell_angle_gamma 90.000000
_cell_volume 1039.318738
_symmetry_space_group_name_H-M "P 2 2 21"
_symmetry_group_IT_number 17
_symmetry_cell_setting 'orthorhombic'
loop_
_space_group_symop_operation_xyz
x,y,z
-x,-y,1/2+z
x,-y,-z
-x,y,1/2-z
loop_
_atom_site_type_symbol
_atom_site_label
_atom_site_fract_x
_atom_site_fract_y
_atom_site_fract_z
Si Si1 0.785018 0.349523 0.922401
Si Si2 0.733686 0.145692 0.202457
Si Si3 0.300013 0.338263 0.945613
Si Si4 0.988049 0.659927 0.044045
Si Si5 0.599185 0.919071 0.315510
Si Si6 0.084323 0.907488 0.839132
O O1 0.779405 0.346154 0.703219
O O2 0.883920 0.322330 0.996089
O O3 0.750038 0.500000 0.000000
O O4 0.719335 0.232947 0.016378
O O5 0.726802 0.249364 0.377855
O O6 0.835831 0.096067 0.197953
O O7 0.667888 0.009091 0.190726
O O8 0.377763 0.250261 0.842078
O O9 0.330867 0.500000 0.000000
O O10 0.000000 0.702600 0.250000
O O11 0.021377 0.500000 0.000000
O O12 0.047155 0.755109 0.910376
O O13 0.500000 0.933051 0.250000
O O14 0.607947 0.000000 0.500000
O O15 0.000000 0.989648 0.750000
O O16 0.124200 0.000000 0.000000
#
# Coordination Sequence:
#
# PCOD8155691 Si02
#       6
#     4   4   4   4   4   4
#     4  11  23  40  69 100 135 189 238 285 349 413
#     4  11  24  46  68 100 138 185 236 289 355 427
#     4  11  23  43  70 101 140 180 228 291 353 419
#     4  11  24  39  60  93 133 185 236 285 340 407
#     4  10  25  47  73 105 137 178 231 292 365 436
#     4  12  24  41  61  91 136 177 231 292 345 412
#
# _framework density 23.092051000000001
#
# number of rings (size 3 to 8) (size 9 to 14) (size 15 to 20)
#    0.000    1.000    3.333    3.500    4.667    2.667 
#    0.000    4.167    0.000    0.000    0.000    0.000 
#    0.000    0.000    0.000    0.000    0.000    0.000 
#
# Total GULP energy -297461.557921 kJ/mol
# GULP energy per Si atom -12394.231580 kJ/mol
# Density = 2.303949 g / cm^3
# Si number density = 23.092051 Si / 1000 Ang^3
#
#
#
# Elastic Constant Matrix: (Units=GPa)
#
#
# Indices 1 2 3 4 5 6 
#
# 1 120.5635 55.5167 5.1663 0.0000 0.0000 0.0000
# 2 55.5167 142.6618 26.4091 0.0000 0.0000 0.0000
# 3 5.1663 26.4091 81.5014 0.0000 0.0000 0.0000
# 4 0.0000 0.0000 0.0000 47.2157 0.0000 0.0000
# 5 0.0000 0.0000 0.0000 0.0000 28.1699 0.0000
# 6 0.0000 0.0000 0.0000 0.0000 0.0000 36.8782
#
#
#
# Elastic Compliance Matrix: (Units=1/GPa)
#
#
# Indices 1 2 3 4 5 6 
#
# 1 0.010140 -0.004071 0.000676 0.000000 0.000000 0.000000
# 2 -0.004071 0.009091 -0.002688 0.000000 0.000000 0.000000
# 3 0.000676 -0.002688 0.013098 0.000000 0.000000 0.000000
# 4 0.000000 0.000000 0.000000 0.021179 0.000000 0.000000
# 5 0.000000 0.000000 0.000000 0.000000 0.035499 0.000000
# 6 0.000000 0.000000 0.000000 0.000000 0.000000 0.027116
#
#
# Mechanical properties :
#
#
# Convention : Reuss Voigt Hill
#
# Bulk Modulus (GPa) = 49.59317 57.65679 53.62498
# Shear Modulus (GPa) = 37.03415 39.62842 38.33128
#
# Velocity S-wave (km/s) = 4.00904 4.14709 4.07865
# Velocity P-wave (km/s) = 6.55384 6.92485 6.74190
#
# Compressibility (1/GPa) = 0.02016407
#
# Stress axis : x y z
#
# Youngs Moduli (GPa) = 98.61830 109.99324 76.34868
#
# Poissons Ratio (x) = 0.44781 -0.05164
# Poissons Ratio (y) = 0.40150 0.20521
# Poissons Ratio (z) = -0.06671 0.29565
#
# Static dielectric constant tensor:
#      x y z
#    x 3.679100 0.000000 0.000000 
#    y 0.000000 4.407090 0.000000 
#    z 0.000000 0.000000 4.434410 
# 
# 
# High freq. dielectric constant tensor:
#      x y z
#    x 1.878760 0.000000 0.000000 
#    y 0.000000 1.923880 0.000000 
#    z 0.000000 0.000000 1.932800 
# 
# From -- ./inp_files/5116.got.cif
#   From: 2010.03.12/outbox.cif.g09.slc.cpg/sg17_3_cif.got.tgz:5116.got - 2010.04.10 18:46:23.
