data_PCOD8155669
_publ_section_title
;
Structure prediction by ZEFSAII (Michael W. Deem and Ramdas Pophale) SiO2 
 PCOD8155669
Probable space group: P 2 2 21
;
_chemical_formula_sum "Si O2"
_cell_formula_units_Z 32
_cell_length_a 8.871965
_cell_length_b 11.863715
_cell_length_c 14.861199
_cell_angle_alpha 90.000000
_cell_angle_beta 90.000000
_cell_angle_gamma 90.000000
_cell_volume 1564.207539
_symmetry_space_group_name_H-M "P 2 2 21"
_symmetry_group_IT_number 17
_symmetry_cell_setting 'orthorhombic'
loop_
_space_group_symop_operation_xyz
x,y,z
-x,-y,1/2+z
x,-y,-z
-x,y,1/2-z
loop_
_atom_site_type_symbol
_atom_site_label
_atom_site_fract_x
_atom_site_fract_y
_atom_site_fract_z
Si Si1 0.921169 0.801320 0.655643
Si Si2 0.277721 0.400628 0.181855
Si Si3 0.394835 0.562214 0.626685
Si Si4 0.647573 0.677539 0.057429
Si Si5 0.960624 0.226272 0.961171
Si Si6 0.606179 0.218994 0.666833
Si Si7 0.826208 0.037084 0.597095
Si Si8 0.880983 0.375042 0.672885
O O1 0.777703 0.719275 0.644535
O O2 0.000000 0.771434 0.750000
O O3 0.029003 0.780526 0.569568
O O4 0.865309 0.930026 0.658608
O O5 0.424073 0.441495 0.127974
O O6 0.319377 0.384677 0.286051
O O7 0.144075 0.491032 0.167580
O O8 0.334557 0.434525 0.618054
O O9 0.347783 0.641835 0.545812
O O10 0.788974 0.760446 0.071612
O O11 0.494070 0.742600 0.081609
O O12 0.023683 0.112527 0.915388
O O13 0.058760 0.331606 0.923800
O O14 0.500000 0.192497 0.750000
O O15 0.693165 0.104919 0.644265
O O16 0.721449 0.316953 0.695904
O O17 0.764896 0.000000 0.500000
O O18 0.000000 0.342955 0.750000
#
# Coordination Sequence:
#
# PCOD8155669 Si02
#       8
#     4   4   4   4   4   4   4   4
#     4  11  24  42  66  87 131 174 218 264 323 383
#     4  11  22  39  61  93 133 173 204 253 318 394
#     4  10  23  37  59  95 141 166 201 256 324 391
#     4  11  22  39  64  94 131 169 207 263 324 384
#     4  10  23  41  66  96 126 164 220 272 324 378
#     4  11  22  40  66  94 124 163 215 273 328 382
#     4   9  23  45  63  87 125 165 218 280 319 379
#     4  11  22  37  66  97 131 165 212 266 320 384
#
# _framework density 20.457643999999998
#
# number of rings (size 3 to 8) (size 9 to 14) (size 15 to 20)
#    0.000    1.500    1.250    3.375    5.250    5.500 
#    2.250    3.125    0.000    0.000    0.000    0.000 
#    0.000    0.000    0.000    0.000    0.000    0.000 
#
# Total GULP energy -396928.376552 kJ/mol
# GULP energy per Si atom -12404.011767 kJ/mol
# Density = 2.041108 g / cm^3
# Si number density = 20.457644 Si / 1000 Ang^3
#
#
#
# Elastic Constant Matrix: (Units=GPa)
#
#
# Indices 1 2 3 4 5 6 
#
# 1 127.9164 65.6711 38.9163 0.0000 0.0000 0.0000
# 2 65.6711 128.1853 40.2024 0.0000 0.0000 0.0000
# 3 38.9163 40.2024 59.7605 0.0000 0.0000 0.0000
# 4 0.0000 0.0000 0.0000 24.6675 0.0000 0.0000
# 5 0.0000 0.0000 0.0000 0.0000 31.4792 0.0000
# 6 0.0000 0.0000 0.0000 0.0000 0.0000 32.5126
#
#
#
# Elastic Compliance Matrix: (Units=1/GPa)
#
#
# Indices 1 2 3 4 5 6 
#
# 1 0.011474 -0.004480 -0.004458 0.000000 0.000000 0.000000
# 2 -0.004480 0.011637 -0.004911 0.000000 0.000000 0.000000
# 3 -0.004458 -0.004911 0.022940 0.000000 0.000000 0.000000
# 4 0.000000 0.000000 0.000000 0.040539 0.000000 0.000000
# 5 0.000000 0.000000 0.000000 0.000000 0.031767 0.000000
# 6 0.000000 0.000000 0.000000 0.000000 0.000000 0.030757
#
#
# Mechanical properties :
#
#
# Convention : Reuss Voigt Hill
#
# Bulk Modulus (GPa) = 54.48728 67.27132 60.87930
# Shear Modulus (GPa) = 27.33296 29.13669 28.23482
#
# Velocity S-wave (km/s) = 3.65920 3.77801 3.71908
# Velocity P-wave (km/s) = 6.67421 7.21012 6.94733
#
# Compressibility (1/GPa) = 0.01835291
#
# Stress axis : x y z
#
# Youngs Moduli (GPa) = 87.15427 85.93590 43.59178
#
# Poissons Ratio (x) = 0.38500 0.19433
# Poissons Ratio (y) = 0.39046 0.21407
# Poissons Ratio (z) = 0.38853 0.42201
#
# Static dielectric constant tensor:
#      x y z
#    x 3.714780 0.000000 0.000000 
#    y 0.000000 3.691060 0.000000 
#    z 0.000000 0.000000 3.722210 
# 
# 
# High freq. dielectric constant tensor:
#      x y z
#    x 1.799930 0.000000 0.000000 
#    y 0.000000 1.793260 0.000000 
#    z 0.000000 0.000000 1.807490 
# 
# From -- ./inp_files/8307.got.cif
#   From: 2010.03.12/outbox.cif.g09.slc.cpg/sg17_5_cif.got.tgz:8307.got - 2010.04.10 18:46:23.
