data_PCOD8155868
_publ_section_title
;
Structure prediction by ZEFSAII (Michael W. Deem and Ramdas Pophale) SiO2 
 PCOD8155868
Probable space group: P 21 21 2
;
_chemical_formula_sum "Si O2"
_cell_formula_units_Z 16
_cell_length_a 9.693412
_cell_length_b 4.984495
_cell_length_c 17.470272
_cell_angle_alpha 90.000000
_cell_angle_beta 90.000000
_cell_angle_gamma 90.000000
_cell_volume 844.107003
_symmetry_space_group_name_H-M "P 21 21 2"
_symmetry_group_IT_number 18
_symmetry_cell_setting 'orthorhombic'
loop_
_space_group_symop_operation_xyz
x,y,z
-x,-y,z
1/2+x,1/2-y,-z
1/2-x,1/2+y,-z
loop_
_atom_site_type_symbol
_atom_site_label
_atom_site_fract_x
_atom_site_fract_y
_atom_site_fract_z
Si Si1 0.157517 0.517818 0.977597
Si Si2 0.500000 0.000000 0.167510
Si Si3 0.500000 0.500000 0.272038
Si Si4 0.865929 0.134264 0.430075
Si Si5 0.292488 0.361679 0.401171
O O1 0.133305 0.562381 0.886396
O O2 0.000000 0.500000 0.014769
O O3 0.247804 0.251419 0.988680
O O4 0.461399 0.748774 0.219314
O O5 0.370512 0.434739 0.324570
O O6 0.741540 0.953587 0.397026
O O7 0.879456 0.092375 0.521623
O O8 0.842814 0.443992 0.406796
O O9 0.000000 0.000000 0.392236
#
# Coordination Sequence:
#
# PCOD8155868 Si02
#       5
#     4   2   2   4   4
#     4  10  20  38  64  96 122 154 196 244 286 338
#     4  10  24  34  66  86 122 148 186 236 282 366
#     4  12  20  40  52  90 116 152 188 230 296 344
#     4  10  19  35  50  79 100 139 207 236 287 319
#     4  10  21  31  56  74 107 148 181 250 278 335
#
# _framework density 18.954943
#
# number of rings (size 3 to 8) (size 9 to 14) (size 15 to 20)
#    0.750    1.000    1.250    4.500    0.000    0.000 
#    0.000    0.000    0.000   30.000    0.000    0.000 
#    0.000    0.000    0.000    0.000    0.000    0.000 
#
# Total GULP energy -198214.998922 kJ/mol
# GULP energy per Si atom -12388.437433 kJ/mol
# Density = 1.891180 g / cm^3
# Si number density = 18.954943 Si / 1000 Ang^3
#
#
#
# Elastic Constant Matrix: (Units=GPa)
#
#
# Indices 1 2 3 4 5 6 
#
# 1 73.6906 -3.8331 12.3646 0.0000 0.0000 0.0000
# 2 -3.8331 75.6153 9.5241 0.0000 0.0000 0.0000
# 3 12.3646 9.5241 92.5601 0.0000 0.0000 0.0000
# 4 0.0000 0.0000 0.0000 26.6925 0.0000 0.0000
# 5 0.0000 0.0000 0.0000 0.0000 33.8945 0.0000
# 6 0.0000 0.0000 0.0000 0.0000 0.0000 19.2961
#
#
#
# Elastic Compliance Matrix: (Units=1/GPa)
#
#
# Indices 1 2 3 4 5 6 
#
# 1 0.013949 0.000954 -0.001962 0.000000 0.000000 0.000000
# 2 0.000954 0.013464 -0.001513 0.000000 0.000000 0.000000
# 3 -0.001962 -0.001513 0.011221 0.000000 0.000000 0.000000
# 4 0.000000 0.000000 0.000000 0.037464 0.000000 0.000000
# 5 0.000000 0.000000 0.000000 0.000000 0.029503 0.000000
# 6 0.000000 0.000000 0.000000 0.000000 0.000000 0.051824
#
#
# Mechanical properties :
#
#
# Convention : Reuss Voigt Hill
#
# Bulk Modulus (GPa) = 29.76737 30.88635 30.32686
# Shear Modulus (GPa) = 28.79130 30.89732 29.84431
#
# Velocity S-wave (km/s) = 3.90158 4.04176 3.97229
# Velocity P-wave (km/s) = 6.00290 6.17341 6.08875
#
# Compressibility (1/GPa) = 0.03359383
#
# Stress axis : x y z
#
# Youngs Moduli (GPa) = 71.68970 74.27348 89.11478
#
# Poissons Ratio (x) = -0.07087 0.17480
# Poissons Ratio (y) = -0.06840 0.13482
# Poissons Ratio (z) = 0.14062 0.11236
#
# Static dielectric constant tensor:
#      x y z
#    x 3.375650 0.000000 0.000000 
#    y 0.000000 3.737710 0.000000 
#    z 0.000000 0.000000 3.251150 
# 
# 
# High freq. dielectric constant tensor:
#      x y z
#    x 1.728730 0.000000 0.000000 
#    y 0.000000 1.759210 0.000000 
#    z 0.000000 0.000000 1.703090 
# 
# From -- ./inp_files/7256.got.cif
#   From: 2010.03.12/outbox.cif.g09.slc.cpg/sg18_4_cif.got.tgz:7256.got - 2010.04.10 18:53:55.
