data_PCOD8155294
_publ_section_title
;
Structure prediction by ZEFSAII (Michael W. Deem and Ramdas Pophale) SiO2 
 PCOD8155294
Probable space group: P 2 2 2
;
_chemical_formula_sum "Si O2"
_cell_formula_units_Z 28
_cell_length_a 12.797984
_cell_length_b 20.752526
_cell_length_c 5.130564
_cell_angle_alpha 90.000000
_cell_angle_beta 90.000000
_cell_angle_gamma 90.000000
_cell_volume 1362.629036
_symmetry_space_group_name_H-M "P 2 2 2"
_symmetry_group_IT_number 16
_symmetry_cell_setting 'orthorhombic'
loop_
_space_group_symop_operation_xyz
x,y,z
-x,-y,z
x,-y,-z
-x,y,-z
loop_
_atom_site_type_symbol
_atom_site_label
_atom_site_fract_x
_atom_site_fract_y
_atom_site_fract_z
Si Si1 0.622400 0.124723 0.500505
Si Si2 0.772005 0.240781 0.476474
Si Si3 0.452350 0.571792 0.743454
Si Si4 0.878134 0.570887 0.936098
Si Si5 0.728542 0.926990 0.995361
Si Si6 0.231146 0.615842 0.592450
Si Si7 0.122563 0.810149 0.979519
O O1 0.500000 0.133981 0.500000
O O2 0.670603 0.195995 0.483303
O O3 0.656350 0.087905 0.759009
O O4 0.657813 0.081920 0.258357
O O5 0.731305 0.313497 0.509609
O O6 0.852079 0.220700 0.701715
O O7 0.832723 0.236166 0.203654
O O8 0.500000 0.500000 0.747996
O O9 0.500000 0.610609 0.500000
O O10 0.328285 0.571881 0.692711
O O11 0.500000 0.606922 0.000000
O O12 0.840060 0.585795 0.640429
O O13 0.834019 0.500000 0.000000
O O14 0.835452 0.622446 0.143847
O O15 0.000000 0.572592 0.000000
O O16 0.829572 0.881392 0.990138
O O17 0.769828 0.000000 0.000000
O O18 0.000000 0.817578 0.000000
#
# Coordination Sequence:
#
# PCOD8155294 Si02
#       7
#     4   4   4   4   4   4   4
#     4  10  21  38  58  81 122 162 191 250 301 344
#     4  10  23  39  58  91 117 154 208 245 297 364
#     4  10  23  39  60  91 117 151 198 243 305 371
#     4  11  26  43  63  92 123 158 199 247 315 381
#     4  10  21  36  57  90 120 152 207 247 289 362
#     4  12  24  41  68  90 123 162 199 259 311 366
#     4  10  21  39  61  85 122 163 196 249 306 348
#
# _framework density 20.548511999999999
#
# number of rings (size 3 to 8) (size 9 to 14) (size 15 to 20)
#    0.000    1.571    0.000    3.857    6.000    7.143 
#    0.000    2.857    0.000    5.143    0.000    0.000 
#    0.000    0.000    0.000    0.000    0.000    0.000 
#
# Total GULP energy -347039.327529 kJ/mol
# GULP energy per Si atom -12394.261697 kJ/mol
# Density = 2.050174 g / cm^3
# Si number density = 20.548512 Si / 1000 Ang^3
#
#
#
# Elastic Constant Matrix: (Units=GPa)
#
#
# Indices 1 2 3 4 5 6 
#
# 1 115.9470 27.2887 27.7367 0.0000 0.0000 0.0000
# 2 27.2887 103.0749 10.6983 0.0000 0.0000 0.0000
# 3 27.7367 10.6983 143.9029 0.0000 0.0000 0.0000
# 4 0.0000 0.0000 0.0000 17.5401 0.0000 0.0000
# 5 0.0000 0.0000 0.0000 0.0000 14.7707 0.0000
# 6 0.0000 0.0000 0.0000 0.0000 0.0000 11.5751
#
#
#
# Elastic Compliance Matrix: (Units=1/GPa)
#
#
# Indices 1 2 3 4 5 6 
#
# 1 0.009580 -0.002363 -0.001671 0.000000 0.000000 0.000000
# 2 -0.002363 0.010360 -0.000315 0.000000 0.000000 0.000000
# 3 -0.001671 -0.000315 0.007295 0.000000 0.000000 0.000000
# 4 0.000000 0.000000 0.000000 0.057012 0.000000 0.000000
# 5 0.000000 0.000000 0.000000 0.000000 0.067701 0.000000
# 6 0.000000 0.000000 0.000000 0.000000 0.000000 0.086392
#
#
# Mechanical properties :
#
#
# Convention : Reuss Voigt Hill
#
# Bulk Modulus (GPa) = 53.94403 54.93025 54.43714
# Shear Modulus (GPa) = 19.74587 28.59060 24.16823
#
# Velocity S-wave (km/s) = 3.10327 3.73415 3.43323
# Velocity P-wave (km/s) = 6.25695 6.73661 6.50120
#
# Compressibility (1/GPa) = 0.01853773
#
# Stress axis : x y z
#
# Youngs Moduli (GPa) = 104.37893 96.52570 137.08782
#
# Poissons Ratio (x) = 0.22809 0.22906
# Poissons Ratio (y) = 0.24664 0.04315
# Poissons Ratio (z) = 0.17441 0.03038
#
# Static dielectric constant tensor:
#      x y z
#    x 3.691550 0.000000 0.000000 
#    y 0.000000 3.670620 0.000000 
#    z 0.000000 0.000000 -1.160830 
# 
# 
# High freq. dielectric constant tensor:
#      x y z
#    x 1.801440 0.000000 0.000000 
#    y 0.000000 1.790930 0.000000 
#    z 0.000000 0.000000 1.833920 
# 
# From -- ./inp_files/1655.got.cif
#   From: 2010.03.12/outbox.cif.g09.slc.cpg/sg16_1_cif.got.tgz:1655.got - 2010.03.31 00:51:45.
