data_PCOD8155578
_publ_section_title
;
Structure prediction by ZEFSAII (Michael W. Deem and Ramdas Pophale) SiO2 
 PCOD8155578
Probable space group: P 2 2 21
;
_chemical_formula_sum "Si O2"
_cell_formula_units_Z 20
_cell_length_a 4.874647
_cell_length_b 16.560808
_cell_length_c 11.320533
_cell_angle_alpha 90.000000
_cell_angle_beta 90.000000
_cell_angle_gamma 90.000000
_cell_volume 913.885041
_symmetry_space_group_name_H-M "P 2 2 21"
_symmetry_group_IT_number 17
_symmetry_cell_setting 'orthorhombic'
loop_
_space_group_symop_operation_xyz
x,y,z
-x,-y,1/2+z
x,-y,-z
-x,y,1/2-z
loop_
_atom_site_type_symbol
_atom_site_label
_atom_site_fract_x
_atom_site_fract_y
_atom_site_fract_z
Si Si1 0.025142 0.557193 0.387163
Si Si2 0.445401 0.166936 0.519729
Si Si3 0.071942 0.076318 0.886124
Si Si4 0.522474 0.334934 0.618167
Si Si5 0.745049 0.086140 0.322935
O O1 0.959155 0.500000 0.500000
O O2 0.335720 0.586500 0.402456
O O3 0.000000 0.521297 0.250000
O O4 0.832595 0.635722 0.402673
O O5 0.654730 0.129383 0.613484
O O6 0.421212 0.262954 0.534045
O O7 0.582643 0.156418 0.391092
O O8 0.156560 0.119594 0.531665
O O9 0.000000 0.072204 0.750000
O O10 0.132695 0.980269 0.915679
O O11 0.500000 0.300528 0.750000
O O12 0.500000 0.042280 0.250000
O O13 0.000000 0.123881 0.250000
#
# Coordination Sequence:
#
# PCOD8155578 Si02
#       5
#     4   4   4   4   4
#     4  10  21  40  65  93 125 158 195 242 302 374
#     4  12  23  39  61  85 116 158 203 251 312 368
#     4  11  22  36  57  85 113 150 204 260 308 361
#     4  10  21  38  62  93 123 151 191 250 307 357
#     4  11  24  41  56  80 120 165 212 263 308 362
#
# _framework density 21.884591
#
# number of rings (size 3 to 8) (size 9 to 14) (size 15 to 20)
#    0.000    1.200    0.000    7.800    0.000    4.800 
#    0.000    3.000    0.000    0.000    0.000    0.000 
#    0.000    0.000    0.000    0.000    0.000    0.000 
#
# Total GULP energy -247791.750488 kJ/mol
# GULP energy per Si atom -12389.587524 kJ/mol
# Density = 2.183478 g / cm^3
# Si number density = 21.884591 Si / 1000 Ang^3
#
#
#
# Elastic Constant Matrix: (Units=GPa)
#
#
# Indices 1 2 3 4 5 6 
#
# 1 67.6090 14.0488 30.3598 0.0000 0.0000 0.0000
# 2 14.0488 88.5292 49.8800 0.0000 0.0000 0.0000
# 3 30.3598 49.8800 112.1024 0.0000 0.0000 0.0000
# 4 0.0000 0.0000 0.0000 31.2095 0.0000 0.0000
# 5 0.0000 0.0000 0.0000 0.0000 33.5682 0.0000
# 6 0.0000 0.0000 0.0000 0.0000 0.0000 21.3931
#
#
#
# Elastic Compliance Matrix: (Units=1/GPa)
#
#
# Indices 1 2 3 4 5 6 
#
# 1 0.016840 -0.000137 -0.004500 0.000000 0.000000 0.000000
# 2 -0.000137 0.015076 -0.006671 0.000000 0.000000 0.000000
# 3 -0.004500 -0.006671 0.013107 0.000000 0.000000 0.000000
# 4 0.000000 0.000000 0.000000 0.032042 0.000000 0.000000
# 5 0.000000 0.000000 0.000000 0.000000 0.029790 0.000000
# 6 0.000000 0.000000 0.000000 0.000000 0.000000 0.046744
#
#
# Mechanical properties :
#
#
# Convention : Reuss Voigt Hill
#
# Bulk Modulus (GPa) = 44.62717 50.75752 47.69234
# Shear Modulus (GPa) = 27.22071 28.83096 28.02584
#
# Velocity S-wave (km/s) = 3.53062 3.63355 3.58246
# Velocity P-wave (km/s) = 6.08742 6.39118 6.24115
#
# Compressibility (1/GPa) = 0.02240788
#
# Stress axis : x y z
#
# Youngs Moduli (GPa) = 59.38255 66.33016 76.29363
#
# Poissons Ratio (x) = 0.00910 0.34329
# Poissons Ratio (y) = 0.00814 0.50895
# Poissons Ratio (z) = 0.26720 0.44249
#
# Static dielectric constant tensor:
#      x y z
#    x 4.251530 0.000000 0.000000 
#    y 0.000000 4.143740 0.000000 
#    z 0.000000 0.000000 4.159850 
# 
# 
# High freq. dielectric constant tensor:
#      x y z
#    x 1.888320 0.000000 0.000000 
#    y 0.000000 1.815880 0.000000 
#    z 0.000000 0.000000 1.879060 
# 
# From -- ./inp_files/5949.got.cif
#   From: 2010.03.12/outbox.cif.g09.slc.cpg/sg17_3_cif.got.tgz:5949.got - 2010.04.10 18:46:23.
