data_PCOD8155548
_publ_section_title
;
Structure prediction by ZEFSAII (Michael W. Deem and Ramdas Pophale) SiO2 
 PCOD8155548
Probable space group: P 2 2 21
;
_chemical_formula_sum "Si O2"
_cell_formula_units_Z 20
_cell_length_a 8.395960
_cell_length_b 7.397322
_cell_length_c 13.511546
_cell_angle_alpha 90.000000
_cell_angle_beta 90.000000
_cell_angle_gamma 90.000000
_cell_volume 839.169959
_symmetry_space_group_name_H-M "P 2 2 21"
_symmetry_group_IT_number 17
_symmetry_cell_setting 'orthorhombic'
loop_
_space_group_symop_operation_xyz
x,y,z
-x,-y,1/2+z
x,-y,-z
-x,y,1/2-z
loop_
_atom_site_type_symbol
_atom_site_label
_atom_site_fract_x
_atom_site_fract_y
_atom_site_fract_z
Si Si1 0.686347 0.659493 0.773164
Si Si2 0.359329 0.170847 0.884518
Si Si3 0.702799 0.273687 0.838067
Si Si4 0.792273 0.205145 0.421308
Si Si5 0.904629 0.954841 0.850993
O O1 0.500000 0.669300 0.750000
O O2 0.731006 0.488814 0.842896
O O3 0.775685 0.646390 0.666052
O O4 0.747152 0.832572 0.834448
O O5 0.544234 0.219267 0.896897
O O6 0.301533 0.232318 0.778153
O O7 0.329883 0.956977 0.893575
O O8 0.260482 0.277355 0.970688
O O9 0.845091 0.153965 0.885896
O O10 0.974130 0.132344 0.430138
O O11 0.000000 0.974764 0.750000
#
# Coordination Sequence:
#
# PCOD8155548 Si02
#       5
#     4   4   4   4   4
#     4  11  21  37  65  95 128 173 223 265 327 396
#     4  10  20  41  67  98 129 175 225 273 332 391
#     4  11  21  40  70  99 125 176 224 273 335 396
#     4  10  22  40  64  96 135 177 214 275 339 395
#     4  10  21  38  63  95 130 171 215 267 338 405
#
# _framework density 23.833072999999999
#
# number of rings (size 3 to 8) (size 9 to 14) (size 15 to 20)
#    0.000    1.600    6.000    1.200    0.000    3.200 
#    0.000    8.000    0.000    0.000    0.000    0.000 
#    0.000    0.000    0.000    0.000    0.000    0.000 
#
# Total GULP energy -247876.989593 kJ/mol
# GULP energy per Si atom -12393.849480 kJ/mol
# Density = 2.377883 g / cm^3
# Si number density = 23.833073 Si / 1000 Ang^3
#
#
#
# Elastic Constant Matrix: (Units=GPa)
#
#
# Indices 1 2 3 4 5 6 
#
# 1 146.5965 64.7026 38.8833 0.0000 0.0000 0.0000
# 2 64.7026 112.8655 -3.9815 0.0000 0.0000 0.0000
# 3 38.8833 -3.9815 69.9095 0.0000 0.0000 0.0000
# 4 0.0000 0.0000 0.0000 24.4091 0.0000 0.0000
# 5 0.0000 0.0000 0.0000 0.0000 31.4776 0.0000
# 6 0.0000 0.0000 0.0000 0.0000 0.0000 16.2597
#
#
#
# Elastic Compliance Matrix: (Units=1/GPa)
#
#
# Indices 1 2 3 4 5 6 
#
# 1 0.011735 -0.006972 -0.006924 0.000000 0.000000 0.000000
# 2 -0.006972 0.013020 0.004619 0.000000 0.000000 0.000000
# 3 -0.006924 0.004619 0.018418 0.000000 0.000000 0.000000
# 4 0.000000 0.000000 0.000000 0.040968 0.000000 0.000000
# 5 0.000000 0.000000 0.000000 0.000000 0.031769 0.000000
# 6 0.000000 0.000000 0.000000 0.000000 0.000000 0.061502
#
#
# Mechanical properties :
#
#
# Convention : Reuss Voigt Hill
#
# Bulk Modulus (GPa) = 40.61745 58.73116 49.67430
# Shear Modulus (GPa) = 24.48923 29.74708 27.11816
#
# Velocity S-wave (km/s) = 3.20899 3.53674 3.37684
# Velocity P-wave (km/s) = 5.55064 6.43228 6.00766
#
# Compressibility (1/GPa) = 0.02461996
#
# Stress axis : x y z
#
# Youngs Moduli (GPa) = 85.21541 76.80700 54.29370
#
# Poissons Ratio (x) = 0.53547 0.37593
# Poissons Ratio (y) = 0.59409 -0.25079
# Poissons Ratio (z) = 0.59003 -0.35477
#
# Static dielectric constant tensor:
#      x y z
#    x 4.645170 0.000000 0.000000 
#    y 0.000000 4.437610 0.000000 
#    z 0.000000 0.000000 4.392450 
# 
# 
# High freq. dielectric constant tensor:
#      x y z
#    x 1.944520 0.000000 0.000000 
#    y 0.000000 1.926670 0.000000 
#    z 0.000000 0.000000 1.931410 
# 
# From -- ./inp_files/8004.got.cif
#   From: 2010.03.12/outbox.cif.g09.slc.cpg/sg17_5_cif.got.tgz:8004.got - 2010.04.10 18:46:23.
