data_PCOD8155134
_publ_section_title
;
Structure prediction by ZEFSAII (Michael W. Deem and Ramdas Pophale) SiO2 
 PCOD8155134
Probable space group: C 2/C
;
_chemical_formula_sum "Si O2"
_cell_formula_units_Z 44
_cell_length_a 25.696370
_cell_length_b 6.901836
_cell_length_c 11.669830
_cell_angle_alpha 90.000000
_cell_angle_beta 105.571392
_cell_angle_gamma 90.000000
_cell_volume 1993.705575
_symmetry_space_group_name_H-M "C 2/C"
_symmetry_group_IT_number 15
_symmetry_cell_setting 'monoclinic'
loop_
_space_group_symop_operation_xyz
x,y,z
-x,y,1/2-z
-x,-y,-z
x,-y,1/2+z
1/2+x,1/2+y,z
1/2-x,1/2+y,1/2-z
1/2-x,1/2-y,-z
1/2+x,1/2-y,1/2+z
loop_
_atom_site_type_symbol
_atom_site_label
_atom_site_fract_x
_atom_site_fract_y
_atom_site_fract_z
Si Si1 0.226322 0.383523 0.082457
Si Si2 0.000000 0.938429 0.750000
Si Si3 0.536469 0.159139 0.960612
Si Si4 0.685971 0.654952 0.271663
Si Si5 0.097677 0.844254 0.207307
Si Si6 0.368278 0.006207 0.621927
O O1 0.268182 0.556981 0.124414
O O2 0.218367 0.257929 0.190402
O O3 0.250000 0.250000 0.000000
O O4 0.168765 0.464877 0.009486
O O5 0.053201 0.071274 0.769258
O O6 0.001279 0.812157 0.867332
O O7 0.572384 0.047269 0.889562
O O8 0.571038 0.273588 0.074383
O O9 0.500000 0.000000 0.000000
O O10 0.642609 0.501290 0.198320
O O11 0.653492 0.806682 0.327368
O O12 0.129385 0.671586 0.288791
#
# Coordination Sequence:
#
# PCOD8155134 Si02
#       6
#     8   4   8   8   8   8
#     4  12  27  47  78 105 151 193 244 308 369 438
#     4  12  26  50  74 108 152 196 242 316 372 432
#     4  12  27  46  78 108 151 196 251 305 368 443
#     4  12  28  49  73 114 147 193 250 301 376 442
#     4  12  27  47  76 110 147 194 249 303 372 442
#     4  12  26  50  76 109 148 198 241 307 369 444
#
# _framework density 22.069458000000001
#
# number of rings (size 3 to 8) (size 9 to 14) (size 15 to 20)
#    0.000    0.000    3.636    5.455   10.182    0.000 
#    0.000    0.000    0.000    0.000    0.000    0.000 
#    0.000    0.000    0.000    0.000    0.000    0.000 
#
# Total GULP energy -272990.724955 kJ/mol
# GULP energy per Si atom -12408.669316 kJ/mol
# Density = 2.201923 g / cm^3
# Si number density = 22.069458 Si / 1000 Ang^3
#
#
#
# Elastic Constant Matrix: (Units=GPa)
#
#
# Indices 1 2 3 4 5 6 
#
# 1 106.0956 50.4312 29.2069 0.0000 -5.1774 0.0000
# 2 50.4312 137.6996 56.9715 0.0000 3.7025 0.0000
# 3 29.2069 56.9715 119.8735 0.0000 8.6513 0.0000
# 4 0.0000 0.0000 0.0000 45.4584 0.0000 2.8921
# 5 -5.1774 3.7025 8.6513 0.0000 51.9239 0.0000
# 6 0.0000 0.0000 0.0000 2.8921 0.0000 49.8390
#
#
#
# Elastic Compliance Matrix: (Units=1/GPa)
#
#
# Indices 1 2 3 4 5 6 
#
# 1 0.011641 -0.003840 -0.001128 0.000000 0.001622 0.000000
# 2 -0.003840 0.010307 -0.003929 0.000000 -0.000463 0.000000
# 3 -0.001128 -0.003929 0.010600 0.000000 -0.001598 0.000000
# 4 0.000000 0.000000 0.000000 0.022080 0.000000 -0.001281
# 5 0.001622 -0.000463 -0.001598 0.000000 0.019720 0.000000
# 6 0.000000 0.000000 0.000000 -0.001281 0.000000 0.020139
#
#
# Mechanical properties :
#
#
# Convention : Reuss Voigt Hill
#
# Bulk Modulus (GPa) = 67.78836 70.76532 69.27684
# Shear Modulus (GPa) = 42.66264 44.58152 43.62208
#
# Velocity S-wave (km/s) = 4.40148 4.49938 4.45070
# Velocity P-wave (km/s) = 7.52418 7.68941 7.60724
#
# Compressibility (1/GPa) = 0.01475180
#
# Stress axis : x y z
#
# Youngs Moduli (GPa) = 85.90648 97.02371 94.34078
#
# Poissons Ratio (x) = 0.37258 0.10644
# Poissons Ratio (y) = 0.32989 0.37070
# Poissons Ratio (z) = 0.09692 0.38124
#
# Static dielectric constant tensor:
#      x y z
#    x 3.878730 0.000000 -0.137880 
#    y 0.000000 4.311620 0.000000 
#    z -0.137880 0.000000 3.345560 
# 
# 
# High freq. dielectric constant tensor:
#      x y z
#    x 1.886650 0.000000 0.003460 
#    y 0.000000 1.888050 0.000000 
#    z 0.003460 0.000000 1.876790 
# 
# From -- ./inp_files/125074.got.cif
#   From: 2010.06.25/outbox.cif.g09.slc.cpg/sg15_63_cif.got.tgz:125074.got - 2010.06.28 07:06:18.
