data_PCOD8155789
_publ_section_title
;
Structure prediction by ZEFSAII (Michael W. Deem and Ramdas Pophale) SiO2 
 PCOD8155789
Probable space group: P 21 21 2
;
_chemical_formula_sum "Si O2"
_cell_formula_units_Z 32
_cell_length_a 16.371362
_cell_length_b 12.819110
_cell_length_c 7.749516
_cell_angle_alpha 90.000000
_cell_angle_beta 90.000000
_cell_angle_gamma 90.000000
_cell_volume 1626.362175
_symmetry_space_group_name_H-M "P 21 21 2"
_symmetry_group_IT_number 18
_symmetry_cell_setting 'orthorhombic'
loop_
_space_group_symop_operation_xyz
x,y,z
-x,-y,z
1/2+x,1/2-y,-z
1/2-x,1/2+y,-z
loop_
_atom_site_type_symbol
_atom_site_label
_atom_site_fract_x
_atom_site_fract_y
_atom_site_fract_z
Si Si1 0.488609 0.621341 0.563029
Si Si2 0.347431 0.074251 0.388088
Si Si3 0.847924 0.660005 0.129298
Si Si4 0.971696 0.266345 0.743298
Si Si5 0.150669 0.349393 0.743980
Si Si6 0.807774 0.792999 0.436757
Si Si7 0.026734 0.748212 0.127502
Si Si8 0.411873 0.043469 0.756288
O O1 0.500000 0.500000 0.536088
O O2 0.532112 0.678255 0.402460
O O3 0.393152 0.646752 0.569558
O O4 0.535152 0.655855 0.738878
O O5 0.395566 0.156044 0.270041
O O6 0.261969 0.121094 0.451323
O O7 0.403083 0.045984 0.550966
O O8 0.329173 0.970699 0.279496
O O9 0.792147 0.722193 0.266266
O O10 0.844024 0.534933 0.163724
O O11 0.939672 0.696585 0.164948
O O12 0.818742 0.684330 0.934765
O O13 0.053666 0.334222 0.726433
O O14 0.966228 0.211151 0.931186
O O15 0.198326 0.280248 0.604840
O O16 0.095972 0.660294 0.165767
O O17 0.500000 0.000000 0.806476
#
# Coordination Sequence:
#
# PCOD8155789 Si02
#       8
#     4   4   4   4   4   4   4   4
#     4  10  21  39  59  76 110 157 198 229 269 328
#     4  12  21  34  58  90 118 142 182 236 292 334
#     4   9  18  37  59  79 110 144 181 225 283 331
#     4  10  20  36  61  88 108 139 193 240 279 333
#     4  10  20  39  62  79 110 152 185 229 284 331
#     4  10  23  39  52  80 118 151 182 227 282 338
#     4   9  18  34  59  87 105 137 189 237 271 325
#     4  10  17  32  60  87 110 139 179 235 289 331
#
# _framework density 19.675813999999999
#
# number of rings (size 3 to 8) (size 9 to 14) (size 15 to 20)
#    0.000    2.000    2.500    1.875    0.000    3.500 
#    4.500    0.000    0.000    0.000    0.000    0.000 
#    0.000    0.000    0.000    0.000    0.000    0.000 
#
# Total GULP energy -396800.407782 kJ/mol
# GULP energy per Si atom -12400.012743 kJ/mol
# Density = 1.963103 g / cm^3
# Si number density = 19.675814 Si / 1000 Ang^3
#
#
#
# Elastic Constant Matrix: (Units=GPa)
#
#
# Indices 1 2 3 4 5 6 
#
# 1 27.2276 21.2372 12.1963 0.0000 0.0000 0.0000
# 2 21.2372 120.6673 47.7262 0.0000 0.0000 0.0000
# 3 12.1963 47.7262 144.8921 0.0000 0.0000 0.0000
# 4 0.0000 0.0000 0.0000 16.0607 0.0000 0.0000
# 5 0.0000 0.0000 0.0000 0.0000 11.1072 0.0000
# 6 0.0000 0.0000 0.0000 0.0000 0.0000 19.5367
#
#
#
# Elastic Compliance Matrix: (Units=1/GPa)
#
#
# Indices 1 2 3 4 5 6 
#
# 1 0.042780 -0.007019 -0.001289 0.000000 0.000000 0.000000
# 2 -0.007019 0.010680 -0.002927 0.000000 0.000000 0.000000
# 3 -0.001289 -0.002927 0.007974 0.000000 0.000000 0.000000
# 4 0.000000 0.000000 0.000000 0.062264 0.000000 0.000000
# 5 0.000000 0.000000 0.000000 0.000000 0.090032 0.000000
# 6 0.000000 0.000000 0.000000 0.000000 0.000000 0.051186
#
#
# Mechanical properties :
#
#
# Convention : Reuss Voigt Hill
#
# Bulk Modulus (GPa) = 25.66488 50.56739 38.11613
# Shear Modulus (GPa) = 16.64584 23.44938 20.04761
#
# Velocity S-wave (km/s) = 2.91177 3.45597 3.19548
# Velocity P-wave (km/s) = 4.93728 6.45609 5.74708
#
# Compressibility (1/GPa) = 0.03896376
#
# Stress axis : x y z
#
# Youngs Moduli (GPa) = 23.37548 93.62941 125.40188
#
# Poissons Ratio (x) = 0.65722 0.16162
# Poissons Ratio (y) = 0.16408 0.36707
# Poissons Ratio (z) = 0.03013 0.27407
#
# Static dielectric constant tensor:
#      x y z
#    x 3.166070 0.000000 0.000000 
#    y 0.000000 3.529040 0.000000 
#    z 0.000000 0.000000 3.733640 
# 
# 
# High freq. dielectric constant tensor:
#      x y z
#    x 1.725870 0.000000 0.000000 
#    y 0.000000 1.758330 0.000000 
#    z 0.000000 0.000000 1.782410 
# 
# From -- ./inp_files/4615.got.cif
#   From: 2010.03.12/outbox.cif.g09.slc.cpg/sg18_3_cif.got.tgz:4615.got - 2010.04.10 18:53:55.
