data_PCOD8155867
_publ_section_title
;
Structure prediction by ZEFSAII (Michael W. Deem and Ramdas Pophale) SiO2 
 PCOD8155867
Probable space group: P 21 21 2
;
_chemical_formula_sum "Si O2"
_cell_formula_units_Z 22
_cell_length_a 12.989888
_cell_length_b 5.304312
_cell_length_c 11.625455
_cell_angle_alpha 90.000000
_cell_angle_beta 90.000000
_cell_angle_gamma 90.000000
_cell_volume 801.021969
_symmetry_space_group_name_H-M "P 21 21 2"
_symmetry_group_IT_number 18
_symmetry_cell_setting 'orthorhombic'
loop_
_space_group_symop_operation_xyz
x,y,z
-x,-y,z
1/2+x,1/2-y,-z
1/2-x,1/2+y,-z
loop_
_atom_site_type_symbol
_atom_site_label
_atom_site_fract_x
_atom_site_fract_y
_atom_site_fract_z
Si Si1 0.644557 0.352081 0.636988
Si Si2 0.150605 0.880639 0.589877
Si Si3 0.678694 0.618687 0.857477
Si Si4 0.500000 0.000000 0.498955
Si Si5 0.120410 0.150309 0.798204
Si Si6 0.125548 0.645296 0.921043
O O1 0.746096 0.186272 0.660744
O O2 0.678674 0.553271 0.540422
O O3 0.612068 0.493672 0.754853
O O4 0.547780 0.202715 0.587373
O O5 0.080306 0.632130 0.586550
O O6 0.097079 0.118122 0.660010
O O7 0.756308 0.823576 0.804457
O O8 0.749527 0.398485 0.917542
O O9 0.603062 0.763577 0.947693
O O10 0.070610 0.383248 0.873871
O O11 0.084787 0.874564 0.842227
#
# Coordination Sequence:
#
# PCOD8155867 Si02
#       6
#     4   4   4   2   4   4
#     4  12  25  45  76 112 169 216 271 339 419 493
#     4  12  24  47  74 112 166 212 271 340 413 497
#     4  10  20  37  67 111 161 199 266 334 389 492
#     4  12  30  46  72 118 168 218 278 336 418 500
#     4  10  20  36  67 107 153 201 260 323 392 469
#     4  10  19  34  62 113 156 192 272 325 384 482
#
# _framework density 27.464912000000002
#
# number of rings (size 3 to 8) (size 9 to 14) (size 15 to 20)
#    1.091    0.000    5.455    1.636    2.545    0.000 
#    0.000    0.000    0.000    0.000    0.000   21.636 
#    0.000    0.000    0.000    0.000    0.000    0.000 
#
# Total GULP energy -272559.930251 kJ/mol
# GULP energy per Si atom -12389.087739 kJ/mol
# Density = 2.740240 g / cm^3
# Si number density = 27.464912 Si / 1000 Ang^3
#
#
#
# Elastic Constant Matrix: (Units=GPa)
#
#
# Indices 1 2 3 4 5 6 
#
# 1 37.2814 16.9029 0.5980 0.0000 0.0000 0.0000
# 2 16.9029 145.4900 70.4106 0.0000 0.0000 0.0000
# 3 0.5980 70.4106 206.4526 0.0000 0.0000 0.0000
# 4 0.0000 0.0000 0.0000 68.3234 0.0000 0.0000
# 5 0.0000 0.0000 0.0000 0.0000 5.6801 0.0000
# 6 0.0000 0.0000 0.0000 0.0000 0.0000 41.4751
#
#
#
# Elastic Compliance Matrix: (Units=1/GPa)
#
#
# Indices 1 2 3 4 5 6 
#
# 1 0.028584 -0.003929 0.001257 0.000000 0.000000 0.000000
# 2 -0.003929 0.008772 -0.002980 0.000000 0.000000 0.000000
# 3 0.001257 -0.002980 0.005857 0.000000 0.000000 0.000000
# 4 0.000000 0.000000 0.000000 0.014636 0.000000 0.000000
# 5 0.000000 0.000000 0.000000 0.000000 0.176053 0.000000
# 6 0.000000 0.000000 0.000000 0.000000 0.000000 0.024111
#
#
# Mechanical properties :
#
#
# Convention : Reuss Voigt Hill
#
# Bulk Modulus (GPa) = 31.33985 62.78301 47.06143
# Shear Modulus (GPa) = 17.86006 43.18321 30.52164
#
# Velocity S-wave (km/s) = 2.55284 3.96953 3.33723
# Velocity P-wave (km/s) = 4.48608 6.62711 5.65878
#
# Compressibility (1/GPa) = 0.03190826
#
# Stress axis : x y z
#
# Youngs Moduli (GPa) = 34.98409 113.99633 170.74918
#
# Poissons Ratio (x) = 0.44794 -0.21469
# Poissons Ratio (y) = 0.13747 0.50890
# Poissons Ratio (z) = -0.04399 0.33975
#
# Static dielectric constant tensor:
#      x y z
#    x 4.513590 0.000000 0.000000 
#    y 0.000000 4.997060 0.000000 
#    z 0.000000 0.000000 4.872270 
# 
# 
# High freq. dielectric constant tensor:
#      x y z
#    x 2.089020 0.000000 0.000000 
#    y 0.000000 2.115250 0.000000 
#    z 0.000000 0.000000 2.106450 
# 
# From -- ./inp_files/6032.got.cif
#   From: 2010.03.12/outbox.cif.g09.slc.cpg/sg18_4_cif.got.tgz:6032.got - 2010.04.10 18:53:55.
