data_PCOD8155734
_publ_section_title
;
Structure prediction by ZEFSAII (Michael W. Deem and Ramdas Pophale) SiO2 
 PCOD8155734
Probable space group: P 2 2 21
;
_chemical_formula_sum "Si O2"
_cell_formula_units_Z 20
_cell_length_a 15.017923
_cell_length_b 11.140899
_cell_length_c 5.281604
_cell_angle_alpha 90.000000
_cell_angle_beta 90.000000
_cell_angle_gamma 90.000000
_cell_volume 883.681873
_symmetry_space_group_name_H-M "P 2 2 21"
_symmetry_group_IT_number 17
_symmetry_cell_setting 'orthorhombic'
loop_
_space_group_symop_operation_xyz
x,y,z
-x,-y,1/2+z
x,-y,-z
-x,y,1/2-z
loop_
_atom_site_type_symbol
_atom_site_label
_atom_site_fract_x
_atom_site_fract_y
_atom_site_fract_z
Si Si1 0.086754 0.122947 0.609343
Si Si2 0.865060 0.500000 0.500000
Si Si3 0.500000 0.070261 0.250000
Si Si4 0.500000 0.429202 0.250000
Si Si5 0.000000 0.315508 0.250000
Si Si6 0.234922 0.283412 0.806948
Si Si7 0.347341 0.746653 0.702462
O O1 0.057184 0.230542 0.428224
O O2 0.158014 0.183657 0.791840
O O3 0.000000 0.073912 0.750000
O O4 0.130050 0.000000 0.500000
O O5 0.926752 0.597901 0.631448
O O6 0.802195 0.579192 0.314443
O O7 0.588497 0.140344 0.166315
O O8 0.529306 0.000000 0.500000
O O9 0.479258 0.500000 0.500000
O O10 0.589748 0.358261 0.300831
O O11 0.300640 0.276918 0.567259
O O12 0.276903 0.241681 0.072591
#
# Coordination Sequence:
#
# PCOD8155734 Si02
#       7
#     4   2   2   2   2   4   4
#     4  12  26  48  73 100 143 198 254 315 377 440
#     4  12  26  44  76 102 152 202 250 314 368 446
#     4  11  24  49  82 106 146 199 242 305 374 444
#     4  11  24  45  72 100 140 193 228 283 360 432
#     4  12  24  50  70 102 140 200 266 302 376 446
#     4  12  27  46  73 111 152 195 247 311 370 440
#     4  11  27  47  70 111 147 183 249 296 364 443
#
# _framework density 22.632579
#
# number of rings (size 3 to 8) (size 9 to 14) (size 15 to 20)
#    0.000    0.400    3.000    4.800    4.200    7.200 
#    0.000    2.000    0.000    0.000    0.000    0.000 
#    0.000    0.000    0.000    0.000    0.000    0.000 
#
# Total GULP energy -247873.842707 kJ/mol
# GULP energy per Si atom -12393.692135 kJ/mol
# Density = 2.258107 g / cm^3
# Si number density = 22.632579 Si / 1000 Ang^3
#
#
#
# Elastic Constant Matrix: (Units=GPa)
#
#
# Indices 1 2 3 4 5 6 
#
# 1 125.1182 60.3900 44.1518 0.0000 0.0000 0.0000
# 2 60.3900 153.0952 51.5414 0.0000 0.0000 0.0000
# 3 44.1518 51.5414 131.5338 0.0000 0.0000 0.0000
# 4 0.0000 0.0000 0.0000 27.8303 0.0000 0.0000
# 5 0.0000 0.0000 0.0000 0.0000 59.3735 0.0000
# 6 0.0000 0.0000 0.0000 0.0000 0.0000 345.5662
#
#
#
# Elastic Compliance Matrix: (Units=1/GPa)
#
#
# Indices 1 2 3 4 5 6 
#
# 1 0.010381 -0.003366 -0.002166 0.000000 0.000000 0.000000
# 2 -0.003366 0.008616 -0.002246 0.000000 0.000000 0.000000
# 3 -0.002166 -0.002246 0.009210 0.000000 0.000000 0.000000
# 4 0.000000 0.000000 0.000000 0.035932 0.000000 0.000000
# 5 0.000000 0.000000 0.000000 0.000000 0.016843 0.000000
# 6 0.000000 0.000000 0.000000 0.000000 0.000000 0.002894
#
#
# Mechanical properties :
#
#
# Convention : Reuss Voigt Hill
#
# Bulk Modulus (GPa) = 79.04473 80.21261 79.62867
# Shear Modulus (GPa) = 48.24012 103.46494 75.85253
#
# Velocity S-wave (km/s) = 4.62177 6.76863 5.79547
# Velocity P-wave (km/s) = 7.96756 9.82873 8.94667
#
# Compressibility (1/GPa) = 0.01265107
#
# Stress axis : x y z
#
# Youngs Moduli (GPa) = 96.32721 116.06552 108.58007
#
# Poissons Ratio (x) = 0.39066 0.23516
# Poissons Ratio (y) = 0.32423 0.24390
# Poissons Ratio (z) = 0.20862 0.26072
#
# Static dielectric constant tensor:
#      x y z
#    x 4.488350 0.000000 0.000000 
#    y 0.000000 4.112640 0.000000 
#    z 0.000000 0.000000 3.894170 
# 
# 
# High freq. dielectric constant tensor:
#      x y z
#    x 1.914580 0.000000 0.000000 
#    y 0.000000 1.907400 0.000000 
#    z 0.000000 0.000000 1.898970 
# 
# From -- ./inp_files/2093.got.cif
#   From: 2010.03.12/outbox.cif.g09.slc.cpg/sg17_2_cif.got.tgz:2093.got - 2010.04.10 18:46:23.
