data_PCOD8155393
_publ_section_title
;
Structure prediction by ZEFSAII (Michael W. Deem and Ramdas Pophale) SiO2 
 PCOD8155393
Probable space group: P 2 2 21
;
_chemical_formula_sum "Si O2"
_cell_formula_units_Z 20
_cell_length_a 13.899152
_cell_length_b 8.636403
_cell_length_c 8.831798
_cell_angle_alpha 90.000000
_cell_angle_beta 90.000000
_cell_angle_gamma 90.000000
_cell_volume 1060.157357
_symmetry_space_group_name_H-M "P 2 2 21"
_symmetry_group_IT_number 17
_symmetry_cell_setting 'orthorhombic'
loop_
_space_group_symop_operation_xyz
x,y,z
-x,-y,1/2+z
x,-y,-z
-x,y,1/2-z
loop_
_atom_site_type_symbol
_atom_site_label
_atom_site_fract_x
_atom_site_fract_y
_atom_site_fract_z
Si Si1 0.256480 0.972969 0.160873
Si Si2 0.000000 0.786687 0.750000
Si Si3 0.392360 0.711061 0.246804
Si Si4 0.684693 0.500000 0.000000
Si Si5 0.926639 0.000000 0.500000
Si Si6 0.790628 0.308765 0.242580
Si Si7 0.309195 0.500000 0.000000
O O1 0.247427 0.132638 0.252844
O O2 0.314707 0.849502 0.260610
O O3 0.312243 0.000000 0.000000
O O4 0.147588 0.911996 0.117614
O O5 0.005500 0.887556 0.904205
O O6 0.094026 0.681286 0.737032
O O7 0.500000 0.780311 0.250000
O O8 0.382820 0.596847 0.388576
O O9 0.376835 0.616614 0.092297
O O10 0.752086 0.382750 0.089977
O O11 0.758391 0.401764 0.390116
#
# Coordination Sequence:
#
# PCOD8155393 Si02
#       7
#     4   2   4   2   2   4   2
#     4   9  18  39  58  82 105 153 183 226 279 327
#     4  10  18  34  56  86 106 148 192 222 270 338
#     4  11  21  38  60  84 110 149 193 228 278 341
#     4  10  25  39  52  88 118 150 172 243 295 308
#     4   8  18  32  56  82 116 140 182 230 286 320
#     4  10  21  38  58  81 117 148 188 227 283 333
#     4  10  19  39  58  74 122 154 178 225 289 346
#
# _framework density 18.865124000000002
#
# number of rings (size 3 to 8) (size 9 to 14) (size 15 to 20)
#    0.600    1.600    2.000    0.600    0.000    4.800 
#    3.600    1.000    0.000    1.200    0.000    0.000 
#    0.000    0.000    0.000    0.000    0.000    0.000 
#
# Total GULP energy -247883.318097 kJ/mol
# GULP energy per Si atom -12394.165905 kJ/mol
# Density = 1.882219 g / cm^3
# Si number density = 18.865124 Si / 1000 Ang^3
#
#
#
# Elastic Constant Matrix: (Units=GPa)
#
#
# Indices 1 2 3 4 5 6 
#
# 1 114.3765 40.2240 34.4330 0.0000 0.0000 0.0000
# 2 40.2240 90.5987 33.3354 0.0000 0.0000 0.0000
# 3 34.4330 33.3354 88.9584 0.0000 0.0000 0.0000
# 4 0.0000 0.0000 0.0000 28.0946 0.0000 0.0000
# 5 0.0000 0.0000 0.0000 0.0000 17.3363 0.0000
# 6 0.0000 0.0000 0.0000 0.0000 0.0000 17.5001
#
#
#
# Elastic Compliance Matrix: (Units=1/GPa)
#
#
# Indices 1 2 3 4 5 6 
#
# 1 0.010930 -0.003823 -0.002798 0.000000 0.000000 0.000000
# 2 -0.003823 0.014140 -0.003819 0.000000 0.000000 0.000000
# 3 -0.002798 -0.003819 0.013755 0.000000 0.000000 0.000000
# 4 0.000000 0.000000 0.000000 0.035594 0.000000 0.000000
# 5 0.000000 0.000000 0.000000 0.000000 0.057682 0.000000
# 6 0.000000 0.000000 0.000000 0.000000 0.000000 0.057143
#
#
# Mechanical properties :
#
#
# Convention : Reuss Voigt Hill
#
# Bulk Modulus (GPa) = 55.72495 56.65762 56.19129
# Shear Modulus (GPa) = 23.13673 24.98228 24.05950
#
# Velocity S-wave (km/s) = 3.50584 3.64298 3.57507
# Velocity P-wave (km/s) = 6.78164 6.91327 6.84777
#
# Compressibility (1/GPa) = 0.01794528
#
# Stress axis : x y z
#
# Youngs Moduli (GPa) = 91.49205 70.72005 72.69927
#
# Poissons Ratio (x) = 0.27037 0.20341
# Poissons Ratio (y) = 0.34979 0.27764
# Poissons Ratio (z) = 0.25599 0.27008
#
# Static dielectric constant tensor:
#      x y z
#    x 3.283180 0.000000 0.000000 
#    y 0.000000 3.342520 0.000000 
#    z 0.000000 0.000000 3.601250 
# 
# 
# High freq. dielectric constant tensor:
#      x y z
#    x 1.724190 0.000000 0.000000 
#    y 0.000000 1.720650 0.000000 
#    z 0.000000 0.000000 1.736070 
# 
# From -- ./inp_files/5049.got.cif
#   From: 2010.03.12/outbox.cif.g09.slc.cpg/sg17_3_cif.got.tgz:5049.got - 2010.04.10 18:46:23.
