data_PCOD8155998
_publ_section_title
;
Structure prediction by ZEFSAII (Michael W. Deem and Ramdas Pophale) SiO2 
 PCOD8155998
Probable space group: P 21 21 2
;
_chemical_formula_sum "Si O2"
_cell_formula_units_Z 32
_cell_length_a 10.717632
_cell_length_b 15.131877
_cell_length_c 8.717378
_cell_angle_alpha 90.000000
_cell_angle_beta 90.000000
_cell_angle_gamma 90.000000
_cell_volume 1413.765963
_symmetry_space_group_name_H-M "P 21 21 2"
_symmetry_group_IT_number 18
_symmetry_cell_setting 'orthorhombic'
loop_
_space_group_symop_operation_xyz
x,y,z
-x,-y,z
1/2+x,1/2-y,-z
1/2-x,1/2+y,-z
loop_
_atom_site_type_symbol
_atom_site_label
_atom_site_fract_x
_atom_site_fract_y
_atom_site_fract_z
Si Si1 0.642877 0.188369 0.255837
Si Si2 0.675634 0.339229 0.758424
Si Si3 0.000000 0.786343 0.500000
Si Si4 0.645584 0.001090 0.819323
Si Si5 0.642878 0.811631 0.744164
Si Si6 0.354415 0.001090 0.180677
Si Si7 0.000000 0.773654 1.000000
Si Si8 0.324366 0.339229 0.241577
O O1 0.600255 0.220903 0.422573
O O2 0.749998 0.250001 0.190739
O O3 0.695660 0.089007 0.258270
O O4 0.533843 0.202920 0.132089
O O5 0.571228 0.348406 0.623845
O O6 0.774393 0.419153 0.748252
O O7 0.750000 0.250000 0.731252
O O8 0.606789 0.336630 0.925558
O O9 0.100257 0.720904 0.422572
O O10 0.071228 0.848406 0.623845
O O11 0.725606 0.080847 0.748251
O O12 0.500000 0.000000 0.773014
O O13 0.695660 0.910993 0.741730
O O14 0.665151 0.000000 1.000000
O O15 0.533844 0.797079 0.867911
O O16 0.500000 0.000000 0.226985
O O17 0.106789 0.836631 0.925558
#
# Coordination Sequence:
#
# PCOD8155998 Si02
#       8
#     4   4   4   4   4   4   4   4
#     4  11  22  41  64  92 128 168 215 265 325 394
#     4  11  22  42  68  99 136 175 224 278 335 398
#     4  10  24  44  64  92 136 180 216 272 338 390
#     4  11  22  39  69 102 127 164 222 279 329 391
#     4  11  22  41  64  92 128 168 215 265 325 394
#     4  11  22  39  69 102 127 164 222 279 329 391
#     4  10  20  38  68  98 134 172 210 278 344 392
#     4  11  22  42  68  99 136 175 224 278 335 398
#
# _framework density 22.634581000000001
#
# number of rings (size 3 to 8) (size 9 to 14) (size 15 to 20)
#    0.000    1.250    0.000    9.000    0.000    0.000 
#    0.000   25.000    0.000    6.000    0.000    0.000 
#    0.000    0.000    0.000    0.000    0.000    0.000 
#
# Total GULP energy -396705.819598 kJ/mol
# GULP energy per Si atom -12397.056862 kJ/mol
# Density = 2.258306 g / cm^3
# Si number density = 22.634581 Si / 1000 Ang^3
#
#
#
# Elastic Constant Matrix: (Units=GPa)
#
#
# Indices 1 2 3 4 5 6 
#
# 1 108.5586 73.9894 37.3049 0.0000 0.0000 0.0000
# 2 73.9894 187.2750 35.3912 0.0000 0.0000 0.0000
# 3 37.3049 35.3912 103.4566 0.0000 0.0000 0.0000
# 4 0.0000 0.0000 0.0000 25.2878 0.0000 0.0000
# 5 0.0000 0.0000 0.0000 0.0000 17.1538 0.0000
# 6 0.0000 0.0000 0.0000 0.0000 0.0000 47.3439
#
#
#
# Elastic Compliance Matrix: (Units=1/GPa)
#
#
# Indices 1 2 3 4 5 6 
#
# 1 0.013567 -0.004742 -0.003270 0.000000 0.000000 0.000000
# 2 -0.004742 0.007366 -0.000810 0.000000 0.000000 0.000000
# 3 -0.003270 -0.000810 0.011122 0.000000 0.000000 0.000000
# 4 0.000000 0.000000 0.000000 0.039545 0.000000 0.000000
# 5 0.000000 0.000000 0.000000 0.000000 0.058296 0.000000
# 6 0.000000 0.000000 0.000000 0.000000 0.000000 0.021122
#
#
# Mechanical properties :
#
#
# Convention : Reuss Voigt Hill
#
# Bulk Modulus (GPa) = 69.38894 76.96235 73.17564
# Shear Modulus (GPa) = 28.82390 34.79742 31.81066
#
# Velocity S-wave (km/s) = 3.57241 3.92517 3.75293
# Velocity P-wave (km/s) = 6.90933 7.39043 7.15393
#
# Compressibility (1/GPa) = 0.01441152
#
# Stress axis : x y z
#
# Youngs Moduli (GPa) = 73.70558 135.75089 89.91149
#
# Poissons Ratio (x) = 0.64378 0.29400
# Poissons Ratio (y) = 0.34954 0.07282
# Poissons Ratio (z) = 0.24101 0.10995
#
# Static dielectric constant tensor:
#      x y z
#    x 3.968470 0.000000 0.000000 
#    y 0.000000 4.243470 0.000000 
#    z 0.000000 0.000000 4.055160 
# 
# 
# High freq. dielectric constant tensor:
#      x y z
#    x 1.902600 0.000000 0.000000 
#    y 0.000000 1.873600 0.000000 
#    z 0.000000 0.000000 1.894030 
# 
# From -- ./inp_files/3926.got.cif
#   From: 2010.03.12/outbox.cif.g09.slc.cpg/sg18_2_cif.got.tgz:3926.got - 2010.04.10 18:53:55.
