data_PCOD8155924
_publ_section_title
;
Structure prediction by ZEFSAII (Michael W. Deem and Ramdas Pophale) SiO2 
 PCOD8155924
Probable space group: P 21 21 2
;
_chemical_formula_sum "Si O2"
_cell_formula_units_Z 30
_cell_length_a 13.641299
_cell_length_b 20.815379
_cell_length_c 5.015508
_cell_angle_alpha 90.000000
_cell_angle_beta 90.000000
_cell_angle_gamma 90.000000
_cell_volume 1424.147522
_symmetry_space_group_name_H-M "P 21 21 2"
_symmetry_group_IT_number 18
_symmetry_cell_setting 'orthorhombic'
loop_
_space_group_symop_operation_xyz
x,y,z
-x,-y,z
1/2+x,1/2-y,-z
1/2-x,1/2+y,-z
loop_
_atom_site_type_symbol
_atom_site_label
_atom_site_fract_x
_atom_site_fract_y
_atom_site_fract_z
Si Si1 0.216361 0.976396 0.108915
Si Si2 0.213598 0.208289 0.959901
Si Si3 0.922491 0.877964 0.695925
Si Si4 0.416069 0.301323 0.555868
Si Si5 0.295830 0.335061 0.057044
Si Si6 0.500000 0.500000 0.029822
Si Si7 0.667658 0.824644 0.458970
Si Si8 0.732521 0.950561 0.596647
O O1 0.243249 0.904733 0.022892
O O2 0.099329 0.989658 0.140753
O O3 0.268676 0.990383 0.390268
O O4 0.266249 0.024014 0.896293
O O5 0.111823 0.167987 0.945323
O O6 0.205389 0.283828 0.039888
O O7 0.252731 0.206467 0.657383
O O8 0.290276 0.174037 0.158845
O O9 0.830335 0.908614 0.541951
O O10 0.978879 0.834367 0.481410
O O11 0.992237 0.935624 0.794554
O O12 0.383205 0.312960 0.859309
O O13 0.424404 0.224680 0.483574
O O14 0.338523 0.335488 0.355424
O O15 0.644018 0.898936 0.546165
#
# Coordination Sequence:
#
# PCOD8155924 Si02
#       8
#     4   4   4   4   4   2   4   4
#     4  11  21  31  47  70 101 134 163 192 246 298
#     4   9  19  33  50  64  97 134 172 202 234 288
#     4  10  20  33  47  76 100 135 158 201 247 299
#     4  10  20  31  50  68  98 128 168 203 240 289
#     4  10  20  34  47  69  97 135 170 201 238 290
#     4  10  20  28  46  70 108 128 152 194 248 306
#     4   9  17  34  48  66  92 133 166 205 237 281
#     4  10  21  31  48  69 100 130 163 196 242 299
#
# _framework density 21.065232999999999
#
# number of rings (size 3 to 8) (size 9 to 14) (size 15 to 20)
#    0.000    2.133    1.333    3.200    3.733    2.667 
#    0.000    0.000    0.000    0.000    0.000    0.933 
#    0.000    6.400    0.000    0.000    0.000    0.000 
#
# Total GULP energy -371715.127967 kJ/mol
# GULP energy per Si atom -12390.504266 kJ/mol
# Density = 2.101729 g / cm^3
# Si number density = 21.065233 Si / 1000 Ang^3
#
#
#
# Elastic Constant Matrix: (Units=GPa)
#
#
# Indices 1 2 3 4 5 6 
#
# 1 16.6478 14.1045 3.1019 0.0000 0.0000 0.0000
# 2 14.1045 110.4153 -0.6606 0.0000 0.0000 0.0000
# 3 3.1019 -0.6606 61.1015 0.0000 0.0000 0.0000
# 4 0.0000 0.0000 0.0000 27.3120 0.0000 0.0000
# 5 0.0000 0.0000 0.0000 0.0000 13.7803 0.0000
# 6 0.0000 0.0000 0.0000 0.0000 0.0000 33.9099
#
#
#
# Elastic Compliance Matrix: (Units=1/GPa)
#
#
# Indices 1 2 3 4 5 6 
#
# 1 0.068120 -0.008723 -0.003553 0.000000 0.000000 0.000000
# 2 -0.008723 0.010174 0.000553 0.000000 0.000000 0.000000
# 3 -0.003553 0.000553 0.016553 0.000000 0.000000 0.000000
# 4 0.000000 0.000000 0.000000 0.036614 0.000000 0.000000
# 5 0.000000 0.000000 0.000000 0.000000 0.072567 0.000000
# 6 0.000000 0.000000 0.000000 0.000000 0.000000 0.029490
#
#
# Mechanical properties :
#
#
# Convention : Reuss Voigt Hill
#
# Bulk Modulus (GPa) = 14.00525 24.58402 19.29463
# Shear Modulus (GPa) = 17.80854 26.44171 22.12512
#
# Velocity S-wave (km/s) = 2.91073 3.54677 3.24437
# Velocity P-wave (km/s) = 4.23785 5.33559 4.81809
#
# Compressibility (1/GPa) = 0.07140181
#
# Stress axis : x y z
#
# Youngs Moduli (GPa) = 14.67989 98.28676 60.41366
#
# Poissons Ratio (x) = 0.85736 0.21462
# Poissons Ratio (y) = 0.12805 -0.03340
# Poissons Ratio (z) = 0.05215 -0.05434
#
# Static dielectric constant tensor:
#      x y z
#    x 3.402810 0.000000 0.000000 
#    y 0.000000 4.423350 0.000000 
#    z 0.000000 0.000000 3.729970 
# 
# 
# High freq. dielectric constant tensor:
#      x y z
#    x 1.736590 0.000000 0.000000 
#    y 0.000000 1.847640 0.000000 
#    z 0.000000 0.000000 1.836720 
# 
# From -- ./inp_files/1659.got.cif
#   From: 2010.03.12/outbox.cif.g09.slc.cpg/sg18_1_cif.got.tgz:1659.got - 2010.04.10 18:53:55.
