data_PCOD8155048
_publ_section_title
;
Structure prediction by ZEFSAII (Michael W. Deem and Ramdas Pophale) SiO2 
 PCOD8155048
Probable space group: C 2/C
;
_chemical_formula_sum "Si O2"
_cell_formula_units_Z 44
_cell_length_a 15.366590
_cell_length_b 7.852640
_cell_length_c 19.176072
_cell_angle_alpha 90.000000
_cell_angle_beta 58.099265
_cell_angle_gamma 90.000000
_cell_volume 1964.457253
_symmetry_space_group_name_H-M "C 2/C"
_symmetry_group_IT_number 15
_symmetry_cell_setting 'monoclinic'
loop_
_space_group_symop_operation_xyz
x,y,z
-x,y,1/2-z
-x,-y,-z
x,-y,1/2+z
1/2+x,1/2+y,z
1/2-x,1/2+y,1/2-z
1/2-x,1/2-y,-z
1/2+x,1/2-y,1/2+z
loop_
_atom_site_type_symbol
_atom_site_label
_atom_site_fract_x
_atom_site_fract_y
_atom_site_fract_z
Si Si1 0.000000 0.244616 0.750000
Si Si2 0.419898 0.631300 0.005557
Si Si3 0.671873 0.489134 0.714365
Si Si4 0.634985 0.193879 0.835071
Si Si5 0.545311 0.931023 0.596035
Si Si6 0.765412 0.940323 0.969374
O O1 0.083363 0.130518 0.754425
O O2 0.053654 0.369139 0.671965
O O3 0.352756 0.704292 0.097844
O O4 0.500000 0.500000 0.000000
O O5 0.489698 0.775915 0.938879
O O6 0.346015 0.541841 0.981730
O O7 0.633708 0.321770 0.770618
O O8 0.771400 0.562331 0.711795
O O9 0.694635 0.436430 0.626059
O O10 0.528128 0.092458 0.880128
O O11 0.657551 0.967571 0.519316
O O12 0.750000 0.750000 0.000000
#
# Coordination Sequence:
#
# PCOD8155048 Si02
#       6
#     4   8   8   8   8   8
#     4  12  26  46  76 104 148 194 248 306 362 440
#     4  12  25  48  76 110 143 194 245 308 370 435
#     4  12  28  50  70 111 149 195 243 305 370 436
#     4  12  28  46  77 105 152 192 249 306 366 442
#     4  12  26  49  75 109 146 195 247 302 369 435
#     4  12  28  47  77 107 148 194 247 302 371 445
#
# _framework density 22.398043000000001
#
# number of rings (size 3 to 8) (size 9 to 14) (size 15 to 20)
#    0.000    0.000    3.636    5.455   10.182    0.000 
#    0.000    0.000    0.000    0.000    0.000    0.000 
#    0.000    0.000    0.000    0.000    0.000    0.000 
#
# Total GULP energy -272965.871301 kJ/mol
# GULP energy per Si atom -12407.539605 kJ/mol
# Density = 2.234706 g / cm^3
# Si number density = 22.398043 Si / 1000 Ang^3
#
#
#
# Elastic Constant Matrix: (Units=GPa)
#
#
# Indices 1 2 3 4 5 6 
#
# 1 107.6390 38.3786 41.2997 0.0000 6.0595 0.0002
# 2 38.3786 127.7386 67.7417 0.0000 16.7885 0.0006
# 3 41.2997 67.7417 156.8905 0.0000 19.8975 0.0000
# 4 0.0000 0.0000 0.0000 62.3672 0.0000 2.0793
# 5 6.0595 16.7885 19.8975 0.0000 35.4564 0.0000
# 6 0.0002 0.0006 0.0000 2.0793 0.0000 32.0961
#
#
#
# Elastic Compliance Matrix: (Units=1/GPa)
#
#
# Indices 1 2 3 4 5 6 
#
# 1 0.010816 -0.002281 -0.001900 0.000000 0.000298 0.000000
# 2 -0.002281 0.010849 -0.003749 0.000000 -0.002644 0.000000
# 3 -0.001900 -0.003749 0.008857 0.000000 -0.002871 0.000000
# 4 0.000000 0.000000 0.000000 0.016069 0.000000 -0.001041
# 5 0.000298 -0.002644 -0.002871 0.000000 0.031015 0.000000
# 6 0.000000 0.000000 0.000000 -0.001041 0.000000 0.031224
#
#
# Mechanical properties :
#
#
# Convention : Reuss Voigt Hill
#
# Bulk Modulus (GPa) = 68.20297 76.34535 72.27416
# Shear Modulus (GPa) = 38.58712 42.30715 40.44714
#
# Velocity S-wave (km/s) = 4.15515 4.35084 4.25412
# Velocity P-wave (km/s) = 7.31689 7.70710 7.51453
#
# Compressibility (1/GPa) = 0.01466212
#
# Stress axis : x y z
#
# Youngs Moduli (GPa) = 92.45656 92.17197 112.90904
#
# Poissons Ratio (x) = 0.21026 0.21453
# Poissons Ratio (y) = 0.21091 0.42326
# Poissons Ratio (z) = 0.17567 0.34553
#
# Static dielectric constant tensor:
#      x y z
#    x 3.938370 0.000000 -0.045310 
#    y 0.000000 4.585460 0.000000 
#    z -0.045310 0.000000 4.302480 
# 
# 
# High freq. dielectric constant tensor:
#      x y z
#    x 1.883320 0.000000 0.002450 
#    y 0.000000 1.902990 0.000000 
#    z 0.002450 0.000000 1.903930 
# 
# From -- ./inp_files/202932.got.cif
#   From: 2010.06.25/outbox.cif.g09.slc.cpg/sg15_102_cif.got.tgz:202932.got - 2010.06.28 07:06:18.
