data_PCOD8155566
_publ_section_title
;
Structure prediction by ZEFSAII (Michael W. Deem and Ramdas Pophale) SiO2 
 PCOD8155566
Probable space group: P 2 2 21
;
_chemical_formula_sum "Si O2"
_cell_formula_units_Z 20
_cell_length_a 8.764758
_cell_length_b 7.519723
_cell_length_c 13.425868
_cell_angle_alpha 90.000000
_cell_angle_beta 90.000000
_cell_angle_gamma 90.000000
_cell_volume 884.879524
_symmetry_space_group_name_H-M "P 2 2 21"
_symmetry_group_IT_number 17
_symmetry_cell_setting 'orthorhombic'
loop_
_space_group_symop_operation_xyz
x,y,z
-x,-y,1/2+z
x,-y,-z
-x,y,1/2-z
loop_
_atom_site_type_symbol
_atom_site_label
_atom_site_fract_x
_atom_site_fract_y
_atom_site_fract_z
Si Si1 0.827940 0.612364 0.773424
Si Si2 0.371813 0.168235 0.882978
Si Si3 0.708575 0.256026 0.837456
Si Si4 0.760948 0.195768 0.417445
Si Si5 0.931995 0.961587 0.854596
O O1 0.749949 0.464303 0.842574
O O2 0.748052 0.648749 0.665519
O O3 0.819815 0.794010 0.836796
O O4 0.000000 0.554009 0.750000
O O5 0.546330 0.229437 0.888342
O O6 0.291760 0.214007 0.779562
O O7 0.364888 0.955014 0.893611
O O8 0.279229 0.268251 0.972080
O O9 0.832087 0.129000 0.894889
O O10 0.928389 0.101761 0.424065
O O11 0.000000 0.024937 0.750000
#
# Coordination Sequence:
#
# PCOD8155566 Si02
#       5
#     4   4   4   4   4
#     4   9  19  35  66  94 115 163 215 261 310 376
#     4  10  21  36  60  97 130 168 207 254 327 381
#     4  11  20  36  63  97 124 168 212 254 318 385
#     4   9  19  41  62  91 127 167 211 264 319 367
#     4   9  17  37  65  91 116 162 211 260 311 377
#
# _framework density 22.601946999999999
#
# number of rings (size 3 to 8) (size 9 to 14) (size 15 to 20)
#    0.000    2.800    4.000    0.600    0.000    0.800 
#    7.200    4.000    0.000    0.000   15.600    0.000 
#    0.000    0.000    0.000    0.000    0.000    0.000 
#
# Total GULP energy -247842.196105 kJ/mol
# GULP energy per Si atom -12392.109805 kJ/mol
# Density = 2.255050 g / cm^3
# Si number density = 22.601947 Si / 1000 Ang^3
#
#
#
# Elastic Constant Matrix: (Units=GPa)
#
#
# Indices 1 2 3 4 5 6 
#
# 1 125.6025 61.2180 41.2149 0.0000 0.0000 0.0000
# 2 61.2180 110.5376 16.4836 0.0000 0.0000 0.0000
# 3 41.2149 16.4836 84.9697 0.0000 0.0000 0.0000
# 4 0.0000 0.0000 0.0000 20.9124 0.0000 0.0000
# 5 0.0000 0.0000 0.0000 0.0000 31.2548 0.0000
# 6 0.0000 0.0000 0.0000 0.0000 0.0000 30.1167
#
#
#
# Elastic Compliance Matrix: (Units=1/GPa)
#
#
# Indices 1 2 3 4 5 6 
#
# 1 0.012623 -0.006259 -0.004909 0.000000 0.000000 0.000000
# 2 -0.006259 0.012420 0.000627 0.000000 0.000000 0.000000
# 3 -0.004909 0.000627 0.014028 0.000000 0.000000 0.000000
# 4 0.000000 0.000000 0.000000 0.047819 0.000000 0.000000
# 5 0.000000 0.000000 0.000000 0.000000 0.031995 0.000000
# 6 0.000000 0.000000 0.000000 0.000000 0.000000 0.033204
#
#
# Mechanical properties :
#
#
# Convention : Reuss Voigt Hill
#
# Bulk Modulus (GPa) = 55.58967 62.10476 58.84721
# Shear Modulus (GPa) = 27.90700 29.93633 28.92167
#
# Velocity S-wave (km/s) = 3.51767 3.64332 3.58104
# Velocity P-wave (km/s) = 6.41460 6.72574 6.57201
#
# Compressibility (1/GPa) = 0.01798895
#
# Stress axis : x y z
#
# Youngs Moduli (GPa) = 79.22157 80.51849 71.28450
#
# Poissons Ratio (x) = 0.50395 0.34991
# Poissons Ratio (y) = 0.49583 -0.04466
# Poissons Ratio (z) = 0.38887 -0.05045
#
# Static dielectric constant tensor:
#      x y z
#    x 3.967110 0.000000 0.000000 
#    y 0.000000 3.939930 0.000000 
#    z 0.000000 0.000000 3.987320 
# 
# 
# High freq. dielectric constant tensor:
#      x y z
#    x 1.879800 0.000000 0.000000 
#    y 0.000000 1.877530 0.000000 
#    z 0.000000 0.000000 1.875140 
# 
# From -- ./inp_files/8003.got.cif
#   From: 2010.03.12/outbox.cif.g09.slc.cpg/sg17_5_cif.got.tgz:8003.got - 2010.04.10 18:46:23.
