data_PCOD8155325
_publ_section_title
;
Structure prediction by ZEFSAII (Michael W. Deem and Ramdas Pophale) SiO2 
 PCOD8155325
Probable space group: P 2 2 2
;
_chemical_formula_sum "Si O2"
_cell_formula_units_Z 16
_cell_length_a 5.445300
_cell_length_b 15.780751
_cell_length_c 8.997177
_cell_angle_alpha 90.000000
_cell_angle_beta 90.000000
_cell_angle_gamma 90.000000
_cell_volume 773.135728
_symmetry_space_group_name_H-M "P 2 2 2"
_symmetry_group_IT_number 16
_symmetry_cell_setting 'orthorhombic'
loop_
_space_group_symop_operation_xyz
x,y,z
-x,-y,z
x,-y,-z
-x,y,-z
loop_
_atom_site_type_symbol
_atom_site_label
_atom_site_fract_x
_atom_site_fract_y
_atom_site_fract_z
Si Si1 0.258369 0.839711 0.583951
Si Si2 0.123296 0.725248 0.846918
Si Si3 0.500000 0.500000 0.500000
Si Si4 0.185802 0.574708 0.257240
Si Si5 0.500000 0.390124 0.000000
Si Si6 0.500000 0.000000 0.500000
O O1 0.500000 0.798300 0.500000
O O2 0.222935 0.802631 0.748908
O O3 0.322588 0.940099 0.600816
O O4 0.000000 0.825612 0.500000
O O5 0.354386 0.667383 0.883677
O O6 0.932347 0.668194 0.751891
O O7 0.000000 0.759255 0.000000
O O8 0.354942 0.568364 0.401433
O O9 0.000000 0.500000 0.279167
O O10 0.323403 0.552944 0.102375
#
# Coordination Sequence:
#
# PCOD8155325 Si02
#       6
#     4   4   1   4   2   1
#     4  10  23  42  71 106 135 181 227 283 348 423
#     4  10  24  42  66  95 133 176 231 282 347 414
#     4  12  26  42  58  86 128 172 234 296 336 394
#     4  11  25  42  59  88 125 174 227 282 343 400
#     4  10  24  43  64  85 124 174 216 283 340 414
#     4   8  22  40  76  98 146 170 226 278 360 412
#
# _framework density 20.694941
#
# number of rings (size 3 to 8) (size 9 to 14) (size 15 to 20)
#    0.750    1.000    0.000    2.250    7.000   16.000 
#    2.250    0.000    0.000   11.250    0.000    0.000 
#    0.000    0.000    0.000    0.000    0.000    0.000 
#
# Total GULP energy -198254.648291 kJ/mol
# GULP energy per Si atom -12390.915518 kJ/mol
# Density = 2.064784 g / cm^3
# Si number density = 20.694941 Si / 1000 Ang^3
#
#
#
# Elastic Constant Matrix: (Units=GPa)
#
#
# Indices 1 2 3 4 5 6 
#
# 1 129.6319 36.9081 63.6686 0.0000 0.0000 0.0000
# 2 36.9081 99.9146 75.4703 0.0000 0.0000 0.0000
# 3 63.6686 75.4703 150.4372 0.0000 0.0000 0.0000
# 4 0.0000 0.0000 0.0000 29.2953 0.0000 0.0000
# 5 0.0000 0.0000 0.0000 0.0000 39.4013 0.0000
# 6 0.0000 0.0000 0.0000 0.0000 0.0000 -8.1420
#
#
#
# Elastic Compliance Matrix: (Units=1/GPa)
#
#
# Indices 1 2 3 4 5 6 
#
# 1 0.009776 -0.000783 -0.003745 0.000000 0.000000 0.000000
# 2 -0.000783 0.016178 -0.007785 0.000000 0.000000 0.000000
# 3 -0.003745 -0.007785 0.012138 0.000000 0.000000 0.000000
# 4 0.000000 0.000000 0.000000 0.034135 0.000000 0.000000
# 5 0.000000 0.000000 0.000000 0.000000 0.025380 0.000000
# 6 0.000000 0.000000 0.000000 0.000000 0.000000 -0.122820
#
#
# Mechanical properties :
#
#
# Convention : Reuss Voigt Hill
#
# Bulk Modulus (GPa) = 74.25471 81.34196 77.79833
# Shear Modulus (GPa) = 1281.71615 25.70669 653.71142
#
# Velocity S-wave (km/s) = 24.91350 3.52827 17.79229
# Velocity P-wave (km/s) = 29.38597 7.48257 21.44206
#
# Compressibility (1/GPa) = 0.01346716
#
# Stress axis : x y z
#
# Youngs Moduli (GPa) = 102.28816 61.81299 82.38821
#
# Poissons Ratio (x) = 0.04837 0.30854
# Poissons Ratio (y) = 0.08005 0.64137
# Poissons Ratio (z) = 0.38307 0.48120
#
# Static dielectric constant tensor:
#      x y z
#    x 4.063510 0.000000 0.000000 
#    y 0.000000 3.427150 0.000000 
#    z 0.000000 0.000000 3.864680 
# 
# 
# High freq. dielectric constant tensor:
#      x y z
#    x 1.837570 0.000000 0.000000 
#    y 0.000000 1.778900 0.000000 
#    z 0.000000 0.000000 1.806370 
# 
# From -- ./inp_files/3067.got.cif
#   From: 2010.03.12/outbox.cif.g09.slc.cpg/sg16_2_cif.got.tgz:3067.got - 2010.03.31 00:51:45.
