data_PCOD8155046
_publ_section_title
;
Structure prediction by ZEFSAII (Michael W. Deem and Ramdas Pophale) SiO2 
 PCOD8155046
Probable space group: C 2/C
;
_chemical_formula_sum "Si O2"
_cell_formula_units_Z 44
_cell_length_a 13.976867
_cell_length_b 5.049604
_cell_length_c 26.455713
_cell_angle_alpha 90.000000
_cell_angle_beta 75.755669
_cell_angle_gamma 90.000000
_cell_volume 1809.775860
_symmetry_space_group_name_H-M "C 2/C"
_symmetry_group_IT_number 15
_symmetry_cell_setting 'monoclinic'
loop_
_space_group_symop_operation_xyz
x,y,z
-x,y,1/2-z
-x,-y,-z
x,-y,1/2+z
1/2+x,1/2+y,z
1/2-x,1/2+y,1/2-z
1/2-x,1/2-y,-z
1/2+x,1/2-y,1/2+z
loop_
_atom_site_type_symbol
_atom_site_label
_atom_site_fract_x
_atom_site_fract_y
_atom_site_fract_z
Si Si1 0.216481 0.874593 0.224809
Si Si2 0.804739 0.160024 0.116757
Si Si3 0.069749 0.742849 0.993761
Si Si4 0.498551 0.563962 0.141334
Si Si5 0.609300 0.934819 0.595684
Si Si6 0.000000 0.013544 0.750000
O O1 0.268666 0.666772 0.254991
O O2 0.264137 0.873790 0.162423
O O3 0.099601 0.809077 0.237261
O O4 0.712886 0.983765 0.108730
O O5 0.889852 0.991305 0.133836
O O6 0.850846 0.291056 0.060904
O O7 0.126850 0.709682 0.039584
O O8 0.000000 0.500000 0.000000
O O9 0.000000 0.000000 0.000000
O O10 0.555505 0.286825 0.136168
O O11 0.497062 0.667904 0.199538
O O12 0.545800 0.794494 0.100230
#
# Coordination Sequence:
#
# PCOD8155046 Si02
#       6
#     8   8   8   8   8   4
#     4  12  30  47  75 111 146 195 248 302 368 441
#     4  12  27  48  80 106 152 194 249 300 372 442
#     4  12  25  48  76 108 150 193 244 308 368 436
#     4  12  28  46  76 108 150 188 250 305 358 443
#     4  12  27  49  73 113 144 197 242 305 372 430
#     4  12  28  50  76 108 152 194 246 308 370 432
#
# _framework density 24.312401999999999
#
# number of rings (size 3 to 8) (size 9 to 14) (size 15 to 20)
#    0.000    0.000    7.273    0.545    5.091    5.818 
#    0.000    3.636    0.000    0.000    0.000    0.000 
#    0.000    0.000    0.000    0.000    0.000    0.000 
#
# Total GULP energy -272670.767338 kJ/mol
# GULP energy per Si atom -12394.125788 kJ/mol
# Density = 2.425707 g / cm^3
# Si number density = 24.312402 Si / 1000 Ang^3
#
#
#
# Elastic Constant Matrix: (Units=GPa)
#
#
# Indices 1 2 3 4 5 6 
#
# 1 191.7572 35.7237 53.6463 -0.0026 3.9609 -0.0045
# 2 35.7237 98.9451 15.2338 -0.0138 -9.7550 -0.0046
# 3 53.6463 15.2338 172.4553 -0.0028 -2.4759 -0.0010
# 4 -0.0026 -0.0138 -0.0028 22.3208 0.0002 5.8443
# 5 3.9609 -9.7550 -2.4759 0.0002 52.3988 -0.0006
# 6 -0.0045 -0.0046 -0.0010 5.8443 -0.0006 19.7996
#
#
#
# Elastic Compliance Matrix: (Units=1/GPa)
#
#
# Indices 1 2 3 4 5 6 
#
# 1 0.006095 -0.002025 -0.001730 -0.000001 -0.000919 0.000001
# 2 -0.002025 0.011104 -0.000319 0.000006 0.002205 0.000000
# 3 -0.001730 -0.000319 0.006370 0.000000 0.000372 0.000000
# 4 -0.000001 0.000006 0.000000 0.048554 0.000001 -0.014332
# 5 -0.000919 0.002205 0.000372 0.000001 0.019582 0.000001
# 6 0.000001 0.000000 0.000000 -0.014332 0.000001 0.054736
#
#
# Mechanical properties :
#
#
# Convention : Reuss Voigt Hill
#
# Bulk Modulus (GPa) = 64.84796 74.70724 69.77760
# Shear Modulus (GPa) = 31.30250 42.80744 37.05497
#
# Velocity S-wave (km/s) = 3.59208 4.20065 3.90823
# Velocity P-wave (km/s) = 6.62833 7.37035 7.00917
#
# Compressibility (1/GPa) = 0.01542069
#
# Stress axis : x y z
#
# Youngs Moduli (GPa) = 164.06211 90.05536 156.97496
#
# Poissons Ratio (x) = 0.18235 0.27163
# Poissons Ratio (y) = 0.33221 0.05013
# Poissons Ratio (z) = 0.28389 0.02876
#
# Static dielectric constant tensor:
#      x y z
#    x 4.642110 0.000000 0.215250 
#    y 0.000000 3.891680 0.000070 
#    z 0.215250 0.000070 11.986480 
# 
# 
# High freq. dielectric constant tensor:
#      x y z
#    x 1.988310 0.000000 0.010860 
#    y 0.000000 1.919860 0.000000 
#    z 0.010860 0.000000 1.996290 
# 
# From -- ./inp_files/294215.got.cif
#   From: 2010.06.25/outbox.cif.g09.slc.cpg/sg15_148_cif.got.tgz:294215.got - 2010.06.28 07:06:18.
