data_PCOD8155625
_publ_section_title
;
Structure prediction by ZEFSAII (Michael W. Deem and Ramdas Pophale) SiO2 
 PCOD8155625
Probable space group: P 2 2 21
;
_chemical_formula_sum "Si O2"
_cell_formula_units_Z 24
_cell_length_a 5.019540
_cell_length_b 12.522615
_cell_length_c 17.573465
_cell_angle_alpha 90.000000
_cell_angle_beta 90.000000
_cell_angle_gamma 90.000000
_cell_volume 1104.628767
_symmetry_space_group_name_H-M "P 2 2 21"
_symmetry_group_IT_number 17
_symmetry_cell_setting 'orthorhombic'
loop_
_space_group_symop_operation_xyz
x,y,z
-x,-y,1/2+z
x,-y,-z
-x,y,1/2-z
loop_
_atom_site_type_symbol
_atom_site_label
_atom_site_fract_x
_atom_site_fract_y
_atom_site_fract_z
Si Si1 0.881487 0.738920 0.864137
Si Si2 0.401936 0.217920 0.039742
Si Si3 0.479095 0.764457 0.367172
Si Si4 0.000000 0.913485 0.750000
Si Si5 0.500000 0.586486 0.250000
Si Si6 0.713938 0.000000 0.500000
Si Si7 0.953747 0.900638 0.358688
Si Si8 0.000000 0.557075 0.750000
O O1 0.602399 0.721090 0.905323
O O2 0.946260 0.628419 0.823745
O O3 0.104744 0.764743 0.927559
O O4 0.825031 0.833475 0.802139
O O5 0.455408 0.263102 0.955043
O O6 0.465596 0.089538 0.042097
O O7 0.410025 0.656695 0.322760
O O8 0.749859 0.810165 0.329722
O O9 0.252670 0.855259 0.355022
O O10 0.130564 0.995076 0.809922
O O11 0.251256 0.514194 0.227645
O O12 0.900861 0.929259 0.446004
#
# Coordination Sequence:
#
# PCOD8155625 Si02
#       8
#     4   4   4   2   2   2   4   2
#     4  11  25  43  64  97 131 172 220 278 318 395
#     4  11  23  41  64  96 141 170 218 258 328 384
#     4  11  25  41  68  95 131 171 218 276 330 383
#     4  11  24  37  62  90 132 177 216 259 314 380
#     4  12  24  50  70  94 124 172 226 290 342 398
#     4  10  22  38  62  96 138 196 200 256 308 412
#     4  11  23  38  60  98 133 174 220 253 318 401
#     4  11  26  47  74  92 126 175 228 279 354 376
#
# _framework density 21.726756000000002
#
# number of rings (size 3 to 8) (size 9 to 14) (size 15 to 20)
#    0.000    1.000    1.667    5.000    4.667    4.667 
#    0.000    5.000    0.000    0.000    0.000    0.000 
#    0.000    0.000    0.000    0.000    0.000    0.000 
#
# Total GULP energy -297399.949906 kJ/mol
# GULP energy per Si atom -12391.664579 kJ/mol
# Density = 2.167731 g / cm^3
# Si number density = 21.726756 Si / 1000 Ang^3
#
#
#
# Elastic Constant Matrix: (Units=GPa)
#
#
# Indices 1 2 3 4 5 6 
#
# 1 88.4161 21.1637 19.9253 0.0000 0.0000 0.0000
# 2 21.1637 116.7434 45.9444 0.0000 0.0000 0.0000
# 3 19.9253 45.9444 108.8395 0.0000 0.0000 0.0000
# 4 0.0000 0.0000 0.0000 317.1413 0.0000 0.0000
# 5 0.0000 0.0000 0.0000 0.0000 23.5003 0.0000
# 6 0.0000 0.0000 0.0000 0.0000 0.0000 33.6833
#
#
#
# Elastic Compliance Matrix: (Units=1/GPa)
#
#
# Indices 1 2 3 4 5 6 
#
# 1 0.012034 -0.001576 -0.001538 0.000000 0.000000 0.000000
# 2 -0.001576 0.010479 -0.004135 0.000000 0.000000 0.000000
# 3 -0.001538 -0.004135 0.011215 0.000000 0.000000 0.000000
# 4 0.000000 0.000000 0.000000 0.003153 0.000000 0.000000
# 5 0.000000 0.000000 0.000000 0.000000 0.042553 0.000000
# 6 0.000000 0.000000 0.000000 0.000000 0.000000 0.029688
#
#
# Mechanical properties :
#
#
# Convention : Reuss Voigt Hill
#
# Bulk Modulus (GPa) = 52.00248 54.22953 53.11601
# Shear Modulus (GPa) = 38.45283 89.99601 64.22442
#
# Velocity S-wave (km/s) = 4.21151 6.44295 5.44281
# Velocity P-wave (km/s) = 6.90187 8.96453 7.99996
#
# Compressibility (1/GPa) = 0.01922985
#
# Stress axis : x y z
#
# Youngs Moduli (GPa) = 83.09777 95.43044 89.16814
#
# Poissons Ratio (x) = 0.15044 0.13711
# Poissons Ratio (y) = 0.13100 0.36869
# Poissons Ratio (z) = 0.12777 0.39459
#
# Static dielectric constant tensor:
#      x y z
#    x 3.563730 0.000000 0.000000 
#    y 0.000000 3.942030 0.000000 
#    z 0.000000 0.000000 3.982090 
# 
# 
# High freq. dielectric constant tensor:
#      x y z
#    x 1.845040 0.000000 0.000000 
#    y 0.000000 1.845270 0.000000 
#    z 0.000000 0.000000 1.872520 
# 
# From -- ./inp_files/9068.got.cif
#   From: 2010.03.12/outbox.cif.g09.slc.cpg/sg17_5_cif.got.tgz:9068.got - 2010.04.10 18:46:23.
