data_PCOD8155225
_publ_section_title
;
Structure prediction by ZEFSAII (Michael W. Deem and Ramdas Pophale) SiO2 
 PCOD8155225
Probable space group: P 2 2 2
;
_chemical_formula_sum "Si O2"
_cell_formula_units_Z 32
_cell_length_a 9.329980
_cell_length_b 15.148929
_cell_length_c 11.683709
_cell_angle_alpha 90.000000
_cell_angle_beta 90.000000
_cell_angle_gamma 90.000000
_cell_volume 1651.366137
_symmetry_space_group_name_H-M "P 2 2 2"
_symmetry_group_IT_number 16
_symmetry_cell_setting 'orthorhombic'
loop_
_space_group_symop_operation_xyz
x,y,z
-x,-y,z
x,-y,-z
-x,y,-z
loop_
_atom_site_type_symbol
_atom_site_label
_atom_site_fract_x
_atom_site_fract_y
_atom_site_fract_z
Si Si1 0.140838 0.183878 0.653974
Si Si2 0.841829 0.008128 0.700563
Si Si3 0.329925 0.495854 0.369728
Si Si4 0.359163 0.682877 0.740379
Si Si5 0.190422 0.823765 0.603725
Si Si6 0.337409 0.737748 0.988818
Si Si7 0.310594 0.334230 0.769354
Si Si8 0.158548 0.087127 0.050722
O O1 0.197890 0.203877 0.527391
O O2 0.196765 0.261842 0.731986
O O3 0.968896 0.185545 0.657217
O O4 0.213104 0.093003 0.705070
O O5 0.758778 0.073073 0.612750
O O6 0.847020 0.066664 0.815512
O O7 0.000000 0.000000 0.648342
O O8 0.500000 0.500000 0.371724
O O9 0.269045 0.500000 0.500000
O O10 0.285167 0.402787 0.315180
O O11 0.265435 0.572055 0.286942
O O12 0.301430 0.767559 0.675626
O O13 0.314271 0.682569 0.873123
O O14 0.530104 0.686923 0.725269
O O15 0.241587 0.825261 0.985426
O O16 0.500000 0.771634 0.000000
O O17 0.302063 0.669385 0.092118
O O18 0.000000 0.097101 0.000000
O O19 0.235929 0.000000 0.000000
#
# Coordination Sequence:
#
# PCOD8155225 Si02
#       8
#     4   4   4   4   4   4   4   4
#     4  10  21  35  54  82 109 143 182 230 273 318
#     4  10  18  33  53  79 107 139 187 223 265 319
#     4   9  18  34  58  83 105 139 184 224 266 323
#     4  10  20  37  58  80 110 146 180 223 274 329
#     4  10  20  35  56  79 110 144 182 226 276 321
#     4  10  22  36  52  81 113 142 176 223 279 320
#     4  10  21  36  56  82 111 141 183 226 270 325
#     4  11  20  32  55  80 102 145 191 225 257 318
#
# _framework density 19.377894999999999
#
# number of rings (size 3 to 8) (size 9 to 14) (size 15 to 20)
#    0.000    2.000    2.500    1.875    1.750    3.750 
#    0.000    3.750    0.000    3.750    0.000    2.625 
#    0.000    0.000    0.000    0.000    0.000    0.000 
#
# Total GULP energy -396524.471759 kJ/mol
# GULP energy per Si atom -12391.389742 kJ/mol
# Density = 1.933379 g / cm^3
# Si number density = 19.377895 Si / 1000 Ang^3
#
#
#
# Elastic Constant Matrix: (Units=GPa)
#
#
# Indices 1 2 3 4 5 6 
#
# 1 32.8123 25.7784 22.5708 0.0000 0.0000 0.0000
# 2 25.7784 128.3409 39.2294 0.0000 0.0000 0.0000
# 3 22.5708 39.2294 106.6379 0.0000 0.0000 0.0000
# 4 0.0000 0.0000 0.0000 40.0449 0.0000 0.0000
# 5 0.0000 0.0000 0.0000 0.0000 19.2580 0.0000
# 6 0.0000 0.0000 0.0000 0.0000 0.0000 19.3005
#
#
#
# Elastic Compliance Matrix: (Units=1/GPa)
#
#
# Indices 1 2 3 4 5 6 
#
# 1 0.039441 -0.006051 -0.006122 0.000000 0.000000 0.000000
# 2 -0.006051 0.009707 -0.002290 0.000000 0.000000 0.000000
# 3 -0.006122 -0.002290 0.011516 0.000000 0.000000 0.000000
# 4 0.000000 0.000000 0.000000 0.024972 0.000000 0.000000
# 5 0.000000 0.000000 0.000000 0.000000 0.051926 0.000000
# 6 0.000000 0.000000 0.000000 0.000000 0.000000 0.051812
#
#
# Mechanical properties :
#
#
# Convention : Reuss Voigt Hill
#
# Bulk Modulus (GPa) = 31.50813 49.21648 40.36231
# Shear Modulus (GPa) = 21.84544 27.73485 24.79014
#
# Velocity S-wave (km/s) = 3.36123 3.78731 3.58061
# Velocity P-wave (km/s) = 5.59991 6.67670 6.16187
#
# Compressibility (1/GPa) = 0.03173784
#
# Stress axis : x y z
#
# Youngs Moduli (GPa) = 25.35411 103.01659 86.83655
#
# Poissons Ratio (x) = 0.62333 0.53163
# Poissons Ratio (y) = 0.15341 0.19888
# Poissons Ratio (z) = 0.15522 0.23594
#
# Static dielectric constant tensor:
#      x y z
#    x 3.168260 0.000000 0.000000 
#    y 0.000000 3.755890 0.000000 
#    z 0.000000 0.000000 3.945730 
# 
# 
# High freq. dielectric constant tensor:
#      x y z
#    x 1.710620 0.000000 0.000000 
#    y 0.000000 1.760070 0.000000 
#    z 0.000000 0.000000 1.773190 
# 
# From -- ./inp_files/4875.got.cif
#   From: 2010.03.12/outbox.cif.g09.slc.cpg/sg16_3_cif.got.tgz:4875.got - 2010.03.31 00:51:45.
