data_PCOD8155480
_publ_section_title
;
Structure prediction by ZEFSAII (Michael W. Deem and Ramdas Pophale) SiO2 
 PCOD8155480
Probable space group: P 2 2 21
;
_chemical_formula_sum "Si O2"
_cell_formula_units_Z 32
_cell_length_a 11.378177
_cell_length_b 15.569783
_cell_length_c 8.703691
_cell_angle_alpha 90.000000
_cell_angle_beta 90.000000
_cell_angle_gamma 90.000000
_cell_volume 1541.908879
_symmetry_space_group_name_H-M "P 2 2 21"
_symmetry_group_IT_number 17
_symmetry_cell_setting 'orthorhombic'
loop_
_space_group_symop_operation_xyz
x,y,z
-x,-y,1/2+z
x,-y,-z
-x,y,1/2-z
loop_
_atom_site_type_symbol
_atom_site_label
_atom_site_fract_x
_atom_site_fract_y
_atom_site_fract_z
Si Si1 0.956826 0.237349 0.593170
Si Si2 0.695201 0.954196 0.850797
Si Si3 0.234883 0.300432 0.131886
Si Si4 0.810299 0.932677 0.379114
Si Si5 0.609043 0.863928 0.573933
Si Si6 0.797086 0.776802 0.944583
Si Si7 0.558270 0.748881 0.083301
Si Si8 0.444906 0.410323 0.083427
O O1 0.872922 0.296497 0.488425
O O2 0.892236 0.149434 0.640879
O O3 0.000000 0.284970 0.750000
O O4 0.072850 0.215213 0.503421
O O5 0.599197 0.927571 0.720909
O O6 0.771195 0.870790 0.883442
O O7 0.789897 0.023028 0.785212
O O8 0.635354 0.000000 0.000000
O O9 0.324632 0.222921 0.114905
O O10 0.196094 0.295182 0.309735
O O11 0.306568 0.387443 0.097377
O O12 0.679762 0.908423 0.437346
O O13 0.867865 0.000000 0.500000
O O14 0.479550 0.832808 0.519093
O O15 0.700870 0.749827 0.076642
O O16 0.500000 0.759822 0.250000
O O17 0.514897 0.659777 0.014574
O O18 0.500000 0.416737 0.250000
O O19 0.458207 0.500000 0.000000
#
# Coordination Sequence:
#
# PCOD8155480 Si02
#       8
#     4   4   4   4   4   4   4   4
#     4  11  23  36  62  90 123 167 228 281 329 386
#     4  10  20  34  58  85 121 164 224 281 341 393
#     4   9  20  40  63  91 131 168 209 267 319 400
#     4   9  19  37  56  80 118 165 215 290 344 386
#     4   8  19  37  58  82 121 164 209 263 339 388
#     4  11  23  40  62  91 122 178 231 270 341 405
#     4  11  24  40  68  95 132 169 219 276 327 414
#     4  11  22  43  73 109 140 167 201 260 338 409
#
# _framework density 20.753498
#
# number of rings (size 3 to 8) (size 9 to 14) (size 15 to 20)
#    0.000    2.000    1.250    2.250    7.000    1.500 
#    0.000    4.375    0.000    2.250    0.000    0.000 
#    0.000    0.000    0.000    0.000    0.000    0.000 
#
# Total GULP energy -396587.812622 kJ/mol
# GULP energy per Si atom -12393.369144 kJ/mol
# Density = 2.070626 g / cm^3
# Si number density = 20.753498 Si / 1000 Ang^3
#
#
#
# Elastic Constant Matrix: (Units=GPa)
#
#
# Indices 1 2 3 4 5 6 
#
# 1 129.6706 39.2159 46.8412 0.0000 0.0000 0.0000
# 2 39.2159 87.0401 41.3915 0.0000 0.0000 0.0000
# 3 46.8412 41.3915 128.3859 0.0000 0.0000 0.0000
# 4 0.0000 0.0000 0.0000 30.5221 0.0000 0.0000
# 5 0.0000 0.0000 0.0000 0.0000 24.2008 0.0000
# 6 0.0000 0.0000 0.0000 0.0000 0.0000 8.7566
#
#
#
# Elastic Compliance Matrix: (Units=1/GPa)
#
#
# Indices 1 2 3 4 5 6 
#
# 1 0.009552 -0.003126 -0.002477 0.000000 0.000000 0.000000
# 2 -0.003126 0.014592 -0.003564 0.000000 0.000000 0.000000
# 3 -0.002477 -0.003564 0.009842 0.000000 0.000000 0.000000
# 4 0.000000 0.000000 0.000000 0.032763 0.000000 0.000000
# 5 0.000000 0.000000 0.000000 0.000000 0.041321 0.000000
# 6 0.000000 0.000000 0.000000 0.000000 0.000000 0.114200
#
#
# Mechanical properties :
#
#
# Convention : Reuss Voigt Hill
#
# Bulk Modulus (GPa) = 63.88972 66.66598 65.27785
# Shear Modulus (GPa) = 20.33996 27.20576 23.77286
#
# Velocity S-wave (km/s) = 3.13401 3.62456 3.38818
# Velocity P-wave (km/s) = 6.62932 7.05047 6.84314
#
# Compressibility (1/GPa) = 0.01565197
#
# Stress axis : x y z
#
# Youngs Moduli (GPa) = 104.69017 68.53033 101.60604
#
# Poissons Ratio (x) = 0.21420 0.25171
# Poissons Ratio (y) = 0.32722 0.36214
# Poissons Ratio (z) = 0.25935 0.24425
#
# Static dielectric constant tensor:
#      x y z
#    x 3.733300 0.000000 0.000000 
#    y 0.000000 3.592790 0.000000 
#    z 0.000000 0.000000 4.240580 
# 
# 
# High freq. dielectric constant tensor:
#      x y z
#    x 1.807410 0.000000 0.000000 
#    y 0.000000 1.777960 0.000000 
#    z 0.000000 0.000000 1.829090 
# 
# From -- ./inp_files/4936.got.cif
#   From: 2010.03.12/outbox.cif.g09.slc.cpg/sg17_3_cif.got.tgz:4936.got - 2010.04.10 18:46:23.
