data_PCOD8155844
_publ_section_title
;
Structure prediction by ZEFSAII (Michael W. Deem and Ramdas Pophale) SiO2 
 PCOD8155844
Probable space group: P 21 21 2
;
_chemical_formula_sum "Si O2"
_cell_formula_units_Z 30
_cell_length_a 6.277949
_cell_length_b 23.821371
_cell_length_c 11.704697
_cell_angle_alpha 90.000000
_cell_angle_beta 90.000000
_cell_angle_gamma 90.000000
_cell_volume 1750.429855
_symmetry_space_group_name_H-M "P 21 21 2"
_symmetry_group_IT_number 18
_symmetry_cell_setting 'orthorhombic'
loop_
_space_group_symop_operation_xyz
x,y,z
-x,-y,z
1/2+x,1/2-y,-z
1/2-x,1/2+y,-z
loop_
_atom_site_type_symbol
_atom_site_label
_atom_site_fract_x
_atom_site_fract_y
_atom_site_fract_z
Si Si1 0.880795 0.945989 0.365753
Si Si2 0.377495 0.762810 0.862697
Si Si3 0.798571 0.169487 0.058892
Si Si4 0.798574 0.830513 0.441109
Si Si5 0.877492 0.262810 0.362697
Si Si6 0.000001 0.703980 0.750000
Si Si7 0.500000 0.000000 0.250002
Si Si8 0.119204 0.945989 0.134246
O O1 0.888453 0.893848 0.454678
O O2 0.999995 0.927690 0.249998
O O3 0.639679 0.961525 0.334005
O O4 0.000000 0.000000 0.421378
O O5 0.509463 0.713340 0.924062
O O6 0.500003 0.784842 0.750001
O O7 0.141472 0.742795 0.831906
O O8 0.346158 0.814291 0.950218
O O9 0.653550 0.166263 0.172503
O O10 0.888445 0.106151 0.045321
O O11 0.653846 0.814292 0.549784
O O12 0.653555 0.833737 0.327497
O O13 0.990538 0.786659 0.424063
O O14 0.641472 0.242794 0.331907
O O15 0.639682 0.038474 0.165999
O O16 0.000000 0.000000 0.078619
#
# Coordination Sequence:
#
# PCOD8155844 Si02
#       8
#     4   4   4   4   4   4   2   4
#     4   9  18  31  47  75 106 133 171 209 258 310
#     4  10  21  33  49  78 107 139 174 211 259 310
#     4  11  19  34  52  75 109 140 169 215 263 314
#     4  11  19  34  52  75 109 140 169 215 263 314
#     4  10  21  33  49  78 107 139 174 211 259 310
#     4  10  19  32  50  75 103 140 171 210 260 320
#     4   8  16  32  48  78  98 136 164 212 258 316
#     4   9  18  31  47  75 106 133 171 209 258 310
#
# _framework density 17.138648
#
# number of rings (size 3 to 8) (size 9 to 14) (size 15 to 20)
#    0.000    2.400    2.667    3.200    0.000    2.133 
#    0.000    0.000    0.000    0.000    0.000    5.600 
#    0.000    0.000    0.000    0.000    0.000    0.000 
#
# Total GULP energy -371906.346954 kJ/mol
# GULP energy per Si atom -12396.878232 kJ/mol
# Density = 1.709964 g / cm^3
# Si number density = 17.138648 Si / 1000 Ang^3
#
#
#
# Elastic Constant Matrix: (Units=GPa)
#
#
# Indices 1 2 3 4 5 6 
#
# 1 95.5326 41.9171 25.0500 0.0000 0.0000 0.0000
# 2 41.9171 144.9430 57.0818 0.0000 0.0000 0.0000
# 3 25.0500 57.0818 68.5445 0.0000 0.0000 0.0000
# 4 0.0000 0.0000 0.0000 25.6881 0.0000 0.0000
# 5 0.0000 0.0000 0.0000 0.0000 25.7972 0.0000
# 6 0.0000 0.0000 0.0000 0.0000 0.0000 17.9116
#
#
#
# Elastic Compliance Matrix: (Units=1/GPa)
#
#
# Indices 1 2 3 4 5 6 
#
# 1 0.012221 -0.002642 -0.002266 0.000000 0.000000 0.000000
# 2 -0.002642 0.010837 -0.008059 0.000000 0.000000 0.000000
# 3 -0.002266 -0.008059 0.022129 0.000000 0.000000 0.000000
# 4 0.000000 0.000000 0.000000 0.038929 0.000000 0.000000
# 5 0.000000 0.000000 0.000000 0.000000 0.038764 0.000000
# 6 0.000000 0.000000 0.000000 0.000000 0.000000 0.055830
#
#
# Mechanical properties :
#
#
# Convention : Reuss Voigt Hill
#
# Bulk Modulus (GPa) = 51.94209 61.90198 56.92203
# Shear Modulus (GPa) = 23.68975 26.21080 24.95027
#
# Velocity S-wave (km/s) = 3.72188 3.91492 3.81962
# Velocity P-wave (km/s) = 6.98875 7.52544 7.26206
#
# Compressibility (1/GPa) = 0.01925221
#
# Stress axis : x y z
#
# Youngs Moduli (GPa) = 81.82629 92.27421 45.18963
#
# Poissons Ratio (x) = 0.24377 0.10241
# Poissons Ratio (y) = 0.21617 0.36421
# Poissons Ratio (z) = 0.18544 0.74368
#
# Static dielectric constant tensor:
#      x y z
#    x 3.431030 0.000000 0.000000 
#    y 0.000000 3.029160 0.000000 
#    z 0.000000 0.000000 3.010910 
# 
# 
# High freq. dielectric constant tensor:
#      x y z
#    x 1.681690 0.000000 0.000000 
#    y 0.000000 1.643460 0.000000 
#    z 0.000000 0.000000 1.623750 
# 
# From -- ./inp_files/2126.got.cif
#   From: 2010.03.12/outbox.cif.g09.slc.cpg/sg18_2_cif.got.tgz:2126.got - 2010.04.10 18:53:55.
