data_PCOD8155468
_publ_section_title
;
Structure prediction by ZEFSAII (Michael W. Deem and Ramdas Pophale) SiO2 
 PCOD8155468
Probable space group: P 2 2 21
;
_chemical_formula_sum "Si O2"
_cell_formula_units_Z 24
_cell_length_a 21.391270
_cell_length_b 11.958797
_cell_length_c 5.021539
_cell_angle_alpha 90.000000
_cell_angle_beta 90.000000
_cell_angle_gamma 90.000000
_cell_volume 1284.579252
_symmetry_space_group_name_H-M "P 2 2 21"
_symmetry_group_IT_number 17
_symmetry_cell_setting 'orthorhombic'
loop_
_space_group_symop_operation_xyz
x,y,z
-x,-y,1/2+z
x,-y,-z
-x,y,1/2-z
loop_
_atom_site_type_symbol
_atom_site_label
_atom_site_fract_x
_atom_site_fract_y
_atom_site_fract_z
Si Si1 0.703081 0.628888 0.969402
Si Si2 0.039600 0.368281 0.500753
Si Si3 0.427682 0.924442 0.244525
Si Si4 0.670521 0.760823 0.470106
Si Si5 0.170940 0.742269 0.568992
Si Si6 0.795831 0.126960 0.553805
O O1 0.659046 0.695568 0.752620
O O2 0.775760 0.647229 0.893223
O O3 0.684660 0.500000 0.000000
O O4 0.696650 0.670507 0.268458
O O5 0.050207 0.500000 0.500000
O O6 0.106914 0.312955 0.518061
O O7 0.000000 0.327198 0.750000
O O8 0.000000 0.327328 0.250000
O O9 0.500000 0.889407 0.250000
O O10 0.389824 0.811242 0.183414
O O11 0.408083 0.000000 0.500000
O O12 0.411012 0.000000 0.000000
O O13 0.722370 0.856826 0.517082
O O14 0.161815 0.799594 0.855413
O O15 0.190939 0.837139 0.356748
O O16 0.814097 0.000000 0.500000
#
# Coordination Sequence:
#
# PCOD8155468 Si02
#       6
#     4   4   4   4   4   4
#     4  10  20  34  53  78 107 138 172 214 263 312
#     4  10  20  34  54  77 100 129 166 211 258 303
#     4  10  20  34  54  80 109 140 174 217 266 314
#     4  10  20  33  53  79 106 138 173 214 261 310
#     4  10  20  34  53  76 103 134 168 210 259 308
#     4  10  20  33  52  76 103 135 168 208 255 305
#
# _framework density 18.683160000000001
#
# number of rings (size 3 to 8) (size 9 to 14) (size 15 to 20)
#    0.000    2.000    0.000    4.000    0.000    2.667 
#    0.000    5.000    0.000   12.000    0.000    0.000 
#    0.000    0.000    0.000    0.000    0.000    0.000 
#
# Total GULP energy -297480.413065 kJ/mol
# GULP energy per Si atom -12395.017211 kJ/mol
# Density = 1.864064 g / cm^3
# Si number density = 18.683160 Si / 1000 Ang^3
#
#
#
# Elastic Constant Matrix: (Units=GPa)
#
#
# Indices 1 2 3 4 5 6 
#
# 1 82.6206 32.2517 22.0172 0.0000 0.0000 0.0000
# 2 32.2517 72.7229 22.0624 0.0000 0.0000 0.0000
# 3 22.0172 22.0624 113.2916 0.0000 0.0000 0.0000
# 4 0.0000 0.0000 0.0000 29.0186 0.0000 0.0000
# 5 0.0000 0.0000 0.0000 0.0000 26.6415 0.0000
# 6 0.0000 0.0000 0.0000 0.0000 0.0000 20.1679
#
#
#
# Elastic Compliance Matrix: (Units=1/GPa)
#
#
# Indices 1 2 3 4 5 6 
#
# 1 0.014945 -0.006107 -0.001715 0.000000 0.000000 0.000000
# 2 -0.006107 0.017110 -0.002145 0.000000 0.000000 0.000000
# 3 -0.001715 -0.002145 0.009578 0.000000 0.000000 0.000000
# 4 0.000000 0.000000 0.000000 0.034461 0.000000 0.000000
# 5 0.000000 0.000000 0.000000 0.000000 0.037535 0.000000
# 6 0.000000 0.000000 0.000000 0.000000 0.000000 0.049584
#
#
# Mechanical properties :
#
#
# Convention : Reuss Voigt Hill
#
# Bulk Modulus (GPa) = 46.08823 46.81084 46.44953
# Shear Modulus (GPa) = 26.26324 27.98585 27.12455
#
# Velocity S-wave (km/s) = 3.75336 3.87449 3.81441
# Velocity P-wave (km/s) = 6.59587 6.71752 6.65697
#
# Compressibility (1/GPa) = 0.02169751
#
# Stress axis : x y z
#
# Youngs Moduli (GPa) = 66.91352 58.44465 104.40798
#
# Poissons Ratio (x) = 0.35695 0.17906
# Poissons Ratio (y) = 0.40867 0.22397
# Poissons Ratio (z) = 0.11476 0.12537
#
# Static dielectric constant tensor:
#      x y z
#    x 3.834570 0.000000 0.000000 
#    y 0.000000 3.189540 0.000000 
#    z 0.000000 0.000000 3.681400 
# 
# 
# High freq. dielectric constant tensor:
#      x y z
#    x 1.704140 0.000000 0.000000 
#    y 0.000000 1.710700 0.000000 
#    z 0.000000 0.000000 1.750600 
# 
# From -- ./inp_files/1682.got.cif
#   From: 2010.03.12/outbox.cif.g09.slc.cpg/sg17_1_cif.got.tgz:1682.got - 2010.04.10 18:46:23.
