data_PCOD8155119
_publ_section_title
;
Structure prediction by ZEFSAII (Michael W. Deem and Ramdas Pophale) SiO2 
 PCOD8155119
Probable space group: C 2/C
;
_chemical_formula_sum "Si O2"
_cell_formula_units_Z 28
_cell_length_a 13.002071
_cell_length_b 12.500067
_cell_length_c 8.751430
_cell_angle_alpha 90.000000
_cell_angle_beta 125.683402
_cell_angle_gamma 90.000000
_cell_volume 1155.300536
_symmetry_space_group_name_H-M "C 2/C"
_symmetry_group_IT_number 15
_symmetry_cell_setting 'monoclinic'
loop_
_space_group_symop_operation_xyz
x,y,z
-x,y,1/2-z
-x,-y,-z
x,-y,1/2+z
1/2+x,1/2+y,z
1/2-x,1/2+y,1/2-z
1/2-x,1/2-y,-z
1/2+x,1/2-y,1/2+z
loop_
_atom_site_type_symbol
_atom_site_label
_atom_site_fract_x
_atom_site_fract_y
_atom_site_fract_z
Si Si1 0.237588 0.424701 0.587366
Si Si2 0.500000 0.024364 0.250000
Si Si3 0.670661 0.211815 0.284273
Si Si4 0.383698 0.580226 0.903403
O O1 0.261344 0.323161 0.721293
O O2 0.272748 0.534536 0.702049
O O3 0.331668 0.403332 0.528361
O O4 0.090037 0.442624 0.419372
O O5 0.589492 0.104140 0.232786
O O6 0.750000 0.250000 0.500000
O O7 0.579777 0.306783 0.144101
O O8 0.500000 0.500000 0.000000
#
# Coordination Sequence:
#
# PCOD8155119 Si02
#       4
#     8   4   8   8
#     4  12  26  50  75 110 151 203 254 314 383 461
#     4  12  26  48  80 106 156 194 264 310 374 466
#     4  12  27  48  77 111 150 201 251 312 389 455
#     4  12  27  48  74 113 155 195 256 318 383 454
#
# _framework density 24.236118000000001
#
# number of rings (size 3 to 8) (size 9 to 14) (size 15 to 20)
#    0.000    0.000    5.714    2.571    8.000    0.000 
#    5.143    0.000    0.000    0.000    0.000    0.000 
#    0.000    0.000    0.000    0.000    0.000    0.000 
#
# Total GULP energy -173506.359128 kJ/mol
# GULP energy per Si atom -12393.311366 kJ/mol
# Density = 2.418096 g / cm^3
# Si number density = 24.236118 Si / 1000 Ang^3
#
#
#
# Elastic Constant Matrix: (Units=GPa)
#
#
# Indices 1 2 3 4 5 6 
#
# 1 113.4558 27.6564 79.0137 0.0000 -8.9816 0.0000
# 2 27.6564 120.9162 62.4477 0.0000 -8.1775 0.0000
# 3 79.0137 62.4477 154.6425 0.0000 -16.7596 0.0000
# 4 0.0000 0.0000 0.0000 57.6544 0.0000 -13.4445
# 5 -8.9816 -8.1775 -16.7596 0.0000 42.6801 0.0000
# 6 0.0000 0.0000 0.0000 -13.4445 0.0000 34.7250
#
#
#
# Elastic Compliance Matrix: (Units=1/GPa)
#
#
# Indices 1 2 3 4 5 6 
#
# 1 0.013719 0.000612 -0.007239 0.000000 0.000162 0.000000
# 2 0.000612 0.010482 -0.004506 0.000000 0.000368 0.000000
# 3 -0.007239 -0.004506 0.012247 0.000000 0.002423 0.000000
# 4 0.000000 0.000000 0.000000 0.019066 0.000000 0.007382
# 5 0.000162 0.000368 0.002423 0.000000 0.024486 0.000000
# 6 0.000000 0.000000 0.000000 0.007382 0.000000 0.031656
#
#
# Mechanical properties :
#
#
# Convention : Reuss Voigt Hill
#
# Bulk Modulus (GPa) = 70.50929 80.80556 75.65743
# Shear Modulus (GPa) = 36.06192 41.67169 38.86680
#
# Velocity S-wave (km/s) = 3.86157 4.15107 4.00893
# Velocity P-wave (km/s) = 7.00272 7.50923 7.26039
#
# Compressibility (1/GPa) = 0.01418253
#
# Stress axis : x y z
#
# Youngs Moduli (GPa) = 72.88972 95.40103 81.64973
#
# Poissons Ratio (x) = -0.05837 0.59109
# Poissons Ratio (y) = -0.04459 0.36788
# Poissons Ratio (z) = 0.52768 0.42984
#
# Static dielectric constant tensor:
#      x y z
#    x 4.430850 0.000000 -0.258380 
#    y 0.000000 4.501500 0.000000 
#    z -0.258380 0.000000 4.595190 
# 
# 
# High freq. dielectric constant tensor:
#      x y z
#    x 1.958930 0.000000 -0.017390 
#    y 0.000000 1.971750 0.000000 
#    z -0.017390 0.000000 1.976680 
# 
# From -- ./inp_files/36665.got.cif
#   From: 2010.06.25/outbox.cif.g09.slc.cpg/sg15_19_cif.got.tgz:36665.got - 2010.06.28 07:06:18.
