data_PCOD8155645
_publ_section_title
;
Structure prediction by ZEFSAII (Michael W. Deem and Ramdas Pophale) SiO2 
 PCOD8155645
Probable space group: P 2 2 21
;
_chemical_formula_sum "Si O2"
_cell_formula_units_Z 32
_cell_length_a 10.798730
_cell_length_b 14.773940
_cell_length_c 9.203351
_cell_angle_alpha 90.000000
_cell_angle_beta 90.000000
_cell_angle_gamma 90.000000
_cell_volume 1468.300678
_symmetry_space_group_name_H-M "P 2 2 21"
_symmetry_group_IT_number 17
_symmetry_cell_setting 'orthorhombic'
loop_
_space_group_symop_operation_xyz
x,y,z
-x,-y,1/2+z
x,-y,-z
-x,y,1/2-z
loop_
_atom_site_type_symbol
_atom_site_label
_atom_site_fract_x
_atom_site_fract_y
_atom_site_fract_z
Si Si1 0.505618 0.242346 0.575760
Si Si2 0.566499 0.580884 0.593909
Si Si3 0.136827 0.903611 0.694944
Si Si4 0.137571 0.894333 0.229851
Si Si5 0.899085 0.599692 0.952039
Si Si6 0.229208 0.775046 0.453816
Si Si7 0.744696 0.170362 0.459286
Si Si8 0.833266 0.368021 0.378749
O O1 0.500000 0.245960 0.750000
O O2 0.550958 0.335517 0.511177
O O3 0.372575 0.226171 0.501275
O O4 0.603517 0.167731 0.518343
O O5 0.507857 0.500000 0.500000
O O6 0.500000 0.591561 0.750000
O O7 0.714230 0.566159 0.612621
O O8 0.153064 0.848639 0.546837
O O9 0.000000 0.877718 0.750000
O O10 0.151434 0.011571 0.681933
O O11 0.247559 0.872810 0.800611
O O12 0.226651 0.815716 0.291852
O O13 0.172252 0.896422 0.059970
O O14 0.000000 0.858217 0.250000
O O15 0.866246 0.632682 0.791025
O O16 0.048376 0.597269 0.970609
O O17 0.849488 0.500000 0.000000
O O18 0.832564 0.675443 0.051244
O O19 0.801171 0.270368 0.444002
#
# Coordination Sequence:
#
# PCOD8155645 Si02
#       8
#     4   4   4   4   4   4   4   4
#     4  11  25  45  64  92 134 180 231 282 329 406
#     4  11  24  41  67  95 129 178 233 281 339 398
#     4  11  23  42  71 102 137 172 221 283 338 415
#     4  11  23  41  68 105 133 173 227 275 344 409
#     4  11  23  41  65  97 134 173 225 273 338 401
#     4  12  24  43  68  96 139 179 222 282 343 396
#     4  11  22  43  69  94 138 181 218 276 344 396
#     4  10  22  42  64  94 134 174 219 279 335 399
#
# _framework density 21.793901000000002
#
# number of rings (size 3 to 8) (size 9 to 14) (size 15 to 20)
#    0.000    1.000    2.500    4.500    1.750    5.000 
#    6.750    3.750    0.000    0.000    0.000    0.000 
#    0.000    0.000    0.000    0.000    0.000    0.000 
#
# Total GULP energy -396624.674995 kJ/mol
# GULP energy per Si atom -12394.521094 kJ/mol
# Density = 2.174430 g / cm^3
# Si number density = 21.793901 Si / 1000 Ang^3
#
#
#
# Elastic Constant Matrix: (Units=GPa)
#
#
# Indices 1 2 3 4 5 6 
#
# 1 139.7938 31.0212 24.1930 0.0000 0.0000 0.0000
# 2 31.0212 96.0915 23.5116 0.0000 0.0000 0.0000
# 3 24.1930 23.5116 64.0921 0.0000 0.0000 0.0000
# 4 0.0000 0.0000 0.0000 39.3287 0.0000 0.0000
# 5 0.0000 0.0000 0.0000 0.0000 29.0130 0.0000
# 6 0.0000 0.0000 0.0000 0.0000 0.0000 17.9660
#
#
#
# Elastic Compliance Matrix: (Units=1/GPa)
#
#
# Indices 1 2 3 4 5 6 
#
# 1 0.007997 -0.002025 -0.002276 0.000000 0.000000 0.000000
# 2 -0.002025 0.011946 -0.003618 0.000000 0.000000 0.000000
# 3 -0.002276 -0.003618 0.017789 0.000000 0.000000 0.000000
# 4 0.000000 0.000000 0.000000 0.025427 0.000000 0.000000
# 5 0.000000 0.000000 0.000000 0.000000 0.034467 0.000000
# 6 0.000000 0.000000 0.000000 0.000000 0.000000 0.055661
#
#
# Mechanical properties :
#
#
# Convention : Reuss Voigt Hill
#
# Bulk Modulus (GPa) = 45.67399 50.82545 48.24972
# Shear Modulus (GPa) = 28.34140 32.01165 30.17653
#
# Velocity S-wave (km/s) = 3.61006 3.83670 3.72510
# Velocity P-wave (km/s) = 6.19511 6.55733 6.37879
#
# Compressibility (1/GPa) = 0.02189430
#
# Stress axis : x y z
#
# Youngs Moduli (GPa) = 125.05429 83.71293 56.21534
#
# Poissons Ratio (x) = 0.16949 0.12793
# Poissons Ratio (y) = 0.25320 0.20338
# Poissons Ratio (z) = 0.28459 0.30286
#
# Static dielectric constant tensor:
#      x y z
#    x 4.268410 0.000000 0.000000 
#    y 0.000000 3.820470 0.000000 
#    z 0.000000 0.000000 3.875280 
# 
# 
# High freq. dielectric constant tensor:
#      x y z
#    x 1.863620 0.000000 0.000000 
#    y 0.000000 1.851350 0.000000 
#    z 0.000000 0.000000 1.859420 
# 
# From -- ./inp_files/4965.got.cif
#   From: 2010.03.12/outbox.cif.g09.slc.cpg/sg17_3_cif.got.tgz:4965.got - 2010.04.10 18:46:23.
