data_PCOD8155836
_publ_section_title
;
Structure prediction by ZEFSAII (Michael W. Deem and Ramdas Pophale) SiO2 
 PCOD8155836
Probable space group: P 21 21 2
;
_chemical_formula_sum "Si O2"
_cell_formula_units_Z 18
_cell_length_a 6.244075
_cell_length_b 7.100694
_cell_length_c 15.917455
_cell_angle_alpha 90.000000
_cell_angle_beta 90.000000
_cell_angle_gamma 90.000000
_cell_volume 705.736435
_symmetry_space_group_name_H-M "P 21 21 2"
_symmetry_group_IT_number 18
_symmetry_cell_setting 'orthorhombic'
loop_
_space_group_symop_operation_xyz
x,y,z
-x,-y,z
1/2+x,1/2-y,-z
1/2-x,1/2+y,-z
loop_
_atom_site_type_symbol
_atom_site_label
_atom_site_fract_x
_atom_site_fract_y
_atom_site_fract_z
Si Si1 0.000000 0.500000 0.695373
Si Si2 0.665382 0.234275 0.608987
Si Si3 0.905815 0.806898 0.077026
Si Si4 0.114061 0.801795 0.243621
Si Si5 0.000000 0.500000 0.947093
Si Si6 0.500000 0.500000 0.473266
O O1 0.829367 0.396126 0.637227
O O2 0.870542 0.660866 0.748949
O O3 0.490938 0.180128 0.680933
O O4 0.540174 0.313996 0.528374
O O5 0.793681 0.044487 0.585153
O O6 0.669183 0.880267 0.108820
O O7 0.048899 0.716943 0.152570
O O8 0.875114 0.651588 0.005492
O O9 0.000000 0.000000 0.038906
O O10 0.000000 0.000000 0.247342
#
# Coordination Sequence:
#
# PCOD8155836 Si02
#       6
#     2   4   4   4   2   2
#     4  10  18  45  70  95 136 182 244 282 351 424
#     4  11  23  43  63 103 135 188 236 288 353 422
#     4  11  24  44  72 105 145 188 234 296 348 432
#     4   9  21  42  69 101 134 186 238 284 355 419
#     4  12  24  47  70 109 146 188 238 284 363 426
#     4  12  24  42  68  98 146 182 234 302 348 416
#
# _framework density 25.505275000000001
#
# number of rings (size 3 to 8) (size 9 to 14) (size 15 to 20)
#    0.000    1.333    5.556    1.333    0.000    8.000 
#    4.000    0.000    0.000    0.000    0.000    0.000 
#    0.000    0.000    0.000    0.000    0.000    0.000 
#
# Total GULP energy -223032.509847 kJ/mol
# GULP energy per Si atom -12390.694991 kJ/mol
# Density = 2.544722 g / cm^3
# Si number density = 25.505275 Si / 1000 Ang^3
#
#
#
# Elastic Constant Matrix: (Units=GPa)
#
#
# Indices 1 2 3 4 5 6 
#
# 1 135.1750 13.5404 41.7081 0.0000 0.0000 0.0000
# 2 13.5404 58.1488 20.1727 0.0000 0.0000 0.0000
# 3 41.7081 20.1727 105.0346 0.0000 0.0000 0.0000
# 4 0.0000 0.0000 0.0000 6.3798 0.0000 0.0000
# 5 0.0000 0.0000 0.0000 0.0000 32.1603 0.0000
# 6 0.0000 0.0000 0.0000 0.0000 0.0000 53.5351
#
#
#
# Elastic Compliance Matrix: (Units=1/GPa)
#
#
# Indices 1 2 3 4 5 6 
#
# 1 0.008471 -0.000863 -0.003198 0.000000 0.000000 0.000000
# 2 -0.000863 0.018513 -0.003213 0.000000 0.000000 0.000000
# 3 -0.003198 -0.003213 0.011408 0.000000 0.000000 0.000000
# 4 0.000000 0.000000 0.000000 0.156744 0.000000 0.000000
# 5 0.000000 0.000000 0.000000 0.000000 0.031094 0.000000
# 6 0.000000 0.000000 0.000000 0.000000 0.000000 0.018679
#
#
# Mechanical properties :
#
#
# Convention : Reuss Voigt Hill
#
# Bulk Modulus (GPa) = 41.93988 49.91118 45.92553
# Shear Modulus (GPa) = 18.69826 33.27752 25.98789
#
# Velocity S-wave (km/s) = 2.71054 3.61602 3.19552
# Velocity P-wave (km/s) = 5.12595 6.08651 5.62677
#
# Compressibility (1/GPa) = 0.02384366
#
# Stress axis : x y z
#
# Youngs Moduli (GPa) = 118.04971 54.01660 87.66084
#
# Poissons Ratio (x) = 0.04662 0.28034
# Poissons Ratio (y) = 0.10189 0.28164
# Poissons Ratio (z) = 0.37752 0.17354
#
# Static dielectric constant tensor:
#      x y z
#    x 5.584070 0.000000 0.000000 
#    y 0.000000 4.175490 0.000000 
#    z 0.000000 0.000000 5.801180 
# 
# 
# High freq. dielectric constant tensor:
#      x y z
#    x 2.037770 0.000000 0.000000 
#    y 0.000000 1.989060 0.000000 
#    z 0.000000 0.000000 2.006680 
# 
# From -- ./inp_files/7068.got.cif
#   From: 2010.03.12/outbox.cif.g09.slc.cpg/sg18_4_cif.got.tgz:7068.got - 2010.04.10 18:53:55.
