data_PCOD8155861
_publ_section_title
;
Structure prediction by ZEFSAII (Michael W. Deem and Ramdas Pophale) SiO2 
 PCOD8155861
Probable space group: P 21 21 2
;
_chemical_formula_sum "Si O2"
_cell_formula_units_Z 24
_cell_length_a 17.430452
_cell_length_b 9.324387
_cell_length_c 8.029312
_cell_angle_alpha 90.000000
_cell_angle_beta 90.000000
_cell_angle_gamma 90.000000
_cell_volume 1304.990269
_symmetry_space_group_name_H-M "P 21 21 2"
_symmetry_group_IT_number 18
_symmetry_cell_setting 'orthorhombic'
loop_
_space_group_symop_operation_xyz
x,y,z
-x,-y,z
1/2+x,1/2-y,-z
1/2-x,1/2+y,-z
loop_
_atom_site_type_symbol
_atom_site_label
_atom_site_fract_x
_atom_site_fract_y
_atom_site_fract_z
Si Si1 0.195725 0.179251 0.013687
Si Si2 0.573424 0.407008 0.237080
Si Si3 0.571567 0.103286 0.375279
Si Si4 0.728464 0.060985 0.201734
Si Si5 0.320445 0.829239 0.644186
Si Si6 0.297457 0.537816 0.480794
O O1 0.166810 0.273685 0.169598
O O2 0.258881 0.062603 0.065196
O O3 0.123829 0.098787 0.930862
O O4 0.235285 0.281835 0.877532
O O5 0.500000 0.500000 0.194725
O O6 0.545681 0.248882 0.286139
O O7 0.620676 0.478477 0.390053
O O8 0.644585 0.034382 0.280208
O O9 0.596561 0.130873 0.567099
O O10 0.500000 0.000000 0.368974
O O11 0.794345 0.047924 0.343766
O O12 0.282665 0.706492 0.522766
O O13 0.266224 0.970154 0.643158
#
# Coordination Sequence:
#
# PCOD8155861 Si02
#       6
#     4   4   4   4   4   4
#     4  10  19  34  54  81 109 134 171 221 268 307
#     4  10  21  35  53  76 106 140 175 218 263 311
#     4   9  19  36  54  76 104 139 180 214 254 311
#     4   9  19  34  56  80 107 138 174 217 257 310
#     4   9  18  33  55  79 105 135 173 219 258 309
#     4   9  18  34  54  76 101 136 179 211 250 310
#
# _framework density 18.390941000000002
#
# number of rings (size 3 to 8) (size 9 to 14) (size 15 to 20)
#    0.000    2.667    0.000    2.000    0.000    5.333 
#    0.000   10.833    0.000    4.000    0.000    0.000 
#    0.000    0.000    0.000    0.000    0.000    0.000 
#
# Total GULP energy -297490.552246 kJ/mol
# GULP energy per Si atom -12395.439677 kJ/mol
# Density = 1.834908 g / cm^3
# Si number density = 18.390941 Si / 1000 Ang^3
#
#
#
# Elastic Constant Matrix: (Units=GPa)
#
#
# Indices 1 2 3 4 5 6 
#
# 1 98.8700 68.7398 56.4581 0.0000 0.0000 0.0000
# 2 68.7398 86.0166 42.7662 0.0000 0.0000 0.0000
# 3 56.4581 42.7662 103.9884 0.0000 0.0000 0.0000
# 4 0.0000 0.0000 0.0000 30.1880 0.0000 0.0000
# 5 0.0000 0.0000 0.0000 0.0000 14.6882 0.0000
# 6 0.0000 0.0000 0.0000 0.0000 0.0000 44.2841
#
#
#
# Elastic Compliance Matrix: (Units=1/GPa)
#
#
# Indices 1 2 3 4 5 6 
#
# 1 0.026361 -0.017536 -0.007100 0.000000 0.000000 0.000000
# 2 -0.017536 0.026279 -0.001287 0.000000 0.000000 0.000000
# 3 -0.007100 -0.001287 0.014001 0.000000 0.000000 0.000000
# 4 0.000000 0.000000 0.000000 0.033126 0.000000 0.000000
# 5 0.000000 0.000000 0.000000 0.000000 0.068082 0.000000
# 6 0.000000 0.000000 0.000000 0.000000 0.000000 0.022581
#
#
# Mechanical properties :
#
#
# Convention : Reuss Voigt Hill
#
# Bulk Modulus (GPa) = 67.59201 69.42258 68.50729
# Shear Modulus (GPa) = 20.22600 25.89278 23.05939
#
# Velocity S-wave (km/s) = 3.31989 3.75628 3.54481
# Velocity P-wave (km/s) = 7.17832 7.52616 7.35430
#
# Compressibility (1/GPa) = 0.01479465
#
# Stress axis : x y z
#
# Youngs Moduli (GPa) = 37.93540 38.05286 71.42596
#
# Poissons Ratio (x) = 0.66729 0.50713
# Poissons Ratio (y) = 0.66523 0.09192
# Poissons Ratio (z) = 0.26934 0.04897
#
# Static dielectric constant tensor:
#      x y z
#    x 3.054260 0.000000 0.000000 
#    y 0.000000 3.567270 0.000000 
#    z 0.000000 0.000000 3.638530 
# 
# 
# High freq. dielectric constant tensor:
#      x y z
#    x 1.676670 0.000000 0.000000 
#    y 0.000000 1.722140 0.000000 
#    z 0.000000 0.000000 1.724570 
# 
# From -- ./inp_files/3301.got.cif
#   From: 2010.03.12/outbox.cif.g09.slc.cpg/sg18_2_cif.got.tgz:3301.got - 2010.04.10 18:53:55.
