data_PCOD8155958
_publ_section_title
;
Structure prediction by ZEFSAII (Michael W. Deem and Ramdas Pophale) SiO2 
 PCOD8155958
Probable space group: P 21 21 2
;
_chemical_formula_sum "Si O2"
_cell_formula_units_Z 24
_cell_length_a 8.748159
_cell_length_b 13.911413
_cell_length_c 9.708210
_cell_angle_alpha 90.000000
_cell_angle_beta 90.000000
_cell_angle_gamma 90.000000
_cell_volume 1181.481903
_symmetry_space_group_name_H-M "P 21 21 2"
_symmetry_group_IT_number 18
_symmetry_cell_setting 'orthorhombic'
loop_
_space_group_symop_operation_xyz
x,y,z
-x,-y,z
1/2+x,1/2-y,-z
1/2-x,1/2+y,-z
loop_
_atom_site_type_symbol
_atom_site_label
_atom_site_fract_x
_atom_site_fract_y
_atom_site_fract_z
Si Si1 0.333581 0.818767 0.358298
Si Si2 0.685260 0.795144 0.408540
Si Si3 0.723665 0.676118 0.148507
Si Si4 0.616754 0.279712 0.079199
Si Si5 0.318739 0.511345 0.709328
Si Si6 0.821507 0.983897 0.978635
O O1 0.506590 0.819598 0.412218
O O2 0.237042 0.739571 0.441587
O O3 0.323462 0.789412 0.198775
O O4 0.261268 0.924450 0.373385
O O5 0.724310 0.705144 0.308170
O O6 0.777538 0.889280 0.364543
O O7 0.563378 0.705524 0.081906
O O8 0.855387 0.733415 0.069643
O O9 0.753091 0.562520 0.123945
O O10 0.708595 0.380363 0.089630
O O11 0.500000 0.500000 0.702794
O O12 0.254031 0.512072 0.866038
O O13 0.000000 0.000000 0.992141
#
# Coordination Sequence:
#
# PCOD8155958 Si02
#       6
#     4   4   4   4   4   4
#     4  11  24  40  61  90 126 163 205 253 304 366
#     4  11  24  40  61  90 126 163 205 253 304 366
#     4  10  20  36  59  87 117 153 200 250 298 355
#     4  10  20  36  59  87 117 153 200 250 298 355
#     4  11  21  38  65  88 118 162 201 249 314 371
#     4   9  18  34  59  88 116 152 197 245 302 361
#
# _framework density 20.313475
#
# number of rings (size 3 to 8) (size 9 to 14) (size 15 to 20)
#    0.000    1.667    3.333    1.500    0.000    2.667 
#    0.000    4.167    0.000    0.000    0.000    0.000 
#    0.000    0.000    0.000    0.000    0.000    0.000 
#
# Total GULP energy -297627.590765 kJ/mol
# GULP energy per Si atom -12401.149615 kJ/mol
# Density = 2.026724 g / cm^3
# Si number density = 20.313475 Si / 1000 Ang^3
#
#
#
# Elastic Constant Matrix: (Units=GPa)
#
#
# Indices 1 2 3 4 5 6 
#
# 1 63.2458 15.4579 20.4883 0.0000 0.0000 0.0000
# 2 15.4579 101.8920 -1.3138 0.0000 0.0000 0.0000
# 3 20.4883 -1.3138 37.1279 0.0000 0.0000 0.0000
# 4 0.0000 0.0000 0.0000 36.2490 0.0000 0.0000
# 5 0.0000 0.0000 0.0000 0.0000 23.7209 0.0000
# 6 0.0000 0.0000 0.0000 0.0000 0.0000 30.6808
#
#
#
# Elastic Compliance Matrix: (Units=1/GPa)
#
#
# Indices 1 2 3 4 5 6 
#
# 1 0.020256 -0.003219 -0.011292 0.000000 0.000000 0.000000
# 2 -0.003219 0.010330 0.002142 0.000000 0.000000 0.000000
# 3 -0.011292 0.002142 0.033241 0.000000 0.000000 0.000000
# 4 0.000000 0.000000 0.000000 0.027587 0.000000 0.000000
# 5 0.000000 0.000000 0.000000 0.000000 0.042157 0.000000
# 6 0.000000 0.000000 0.000000 0.000000 0.000000 0.032594
#
#
# Mechanical properties :
#
#
# Convention : Reuss Voigt Hill
#
# Bulk Modulus (GPa) = 25.58222 30.17006 27.87614
# Shear Modulus (GPa) = 24.51802 29.30569 26.91186
#
# Velocity S-wave (km/s) = 3.47794 3.80237 3.64377
# Velocity P-wave (km/s) = 5.36182 5.84482 5.60852
#
# Compressibility (1/GPa) = 0.03908965
#
# Stress axis : x y z
#
# Youngs Moduli (GPa) = 49.36834 96.80337 30.08352
#
# Poissons Ratio (x) = 0.31157 0.33969
# Poissons Ratio (y) = 0.15890 -0.06443
# Poissons Ratio (z) = 0.55745 -0.20732
#
# Static dielectric constant tensor:
#      x y z
#    x 3.501290 0.000000 0.000000 
#    y 0.000000 4.104120 0.000000 
#    z 0.000000 0.000000 3.565170 
# 
# 
# High freq. dielectric constant tensor:
#      x y z
#    x 1.781870 0.000000 0.000000 
#    y 0.000000 1.808120 0.000000 
#    z 0.000000 0.000000 1.780440 
# 
# From -- ./inp_files/5510.got.cif
#   From: 2010.03.12/outbox.cif.g09.slc.cpg/sg18_3_cif.got.tgz:5510.got - 2010.04.10 18:53:55.
