data_PCOD8155371
_publ_section_title
;
Structure prediction by ZEFSAII (Michael W. Deem and Ramdas Pophale) SiO2 
 PCOD8155371
Probable space group: P 2 2 21
;
_chemical_formula_sum "Si O2"
_cell_formula_units_Z 32
_cell_length_a 13.480417
_cell_length_b 5.298435
_cell_length_c 17.068264
_cell_angle_alpha 90.000000
_cell_angle_beta 90.000000
_cell_angle_gamma 90.000000
_cell_volume 1219.102689
_symmetry_space_group_name_H-M "P 2 2 21"
_symmetry_group_IT_number 17
_symmetry_cell_setting 'orthorhombic'
loop_
_space_group_symop_operation_xyz
x,y,z
-x,-y,1/2+z
x,-y,-z
-x,y,1/2-z
loop_
_atom_site_type_symbol
_atom_site_label
_atom_site_fract_x
_atom_site_fract_y
_atom_site_fract_z
Si Si1 0.285448 0.581002 0.173677
Si Si2 0.287115 0.054415 0.591479
Si Si3 0.295977 0.553058 0.651591
Si Si4 0.488907 0.590766 0.912914
Si Si5 0.287637 0.079117 0.085405
Si Si6 0.495743 0.095704 0.839833
Si Si7 0.947706 0.065512 0.415043
Si Si8 0.050096 0.567213 0.169012
O O1 0.325897 0.503350 0.259264
O O2 0.318753 0.372809 0.107314
O O3 0.167621 0.567860 0.179447
O O4 0.320774 0.869603 0.151874
O O5 0.232770 0.321357 0.612721
O O6 0.396013 0.133839 0.623514
O O7 0.285750 0.000000 0.500000
O O8 0.237500 0.821164 0.640148
O O9 0.394374 0.629869 0.601370
O O10 0.447097 0.377272 0.851509
O O11 0.442906 0.872812 0.892367
O O12 0.467112 0.500000 0.000000
O O13 0.170197 0.064103 0.082859
O O14 0.328833 0.000000 0.000000
O O15 0.500000 0.011717 0.750000
O O16 0.984278 0.342385 0.389242
O O17 0.992026 0.000000 0.500000
O O18 0.987220 0.841064 0.359370
O O19 0.000000 0.499976 0.250000
#
# Coordination Sequence:
#
# PCOD8155371 Si02
#       8
#     4   4   4   4   4   4   4   4
#     4  10  19  30  48  74  95 121 161 200 242 288
#     4  10  19  33  52  74  97 129 167 202 233 275
#     4  10  18  30  49  72  97 123 156 206 243 275
#     4  10  19  33  51  73  98 130 168 204 234 276
#     4   9  17  30  47  70  91 113 149 197 240 280
#     4  10  18  29  48  77 101 121 155 204 247 276
#     4   9  17  30  49  67  87 115 154 193 230 279
#     4  10  19  31  48  69  97 126 153 196 248 293
#
# _framework density 26.248816999999999
#
# number of rings (size 3 to 8) (size 9 to 14) (size 15 to 20)
#    0.000    2.250    0.000    6.000    0.000    3.000 
#    0.000    0.000    0.000    6.000    0.000   91.000 
#    0.000    0.000    0.000    0.000    0.000    0.000 
#
# Total GULP energy -396831.407977 kJ/mol
# GULP energy per Si atom -12400.981499 kJ/mol
# Density = 2.618907 g / cm^3
# Si number density = 26.248817 Si / 1000 Ang^3
#
#
#
# Elastic Constant Matrix: (Units=GPa)
#
#
# Indices 1 2 3 4 5 6 
#
# 1 23.4780 24.3620 5.8593 0.0000 0.0000 0.0000
# 2 24.3620 253.9912 87.4263 0.0000 0.0000 0.0000
# 3 5.8593 87.4263 193.1299 0.0000 0.0000 0.0000
# 4 0.0000 0.0000 0.0000 53.1619 0.0000 0.0000
# 5 0.0000 0.0000 0.0000 0.0000 26.4876 0.0000
# 6 0.0000 0.0000 0.0000 0.0000 0.0000 18.2064
#
#
#
# Elastic Compliance Matrix: (Units=1/GPa)
#
#
# Indices 1 2 3 4 5 6 
#
# 1 0.047389 -0.004798 0.000734 0.000000 0.000000 0.000000
# 2 -0.004798 0.005150 -0.002186 0.000000 0.000000 0.000000
# 3 0.000734 -0.002186 0.006145 0.000000 0.000000 0.000000
# 4 0.000000 0.000000 0.000000 0.018810 0.000000 0.000000
# 5 0.000000 0.000000 0.000000 0.000000 0.037753 0.000000
# 6 0.000000 0.000000 0.000000 0.000000 0.000000 0.054926
#
#
# Mechanical properties :
#
#
# Convention : Reuss Voigt Hill
#
# Bulk Modulus (GPa) = 21.65230 78.43270 50.04250
# Shear Modulus (GPa) = 25.24405 43.10129 34.17267
#
# Velocity S-wave (km/s) = 3.10453 4.05659 3.61206
# Velocity P-wave (km/s) = 4.59539 7.20323 6.04169
#
# Compressibility (1/GPa) = 0.04618447
#
# Stress axis : x y z
#
# Youngs Moduli (GPa) = 21.10210 194.18728 162.73495
#
# Poissons Ratio (x) = 0.93173 -0.11950
# Poissons Ratio (y) = 0.10125 0.35567
# Poissons Ratio (z) = -0.01550 0.42441
#
# Static dielectric constant tensor:
#      x y z
#    x 4.602780 0.000000 0.000000 
#    y 0.000000 5.910470 0.000000 
#    z 0.000000 0.000000 4.635610 
# 
# 
# High freq. dielectric constant tensor:
#      x y z
#    x 2.048230 0.000000 0.000000 
#    y 0.000000 2.103800 0.000000 
#    z 0.000000 0.000000 2.043430 
# 
# From -- ./inp_files/8684.got.cif
#   From: 2010.03.12/outbox.cif.g09.slc.cpg/sg17_5_cif.got.tgz:8684.got - 2010.04.10 18:46:23.
