data_PCOD8155762
_publ_section_title
;
Structure prediction by ZEFSAII (Michael W. Deem and Ramdas Pophale) SiO2 
 PCOD8155762
Probable space group: P 2 2 21
;
_chemical_formula_sum "Si O2"
_cell_formula_units_Z 14
_cell_length_a 5.993832
_cell_length_b 11.965338
_cell_length_c 7.464108
_cell_angle_alpha 90.000000
_cell_angle_beta 90.000000
_cell_angle_gamma 90.000000
_cell_volume 535.312583
_symmetry_space_group_name_H-M "P 2 2 21"
_symmetry_group_IT_number 17
_symmetry_cell_setting 'orthorhombic'
loop_
_space_group_symop_operation_xyz
x,y,z
-x,-y,1/2+z
x,-y,-z
-x,y,1/2-z
loop_
_atom_site_type_symbol
_atom_site_label
_atom_site_fract_x
_atom_site_fract_y
_atom_site_fract_z
Si Si1 0.500000 0.381689 0.750000
Si Si2 0.688067 0.795559 0.517045
Si Si3 0.000000 0.676975 0.750000
Si Si4 0.000000 0.089583 0.750000
Si Si5 0.358074 0.000000 0.500000
Si Si6 0.826370 0.500000 0.000000
O O1 0.423081 0.306769 0.914659
O O2 0.309679 0.462627 0.675099
O O3 0.780678 0.753472 0.710141
O O4 0.908001 0.835730 0.410846
O O5 0.508881 0.892929 0.539335
O O6 0.027984 0.603877 0.569608
O O7 0.204724 0.015015 0.676457
#
# Coordination Sequence:
#
# PCOD8155762 Si02
#       6
#     2   4   2   2   2   2
#     4  12  24  52  78 116 162 210 272 334 402 464
#     4  12  27  51  80 121 163 210 267 329 399 488
#     4  12  28  50  84 120 160 214 273 329 412 464
#     4  12  26  52  74 114 166 212 265 321 394 478
#     4  12  28  52  78 116 168 208 268 330 390 496
#     4  12  26  52  80 116 160 210 274 342 390 474
#
# _framework density 26.152946
#
# number of rings (size 3 to 8) (size 9 to 14) (size 15 to 20)
#    0.000    0.000    2.857    6.000    0.000    6.857 
#    5.143    0.000    0.000    0.000    0.000    0.000 
#    0.000    0.000    0.000    0.000    0.000    0.000 
#
# Total GULP energy -173711.515017 kJ/mol
# GULP energy per Si atom -12407.965358 kJ/mol
# Density = 2.609342 g / cm^3
# Si number density = 26.152946 Si / 1000 Ang^3
#
#
#
# Elastic Constant Matrix: (Units=GPa)
#
#
# Indices 1 2 3 4 5 6 
#
# 1 124.7168 64.5725 32.9709 0.0000 0.0000 0.0000
# 2 64.5725 136.1205 42.0390 0.0000 0.0000 0.0000
# 3 32.9709 42.0390 97.9814 0.0000 0.0000 0.0000
# 4 0.0000 0.0000 0.0000 46.6291 0.0000 0.0000
# 5 0.0000 0.0000 0.0000 0.0000 69.1785 0.0000
# 6 0.0000 0.0000 0.0000 0.0000 0.0000 43.6933
#
#
#
# Elastic Compliance Matrix: (Units=1/GPa)
#
#
# Indices 1 2 3 4 5 6 
#
# 1 0.010859 -0.004637 -0.001664 0.000000 0.000000 0.000000
# 2 -0.004637 0.010449 -0.002923 0.000000 0.000000 0.000000
# 3 -0.001664 -0.002923 0.012020 0.000000 0.000000 0.000000
# 4 0.000000 0.000000 0.000000 0.021446 0.000000 0.000000
# 5 0.000000 0.000000 0.000000 0.000000 0.014455 0.000000
# 6 0.000000 0.000000 0.000000 0.000000 0.000000 0.022887
#
#
# Mechanical properties :
#
#
# Convention : Reuss Voigt Hill
#
# Bulk Modulus (GPa) = 67.20757 70.88706 69.04731
# Shear Modulus (GPa) = 43.28077 46.51593 44.89835
#
# Velocity S-wave (km/s) = 4.07247 4.22193 4.14788
# Velocity P-wave (km/s) = 6.91860 7.13652 7.02841
#
# Compressibility (1/GPa) = 0.01487928
#
# Stress axis : x y z
#
# Youngs Moduli (GPa) = 92.08809 95.70405 83.19407
#
# Poissons Ratio (x) = 0.44381 0.13848
# Poissons Ratio (y) = 0.42704 0.24315
# Poissons Ratio (z) = 0.15328 0.27971
#
# Static dielectric constant tensor:
#      x y z
#    x 4.887510 0.000000 0.000000 
#    y 0.000000 4.927070 0.000000 
#    z 0.000000 0.000000 4.619610 
# 
# 
# High freq. dielectric constant tensor:
#      x y z
#    x 2.058760 0.000000 0.000000 
#    y 0.000000 2.065350 0.000000 
#    z 0.000000 0.000000 2.053170 
# 
# From -- ./inp_files/3366.got.cif
#   From: 2010.03.12/outbox.cif.g09.slc.cpg/sg17_2_cif.got.tgz:3366.got - 2010.04.10 18:46:23.
