data_PCOD8155504
_publ_section_title
;
Structure prediction by ZEFSAII (Michael W. Deem and Ramdas Pophale) SiO2 
 PCOD8155504
Probable space group: P 2 2 21
;
_chemical_formula_sum "Si O2"
_cell_formula_units_Z 20
_cell_length_a 4.790905
_cell_length_b 12.792169
_cell_length_c 15.059963
_cell_angle_alpha 90.000000
_cell_angle_beta 90.000000
_cell_angle_gamma 90.000000
_cell_volume 922.965893
_symmetry_space_group_name_H-M "P 2 2 21"
_symmetry_group_IT_number 17
_symmetry_cell_setting 'orthorhombic'
loop_
_space_group_symop_operation_xyz
x,y,z
-x,-y,1/2+z
x,-y,-z
-x,y,1/2-z
loop_
_atom_site_type_symbol
_atom_site_label
_atom_site_fract_x
_atom_site_fract_y
_atom_site_fract_z
Si Si1 0.953263 0.130325 0.581327
Si Si2 0.456858 0.177639 0.466244
Si Si3 0.971442 0.655413 0.151588
Si Si4 0.749022 0.949495 0.809309
Si Si5 0.460057 0.391717 0.959978
O O1 0.659395 0.107633 0.530640
O O2 0.146524 0.172324 0.503127
O O3 0.919597 0.223939 0.652337
O O4 0.089142 0.030308 0.627395
O O5 0.426062 0.135942 0.365661
O O6 0.555680 0.299175 0.466028
O O7 0.653410 0.646774 0.120850
O O8 0.000000 0.609331 0.250000
O O9 0.157030 0.588497 0.082782
O O10 0.500000 0.003077 0.750000
O O11 0.000000 0.899540 0.750000
O O12 0.570109 0.500000 0.000000
#
# Coordination Sequence:
#
# PCOD8155504 Si02
#       5
#     4   4   4   4   4
#     4  10  21  38  60  83 115 156 195 238 291 350
#     4  10  22  40  60  83 116 159 200 236 286 355
#     4  10  20  36  60  89 114 140 189 251 295 330
#     4  12  24  37  57  88 124 159 196 241 289 347
#     4  10  21  39  62  85 115 154 194 236 290 352
#
# _framework density 21.669273
#
# number of rings (size 3 to 8) (size 9 to 14) (size 15 to 20)
#    0.000    1.600    0.000    4.800    0.000    4.800 
#    0.000    3.000    0.000    0.000    0.000    0.000 
#    0.000    0.000    0.000    0.000    0.000    0.000 
#
# Total GULP energy -247895.803557 kJ/mol
# GULP energy per Si atom -12394.790178 kJ/mol
# Density = 2.161995 g / cm^3
# Si number density = 21.669273 Si / 1000 Ang^3
#
#
#
# Elastic Constant Matrix: (Units=GPa)
#
#
# Indices 1 2 3 4 5 6 
#
# 1 102.4329 23.8145 31.3160 0.0000 0.0000 0.0000
# 2 23.8145 107.6241 55.6908 0.0000 0.0000 0.0000
# 3 31.3160 55.6908 93.7440 0.0000 0.0000 0.0000
# 4 0.0000 0.0000 0.0000 15.1716 0.0000 0.0000
# 5 0.0000 0.0000 0.0000 0.0000 38.8698 0.0000
# 6 0.0000 0.0000 0.0000 0.0000 0.0000 24.4554
#
#
#
# Elastic Compliance Matrix: (Units=1/GPa)
#
#
# Indices 1 2 3 4 5 6 
#
# 1 0.010916 -0.000763 -0.003193 0.000000 0.000000 0.000000
# 2 -0.000763 0.013469 -0.007747 0.000000 0.000000 0.000000
# 3 -0.003193 -0.007747 0.016336 0.000000 0.000000 0.000000
# 4 0.000000 0.000000 0.000000 0.065913 0.000000 0.000000
# 5 0.000000 0.000000 0.000000 0.000000 0.025727 0.000000
# 6 0.000000 0.000000 0.000000 0.000000 0.000000 0.040891
#
#
# Mechanical properties :
#
#
# Convention : Reuss Voigt Hill
#
# Bulk Modulus (GPa) = 57.75255 58.38263 58.06759
# Shear Modulus (GPa) = 24.69995 28.56469 26.63232
#
# Velocity S-wave (km/s) = 3.37984 3.63466 3.50956
# Velocity P-wave (km/s) = 6.47617 6.67948 6.57861
#
# Compressibility (1/GPa) = 0.01731525
#
# Stress axis : x y z
#
# Youngs Moduli (GPa) = 91.60735 74.24452 61.21378
#
# Poissons Ratio (x) = 0.05665 0.19548
# Poissons Ratio (y) = 0.06990 0.47420
# Poissons Ratio (z) = 0.29253 0.57515
#
# Static dielectric constant tensor:
#      x y z
#    x 4.169400 0.000000 0.000000 
#    y 0.000000 3.625360 0.000000 
#    z 0.000000 0.000000 3.879070 
# 
# 
# High freq. dielectric constant tensor:
#      x y z
#    x 1.877620 0.000000 0.000000 
#    y 0.000000 1.813950 0.000000 
#    z 0.000000 0.000000 1.839460 
# 
# From -- ./inp_files/5941.got.cif
#   From: 2010.03.12/outbox.cif.g09.slc.cpg/sg17_3_cif.got.tgz:5941.got - 2010.04.10 18:46:23.
