data_PCOD8155951
_publ_section_title
;
Structure prediction by ZEFSAII (Michael W. Deem and Ramdas Pophale) SiO2 
 PCOD8155951
Probable space group: P 21 21 2
;
_chemical_formula_sum "Si O2"
_cell_formula_units_Z 32
_cell_length_a 8.955051
_cell_length_b 29.004313
_cell_length_c 6.119610
_cell_angle_alpha 90.000000
_cell_angle_beta 90.000000
_cell_angle_gamma 90.000000
_cell_volume 1589.477528
_symmetry_space_group_name_H-M "P 21 21 2"
_symmetry_group_IT_number 18
_symmetry_cell_setting 'orthorhombic'
loop_
_space_group_symop_operation_xyz
x,y,z
-x,-y,z
1/2+x,1/2-y,-z
1/2-x,1/2+y,-z
loop_
_atom_site_type_symbol
_atom_site_label
_atom_site_fract_x
_atom_site_fract_y
_atom_site_fract_z
Si Si1 0.501269 0.218641 0.005460
Si Si2 0.834432 0.673620 0.380996
Si Si3 0.666120 0.073963 0.572839
Si Si4 0.831320 0.992415 0.807222
Si Si5 0.255655 0.249376 0.686085
Si Si6 0.353649 0.170901 0.386587
Si Si7 0.165639 0.573977 0.458775
Si Si8 0.158411 0.492348 0.793664
O O1 0.620704 0.188725 0.865358
O O2 0.402820 0.250458 0.841754
O O3 0.601313 0.248664 0.174285
O O4 0.376507 0.187784 0.135200
O O5 0.753483 0.623434 0.384995
O O6 0.727482 0.709459 0.508705
O O7 0.980649 0.669649 0.524891
O O8 0.495407 0.081788 0.651703
O O9 0.737333 0.035158 0.719929
O O10 0.672775 0.058538 0.316621
O O11 0.783626 0.941185 0.727689
O O12 0.803819 0.996011 0.065359
O O13 0.000000 0.000000 0.741071
O O14 0.250287 0.203480 0.536892
O O15 0.282870 0.119464 0.406048
O O16 0.154396 0.529049 0.603211
O O17 0.000000 0.500000 0.922351
#
# Coordination Sequence:
#
# PCOD8155951 Si02
#       8
#     4   4   4   4   4   4   4   4
#     4  10  20  36  59  84 115 153 188 234 295 343
#     4   9  19  35  58  84 111 143 190 242 284 336
#     4   9  19  37  59  80 102 138 189 237 271 317
#     4  11  22  35  52  79 115 147 174 219 284 344
#     4  10  20  36  56  85 118 149 189 237 286 346
#     4   9  19  35  57  84 111 144 192 241 283 334
#     4   9  19  37  59  80 102 138 190 237 271 315
#     4   9  18  33  56  80 103 138 183 227 272 327
#
# _framework density 20.132403
#
# number of rings (size 3 to 8) (size 9 to 14) (size 15 to 20)
#    0.000    2.500    0.000    2.625    0.000    9.000 
#    0.000    7.500    0.000    3.000    0.000    0.000 
#    0.000    0.000    0.000    0.000    0.000    0.000 
#
# Total GULP energy -396439.207403 kJ/mol
# GULP energy per Si atom -12388.725231 kJ/mol
# Density = 2.008658 g / cm^3
# Si number density = 20.132403 Si / 1000 Ang^3
#
#
#
# Elastic Constant Matrix: (Units=GPa)
#
#
# Indices 1 2 3 4 5 6 
#
# 1 50.9619 34.9686 28.9412 0.0000 0.0000 0.0000
# 2 34.9686 134.7319 36.4285 0.0000 0.0000 0.0000
# 3 28.9412 36.4285 86.5533 0.0000 0.0000 0.0000
# 4 0.0000 0.0000 0.0000 16.1220 0.0000 0.0000
# 5 0.0000 0.0000 0.0000 0.0000 27.8603 0.0000
# 6 0.0000 0.0000 0.0000 0.0000 0.0000 23.4840
#
#
#
# Elastic Compliance Matrix: (Units=1/GPa)
#
#
# Indices 1 2 3 4 5 6 
#
# 1 0.027074 -0.005167 -0.006878 0.000000 0.000000 0.000000
# 2 -0.005167 0.009361 -0.002212 0.000000 0.000000 0.000000
# 3 -0.006878 -0.002212 0.014785 0.000000 0.000000 0.000000
# 4 0.000000 0.000000 0.000000 0.062027 0.000000 0.000000
# 5 0.000000 0.000000 0.000000 0.000000 0.035893 0.000000
# 6 0.000000 0.000000 0.000000 0.000000 0.000000 0.042582
#
#
# Mechanical properties :
#
#
# Convention : Reuss Voigt Hill
#
# Bulk Modulus (GPa) = 44.04325 52.54707 48.29516
# Shear Modulus (GPa) = 21.94847 24.95384 23.45115
#
# Velocity S-wave (km/s) = 3.30541 3.52445 3.41669
# Velocity P-wave (km/s) = 6.04085 6.53604 6.29332
#
# Compressibility (1/GPa) = 0.02270496
#
# Stress axis : x y z
#
# Youngs Moduli (GPa) = 36.93555 106.82171 67.63829
#
# Poissons Ratio (x) = 0.55197 0.46523
# Poissons Ratio (y) = 0.19085 0.14963
# Poissons Ratio (z) = 0.25405 0.23631
#
# Static dielectric constant tensor:
#      x y z
#    x 3.562560 0.000000 0.000000 
#    y 0.000000 4.156180 0.000000 
#    z 0.000000 0.000000 3.842420 
# 
# 
# High freq. dielectric constant tensor:
#      x y z
#    x 1.750600 0.000000 0.000000 
#    y 0.000000 1.785560 0.000000 
#    z 0.000000 0.000000 1.786430 
# 
# From -- ./inp_files/773.got.cif
#   From: 2010.03.12/outbox.cif.g09.slc.cpg/sg18_1_cif.got.tgz:773.got - 2010.04.10 18:53:55.
