data_PCOD8155989
_publ_section_title
;
Structure prediction by ZEFSAII (Michael W. Deem and Ramdas Pophale) SiO2 
 PCOD8155989
Probable space group: P 21 21 2
;
_chemical_formula_sum "Si O2"
_cell_formula_units_Z 32
_cell_length_a 14.716289
_cell_length_b 12.406039
_cell_length_c 8.715013
_cell_angle_alpha 90.000000
_cell_angle_beta 90.000000
_cell_angle_gamma 90.000000
_cell_volume 1591.107377
_symmetry_space_group_name_H-M "P 21 21 2"
_symmetry_group_IT_number 18
_symmetry_cell_setting 'orthorhombic'
loop_
_space_group_symop_operation_xyz
x,y,z
-x,-y,z
1/2+x,1/2-y,-z
1/2-x,1/2+y,-z
loop_
_atom_site_type_symbol
_atom_site_label
_atom_site_fract_x
_atom_site_fract_y
_atom_site_fract_z
Si Si1 0.649646 0.179461 0.315472
Si Si2 0.545551 0.745024 0.389076
Si Si3 0.336310 0.322777 0.112812
Si Si4 0.332336 0.396312 0.572780
Si Si5 0.705287 0.324225 0.057229
Si Si6 0.098352 0.526227 0.533221
Si Si7 0.895336 0.002909 0.125112
Si Si8 0.747314 0.004752 0.702550
O O1 0.564258 0.243194 0.393579
O O2 0.746245 0.187728 0.407941
O O3 0.658647 0.219772 0.138983
O O4 0.627031 0.051754 0.324740
O O5 0.579995 0.699680 0.226729
O O6 0.576294 0.670456 0.532592
O O7 0.603447 0.854016 0.403608
O O8 0.253615 0.386813 0.195143
O O9 0.293610 0.215275 0.037235
O O10 0.381150 0.398870 0.988428
O O11 0.339632 0.469440 0.722740
O O12 0.319409 0.482406 0.435811
O O13 0.733228 0.399094 0.199070
O O14 0.637733 0.388518 0.944545
O O15 0.150380 0.506323 0.374899
O O16 0.000000 0.500000 0.473126
O O17 0.000000 0.000000 0.168450
#
# Coordination Sequence:
#
# PCOD8155989 Si02
#       8
#     4   4   4   4   4   4   4   4
#     4  10  20  38  62  90 124 163 210 256 318 388
#     4  10  21  38  64  89 122 167 205 259 321 380
#     4  10  22  39  60  91 121 166 217 251 319 397
#     4  10  21  41  62  94 125 158 221 262 316 390
#     4  11  22  39  64  84 124 176 200 262 323 372
#     4   9  19  35  57  91 119 151 204 261 306 369
#     4  11  24  42  59  92 132 162 217 274 314 383
#     4   9  21  38  60  84 121 160 201 260 313 370
#
# _framework density 20.111778999999999
#
# number of rings (size 3 to 8) (size 9 to 14) (size 15 to 20)
#    0.000    2.000    1.250    1.500    3.500    1.000 
#    9.000    2.500    0.000    0.000    0.000    0.000 
#    0.000    0.000    0.000    0.000    0.000    0.000 
#
# Total GULP energy -396519.455492 kJ/mol
# GULP energy per Si atom -12391.232984 kJ/mol
# Density = 2.006600 g / cm^3
# Si number density = 20.111779 Si / 1000 Ang^3
#
#
#
# Elastic Constant Matrix: (Units=GPa)
#
#
# Indices 1 2 3 4 5 6 
#
# 1 103.8407 23.4472 37.8964 0.0000 0.0000 0.0000
# 2 23.4472 75.4155 50.1685 0.0000 0.0000 0.0000
# 3 37.8964 50.1685 116.7632 0.0000 0.0000 0.0000
# 4 0.0000 0.0000 0.0000 41.0657 0.0000 0.0000
# 5 0.0000 0.0000 0.0000 0.0000 25.4596 0.0000
# 6 0.0000 0.0000 0.0000 0.0000 0.0000 25.6057
#
#
#
# Elastic Compliance Matrix: (Units=1/GPa)
#
#
# Indices 1 2 3 4 5 6 
#
# 1 0.011039 -0.001468 -0.002952 0.000000 0.000000 0.000000
# 2 -0.001468 0.018762 -0.007585 0.000000 0.000000 0.000000
# 3 -0.002952 -0.007585 0.012781 0.000000 0.000000 0.000000
# 4 0.000000 0.000000 0.000000 0.024351 0.000000 0.000000
# 5 0.000000 0.000000 0.000000 0.000000 0.039278 0.000000
# 6 0.000000 0.000000 0.000000 0.000000 0.000000 0.039054
#
#
# Mechanical properties :
#
#
# Convention : Reuss Voigt Hill
#
# Bulk Modulus (GPa) = 53.84386 57.67153 55.75769
# Shear Modulus (GPa) = 28.49559 30.72670 29.61114
#
# Velocity S-wave (km/s) = 3.76820 3.91294 3.84126
# Velocity P-wave (km/s) = 6.76483 7.01089 6.88896
#
# Compressibility (1/GPa) = 0.01857222
#
# Stress axis : x y z
#
# Youngs Moduli (GPa) = 90.58803 53.29934 78.23981
#
# Poissons Ratio (x) = 0.07827 0.23095
# Poissons Ratio (y) = 0.13302 0.59342
# Poissons Ratio (z) = 0.26740 0.40426
#
# Static dielectric constant tensor:
#      x y z
#    x 3.717030 0.000000 0.000000 
#    y 0.000000 3.848320 0.000000 
#    z 0.000000 0.000000 3.688140 
# 
# 
# High freq. dielectric constant tensor:
#      x y z
#    x 1.781740 0.000000 0.000000 
#    y 0.000000 1.787190 0.000000 
#    z 0.000000 0.000000 1.782460 
# 
# From -- ./inp_files/3931.got.cif
#   From: 2010.03.12/outbox.cif.g09.slc.cpg/sg18_2_cif.got.tgz:3931.got - 2010.04.10 18:53:55.
