data_PCOD8155936
_publ_section_title
;
Structure prediction by ZEFSAII (Michael W. Deem and Ramdas Pophale) SiO2 
 PCOD8155936
Probable space group: P 21 21 2
;
_chemical_formula_sum "Si O2"
_cell_formula_units_Z 28
_cell_length_a 9.160055
_cell_length_b 18.328680
_cell_length_c 8.917127
_cell_angle_alpha 90.000000
_cell_angle_beta 90.000000
_cell_angle_gamma 90.000000
_cell_volume 1497.111762
_symmetry_space_group_name_H-M "P 21 21 2"
_symmetry_group_IT_number 18
_symmetry_cell_setting 'orthorhombic'
loop_
_space_group_symop_operation_xyz
x,y,z
-x,-y,z
1/2+x,1/2-y,-z
1/2-x,1/2+y,-z
loop_
_atom_site_type_symbol
_atom_site_label
_atom_site_fract_x
_atom_site_fract_y
_atom_site_fract_z
Si Si1 0.900001 0.737201 0.830760
Si Si2 0.890382 0.402274 0.846957
Si Si3 0.354921 0.296752 0.343476
Si Si4 0.601767 0.102415 0.654136
Si Si5 0.000000 0.500000 0.600504
Si Si6 0.647224 0.296218 0.847319
Si Si7 0.097371 0.744929 0.330206
Si Si8 0.000000 0.500000 0.102263
O O1 0.765884 0.748243 0.716813
O O2 0.982455 0.658786 0.820238
O O3 0.015355 0.799515 0.779389
O O4 0.847187 0.749518 0.999949
O O5 0.726340 0.372920 0.870204
O O6 0.885689 0.457987 0.707690
O O7 0.910539 0.444349 0.001375
O O8 0.269538 0.372312 0.358834
O O9 0.233387 0.240661 0.288653
O O10 0.422470 0.270549 0.500012
O O11 0.476271 0.164201 0.682831
O O12 0.606357 0.046723 0.792291
O O13 0.577300 0.060878 0.498915
O O14 0.482481 0.300893 0.785330
#
# Coordination Sequence:
#
# PCOD8155936 Si02
#       8
#     4   4   4   4   2   4   4   2
#     4  11  20  34  59  86 112 140 178 239 289 327
#     4  10  20  36  55  82 107 144 189 220 277 329
#     4  10  20  34  54  82 111 138 180 233 278 324
#     4  10  20  36  55  82 107 144 189 220 277 329
#     4  10  20  34  58  76 110 152 186 224 256 344
#     4  10  20  34  54  82 111 138 180 233 278 324
#     4  11  20  34  59  86 112 140 178 239 289 327
#     4  10  20  34  58  76 110 152 186 224 256 344
#
# _framework density 18.702679
#
# number of rings (size 3 to 8) (size 9 to 14) (size 15 to 20)
#    0.000    1.714    0.000    8.571    0.000    0.000 
#    0.000    0.000    0.000   29.143    0.000    0.000 
#    0.000    0.000    0.000    0.000    0.000    0.000 
#
# Total GULP energy -346965.384319 kJ/mol
# GULP energy per Si atom -12391.620869 kJ/mol
# Density = 1.866011 g / cm^3
# Si number density = 18.702679 Si / 1000 Ang^3
#
#
#
# Elastic Constant Matrix: (Units=GPa)
#
#
# Indices 1 2 3 4 5 6 
#
# 1 92.6125 48.1929 24.9126 0.0000 0.0000 0.0000
# 2 48.1929 94.1894 44.4050 0.0000 0.0000 0.0000
# 3 24.9126 44.4050 120.0671 0.0000 0.0000 0.0000
# 4 0.0000 0.0000 0.0000 -1.4110 0.0000 0.0000
# 5 0.0000 0.0000 0.0000 0.0000 26.9672 0.0000
# 6 0.0000 0.0000 0.0000 0.0000 0.0000 26.3041
#
#
#
# Elastic Compliance Matrix: (Units=1/GPa)
#
#
# Indices 1 2 3 4 5 6 
#
# 1 0.014726 -0.007381 -0.000326 0.000000 0.000000 0.000000
# 2 -0.007381 0.016559 -0.004592 0.000000 0.000000 0.000000
# 3 -0.000326 -0.004592 0.010095 0.000000 0.000000 0.000000
# 4 0.000000 0.000000 0.000000 -0.708712 0.000000 0.000000
# 5 0.000000 0.000000 0.000000 0.000000 0.037082 0.000000
# 6 0.000000 0.000000 0.000000 0.000000 0.000000 0.038017
#
#
# Mechanical properties :
#
#
# Convention : Reuss Voigt Hill
#
# Bulk Modulus (GPa) = 59.59182 60.21002 59.90092
# Shear Modulus (GPa) = -8.89615 22.99595 7.04990
#
# Velocity S-wave (km/s) = -2.18333 3.51030 1.94362
# Velocity P-wave (km/s) = 5.05727 6.97802 6.09380
#
# Compressibility (1/GPa) = 0.01678083
#
# Stress axis : x y z
#
# Youngs Moduli (GPa) = 67.90561 60.39116 99.06192
#
# Poissons Ratio (x) = 0.44577 0.03226
# Poissons Ratio (y) = 0.50123 0.45494
# Poissons Ratio (z) = 0.02212 0.27734
#
# Static dielectric constant tensor:
#      x y z
#    x 3.653440 0.000000 0.000000 
#    y 0.000000 3.619190 0.000000 
#    z 0.000000 0.000000 3.602940 
# 
# 
# High freq. dielectric constant tensor:
#      x y z
#    x 1.715000 0.000000 0.000000 
#    y 0.000000 1.707840 0.000000 
#    z 0.000000 0.000000 1.753730 
# 
# From -- ./inp_files/3402.got.cif
#   From: 2010.03.12/outbox.cif.g09.slc.cpg/sg18_2_cif.got.tgz:3402.got - 2010.04.10 18:53:55.
