data_PCOD8155502
_publ_section_title
;
Structure prediction by ZEFSAII (Michael W. Deem and Ramdas Pophale) SiO2 
 PCOD8155502
Probable space group: P 2 2 21
;
_chemical_formula_sum "Si O2"
_cell_formula_units_Z 32
_cell_length_a 6.659786
_cell_length_b 17.807522
_cell_length_c 14.153049
_cell_angle_alpha 90.000000
_cell_angle_beta 90.000000
_cell_angle_gamma 90.000000
_cell_volume 1678.470737
_symmetry_space_group_name_H-M "P 2 2 21"
_symmetry_group_IT_number 17
_symmetry_cell_setting 'orthorhombic'
loop_
_space_group_symop_operation_xyz
x,y,z
-x,-y,1/2+z
x,-y,-z
-x,y,1/2-z
loop_
_atom_site_type_symbol
_atom_site_label
_atom_site_fract_x
_atom_site_fract_y
_atom_site_fract_z
Si Si1 0.513107 0.092090 0.856567
Si Si2 0.607359 0.581263 0.648508
Si Si3 0.169920 0.084095 0.999373
Si Si4 0.224225 0.829585 0.505551
Si Si5 0.664015 0.658486 0.979722
Si Si6 0.612751 0.559746 0.152766
Si Si7 0.037157 0.537731 0.598595
Si Si8 0.519147 0.079953 0.143580
O O1 0.500000 0.121549 0.750000
O O2 0.589964 0.006422 0.861072
O O3 0.295545 0.097104 0.904054
O O4 0.671265 0.144356 0.909326
O O5 0.500000 0.591683 0.750000
O O6 0.544891 0.650574 0.579895
O O7 0.522312 0.504128 0.602228
O O8 0.847416 0.571050 0.656602
O O9 0.309596 0.092903 0.090883
O O10 0.009009 0.150146 0.000388
O O11 0.074562 0.000000 0.000000
O O12 0.253990 0.741937 0.518900
O O13 0.307975 0.871685 0.596579
O O14 0.825610 0.608644 0.925399
O O15 0.624677 0.632971 0.087397
O O16 0.500000 0.582683 0.250000
O O17 0.837408 0.522742 0.162775
O O18 0.967114 0.500000 0.500000
O O19 0.500000 0.108374 0.250000
#
# Coordination Sequence:
#
# PCOD8155502 Si02
#       8
#     4   4   4   4   4   4   4   4
#     4   9  19  36  58  80 104 139 185 234 276 319
#     4  10  20  36  60  81 103 138 184 231 270 314
#     4   9  18  34  56  80 106 140 182 229 278 324
#     4  11  21  34  53  79 113 148 181 220 269 329
#     4  10  22  35  51  80 113 146 178 215 272 331
#     4   9  19  35  57  82 105 135 180 226 269 316
#     4   9  18  36  58  80 108 142 180 225 273 322
#     4   9  19  36  56  80 107 139 186 233 273 320
#
# _framework density 19.064972999999998
#
# number of rings (size 3 to 8) (size 9 to 14) (size 15 to 20)
#    0.000    2.500    0.000    3.750    0.000    8.500 
#    0.000    5.000    0.000    7.500    0.000    0.000 
#    0.000    0.000    0.000    0.000    0.000    0.000 
#
# Total GULP energy -396646.855612 kJ/mol
# GULP energy per Si atom -12395.214238 kJ/mol
# Density = 1.902158 g / cm^3
# Si number density = 19.064973 Si / 1000 Ang^3
#
#
#
# Elastic Constant Matrix: (Units=GPa)
#
#
# Indices 1 2 3 4 5 6 
#
# 1 105.3183 28.5133 44.5092 0.0000 0.0000 0.0000
# 2 28.5133 79.1675 29.5314 0.0000 0.0000 0.0000
# 3 44.5092 29.5314 123.9643 0.0000 0.0000 0.0000
# 4 0.0000 0.0000 0.0000 18.4925 0.0000 0.0000
# 5 0.0000 0.0000 0.0000 0.0000 19.9641 0.0000
# 6 0.0000 0.0000 0.0000 0.0000 0.0000 11.7603
#
#
#
# Elastic Compliance Matrix: (Units=1/GPa)
#
#
# Indices 1 2 3 4 5 6 
#
# 1 0.011780 -0.002925 -0.003533 0.000000 0.000000 0.000000
# 2 -0.002925 0.014590 -0.002425 0.000000 0.000000 0.000000
# 3 -0.003533 -0.002425 0.009913 0.000000 0.000000 0.000000
# 4 0.000000 0.000000 0.000000 0.054076 0.000000 0.000000
# 5 0.000000 0.000000 0.000000 0.000000 0.050090 0.000000
# 6 0.000000 0.000000 0.000000 0.000000 0.000000 0.085032
#
#
# Mechanical properties :
#
#
# Convention : Reuss Voigt Hill
#
# Bulk Modulus (GPa) = 54.00615 57.06198 55.53407
# Shear Modulus (GPa) = 20.04665 23.76981 21.90823
#
# Velocity S-wave (km/s) = 3.24619 3.53481 3.39357
# Velocity P-wave (km/s) = 6.51454 6.83045 6.67436
#
# Compressibility (1/GPa) = 0.01851641
#
# Stress axis : x y z
#
# Youngs Moduli (GPa) = 84.89033 68.54187 100.87684
#
# Poissons Ratio (x) = 0.20048 0.35638
# Poissons Ratio (y) = 0.24829 0.24467
# Poissons Ratio (z) = 0.29990 0.16624
#
# Static dielectric constant tensor:
#      x y z
#    x 3.451450 0.000000 0.000000 
#    y 0.000000 3.270730 0.000000 
#    z 0.000000 0.000000 3.564620 
# 
# 
# High freq. dielectric constant tensor:
#      x y z
#    x 1.738730 0.000000 0.000000 
#    y 0.000000 1.715260 0.000000 
#    z 0.000000 0.000000 1.747690 
# 
# From -- ./inp_files/7831.got.cif
#   From: 2010.03.12/outbox.cif.g09.slc.cpg/sg17_4_cif.got.tgz:7831.got - 2010.04.10 18:46:23.
