data_PCOD8155041
_publ_section_title
;
Structure prediction by ZEFSAII (Michael W. Deem and Ramdas Pophale) SiO2 
 PCOD8155041
Probable space group: C 2/C
;
_chemical_formula_sum "Si O2"
_cell_formula_units_Z 52
_cell_length_a 9.642537
_cell_length_b 16.379209
_cell_length_c 20.588647
_cell_angle_alpha 90.000000
_cell_angle_beta 136.294406
_cell_angle_gamma 90.000000
_cell_volume 2246.779998
_symmetry_space_group_name_H-M "C 2/C"
_symmetry_group_IT_number 15
_symmetry_cell_setting 'monoclinic'
loop_
_space_group_symop_operation_xyz
x,y,z
-x,y,1/2-z
-x,-y,-z
x,-y,1/2+z
1/2+x,1/2+y,z
1/2-x,1/2+y,1/2-z
1/2-x,1/2-y,-z
1/2+x,1/2-y,1/2+z
loop_
_atom_site_type_symbol
_atom_site_label
_atom_site_fract_x
_atom_site_fract_y
_atom_site_fract_z
Si Si1 0.809670 0.934050 0.142855
Si Si2 0.819463 0.730916 0.952481
Si Si3 0.195861 0.602681 0.353666
Si Si4 0.237074 0.224437 0.420345
Si Si5 0.956574 0.544361 0.619893
Si Si6 0.500000 0.155099 0.750000
Si Si7 0.587382 0.569350 0.418111
O O1 0.815499 0.838260 0.127043
O O2 0.607798 0.961078 0.111156
O O3 0.000000 0.956104 0.250000
O O4 0.829237 0.985952 0.084028
O O5 0.812698 0.815933 0.912482
O O6 0.750000 0.750000 0.000000
O O7 0.044391 0.696882 0.029054
O O8 0.113410 0.546221 0.383427
O O9 0.361463 0.553509 0.367410
O O10 0.000000 0.632123 0.250000
O O11 0.250000 0.250000 0.500000
O O12 0.165224 0.289437 0.341717
O O13 0.090231 0.145177 0.368164
O O14 0.072850 0.593574 0.717199
O O15 0.750023 0.591010 0.530008
#
# Coordination Sequence:
#
# PCOD8155041 Si02
#       7
#     8   8   8   8   8   4   8
#     4  12  28  48  75 113 156 198 255 315 384 462
#     4  12  27  47  74 108 152 197 248 315 383 444
#     4  12  26  46  74 109 144 190 252 310 376 455
#     4  12  25  50  75 111 150 205 257 314 380 454
#     4  12  25  48  75 108 150 199 253 308 384 455
#     4  12  26  44  80 108 150 200 258 308 374 464
#     4  12  26  49  76 105 154 202 252 315 386 452
#
# _framework density 23.144231999999999
#
# number of rings (size 3 to 8) (size 9 to 14) (size 15 to 20)
#    0.000    0.000    5.385    3.231    5.385    1.231 
#    0.000    0.000    0.000    0.000    0.000    0.000 
#    0.000    0.000    0.000    0.000    0.000    0.000 
#
# Total GULP energy -322316.708164 kJ/mol
# GULP energy per Si atom -12396.796468 kJ/mol
# Density = 2.309155 g / cm^3
# Si number density = 23.144232 Si / 1000 Ang^3
#
#
#
# Elastic Constant Matrix: (Units=GPa)
#
#
# Indices 1 2 3 4 5 6 
#
# 1 151.6501 40.8048 38.0831 0.0000 6.4805 0.0000
# 2 40.8048 137.4388 19.5175 0.0000 -7.3398 0.0000
# 3 38.0831 19.5175 108.3164 0.0000 4.4755 0.0000
# 4 0.0000 0.0000 0.0000 20.9797 0.0000 7.1091
# 5 6.4805 -7.3398 4.4755 0.0000 36.3689 0.0000
# 6 0.0000 0.0000 0.0000 7.1091 0.0000 27.7922
#
#
#
# Elastic Compliance Matrix: (Units=1/GPa)
#
#
# Indices 1 2 3 4 5 6 
#
# 1 0.007794 -0.002068 -0.002305 0.000000 -0.001523 0.000000
# 2 -0.002068 0.008119 -0.000823 0.000000 0.002108 0.000000
# 3 -0.002305 -0.000823 0.010233 0.000000 -0.001015 0.000000
# 4 0.000000 0.000000 0.000000 0.052189 0.000000 -0.013350
# 5 -0.001523 0.002108 -0.001015 0.000000 0.028318 0.000000
# 6 0.000000 0.000000 0.000000 -0.013350 0.000000 0.039396
#
#
# Mechanical properties :
#
#
# Convention : Reuss Voigt Hill
#
# Bulk Modulus (GPa) = 63.47333 66.02400 64.74867
# Shear Modulus (GPa) = 30.92277 36.96148 33.94213
#
# Velocity S-wave (km/s) = 3.65922 4.00059 3.83371
# Velocity P-wave (km/s) = 6.73334 7.06603 6.90169
#
# Compressibility (1/GPa) = 0.01575465
#
# Stress axis : x y z
#
# Youngs Moduli (GPa) = 128.29579 123.16088 97.72479
#
# Poissons Ratio (x) = 0.25471 0.22525
# Poissons Ratio (y) = 0.26533 0.08043
# Poissons Ratio (z) = 0.29571 0.10136
#
# Static dielectric constant tensor:
#      x y z
#    x 4.142510 0.000000 -0.204340 
#    y 0.000000 4.394610 0.000000 
#    z -0.204340 0.000000 4.121060 
# 
# 
# High freq. dielectric constant tensor:
#      x y z
#    x 1.915330 0.000000 -0.000290 
#    y 0.000000 1.931440 0.000000 
#    z -0.000290 0.000000 1.913860 
# 
# From -- ./inp_files/233123.got.cif
#   From: 2010.06.25/outbox.cif.g09.slc.cpg/sg15_117_cif.got.tgz:233123.got - 2010.06.28 07:06:18.
