data_PCOD8155422
_publ_section_title
;
Structure prediction by ZEFSAII (Michael W. Deem and Ramdas Pophale) SiO2 
 PCOD8155422
Probable space group: P 2 2 21
;
_chemical_formula_sum "Si O2"
_cell_formula_units_Z 22
_cell_length_a 5.603768
_cell_length_b 12.043817
_cell_length_c 15.097183
_cell_angle_alpha 90.000000
_cell_angle_beta 90.000000
_cell_angle_gamma 90.000000
_cell_volume 1018.920299
_symmetry_space_group_name_H-M "P 2 2 21"
_symmetry_group_IT_number 17
_symmetry_cell_setting 'orthorhombic'
loop_
_space_group_symop_operation_xyz
x,y,z
-x,-y,1/2+z
x,-y,-z
-x,y,1/2-z
loop_
_atom_site_type_symbol
_atom_site_label
_atom_site_fract_x
_atom_site_fract_y
_atom_site_fract_z
Si Si1 0.707951 0.034084 0.397727
Si Si2 0.335467 0.197940 0.831641
Si Si3 0.358162 0.306373 0.531572
Si Si4 0.983172 0.598374 0.347246
Si Si5 0.201793 0.895336 0.566787
Si Si6 0.667925 0.500000 0.500000
O O1 0.453612 0.097081 0.377938
O O2 0.953321 0.102437 0.377263
O O3 0.709265 0.000000 0.500000
O O4 0.736069 0.930455 0.330905
O O5 0.500000 0.230753 0.750000
O O6 0.471616 0.216232 0.923563
O O7 0.107804 0.276787 0.830084
O O8 0.181315 0.228580 0.475519
O O9 0.510958 0.392551 0.472881
O O10 0.235846 0.385254 0.605204
O O11 0.820025 0.525159 0.411969
O O12 0.000000 0.539784 0.250000
O O13 0.197354 0.000000 0.500000
#
# Coordination Sequence:
#
# PCOD8155422 Si02
#       6
#     4   4   4   4   4   2
#     4  10  19  33  53  90 124 168 204 242 322 397
#     4  11  21  34  58  98 134 163 206 279 347 402
#     4  11  21  40  58  94 133 167 225 277 342 408
#     4  11  22  39  65  95 133 172 222 292 361 405
#     4  10  19  33  59  87 125 169 209 253 316 402
#     4  10  26  38  62 100 132 176 230 300 342 422
#
# _framework density 21.591483
#
# number of rings (size 3 to 8) (size 9 to 14) (size 15 to 20)
#    0.000    1.455    5.455    2.727    2.545    0.000 
#    0.000    0.000    0.000    0.000    9.455    0.000 
#    0.000    0.000    0.000    0.000    0.000    0.000 
#
# Total GULP energy -272557.512808 kJ/mol
# GULP energy per Si atom -12388.977855 kJ/mol
# Density = 2.154234 g / cm^3
# Si number density = 21.591483 Si / 1000 Ang^3
#
#
#
# Elastic Constant Matrix: (Units=GPa)
#
#
# Indices 1 2 3 4 5 6 
#
# 1 154.3085 35.7258 29.2834 0.0000 0.0000 0.0000
# 2 35.7258 92.1399 42.9445 0.0000 0.0000 0.0000
# 3 29.2834 42.9445 67.3290 0.0000 0.0000 0.0000
# 4 0.0000 0.0000 0.0000 27.0406 0.0000 0.0000
# 5 0.0000 0.0000 0.0000 0.0000 23.5672 0.0000
# 6 0.0000 0.0000 0.0000 0.0000 0.0000-2489.8042
#
#
#
# Elastic Compliance Matrix: (Units=1/GPa)
#
#
# Indices 1 2 3 4 5 6 
#
# 1 0.007295 -0.001921 -0.001948 0.000000 0.000000 0.000000
# 2 -0.001921 0.015950 -0.009338 0.000000 0.000000 0.000000
# 3 -0.001948 -0.009338 0.021656 0.000000 0.000000 0.000000
# 4 0.000000 0.000000 0.000000 0.036981 0.000000 0.000000
# 5 0.000000 0.000000 0.000000 0.000000 0.042432 0.000000
# 6 0.000000 0.000000 0.000000 0.000000 0.000000 -0.000402
#
#
# Mechanical properties :
#
#
# Convention : Reuss Voigt Hill
#
# Bulk Modulus (GPa) = 54.09009 58.85389 56.47199
# Shear Modulus (GPa) = 31.95142 -474.11770 -221.08314
#
# Velocity S-wave (km/s) = 3.85101 -14.83449 -10.12995
# Velocity P-wave (km/s) = 6.69923 16.31255 10.51712
#
# Compressibility (1/GPa) = 0.01848767
#
# Stress axis : x y z
#
# Youngs Moduli (GPa) = 137.08365 62.69568 46.17734
#
# Poissons Ratio (x) = 0.12042 0.08994
# Poissons Ratio (y) = 0.26330 0.43121
# Poissons Ratio (z) = 0.26699 0.58546
#
# Static dielectric constant tensor:
#      x y z
#    x 4.662680 0.000000 0.000000 
#    y 0.000000 3.690470 0.000000 
#    z 0.000000 0.000000 13.630900 
# 
# 
# High freq. dielectric constant tensor:
#      x y z
#    x 1.872290 0.000000 0.000000 
#    y 0.000000 1.825010 0.000000 
#    z 0.000000 0.000000 1.800630 
# 
# From -- ./inp_files/7660.got.cif
#   From: 2010.03.12/outbox.cif.g09.slc.cpg/sg17_4_cif.got.tgz:7660.got - 2010.04.10 18:46:23.
