data_PCOD8155900
_publ_section_title
;
Structure prediction by ZEFSAII (Michael W. Deem and Ramdas Pophale) SiO2 
 PCOD8155900
Probable space group: P 21 21 2
;
_chemical_formula_sum "Si O2"
_cell_formula_units_Z 18
_cell_length_a 14.413817
_cell_length_b 6.545858
_cell_length_c 8.640503
_cell_angle_alpha 90.000000
_cell_angle_beta 90.000000
_cell_angle_gamma 90.000000
_cell_volume 815.238365
_symmetry_space_group_name_H-M "P 21 21 2"
_symmetry_group_IT_number 18
_symmetry_cell_setting 'orthorhombic'
loop_
_space_group_symop_operation_xyz
x,y,z
-x,-y,z
1/2+x,1/2-y,-z
1/2-x,1/2+y,-z
loop_
_atom_site_type_symbol
_atom_site_label
_atom_site_fract_x
_atom_site_fract_y
_atom_site_fract_z
Si Si1 0.331035 0.377668 0.658031
Si Si2 0.316602 0.545490 0.326122
Si Si3 0.381557 0.777881 0.069816
Si Si4 0.000000 0.000000 0.144002
Si Si5 0.287653 0.158108 0.127174
O O1 0.353921 0.460474 0.487178
O O2 0.426610 0.377208 0.752502
O O3 0.261664 0.534915 0.736746
O O4 0.284934 0.151723 0.650236
O O5 0.389886 0.706055 0.249952
O O6 0.318924 0.369862 0.197563
O O7 0.377705 0.026851 0.066646
O O8 0.458533 0.682057 0.959809
O O9 0.278403 0.702719 0.018230
#
# Coordination Sequence:
#
# PCOD8155900 Si02
#       5
#     4   4   4   2   4
#     4  10  22  39  66  96 133 171 222 280 331 396
#     4  11  20  38  69  95 125 178 229 264 319 414
#     4  10  21  37  65  92 131 169 217 273 328 399
#     4  10  24  44  62 100 142 166 216 296 350 376
#     4  10  19  37  64  95 123 171 226 260 317 402
#
# _framework density 22.079433999999999
#
# number of rings (size 3 to 8) (size 9 to 14) (size 15 to 20)
#    0.000    1.778    4.444    0.000    0.000    0.889 
#    0.000   10.000    0.000    5.333    0.000    0.000 
#    0.000    0.000    0.000    0.000    0.000    0.000 
#
# Total GULP energy -223066.756614 kJ/mol
# GULP energy per Si atom -12392.597590 kJ/mol
# Density = 2.202918 g / cm^3
# Si number density = 22.079434 Si / 1000 Ang^3
#
#
#
# Elastic Constant Matrix: (Units=GPa)
#
#
# Indices 1 2 3 4 5 6 
#
# 1 70.3174 24.6296 29.0193 0.0000 0.0000 0.0000
# 2 24.6296 108.6545 34.6263 0.0000 0.0000 0.0000
# 3 29.0193 34.6263 125.9321 0.0000 0.0000 0.0000
# 4 0.0000 0.0000 0.0000 35.1339 0.0000 0.0000
# 5 0.0000 0.0000 0.0000 0.0000 25.4958 0.0000
# 6 0.0000 0.0000 0.0000 0.0000 0.0000 31.2744
#
#
#
# Elastic Compliance Matrix: (Units=1/GPa)
#
#
# Indices 1 2 3 4 5 6 
#
# 1 0.016438 -0.002761 -0.003029 0.000000 0.000000 0.000000
# 2 -0.002761 0.010551 -0.002265 0.000000 0.000000 0.000000
# 3 -0.003029 -0.002265 0.009261 0.000000 0.000000 0.000000
# 4 0.000000 0.000000 0.000000 0.028463 0.000000 0.000000
# 5 0.000000 0.000000 0.000000 0.000000 0.039222 0.000000
# 6 0.000000 0.000000 0.000000 0.000000 0.000000 0.031975
#
#
# Mechanical properties :
#
#
# Convention : Reuss Voigt Hill
#
# Bulk Modulus (GPa) = 49.64875 53.49493 51.57184
# Shear Modulus (GPa) = 31.49927 32.82274 32.16101
#
# Velocity S-wave (km/s) = 3.78118 3.85980 3.82069
# Velocity P-wave (km/s) = 6.44968 6.64417 6.54765
#
# Compressibility (1/GPa) = 0.02014149
#
# Stress axis : x y z
#
# Youngs Moduli (GPa) = 60.83372 94.77670 107.97391
#
# Poissons Ratio (x) = 0.26167 0.32703
# Poissons Ratio (y) = 0.16796 0.24455
# Poissons Ratio (z) = 0.18425 0.21466
#
# Static dielectric constant tensor:
#      x y z
#    x 3.638410 0.000000 0.000000 
#    y 0.000000 4.355090 0.000000 
#    z 0.000000 0.000000 4.123920 
# 
# 
# High freq. dielectric constant tensor:
#      x y z
#    x 1.823810 0.000000 0.000000 
#    y 0.000000 1.882390 0.000000 
#    z 0.000000 0.000000 1.886030 
# 
# From -- ./inp_files/2444.got.cif
#   From: 2010.03.12/outbox.cif.g09.slc.cpg/sg18_2_cif.got.tgz:2444.got - 2010.04.10 18:53:55.
