data_PCOD8155663
_publ_section_title
;
Structure prediction by ZEFSAII (Michael W. Deem and Ramdas Pophale) SiO2 
 PCOD8155663
Probable space group: P 2 2 21
;
_chemical_formula_sum "Si O2"
_cell_formula_units_Z 14
_cell_length_a 7.921622
_cell_length_b 13.535453
_cell_length_c 5.414363
_cell_angle_alpha 90.000000
_cell_angle_beta 90.000000
_cell_angle_gamma 90.000000
_cell_volume 580.542848
_symmetry_space_group_name_H-M "P 2 2 21"
_symmetry_group_IT_number 17
_symmetry_cell_setting 'orthorhombic'
loop_
_space_group_symop_operation_xyz
x,y,z
-x,-y,1/2+z
x,-y,-z
-x,y,1/2-z
loop_
_atom_site_type_symbol
_atom_site_label
_atom_site_fract_x
_atom_site_fract_y
_atom_site_fract_z
Si Si1 0.606289 0.500000 0.000000
Si Si2 0.000000 0.825326 0.750000
Si Si3 0.500000 0.164788 0.750000
Si Si4 0.879454 0.000000 0.000000
Si Si5 0.326005 0.000000 0.000000
Si Si6 0.321202 0.710303 0.609305
O O1 0.500000 0.479391 0.750000
O O2 0.722946 0.596312 0.953271
O O3 0.004264 0.900033 0.509378
O O4 0.166803 0.756956 0.764882
O O5 0.345157 0.230595 0.647680
O O6 0.559080 0.097508 0.519016
O O7 0.773044 0.992460 0.754489
O O8 0.500000 0.713742 0.750000
#
# Coordination Sequence:
#
# PCOD8155663 Si02
#       6
#     2   2   2   2   2   4
#     4  10  22  48  84 116 154 202 266 332 412 474
#     4  12  26  50  74 112 160 208 270 318 402 464
#     4  12  24  44  78 116 158 220 268 328 406 486
#     4  12  26  48  68 109 159 208 257 333 382 475
#     4  12  26  44  72 111 157 206 267 317 392 475
#     4  11  25  49  79 113 156 212 266 337 401 482
#
# _framework density 24.115358000000001
#
# number of rings (size 3 to 8) (size 9 to 14) (size 15 to 20)
#    0.000    0.571    4.286    3.429    2.000    0.000 
#    5.143    5.714    0.000    0.000    0.000    0.000 
#    0.000    0.000    0.000    0.000    0.000    0.000 
#
# Total GULP energy -173435.940261 kJ/mol
# GULP energy per Si atom -12388.281447 kJ/mol
# Density = 2.406047 g / cm^3
# Si number density = 24.115358 Si / 1000 Ang^3
#
#
#
# Elastic Constant Matrix: (Units=GPa)
#
#
# Indices 1 2 3 4 5 6 
#
# 1 138.2827 89.2347 55.8183 0.0000 0.0000 0.0000
# 2 89.2347 237.5118 54.1281 0.0000 0.0000 0.0000
# 3 55.8183 54.1281 149.2950 0.0000 0.0000 0.0000
# 4 0.0000 0.0000 0.0000 37.2556 0.0000 0.0000
# 5 0.0000 0.0000 0.0000 0.0000 55.8067 0.0000
# 6 0.0000 0.0000 0.0000 0.0000 0.0000 151.6813
#
#
#
# Elastic Compliance Matrix: (Units=1/GPa)
#
#
# Indices 1 2 3 4 5 6 
#
# 1 0.010464 -0.003314 -0.002711 0.000000 0.000000 0.000000
# 2 -0.003314 0.005639 -0.000806 0.000000 0.000000 0.000000
# 3 -0.002711 -0.000806 0.008004 0.000000 0.000000 0.000000
# 4 0.000000 0.000000 0.000000 0.026842 0.000000 0.000000
# 5 0.000000 0.000000 0.000000 0.000000 0.017919 0.000000
# 6 0.000000 0.000000 0.000000 0.000000 0.000000 0.006593
#
#
# Mechanical properties :
#
#
# Convention : Reuss Voigt Hill
#
# Bulk Modulus (GPa) = 95.72513 102.60576 99.16544
# Shear Modulus (GPa) = 53.99425 70.67596 62.33511
#
# Velocity S-wave (km/s) = 4.73694 5.41951 5.08968
# Velocity P-wave (km/s) = 8.34859 9.04443 8.70347
#
# Compressibility (1/GPa) = 0.01044658
#
# Stress axis : x y z
#
# Youngs Moduli (GPa) = 95.56439 177.34139 124.94132
#
# Poissons Ratio (x) = 0.58764 0.33871
# Poissons Ratio (y) = 0.31667 0.10064
# Poissons Ratio (z) = 0.25907 0.14285
#
# Static dielectric constant tensor:
#      x y z
#    x 4.650910 0.000000 0.000000 
#    y 0.000000 5.991550 0.000000 
#    z 0.000000 0.000000 3.441950 
# 
# 
# High freq. dielectric constant tensor:
#      x y z
#    x 1.939560 0.000000 0.000000 
#    y 0.000000 1.972540 0.000000 
#    z 0.000000 0.000000 1.967490 
# 
# From -- ./inp_files/679.got.cif
#   From: 2010.03.12/outbox.cif.g09.slc.cpg/sg17_1_cif.got.tgz:679.got - 2010.04.10 18:46:23.
