data_PCOD8155242
_publ_section_title
;
Structure prediction by ZEFSAII (Michael W. Deem and Ramdas Pophale) SiO2 
 PCOD8155242
Probable space group: P 2 2 2
;
_chemical_formula_sum "Si O2"
_cell_formula_units_Z 32
_cell_length_a 12.473956
_cell_length_b 8.593862
_cell_length_c 16.199657
_cell_angle_alpha 90.000000
_cell_angle_beta 90.000000
_cell_angle_gamma 90.000000
_cell_volume 1736.594425
_symmetry_space_group_name_H-M "P 2 2 2"
_symmetry_group_IT_number 16
_symmetry_cell_setting 'orthorhombic'
loop_
_space_group_symop_operation_xyz
x,y,z
-x,-y,z
x,-y,-z
-x,y,-z
loop_
_atom_site_type_symbol
_atom_site_label
_atom_site_fract_x
_atom_site_fract_y
_atom_site_fract_z
Si Si1 0.628521 0.824351 0.010980
Si Si2 0.901411 0.392499 0.716482
Si Si3 0.289907 0.684694 0.818468
Si Si4 0.022320 0.818829 0.408248
Si Si5 0.516400 0.822576 0.257285
Si Si6 0.796934 0.406571 0.418158
Si Si7 0.597615 0.394544 0.127080
Si Si8 0.449147 0.339332 0.585929
O O1 0.665757 0.700209 0.941735
O O2 0.500000 0.820367 0.000000
O O3 0.680618 0.770051 0.096311
O O4 0.671082 0.000000 0.000000
O O5 0.835955 0.313598 0.792827
O O6 0.815949 0.487492 0.662069
O O7 0.000000 0.500000 0.748824
O O8 0.946400 0.257354 0.659228
O O9 0.358898 0.771886 0.747523
O O10 0.319454 0.503155 0.824797
O O11 0.143817 0.757650 0.398452
O O12 0.000000 0.760048 0.500000
O O13 0.000000 0.000000 0.398372
O O14 0.449878 0.725926 0.191463
O O15 0.471674 0.795804 0.348714
O O16 0.500000 0.000000 0.232206
O O17 0.837221 0.500000 0.500000
O O18 0.674888 0.363007 0.429500
O O19 0.500000 0.500000 0.089328
O O20 0.500000 0.500000 0.618934
O O21 0.500000 0.286034 0.500000
#
# Coordination Sequence:
#
# PCOD8155242 Si02
#       8
#     4   4   4   4   4   4   4   4
#     4  11  20  34  57  90 123 155 188 232 292 368
#     4  10  22  38  60  85 112 151 205 260 306 347
#     4  11  22  35  61  85 117 155 196 250 298 347
#     4  10  21  36  59  87 111 146 202 264 309 349
#     4  11  22  34  50  79 119 160 194 237 297 357
#     4  11  19  36  59  81 109 155 201 253 300 349
#     4  10  19  33  55  83 113 149 193 233 279 353
#     4  11  22  36  54  79 115 160 206 237 288 368
#
# _framework density 18.426869
#
# number of rings (size 3 to 8) (size 9 to 14) (size 15 to 20)
#    0.000    1.375    5.000    3.750    0.000    1.250 
#    0.000    3.750    0.000    1.500    0.000    0.875 
#    0.000    0.000    0.000    0.000    0.000    0.000 
#
# Total GULP energy -396585.785685 kJ/mol
# GULP energy per Si atom -12393.305803 kJ/mol
# Density = 1.838493 g / cm^3
# Si number density = 18.426869 Si / 1000 Ang^3
#
#
#
# Elastic Constant Matrix: (Units=GPa)
#
#
# Indices 1 2 3 4 5 6 
#
# 1 115.8608 52.3532 51.8248 0.0000 0.0000 0.0000
# 2 52.3532 130.5773 48.1765 0.0000 0.0000 0.0000
# 3 51.8248 48.1765 103.5277 0.0000 0.0000 0.0000
# 4 0.0000 0.0000 0.0000 20.1444 0.0000 0.0000
# 5 0.0000 0.0000 0.0000 0.0000 21.1756 0.0000
# 6 0.0000 0.0000 0.0000 0.0000 0.0000 13.1874
#
#
#
# Elastic Compliance Matrix: (Units=1/GPa)
#
#
# Indices 1 2 3 4 5 6 
#
# 1 0.012114 -0.003163 -0.004593 0.000000 0.000000 0.000000
# 2 -0.003163 0.010071 -0.003104 0.000000 0.000000 0.000000
# 3 -0.004593 -0.003104 0.013402 0.000000 0.000000 0.000000
# 4 0.000000 0.000000 0.000000 0.049642 0.000000 0.000000
# 5 0.000000 0.000000 0.000000 0.000000 0.047224 0.000000
# 6 0.000000 0.000000 0.000000 0.000000 0.000000 0.075830
#
#
# Mechanical properties :
#
#
# Convention : Reuss Voigt Hill
#
# Bulk Modulus (GPa) = 72.09439 72.74167 72.41803
# Shear Modulus (GPa) = 21.31058 24.07555 22.69307
#
# Velocity S-wave (km/s) = 3.40442 3.61854 3.51311
# Velocity P-wave (km/s) = 7.39344 7.55116 7.47272
#
# Compressibility (1/GPa) = 0.01387071
#
# Stress axis : x y z
#
# Youngs Moduli (GPa) = 82.54622 99.29134 74.61310
#
# Poissons Ratio (x) = 0.31403 0.34267
# Poissons Ratio (y) = 0.26107 0.23156
# Poissons Ratio (z) = 0.37910 0.30815
#
# Static dielectric constant tensor:
#      x y z
#    x 3.208320 0.000000 0.000000 
#    y 0.000000 3.688640 0.000000 
#    z 0.000000 0.000000 3.438510 
# 
# 
# High freq. dielectric constant tensor:
#      x y z
#    x 1.684990 0.000000 0.000000 
#    y 0.000000 1.719900 0.000000 
#    z 0.000000 0.000000 1.714350 
# 
# From -- ./inp_files/7991.got.cif
#   From: 2010.03.12/outbox.cif.g09.slc.cpg/sg16_4_cif.got.tgz:7991.got - 2010.03.31 00:51:45.
