data_PCOD8155244
_publ_section_title
;
Structure prediction by ZEFSAII (Michael W. Deem and Ramdas Pophale) SiO2 
 PCOD8155244
Probable space group: P 2 2 2
;
_chemical_formula_sum "Si O2"
_cell_formula_units_Z 32
_cell_length_a 5.039317
_cell_length_b 12.958401
_cell_length_c 26.185206
_cell_angle_alpha 90.000000
_cell_angle_beta 90.000000
_cell_angle_gamma 90.000000
_cell_volume 1709.932980
_symmetry_space_group_name_H-M "P 2 2 2"
_symmetry_group_IT_number 16
_symmetry_cell_setting 'orthorhombic'
loop_
_space_group_symop_operation_xyz
x,y,z
-x,-y,z
x,-y,-z
-x,y,-z
loop_
_atom_site_type_symbol
_atom_site_label
_atom_site_fract_x
_atom_site_fract_y
_atom_site_fract_z
Si Si1 0.746704 0.384801 0.976402
Si Si2 0.523957 0.882692 0.681992
Si Si3 0.263660 0.434904 0.711926
Si Si4 0.563313 0.309397 0.384350
Si Si5 0.381482 0.611049 0.858610
Si Si6 0.977311 0.116107 0.749797
Si Si7 0.951602 0.381874 0.559544
Si Si8 0.126750 0.695016 0.193198
O O1 0.726632 0.382144 0.915940
O O2 0.748175 0.500000 0.000000
O O3 0.500000 0.323143 0.000000
O O4 0.000000 0.326201 0.000000
O O5 0.482021 0.804581 0.634978
O O6 0.312990 0.860657 0.727055
O O7 0.815154 0.863911 0.704448
O O8 0.500000 0.000000 0.661363
O O9 0.500000 0.500000 0.738544
O O10 0.404020 0.387839 0.662366
O O11 0.195873 0.343880 0.750469
O O12 0.000000 0.500000 0.697927
O O13 0.344051 0.350974 0.423812
O O14 0.844194 0.304877 0.412894
O O15 0.500000 0.500000 0.846418
O O16 0.619555 0.690884 0.845104
O O17 0.119447 0.626678 0.825475
O O18 0.033253 0.187083 0.799380
O O19 0.000000 0.000000 0.770521
O O20 0.000000 0.500000 0.575986
O O21 0.000000 0.367363 0.500000
#
# Coordination Sequence:
#
# PCOD8155244 Si02
#       8
#     4   4   4   4   4   4   4   4
#     4  10  19  34  54  72 101 150 203 243 263 310
#     4  10  21  38  62  86 108 142 196 243 281 333
#     4  12  24  36  51  80 120 157 189 220 269 342
#     4  12  22  38  63  82 111 149 194 236 283 339
#     4  12  23  36  52  80 118 164 189 228 288 332
#     4  10  21  40  59  79 111 153 194 244 280 325
#     4  11  24  41  59  85 114 148 192 238 284 338
#     4  12  24  36  53  81 121 154 194 228 280 355
#
# _framework density 18.714182000000001
#
# number of rings (size 3 to 8) (size 9 to 14) (size 15 to 20)
#    0.000    0.875    2.500    7.125    3.500    1.000 
#    0.000    0.000    0.000    2.250    0.000    0.000 
#    0.000    7.500    0.000    0.000    0.000    0.000 
#
# Total GULP energy -396751.624756 kJ/mol
# GULP energy per Si atom -12398.488274 kJ/mol
# Density = 1.867159 g / cm^3
# Si number density = 18.714182 Si / 1000 Ang^3
#
#
#
# Elastic Constant Matrix: (Units=GPa)
#
#
# Indices 1 2 3 4 5 6 
#
# 1 128.4915 24.8663 38.7957 0.0000 0.0000 0.0000
# 2 24.8663 87.3289 42.6829 0.0000 0.0000 0.0000
# 3 38.7957 42.6829 98.5082 0.0000 0.0000 0.0000
# 4 0.0000 0.0000 0.0000 7.7869 0.0000 0.0000
# 5 0.0000 0.0000 0.0000 0.0000 38.6884 0.0000
# 6 0.0000 0.0000 0.0000 0.0000 0.0000 22.1843
#
#
#
# Elastic Compliance Matrix: (Units=1/GPa)
#
#
# Indices 1 2 3 4 5 6 
#
# 1 0.008907 -0.001042 -0.003056 0.000000 0.000000 0.000000
# 2 -0.001042 0.014650 -0.005937 0.000000 0.000000 0.000000
# 3 -0.003056 -0.005937 0.013928 0.000000 0.000000 0.000000
# 4 0.000000 0.000000 0.000000 0.128420 0.000000 0.000000
# 5 0.000000 0.000000 0.000000 0.000000 0.025848 0.000000
# 6 0.000000 0.000000 0.000000 0.000000 0.000000 0.045077
#
#
# Mechanical properties :
#
#
# Convention : Reuss Voigt Hill
#
# Bulk Modulus (GPa) = 57.42886 58.55761 57.99323
# Shear Modulus (GPa) = 19.03280 27.59751 23.31515
#
# Velocity S-wave (km/s) = 3.19254 3.84433 3.53350
# Velocity P-wave (km/s) = 6.65911 7.14588 6.90678
#
# Compressibility (1/GPa) = 0.01741285
#
# Stress axis : x y z
#
# Youngs Moduli (GPa) = 112.26956 68.26143 71.80026
#
# Poissons Ratio (x) = 0.07116 0.21944
# Poissons Ratio (y) = 0.11704 0.42628
# Poissons Ratio (z) = 0.34312 0.40527
#
# Static dielectric constant tensor:
#      x y z
#    x 3.659260 0.000000 0.000000 
#    y 0.000000 3.336520 0.000000 
#    z 0.000000 0.000000 3.329670 
# 
# 
# High freq. dielectric constant tensor:
#      x y z
#    x 1.761060 0.000000 0.000000 
#    y 0.000000 1.693050 0.000000 
#    z 0.000000 0.000000 1.712910 
# 
# From -- ./inp_files/9523.got.cif
#   From: 2010.03.12/outbox.cif.g09.slc.cpg/sg16_5_cif.got.tgz:9523.got - 2010.03.31 00:51:45.
