data_PCOD8155432
_publ_section_title
;
Structure prediction by ZEFSAII (Michael W. Deem and Ramdas Pophale) SiO2 
 PCOD8155432
Probable space group: P 2 2 21
;
_chemical_formula_sum "Si O2"
_cell_formula_units_Z 32
_cell_length_a 12.076684
_cell_length_b 8.989953
_cell_length_c 15.221002
_cell_angle_alpha 90.000000
_cell_angle_beta 90.000000
_cell_angle_gamma 90.000000
_cell_volume 1652.526250
_symmetry_space_group_name_H-M "P 2 2 21"
_symmetry_group_IT_number 17
_symmetry_cell_setting 'orthorhombic'
loop_
_space_group_symop_operation_xyz
x,y,z
-x,-y,1/2+z
x,-y,-z
-x,y,1/2-z
loop_
_atom_site_type_symbol
_atom_site_label
_atom_site_fract_x
_atom_site_fract_y
_atom_site_fract_z
Si Si1 0.488945 0.323173 0.348377
Si Si2 0.648321 0.677160 0.500000
Si Si3 0.962643 0.829436 0.848625
Si Si4 0.247583 0.332835 0.398634
Si Si5 0.247583 0.667165 0.398634
Si Si6 0.488945 0.323173 0.651623
Si Si7 0.901158 0.676802 0.500000
Si Si8 0.962643 0.829436 0.151375
O O1 0.500000 0.257771 0.250000
O O2 0.585675 0.261931 0.412572
O O3 0.371139 0.270565 0.386205
O O4 0.495704 0.500000 0.346890
O O5 0.644600 0.500000 0.500000
O O6 0.585675 0.738069 0.412572
O O7 0.774338 0.734832 0.500000
O O8 0.039567 0.733917 0.912553
O O9 0.000000 0.805747 0.750000
O O10 0.836193 0.775421 0.849442
O O11 0.968958 0.000000 0.878774
O O12 0.237863 0.500000 0.359612
O O13 0.214944 0.334125 0.500000
O O14 0.371139 0.729435 0.386205
O O15 0.163807 0.775421 0.349442
O O16 0.500000 0.257771 0.750000
O O17 0.906864 0.500000 0.500000
O O18 0.960434 0.733917 0.412554
O O19 0.000000 0.805744 0.250000
#
# Coordination Sequence:
#
# PCOD8155432 Si02
#       8
#     4   4   4   4   4   4   4   4
#     4   9  17  30  51  81 116 149 179 226 289 340
#     4   9  18  32  49  80 118 145 178 225 284 345
#     4  11  25  42  59  81 116 160 198 237 290 348
#     4  10  19  34  59  87 113 145 192 244 284 331
#     4  10  19  34  59  87 113 145 192 244 284 331
#     4   9  17  30  51  81 116 149 179 226 289 340
#     4  11  23  38  61  90 118 149 192 245 290 339
#     4  11  25  42  59  81 116 160 198 237 290 348
#
# _framework density 19.364291000000001
#
# number of rings (size 3 to 8) (size 9 to 14) (size 15 to 20)
#    0.000    2.000    2.500    1.125    3.500    2.000 
#    0.000    0.000    0.000    3.750    0.000    0.000 
#    0.000    0.000    0.000    0.000    0.000    0.000 
#
# Total GULP energy -396808.886453 kJ/mol
# GULP energy per Si atom -12400.277702 kJ/mol
# Density = 1.932022 g / cm^3
# Si number density = 19.364291 Si / 1000 Ang^3
#
#
#
# Elastic Constant Matrix: (Units=GPa)
#
#
# Indices 1 2 3 4 5 6 
#
# 1 141.8814 44.3601 42.2616 0.0000 0.0000 0.0000
# 2 44.3601 61.6947 36.6170 0.0000 0.0000 0.0000
# 3 42.2616 36.6170 96.0058 0.0000 0.0000 0.0000
# 4 0.0000 0.0000 0.0000 17.2617 0.0000 0.0000
# 5 0.0000 0.0000 0.0000 0.0000 34.6637 0.0000
# 6 0.0000 0.0000 0.0000 0.0000 0.0000 -0.5918
#
#
#
# Elastic Compliance Matrix: (Units=1/GPa)
#
#
# Indices 1 2 3 4 5 6 
#
# 1 0.009384 -0.005552 -0.002013 0.000000 0.000000 0.000000
# 2 -0.005552 0.024237 -0.006800 0.000000 0.000000 0.000000
# 3 -0.002013 -0.006800 0.013896 0.000000 0.000000 0.000000
# 4 0.000000 0.000000 0.000000 0.057932 0.000000 0.000000
# 5 0.000000 0.000000 0.000000 0.000000 0.028849 0.000000
# 6 0.000000 0.000000 0.000000 0.000000 0.000000 -1.689691
#
#
# Mechanical properties :
#
#
# Convention : Reuss Voigt Hill
#
# Bulk Modulus (GPa) = 53.23175 60.67325 56.95250
# Shear Modulus (GPa) = -3.28860 22.02292 9.36716
#
# Velocity S-wave (km/s) = -1.30460 3.37604 2.20178
# Velocity P-wave (km/s) = 5.02793 6.82623 5.99489
#
# Compressibility (1/GPa) = 0.01878578
#
# Stress axis : x y z
#
# Youngs Moduli (GPa) = 106.56748 41.25913 71.96469
#
# Poissons Ratio (x) = 0.22909 0.14486
# Poissons Ratio (y) = 0.59170 0.48936
# Poissons Ratio (z) = 0.21452 0.28056
#
# Static dielectric constant tensor:
#      x y z
#    x 3.758460 0.000000 0.000000 
#    y 0.000000 3.174940 0.000000 
#    z 0.000000 0.000000 3.667780 
# 
# 
# High freq. dielectric constant tensor:
#      x y z
#    x 1.769920 0.000000 0.000000 
#    y 0.000000 1.707680 0.000000 
#    z 0.000000 0.000000 1.762250 
# 
# From -- ./inp_files/8558.got.cif
#   From: 2010.03.12/outbox.cif.g09.slc.cpg/sg17_5_cif.got.tgz:8558.got - 2010.04.10 18:46:23.
