data_PCOD8155007
_publ_section_title
;
Structure prediction by ZEFSAII (Michael W. Deem and Ramdas Pophale) SiO2 
 PCOD8155007
Probable space group: C 2/C
;
_chemical_formula_sum "Si O2"
_cell_formula_units_Z 40
_cell_length_a 10.032969
_cell_length_b 21.132484
_cell_length_c 10.796584
_cell_angle_alpha 90.000000
_cell_angle_beta 49.161987
_cell_angle_gamma 90.000000
_cell_volume 1731.851113
_symmetry_space_group_name_H-M "C 2/C"
_symmetry_group_IT_number 15
_symmetry_cell_setting 'monoclinic'
loop_
_space_group_symop_operation_xyz
x,y,z
-x,y,1/2-z
-x,-y,-z
x,-y,1/2+z
1/2+x,1/2+y,z
1/2-x,1/2+y,1/2-z
1/2-x,1/2-y,-z
1/2+x,1/2-y,1/2+z
loop_
_atom_site_type_symbol
_atom_site_label
_atom_site_fract_x
_atom_site_fract_y
_atom_site_fract_z
Si Si1 0.181438 0.369114 0.567559
Si Si2 0.336512 0.809072 0.176636
Si Si3 0.000000 0.914994 0.750000
Si Si4 0.819854 0.503755 0.031611
Si Si5 0.500000 0.090143 0.750000
Si Si6 0.006701 0.180122 0.458607
O O1 0.167694 0.316238 0.469195
O O2 0.243920 0.433976 0.465279
O O3 0.322197 0.347618 0.581080
O O4 0.000000 0.378892 0.750000
O O5 0.439748 0.868076 0.170995
O O6 0.441436 0.744836 0.143356
O O7 0.141561 0.805319 0.350231
O O8 0.161334 0.959759 0.698728
O O9 0.936623 0.870187 0.901010
O O10 0.000000 0.500000 0.000000
O O11 0.845951 0.543964 0.890283
#
# Coordination Sequence:
#
# PCOD8155007 Si02
#       6
#     8   8   4   8   4   8
#     4  12  26  46  75 104 147 194 245 304 371 441
#     4  12  27  47  73 104 147 190 249 303 372 436
#     4  12  29  46  76 110 145 192 250 302 374 444
#     4  12  26  47  75 110 151 190 240 305 372 442
#     4  12  25  46  76 108 145 190 238 304 370 440
#     4  12  28  47  72 105 145 194 247 307 366 439
#
# _framework density 23.096674
#
# number of rings (size 3 to 8) (size 9 to 14) (size 15 to 20)
#    0.000    0.000    5.000    4.200    5.600    2.400 
#    0.000    0.000    0.000    0.000    0.000    0.000 
#    0.000    0.000    0.000    0.000    0.000    0.000 
#
# Total GULP energy -248109.737436 kJ/mol
# GULP energy per Si atom -12405.486872 kJ/mol
# Density = 2.304410 g / cm^3
# Si number density = 23.096674 Si / 1000 Ang^3
#
#
#
# Elastic Constant Matrix: (Units=GPa)
#
#
# Indices 1 2 3 4 5 6 
#
# 1 79.1675 23.1642 11.0993 0.0000 1.2784 0.0000
# 2 23.1642 121.1734 39.4674 0.0000 -9.9406 0.0000
# 3 11.0993 39.4674 106.7564 0.0000 -4.8355 0.0000
# 4 0.0000 0.0000 0.0000 47.2964 0.0000 3.0006
# 5 1.2784 -9.9406 -4.8355 0.0000 35.7069 0.0000
# 6 0.0000 0.0000 0.0000 3.0006 0.0000 13.9052
#
#
#
# Elastic Compliance Matrix: (Units=1/GPa)
#
#
# Indices 1 2 3 4 5 6 
#
# 1 0.013458 -0.002502 -0.000531 0.000000 -0.001250 0.000000
# 2 -0.002502 0.010016 -0.003333 0.000000 0.002427 0.000000
# 3 -0.000531 -0.003333 0.010679 0.000000 0.000537 0.000000
# 4 0.000000 0.000000 0.000000 0.021437 0.000000 -0.004626
# 5 -0.001250 0.002427 0.000537 0.000000 0.028799 0.000000
# 6 0.000000 0.000000 0.000000 -0.004626 0.000000 0.072914
#
#
# Mechanical properties :
#
#
# Convention : Reuss Voigt Hill
#
# Bulk Modulus (GPa) = 46.68343 50.50658 48.59501
# Shear Modulus (GPa) = 28.22084 34.93944 31.58014
#
# Velocity S-wave (km/s) = 3.49930 3.89363 3.70172
# Velocity P-wave (km/s) = 6.04838 6.49066 6.27342
#
# Compressibility (1/GPa) = 0.02142088
#
# Stress axis : x y z
#
# Youngs Moduli (GPa) = 74.30385 99.84465 93.64440
#
# Poissons Ratio (x) = 0.24986 0.04970
# Poissons Ratio (y) = 0.18594 0.31208
# Poissons Ratio (z) = 0.03943 0.33274
#
# Static dielectric constant tensor:
#      x y z
#    x 3.965130 0.000000 -0.009350 
#    y 0.000000 4.486840 0.000000 
#    z -0.009350 0.000000 4.146950 
# 
# 
# High freq. dielectric constant tensor:
#      x y z
#    x 1.906100 0.000000 -0.000750 
#    y 0.000000 1.936450 0.000000 
#    z -0.000750 0.000000 1.918620 
# 
# From -- ./inp_files/51681.got.cif
#   From: 2010.06.25/outbox.cif.g09.slc.cpg/sg15_26_cif.got.tgz:51681.got - 2010.06.28 07:06:18.
