data_PCOD8155881
_publ_section_title
;
Structure prediction by ZEFSAII (Michael W. Deem and Ramdas Pophale) SiO2 
 PCOD8155881
Probable space group: P 21 21 2
;
_chemical_formula_sum "Si O2"
_cell_formula_units_Z 24
_cell_length_a 16.350220
_cell_length_b 9.070605
_cell_length_c 8.217764
_cell_angle_alpha 90.000000
_cell_angle_beta 90.000000
_cell_angle_gamma 90.000000
_cell_volume 1218.746890
_symmetry_space_group_name_H-M "P 21 21 2"
_symmetry_group_IT_number 18
_symmetry_cell_setting 'orthorhombic'
loop_
_space_group_symop_operation_xyz
x,y,z
-x,-y,z
1/2+x,1/2-y,-z
1/2-x,1/2+y,-z
loop_
_atom_site_type_symbol
_atom_site_label
_atom_site_fract_x
_atom_site_fract_y
_atom_site_fract_z
Si Si1 0.688917 0.288433 0.197827
Si Si2 0.221904 0.444472 0.376716
Si Si3 0.681728 0.603125 0.683464
Si Si4 0.849260 0.801272 0.164612
Si Si5 0.494096 0.329367 0.667891
Si Si6 0.067921 0.385512 0.586326
O O1 0.732654 0.410304 0.311273
O O2 0.754367 0.157527 0.181181
O O3 0.607385 0.214920 0.272346
O O4 0.669635 0.348997 0.019048
O O5 0.285257 0.366213 0.500488
O O6 0.201324 0.341687 0.221657
O O7 0.137445 0.470740 0.478952
O O8 0.672886 0.428832 0.707596
O O9 0.599897 0.697669 0.715914
O O10 0.947753 0.783403 0.180280
O O11 0.500000 0.500000 0.615448
O O12 0.517173 0.229695 0.517544
O O13 0.000000 0.500000 0.656449
#
# Coordination Sequence:
#
# PCOD8155881 Si02
#       6
#     4   4   4   4   4   4
#     4  11  21  36  56  83 116 146 183 234 284 331
#     4  10  20  37  60  82 109 149 193 229 270 332
#     4  10  19  36  59  80 107 150 193 230 272 332
#     4  10  21  36  55  84 116 143 180 232 289 333
#     4   9  18  36  57  79 109 146 188 231 278 335
#     4  10  21  37  58  84 112 148 193 232 272 331
#
# _framework density 19.692360000000001
#
# number of rings (size 3 to 8) (size 9 to 14) (size 15 to 20)
#    0.000    2.000    0.000    6.000    0.000    1.333 
#    0.000   17.500    0.000    0.000    0.000    0.000 
#    0.000    0.000    0.000    0.000    0.000    0.000 
#
# Total GULP energy -297378.878160 kJ/mol
# GULP energy per Si atom -12390.786590 kJ/mol
# Density = 1.964754 g / cm^3
# Si number density = 19.692360 Si / 1000 Ang^3
#
#
#
# Elastic Constant Matrix: (Units=GPa)
#
#
# Indices 1 2 3 4 5 6 
#
# 1 125.1145 44.2852 45.6407 0.0000 0.0000 0.0000
# 2 44.2852 72.8351 30.8370 0.0000 0.0000 0.0000
# 3 45.6407 30.8370 94.8109 0.0000 0.0000 0.0000
# 4 0.0000 0.0000 0.0000 22.7160 0.0000 0.0000
# 5 0.0000 0.0000 0.0000 0.0000 16.9800 0.0000
# 6 0.0000 0.0000 0.0000 0.0000 0.0000 36.8845
#
#
#
# Elastic Compliance Matrix: (Units=1/GPa)
#
#
# Indices 1 2 3 4 5 6 
#
# 1 0.011193 -0.005247 -0.003682 0.000000 0.000000 0.000000
# 2 -0.005247 0.018382 -0.003453 0.000000 0.000000 0.000000
# 3 -0.003682 -0.003453 0.013443 0.000000 0.000000 0.000000
# 4 0.000000 0.000000 0.000000 0.044022 0.000000 0.000000
# 5 0.000000 0.000000 0.000000 0.000000 0.058893 0.000000
# 6 0.000000 0.000000 0.000000 0.000000 0.000000 0.027112
#
#
# Mechanical properties :
#
#
# Convention : Reuss Voigt Hill
#
# Bulk Modulus (GPa) = 54.78045 59.36514 57.07279
# Shear Modulus (GPa) = 24.52294 26.78261 25.65278
#
# Velocity S-wave (km/s) = 3.53271 3.69189 3.61318
# Velocity P-wave (km/s) = 6.67223 6.95594 6.81556
#
# Compressibility (1/GPa) = 0.01825469
#
# Stress axis : x y z
#
# Youngs Moduli (GPa) = 89.34308 54.40203 74.39038
#
# Poissons Ratio (x) = 0.28543 0.27387
# Poissons Ratio (y) = 0.46876 0.25686
# Poissons Ratio (z) = 0.32892 0.18784
#
# Static dielectric constant tensor:
#      x y z
#    x 4.057300 0.000000 0.000000 
#    y 0.000000 3.544290 0.000000 
#    z 0.000000 0.000000 3.194600 
# 
# 
# High freq. dielectric constant tensor:
#      x y z
#    x 1.784540 0.000000 0.000000 
#    y 0.000000 1.767550 0.000000 
#    z 0.000000 0.000000 1.738320 
# 
# From -- ./inp_files/4479.got.cif
#   From: 2010.03.12/outbox.cif.g09.slc.cpg/sg18_3_cif.got.tgz:4479.got - 2010.04.10 18:53:55.
