data_PCOD8155287
_publ_section_title
;
Structure prediction by ZEFSAII (Michael W. Deem and Ramdas Pophale) SiO2 
 PCOD8155287
Probable space group: P 2 2 2
;
_chemical_formula_sum "Si O2"
_cell_formula_units_Z 32
_cell_length_a 9.274288
_cell_length_b 12.424934
_cell_length_c 14.625259
_cell_angle_alpha 90.000000
_cell_angle_beta 90.000000
_cell_angle_gamma 90.000000
_cell_volume 1685.303934
_symmetry_space_group_name_H-M "P 2 2 2"
_symmetry_group_IT_number 16
_symmetry_cell_setting 'orthorhombic'
loop_
_space_group_symop_operation_xyz
x,y,z
-x,-y,z
x,-y,-z
-x,y,-z
loop_
_atom_site_type_symbol
_atom_site_label
_atom_site_fract_x
_atom_site_fract_y
_atom_site_fract_z
Si Si1 0.006040 0.834095 0.200069
Si Si2 0.282632 0.078295 0.712409
Si Si3 0.774264 0.111293 0.945109
Si Si4 0.239638 0.833247 0.668877
Si Si5 0.663993 0.125216 0.483553
Si Si6 0.426839 0.390999 0.905422
Si Si7 0.537141 0.189338 0.807886
Si Si8 0.871169 0.314166 0.061673
O O1 0.907512 0.896196 0.125783
O O2 0.918374 0.808042 0.292749
O O3 0.138182 0.908900 0.229025
O O4 0.062226 0.721257 0.159055
O O5 0.285138 0.152048 0.619886
O O6 0.419460 0.103683 0.774990
O O7 0.293427 0.954891 0.685507
O O8 0.627264 0.135296 0.890332
O O9 0.802281 0.207680 0.015784
O O10 0.760422 0.000000 0.000000
O O11 0.242367 0.809612 0.559846
O O12 0.357975 0.767392 0.727018
O O13 0.500000 0.159799 0.500000
O O14 0.687333 0.000000 0.500000
O O15 0.500000 0.500000 0.867160
O O16 0.450610 0.295297 0.835544
O O17 0.253735 0.403046 0.921906
O O18 0.500000 0.359663 0.000000
O O19 0.000000 0.363880 0.000000
#
# Coordination Sequence:
#
# PCOD8155287 Si02
#       8
#     4   4   4   4   4   4   4   4
#     4  10  22  33  50  75 116 150 192 222 273 328
#     4  11  20  32  54  80 112 153 192 234 270 332
#     4  10  23  36  51  75 118 160 189 230 279 325
#     4  10  21  33  52  80 115 153 190 227 273 335
#     4   9  17  32  50  74 111 152 192 230 273 314
#     4  11  23  42  61  78 104 141 189 249 294 331
#     4  11  21  36  55  81 105 144 197 239 281 331
#     4  10  21  38  56  77 111 152 185 228 282 338
#
# _framework density 18.987673999999998
#
# number of rings (size 3 to 8) (size 9 to 14) (size 15 to 20)
#    0.000    1.750    3.750    0.750    5.250    3.250 
#    0.000    4.375    0.000    0.000    0.000    1.750 
#    0.000    0.000    8.500    0.000    0.000    0.000 
#
# Total GULP energy -396665.371104 kJ/mol
# GULP energy per Si atom -12395.792847 kJ/mol
# Density = 1.894446 g / cm^3
# Si number density = 18.987674 Si / 1000 Ang^3
#
#
#
# Elastic Constant Matrix: (Units=GPa)
#
#
# Indices 1 2 3 4 5 6 
#
# 1 126.6249 29.2840 44.1874 0.0000 0.0000 0.0000
# 2 29.2840 39.2975 15.7628 0.0000 0.0000 0.0000
# 3 44.1874 15.7628 94.4145 0.0000 0.0000 0.0000
# 4 0.0000 0.0000 0.0000 5.3581 0.0000 0.0000
# 5 0.0000 0.0000 0.0000 0.0000 32.9957 0.0000
# 6 0.0000 0.0000 0.0000 0.0000 0.0000 18.5246
#
#
#
# Elastic Compliance Matrix: (Units=1/GPa)
#
#
# Indices 1 2 3 4 5 6 
#
# 1 0.010769 -0.006434 -0.003966 0.000000 0.000000 0.000000
# 2 -0.006434 0.031118 -0.002184 0.000000 0.000000 0.000000
# 3 -0.003966 -0.002184 0.012812 0.000000 0.000000 0.000000
# 4 0.000000 0.000000 0.000000 0.186634 0.000000 0.000000
# 5 0.000000 0.000000 0.000000 0.000000 0.030307 0.000000
# 6 0.000000 0.000000 0.000000 0.000000 0.000000 0.053982
#
#
# Mechanical properties :
#
#
# Convention : Reuss Voigt Hill
#
# Bulk Modulus (GPa) = 33.86267 48.75614 41.30941
# Shear Modulus (GPa) = 13.86445 22.78252 18.32348
#
# Velocity S-wave (km/s) = 2.70512 3.46766 3.10985
# Velocity P-wave (km/s) = 5.25639 6.46269 5.89050
#
# Compressibility (1/GPa) = 0.02953104
#
# Stress axis : x y z
#
# Youngs Moduli (GPa) = 92.85576 32.13606 78.04979
#
# Poissons Ratio (x) = 0.20678 0.30955
# Poissons Ratio (y) = 0.59747 0.17044
# Poissons Ratio (z) = 0.36827 0.07018
#
# Static dielectric constant tensor:
#      x y z
#    x 3.764580 0.000000 0.000000 
#    y 0.000000 2.936120 0.000000 
#    z 0.000000 0.000000 4.013030 
# 
# 
# High freq. dielectric constant tensor:
#      x y z
#    x 1.757080 0.000000 0.000000 
#    y 0.000000 1.667620 0.000000 
#    z 0.000000 0.000000 1.742280 
# 
# From -- ./inp_files/8001.got.cif
#   From: 2010.03.12/outbox.cif.g09.slc.cpg/sg16_5_cif.got.tgz:8001.got - 2010.03.31 00:51:45.
