data_PCOD8155087
_publ_section_title
;
Structure prediction by ZEFSAII (Michael W. Deem and Ramdas Pophale) SiO2 
 PCOD8155087
Probable space group: C 2/C
;
_chemical_formula_sum "Si O2"
_cell_formula_units_Z 40
_cell_length_a 17.555512
_cell_length_b 4.884034
_cell_length_c 20.255034
_cell_angle_alpha 90.000000
_cell_angle_beta 98.965699
_cell_angle_gamma 90.000000
_cell_volume 1715.482065
_symmetry_space_group_name_H-M "C 2/C"
_symmetry_group_IT_number 15
_symmetry_cell_setting 'monoclinic'
loop_
_space_group_symop_operation_xyz
x,y,z
-x,y,1/2-z
-x,-y,-z
x,-y,1/2+z
1/2+x,1/2+y,z
1/2-x,1/2+y,1/2-z
1/2-x,1/2-y,-z
1/2+x,1/2-y,1/2+z
loop_
_atom_site_type_symbol
_atom_site_label
_atom_site_fract_x
_atom_site_fract_y
_atom_site_fract_z
Si Si1 0.066706 0.325892 0.309613
Si Si2 0.046879 0.821752 0.394351
Si Si3 0.123776 0.282904 0.594795
Si Si4 0.332711 0.699490 0.480150
Si Si5 0.699899 0.981202 0.738196
O O1 0.061359 0.511396 0.373916
O O2 0.148774 0.370175 0.286493
O O3 0.000000 0.408237 0.250000
O O4 0.056179 0.013827 0.331313
O O5 0.109423 0.914505 0.456504
O O6 0.962034 0.839911 0.413813
O O7 0.129920 0.526645 0.543620
O O8 0.149795 0.386901 0.669478
O O9 0.177093 0.031542 0.577701
O O10 0.250000 0.750000 0.500000
O O11 0.738655 0.712025 0.775632
#
# Coordination Sequence:
#
# PCOD8155087 Si02
#       5
#     8   8   8   8   8
#     4  12  26  47  73 109 142 184 241 290 363 426
#     4  12  26  47  76 103 144 189 236 298 350 435
#     4  12  26  50  72 104 144 191 240 288 363 426
#     4  12  28  47  73 106 142 189 244 299 354 419
#     4  12  28  46  74 108 149 190 233 300 363 433
#
# _framework density 23.317059
#
# number of rings (size 3 to 8) (size 9 to 14) (size 15 to 20)
#    0.000    0.000    2.000    7.200   11.200    0.000 
#    0.000    0.000    0.000    0.000    0.000    0.000 
#    0.000    0.000    0.000    0.000    0.000    0.000 
#
# Total GULP energy -248196.242241 kJ/mol
# GULP energy per Si atom -12409.812112 kJ/mol
# Density = 2.326399 g / cm^3
# Si number density = 23.317059 Si / 1000 Ang^3
#
#
#
# Elastic Constant Matrix: (Units=GPa)
#
#
# Indices 1 2 3 4 5 6 
#
# 1 132.7335 46.4270 57.5120 0.0000 -10.6038 0.0000
# 2 46.4270 130.1176 34.4152 0.0000 -11.3110 0.0000
# 3 57.5120 34.4152 88.5322 0.0000 -12.7716 0.0000
# 4 0.0000 0.0000 0.0000 52.3080 0.0000 -11.6094
# 5 -10.6038 -11.3110 -12.7716 0.0000 36.0734 0.0000
# 6 0.0000 0.0000 0.0000 -11.6094 0.0000 37.2885
#
#
#
# Elastic Compliance Matrix: (Units=1/GPa)
#
#
# Indices 1 2 3 4 5 6 
#
# 1 0.011064 -0.002264 -0.006261 0.000000 0.000326 0.000000
# 2 -0.002264 0.009116 -0.001852 0.000000 0.001538 0.000000
# 3 -0.006261 -0.001852 0.016580 0.000000 0.003449 0.000000
# 4 0.000000 0.000000 0.000000 0.020537 0.000000 0.006394
# 5 0.000326 0.001538 0.003449 0.000000 0.029520 0.000000
# 6 0.000000 0.000000 0.000000 0.006394 0.000000 0.028809
#
#
# Mechanical properties :
#
#
# Convention : Reuss Voigt Hill
#
# Bulk Modulus (GPa) = 62.46542 69.78799 66.12670
# Shear Modulus (GPa) = 35.28237 39.33591 37.30914
#
# Velocity S-wave (km/s) = 3.89415 4.11177 4.00444
# Velocity P-wave (km/s) = 6.86054 7.24825 7.05706
#
# Compressibility (1/GPa) = 0.01600886
#
# Stress axis : x y z
#
# Youngs Moduli (GPa) = 90.38030 109.69230 60.31497
#
# Poissons Ratio (x) = 0.24830 0.37761
# Poissons Ratio (y) = 0.20459 0.11168
# Poissons Ratio (z) = 0.56584 0.20310
#
# Static dielectric constant tensor:
#      x y z
#    x 4.224380 0.000000 -0.079150 
#    y 0.000000 4.297330 0.000000 
#    z -0.079150 0.000000 4.080200 
# 
# 
# High freq. dielectric constant tensor:
#      x y z
#    x 1.931090 0.000000 -0.005130 
#    y 0.000000 1.939110 0.000000 
#    z -0.005130 0.000000 1.927560 
# 
# From -- ./inp_files/208057.got.cif
#   From: 2010.06.25/outbox.cif.g09.slc.cpg/sg15_105_cif.got.tgz:208057.got - 2010.06.28 07:06:18.
