data_PCOD8155947
_publ_section_title
;
Structure prediction by ZEFSAII (Michael W. Deem and Ramdas Pophale) SiO2 
 PCOD8155947
Probable space group: P 21 21 2
;
_chemical_formula_sum "Si O2"
_cell_formula_units_Z 30
_cell_length_a 19.656700
_cell_length_b 5.213116
_cell_length_c 13.645830
_cell_angle_alpha 90.000000
_cell_angle_beta 90.000000
_cell_angle_gamma 90.000000
_cell_volume 1398.324461
_symmetry_space_group_name_H-M "P 21 21 2"
_symmetry_group_IT_number 18
_symmetry_cell_setting 'orthorhombic'
loop_
_space_group_symop_operation_xyz
x,y,z
-x,-y,z
1/2+x,1/2-y,-z
1/2-x,1/2+y,-z
loop_
_atom_site_type_symbol
_atom_site_label
_atom_site_fract_x
_atom_site_fract_y
_atom_site_fract_z
Si Si1 0.581787 0.494621 0.818419
Si Si2 0.918715 0.496588 0.843623
Si Si3 0.121158 0.304058 0.648695
Si Si4 0.500000 0.500000 0.401044
Si Si5 0.930896 0.383776 0.488877
Si Si6 0.419782 0.506221 0.041626
Si Si7 0.125863 0.515076 0.292351
Si Si8 0.746838 0.448688 0.433281
O O1 0.500000 0.500000 0.806718
O O2 0.619407 0.752766 0.783419
O O3 0.611254 0.253908 0.759118
O O4 0.606010 0.476842 0.930244
O O5 0.875800 0.504436 0.741665
O O6 0.893027 0.742432 0.903983
O O7 0.000000 0.500000 0.829351
O O8 0.893147 0.245647 0.901895
O O9 0.128769 0.469140 0.547396
O O10 0.181564 0.100194 0.636998
O O11 0.045588 0.180609 0.668051
O O12 0.438885 0.407262 0.474786
O O13 0.930882 0.419026 0.373435
O O14 0.000000 0.500000 0.533234
O O15 0.500000 0.500000 0.038929
O O16 0.195532 0.500509 0.352516
O O17 0.733397 0.697160 0.501799
#
# Coordination Sequence:
#
# PCOD8155947 Si02
#       8
#     4   4   4   2   4   4   4   4
#     4  11  23  41  65  97 129 164 218 276 331 386
#     4  10  20  35  62  93 129 162 200 260 339 390
#     4  11  24  38  62  93 132 168 219 266 325 396
#     4  10  22  36  60  90 134 168 206 278 334 378
#     4  10  21  35  55  89 126 163 205 267 324 375
#     4   9  20  37  60  92 129 161 199 264 334 395
#     4  12  24  39  64  91 128 179 218 264 316 389
#     4  12  26  46  64  88 134 187 230 263 314 391
#
# _framework density 21.454249000000001
#
# number of rings (size 3 to 8) (size 9 to 14) (size 15 to 20)
#    0.000    1.333    1.333    4.800    9.333    2.133 
#    0.000    0.000    0.000    3.200    0.000    0.000 
#    0.000    0.000    0.000    0.000    0.000    0.000 
#
# Total GULP energy -371690.370007 kJ/mol
# GULP energy per Si atom -12389.679000 kJ/mol
# Density = 2.140542 g / cm^3
# Si number density = 21.454249 Si / 1000 Ang^3
#
#
#
# Elastic Constant Matrix: (Units=GPa)
#
#
# Indices 1 2 3 4 5 6 
#
# 1 68.5667 28.3484 28.4585 0.0000 0.0000 0.0000
# 2 28.3484 133.4373 47.4736 0.0000 0.0000 0.0000
# 3 28.4585 47.4736 134.0195 0.0000 0.0000 0.0000
# 4 0.0000 0.0000 0.0000 32.1011 0.0000 0.0000
# 5 0.0000 0.0000 0.0000 0.0000 17.5074 0.0000
# 6 0.0000 0.0000 0.0000 0.0000 0.0000 26.6568
#
#
#
# Elastic Compliance Matrix: (Units=1/GPa)
#
#
# Indices 1 2 3 4 5 6 
#
# 1 0.016761 -0.002625 -0.002629 0.000000 0.000000 0.000000
# 2 -0.002625 0.008986 -0.002626 0.000000 0.000000 0.000000
# 3 -0.002629 -0.002626 0.008950 0.000000 0.000000 0.000000
# 4 0.000000 0.000000 0.000000 0.031152 0.000000 0.000000
# 5 0.000000 0.000000 0.000000 0.000000 0.057119 0.000000
# 6 0.000000 0.000000 0.000000 0.000000 0.000000 0.037514
#
#
# Mechanical properties :
#
#
# Convention : Reuss Voigt Hill
#
# Bulk Modulus (GPa) = 52.80769 60.50940 56.65854
# Shear Modulus (GPa) = 27.38918 30.70259 29.04588
#
# Velocity S-wave (km/s) = 3.57687 3.78706 3.68346
# Velocity P-wave (km/s) = 6.45959 6.88386 6.67509
#
# Compressibility (1/GPa) = 0.01893664
#
# Stress axis : x y z
#
# Youngs Moduli (GPa) = 59.66222 111.28351 111.73239
#
# Poissons Ratio (x) = 0.29217 0.29376
# Poissons Ratio (y) = 0.15664 0.29337
# Poissons Ratio (z) = 0.15686 0.29219
#
# Static dielectric constant tensor:
#      x y z
#    x 3.627810 0.000000 0.000000 
#    y 0.000000 4.434410 0.000000 
#    z 0.000000 0.000000 3.951380 
# 
# 
# High freq. dielectric constant tensor:
#      x y z
#    x 1.809240 0.000000 0.000000 
#    y 0.000000 1.858910 0.000000 
#    z 0.000000 0.000000 1.847460 
# 
# From -- ./inp_files/6282.got.cif
#   From: 2010.03.12/outbox.cif.g09.slc.cpg/sg18_4_cif.got.tgz:6282.got - 2010.04.10 18:53:55.
