data_PCOD8155816
_publ_section_title
;
Structure prediction by ZEFSAII (Michael W. Deem and Ramdas Pophale) SiO2 
 PCOD8155816
Probable space group: P 21 21 2
;
_chemical_formula_sum "Si O2"
_cell_formula_units_Z 32
_cell_length_a 9.300209
_cell_length_b 16.946754
_cell_length_c 10.640896
_cell_angle_alpha 90.000000
_cell_angle_beta 90.000000
_cell_angle_gamma 90.000000
_cell_volume 1677.094104
_symmetry_space_group_name_H-M "P 21 21 2"
_symmetry_group_IT_number 18
_symmetry_cell_setting 'orthorhombic'
loop_
_space_group_symop_operation_xyz
x,y,z
-x,-y,z
1/2+x,1/2-y,-z
1/2-x,1/2+y,-z
loop_
_atom_site_type_symbol
_atom_site_label
_atom_site_fract_x
_atom_site_fract_y
_atom_site_fract_z
Si Si1 0.348265 0.892340 0.310052
Si Si2 0.544103 0.238584 0.950974
Si Si3 0.201636 0.165086 0.589669
Si Si4 0.341414 0.533238 0.597765
Si Si5 0.753906 0.338045 0.795076
Si Si6 0.006348 0.584350 0.941274
Si Si7 0.556589 0.780819 0.414011
Si Si8 0.757755 0.758978 0.831951
O O1 0.424975 0.930556 0.190063
O O2 0.461240 0.861072 0.414536
O O3 0.258823 0.817229 0.259263
O O4 0.259049 0.958239 0.381931
O O5 0.629902 0.279038 0.839451
O O6 0.374750 0.251152 0.927601
O O7 0.572496 0.144199 0.962533
O O8 0.596485 0.271060 0.086710
O O9 0.194824 0.076248 0.534998
O O10 0.323671 0.217349 0.521178
O O11 0.043887 0.204187 0.570063
O O12 0.246836 0.165506 0.737466
O O13 0.500000 0.500000 0.598521
O O14 0.321098 0.597360 0.706969
O O15 0.833461 0.381810 0.911282
O O16 0.866550 0.281961 0.722556
O O17 0.000000 0.500000 0.010786
#
# Coordination Sequence:
#
# PCOD8155816 Si02
#       8
#     4   4   4   4   4   4   4   4
#     4   9  19  36  60  92 121 152 203 257 311 362
#     4  11  21  37  65  87 121 165 214 252 309 366
#     4  10  23  37  58  90 126 156 198 251 312 371
#     4  11  22  36  63  92 126 159 203 264 322 378
#     4  10  20  36  60  93 118 159 211 255 311 378
#     4  10  18  35  59  86 121 154 200 270 302 359
#     4   9  21  36  61  86 123 162 197 257 310 375
#     4  10  22  38  62  91 122 160 211 257 296 370
#
# _framework density 19.080622000000002
#
# number of rings (size 3 to 8) (size 9 to 14) (size 15 to 20)
#    0.000    2.000    2.500    1.500    7.000    0.000 
#    0.000    0.000    5.500    2.250    0.000    0.000 
#    0.000    0.000    0.000    0.000    0.000    0.000 
#
# Total GULP energy -396493.730225 kJ/mol
# GULP energy per Si atom -12390.429070 kJ/mol
# Density = 1.903719 g / cm^3
# Si number density = 19.080622 Si / 1000 Ang^3
#
#
#
# Elastic Constant Matrix: (Units=GPa)
#
#
# Indices 1 2 3 4 5 6 
#
# 1 102.5741 33.8825 43.4427 0.0000 0.0000 0.0000
# 2 33.8825 94.6626 47.5931 0.0000 0.0000 0.0000
# 3 43.4427 47.5931 83.4682 0.0000 0.0000 0.0000
# 4 0.0000 0.0000 0.0000 32.6582 0.0000 0.0000
# 5 0.0000 0.0000 0.0000 0.0000 28.5384 0.0000
# 6 0.0000 0.0000 0.0000 0.0000 0.0000 34.8868
#
#
#
# Elastic Compliance Matrix: (Units=1/GPa)
#
#
# Indices 1 2 3 4 5 6 
#
# 1 0.012701 -0.001714 -0.005633 0.000000 0.000000 0.000000
# 2 -0.001714 0.015041 -0.007684 0.000000 0.000000 0.000000
# 3 -0.005633 -0.007684 0.019294 0.000000 0.000000 0.000000
# 4 0.000000 0.000000 0.000000 0.030620 0.000000 0.000000
# 5 0.000000 0.000000 0.000000 0.000000 0.035041 0.000000
# 6 0.000000 0.000000 0.000000 0.000000 0.000000 0.028664
#
#
# Mechanical properties :
#
#
# Convention : Reuss Voigt Hill
#
# Bulk Modulus (GPa) = 58.91639 58.94907 58.93273
# Shear Modulus (GPa) = 28.23579 29.60247 28.91913
#
# Velocity S-wave (km/s) = 3.85101 3.94311 3.89733
# Velocity P-wave (km/s) = 7.12168 7.18976 7.15580
#
# Compressibility (1/GPa) = 0.01697320
#
# Stress axis : x y z
#
# Youngs Moduli (GPa) = 78.73392 66.48707 51.82974
#
# Poissons Ratio (x) = 0.11395 0.29197
# Poissons Ratio (y) = 0.13494 0.39826
# Poissons Ratio (z) = 0.44353 0.51089
#
# Static dielectric constant tensor:
#      x y z
#    x 3.734790 0.000000 0.000000 
#    y 0.000000 3.478040 0.000000 
#    z 0.000000 0.000000 3.467710 
# 
# 
# High freq. dielectric constant tensor:
#      x y z
#    x 1.749490 0.000000 0.000000 
#    y 0.000000 1.728260 0.000000 
#    z 0.000000 0.000000 1.725750 
# 
# From -- ./inp_files/5740.got.cif
#   From: 2010.03.12/outbox.cif.g09.slc.cpg/sg18_3_cif.got.tgz:5740.got - 2010.04.10 18:53:55.
