data_PCOD8155845
_publ_section_title
;
Structure prediction by ZEFSAII (Michael W. Deem and Ramdas Pophale) SiO2 
 PCOD8155845
Probable space group: P 21 21 2
;
_chemical_formula_sum "Si O2"
_cell_formula_units_Z 32
_cell_length_a 17.686777
_cell_length_b 8.246303
_cell_length_c 11.651343
_cell_angle_alpha 90.000000
_cell_angle_beta 90.000000
_cell_angle_gamma 90.000000
_cell_volume 1699.354461
_symmetry_space_group_name_H-M "P 21 21 2"
_symmetry_group_IT_number 18
_symmetry_cell_setting 'orthorhombic'
loop_
_space_group_symop_operation_xyz
x,y,z
-x,-y,z
1/2+x,1/2-y,-z
1/2-x,1/2+y,-z
loop_
_atom_site_type_symbol
_atom_site_label
_atom_site_fract_x
_atom_site_fract_y
_atom_site_fract_z
Si Si1 0.120349 0.332546 0.054599
Si Si2 0.768102 0.551755 0.389466
Si Si3 0.064218 0.131911 0.384192
Si Si4 0.193339 0.344458 0.813387
Si Si5 0.707582 0.352935 0.758092
Si Si6 0.510630 0.691800 0.829832
Si Si7 0.838805 0.364235 0.198726
Si Si8 0.657858 0.262776 0.424113
O O1 0.167948 0.196703 0.122476
O O2 0.030529 0.290174 0.067696
O O3 0.139692 0.507539 0.102764
O O4 0.137994 0.335842 0.920651
O O5 0.750236 0.699044 0.301171
O O6 0.833501 0.442814 0.326725
O O7 0.696605 0.439815 0.416954
O O8 0.792875 0.626370 0.510894
O O9 0.145727 0.072102 0.332074
O O10 0.031662 0.253560 0.287112
O O11 0.079356 0.218086 0.505940
O O12 0.000000 0.000000 0.405213
O O13 0.228581 0.520050 0.791894
O O14 0.258434 0.212190 0.832181
O O15 0.141835 0.300015 0.703453
O O16 0.500000 0.500000 0.846391
O O17 0.598770 0.724309 0.812403
#
# Coordination Sequence:
#
# PCOD8155845 Si02
#       8
#     4   4   4   4   4   4   4   4
#     4  10  20  33  52  80 109 135 175 223 268 316
#     4   9  19  33  54  82 105 134 176 224 265 304
#     4   9  17  31  52  75  99 131 172 216 257 303
#     4  11  20  33  53  78 110 141 171 213 273 328
#     4   9  18  34  53  76 103 134 179 225 260 307
#     4  10  20  36  58  79 102 138 183 228 267 305
#     4  10  20  34  57  81 102 136 181 227 265 302
#     4  10  19  32  51  77 109 139 171 214 269 321
#
# _framework density 18.830680999999998
#
# number of rings (size 3 to 8) (size 9 to 14) (size 15 to 20)
#    0.000    2.250    0.000    5.625    0.000    2.000 
#    0.000    1.875    0.000    4.500    0.000    0.000 
#    0.000    0.000    0.000    0.000    0.000    0.000 
#
# Total GULP energy -396511.748152 kJ/mol
# GULP energy per Si atom -12390.992130 kJ/mol
# Density = 1.878782 g / cm^3
# Si number density = 18.830681 Si / 1000 Ang^3
#
#
#
# Elastic Constant Matrix: (Units=GPa)
#
#
# Indices 1 2 3 4 5 6 
#
# 1 57.7419 17.3554 33.1200 0.0000 0.0000 0.0000
# 2 17.3554 85.0954 25.9170 0.0000 0.0000 0.0000
# 3 33.1200 25.9170 126.5672 0.0000 0.0000 0.0000
# 4 0.0000 0.0000 0.0000 21.4195 0.0000 0.0000
# 5 0.0000 0.0000 0.0000 0.0000 22.6816 0.0000
# 6 0.0000 0.0000 0.0000 0.0000 0.0000 24.8435
#
#
#
# Elastic Compliance Matrix: (Units=1/GPa)
#
#
# Indices 1 2 3 4 5 6 
#
# 1 0.020976 -0.002780 -0.004920 0.000000 0.000000 0.000000
# 2 -0.002780 0.012902 -0.001914 0.000000 0.000000 0.000000
# 3 -0.004920 -0.001914 0.009580 0.000000 0.000000 0.000000
# 4 0.000000 0.000000 0.000000 0.046686 0.000000 0.000000
# 5 0.000000 0.000000 0.000000 0.000000 0.044089 0.000000
# 6 0.000000 0.000000 0.000000 0.000000 0.000000 0.040252
#
#
# Mechanical properties :
#
#
# Convention : Reuss Voigt Hill
#
# Bulk Modulus (GPa) = 41.27122 46.90991 44.09056
# Shear Modulus (GPa) = 24.77835 26.65640 25.71737
#
# Velocity S-wave (km/s) = 3.63140 3.76651 3.69957
# Velocity P-wave (km/s) = 6.28867 6.62427 6.45865
#
# Compressibility (1/GPa) = 0.02422996
#
# Stress axis : x y z
#
# Youngs Moduli (GPa) = 47.67389 77.51034 104.38030
#
# Poissons Ratio (x) = 0.21545 0.51352
# Poissons Ratio (y) = 0.13252 0.19983
# Poissons Ratio (z) = 0.23454 0.14839
#
# Static dielectric constant tensor:
#      x y z
#    x 3.265580 0.000000 0.000000 
#    y 0.000000 3.491370 0.000000 
#    z 0.000000 0.000000 3.564040 
# 
# 
# High freq. dielectric constant tensor:
#      x y z
#    x 1.700600 0.000000 0.000000 
#    y 0.000000 1.736140 0.000000 
#    z 0.000000 0.000000 1.726610 
# 
# From -- ./inp_files/6119.got.cif
#   From: 2010.03.12/outbox.cif.g09.slc.cpg/sg18_4_cif.got.tgz:6119.got - 2010.04.10 18:53:55.
