data_PCOD8155864
_publ_section_title
;
Structure prediction by ZEFSAII (Michael W. Deem and Ramdas Pophale) SiO2 
 PCOD8155864
Probable space group: P 21 21 2
;
_chemical_formula_sum "Si O2"
_cell_formula_units_Z 26
_cell_length_a 19.678936
_cell_length_b 8.653759
_cell_length_c 7.501594
_cell_angle_alpha 90.000000
_cell_angle_beta 90.000000
_cell_angle_gamma 90.000000
_cell_volume 1277.497224
_symmetry_space_group_name_H-M "P 21 21 2"
_symmetry_group_IT_number 18
_symmetry_cell_setting 'orthorhombic'
loop_
_space_group_symop_operation_xyz
x,y,z
-x,-y,z
1/2+x,1/2-y,-z
1/2-x,1/2+y,-z
loop_
_atom_site_type_symbol
_atom_site_label
_atom_site_fract_x
_atom_site_fract_y
_atom_site_fract_z
Si Si1 0.698933 0.946944 0.517085
Si Si2 0.103626 0.270739 0.858968
Si Si3 0.881336 0.311255 0.172208
Si Si4 0.864241 0.964821 0.143676
Si Si5 0.000000 0.500000 0.008815
Si Si6 0.705309 0.969863 0.113697
Si Si7 0.337604 0.705933 0.504901
O O1 0.645548 0.848684 0.630646
O O2 0.684086 0.910717 0.310076
O O3 0.775752 0.899529 0.565589
O O4 0.691645 0.127596 0.562303
O O5 0.172007 0.361876 0.917669
O O6 0.107362 0.218973 0.653071
O O7 0.038336 0.380435 0.879863
O O8 0.096767 0.122440 0.985497
O O9 0.899477 0.130857 0.164087
O O10 0.948543 0.410164 0.137256
O O11 0.822594 0.348621 0.029112
O O12 0.785474 0.987279 0.095336
O O13 0.874342 0.869200 0.325555
#
# Coordination Sequence:
#
# PCOD8155864 Si02
#       7
#     4   4   4   4   2   4   4
#     4  10  19  34  57  88 120 148 184 233 291 346
#     4  10  21  39  58  82 118 156 193 237 280 336
#     4  11  22  38  59  84 119 158 192 236 285 341
#     4  11  21  34  61  93 116 143 186 241 302 351
#     4  10  24  44  60  74 110 164 210 236 274 336
#     4   9  19  35  58  90 119 149 182 227 293 355
#     4  10  20  35  60  92 123 148 184 238 297 357
#
# _framework density 20.352295000000002
#
# number of rings (size 3 to 8) (size 9 to 14) (size 15 to 20)
#    0.000    1.846    0.000    6.462    0.000    5.538 
#    0.000   12.308    0.000    5.538    0.000    0.000 
#    0.000    0.000    0.000    0.000    0.000    0.000 
#
# Total GULP energy -322523.228731 kJ/mol
# GULP energy per Si atom -12404.739567 kJ/mol
# Density = 2.030597 g / cm^3
# Si number density = 20.352295 Si / 1000 Ang^3
#
#
#
# Elastic Constant Matrix: (Units=GPa)
#
#
# Indices 1 2 3 4 5 6 
#
# 1 70.0627 18.5125 27.9723 0.0000 0.0000 0.0000
# 2 18.5125 124.7508 46.1664 0.0000 0.0000 0.0000
# 3 27.9723 46.1664 85.4019 0.0000 0.0000 0.0000
# 4 0.0000 0.0000 0.0000 31.4898 0.0000 0.0000
# 5 0.0000 0.0000 0.0000 0.0000 15.5746 0.0000
# 6 0.0000 0.0000 0.0000 0.0000 0.0000 22.7166
#
#
#
# Elastic Compliance Matrix: (Units=1/GPa)
#
#
# Indices 1 2 3 4 5 6 
#
# 1 0.016451 -0.000559 -0.005086 0.000000 0.000000 0.000000
# 2 -0.000559 0.010040 -0.005244 0.000000 0.000000 0.000000
# 3 -0.005086 -0.005244 0.016210 0.000000 0.000000 0.000000
# 4 0.000000 0.000000 0.000000 0.031756 0.000000 0.000000
# 5 0.000000 0.000000 0.000000 0.000000 0.064207 0.000000
# 6 0.000000 0.000000 0.000000 0.000000 0.000000 0.044021
#
#
# Mechanical properties :
#
#
# Convention : Reuss Voigt Hill
#
# Bulk Modulus (GPa) = 47.79584 51.72421 49.76002
# Shear Modulus (GPa) = 23.64759 26.46048 25.05403
#
# Velocity S-wave (km/s) = 3.41238 3.60963 3.51239
# Velocity P-wave (km/s) = 6.24988 6.54540 6.39935
#
# Compressibility (1/GPa) = 0.02092232
#
# Stress axis : x y z
#
# Youngs Moduli (GPa) = 60.78550 99.60544 61.68993
#
# Poissons Ratio (x) = 0.05568 0.31377
# Poissons Ratio (y) = 0.03398 0.32351
# Poissons Ratio (z) = 0.30917 0.52234
#
# Static dielectric constant tensor:
#      x y z
#    x 3.431010 0.000000 0.000000 
#    y 0.000000 3.830030 0.000000 
#    z 0.000000 0.000000 3.702470 
# 
# 
# High freq. dielectric constant tensor:
#      x y z
#    x 1.766320 0.000000 0.000000 
#    y 0.000000 1.804410 0.000000 
#    z 0.000000 0.000000 1.799960 
# 
# From -- ./inp_files/4639.got.cif
#   From: 2010.03.12/outbox.cif.g09.slc.cpg/sg18_3_cif.got.tgz:4639.got - 2010.04.10 18:53:55.
