data_PCOD8155311
_publ_section_title
;
Structure prediction by ZEFSAII (Michael W. Deem and Ramdas Pophale) SiO2 
 PCOD8155311
Probable space group: P 2 2 2
;
_chemical_formula_sum "Si O2"
_cell_formula_units_Z 19
_cell_length_a 10.966073
_cell_length_b 13.807717
_cell_length_c 6.242535
_cell_angle_alpha 90.000000
_cell_angle_beta 90.000000
_cell_angle_gamma 90.000000
_cell_volume 945.222380
_symmetry_space_group_name_H-M "P 2 2 2"
_symmetry_group_IT_number 16
_symmetry_cell_setting 'orthorhombic'
loop_
_space_group_symop_operation_xyz
x,y,z
-x,-y,z
x,-y,-z
-x,y,-z
loop_
_atom_site_type_symbol
_atom_site_label
_atom_site_fract_x
_atom_site_fract_y
_atom_site_fract_z
Si Si1 0.701999 0.233064 0.283532
Si Si2 0.865575 0.886773 0.019158
Si Si3 0.120436 0.403316 0.621396
Si Si4 0.669049 0.902212 0.355550
Si Si5 0.500000 0.171076 0.000000
Si Si6 0.000000 0.500000 0.000000
O O1 0.766858 0.330788 0.360536
O O2 0.638626 0.186218 0.489254
O O3 0.595050 0.246062 0.108739
O O4 0.796608 0.157125 0.183611
O O5 0.799101 0.872789 0.248036
O O6 0.000000 0.839830 0.000000
O O7 0.872911 0.000000 0.000000
O O8 0.165512 0.500000 0.500000
O O9 0.000000 0.360425 0.500000
O O10 0.085066 0.429938 0.862176
O O11 0.566096 0.902187 0.169021
O O12 0.669295 0.000000 0.500000
#
# Coordination Sequence:
#
# PCOD8155311 Si02
#       6
#     4   4   4   4   2   1
#     4  11  23  39  64  90 126 166 208 263 311 375
#     4  10  22  38  55  91 132 163 203 242 309 382
#     4   9  21  38  64  97 124 159 209 255 328 392
#     4  11  23  42  61  86 122 171 213 263 305 367
#     4  10  26  41  60  89 118 168 228 255 318 371
#     4   8  18  40  64  92 130 156 190 264 314 386
#
# _framework density 20.101089000000002
#
# number of rings (size 3 to 8) (size 9 to 14) (size 15 to 20)
#    0.000    2.105    2.105    0.632    4.421    7.579 
#    0.000    0.000    0.000    9.474    0.000    0.000 
#    0.000    0.000    0.000    0.000    0.000    0.000 
#
# Total GULP energy -235403.420418 kJ/mol
# GULP energy per Si atom -12389.653706 kJ/mol
# Density = 2.005534 g / cm^3
# Si number density = 20.101089 Si / 1000 Ang^3
#
#
#
# Elastic Constant Matrix: (Units=GPa)
#
#
# Indices 1 2 3 4 5 6 
#
# 1 140.6488 49.7738 63.1595 0.0000 0.0000 0.0000
# 2 49.7738 95.4630 52.3778 0.0000 0.0000 0.0000
# 3 63.1595 52.3778 137.7845 0.0000 0.0000 0.0000
# 4 0.0000 0.0000 0.0000 20.0865 0.0000 0.0000
# 5 0.0000 0.0000 0.0000 0.0000 29.4902 0.0000
# 6 0.0000 0.0000 0.0000 0.0000 0.0000 -5.1972
#
#
#
# Elastic Compliance Matrix: (Units=1/GPa)
#
#
# Indices 1 2 3 4 5 6 
#
# 1 0.009717 -0.003314 -0.003195 0.000000 0.000000 0.000000
# 2 -0.003314 0.014366 -0.003942 0.000000 0.000000 0.000000
# 3 -0.003195 -0.003942 0.010221 0.000000 0.000000 0.000000
# 4 0.000000 0.000000 0.000000 0.049785 0.000000 0.000000
# 5 0.000000 0.000000 0.000000 0.000000 0.033910 0.000000
# 6 0.000000 0.000000 0.000000 0.000000 0.000000 -0.192413
#
#
# Mechanical properties :
#
#
# Convention : Reuss Voigt Hill
#
# Bulk Modulus (GPa) = 74.61067 78.27984 76.44526
# Shear Modulus (GPa) = -101.94406 22.78159 -39.58124
#
# Velocity S-wave (km/s) = -7.12922 3.37018 -4.44228
# Velocity P-wave (km/s) = 5.52896 7.36015 3.43528
#
# Compressibility (1/GPa) = 0.01340291
#
# Stress axis : x y z
#
# Youngs Moduli (GPa) = 102.91099 69.60914 97.84094
#
# Poissons Ratio (x) = 0.23066 0.31256
# Poissons Ratio (y) = 0.34101 0.38570
# Poissons Ratio (z) = 0.32876 0.27441
#
# Static dielectric constant tensor:
#      x y z
#    x 4.189160 0.000000 0.000000 
#    y 0.000000 3.418310 0.000000 
#    z 0.000000 0.000000 4.908470 
# 
# 
# High freq. dielectric constant tensor:
#      x y z
#    x 1.785870 0.000000 0.000000 
#    y 0.000000 1.749040 0.000000 
#    z 0.000000 0.000000 1.807380 
# 
# From -- ./inp_files/1385.got.cif
#   From: 2010.03.12/outbox.cif.g09.slc.cpg/sg16_1_cif.got.tgz:1385.got - 2010.03.31 00:51:45.
