data_PCOD8155728
_publ_section_title
;
Structure prediction by ZEFSAII (Michael W. Deem and Ramdas Pophale) SiO2 
 PCOD8155728
Probable space group: P 2 2 21
;
_chemical_formula_sum "Si O2"
_cell_formula_units_Z 24
_cell_length_a 10.534319
_cell_length_b 8.114034
_cell_length_c 10.558787
_cell_angle_alpha 90.000000
_cell_angle_beta 90.000000
_cell_angle_gamma 90.000000
_cell_volume 902.521004
_symmetry_space_group_name_H-M "P 2 2 21"
_symmetry_group_IT_number 17
_symmetry_cell_setting 'orthorhombic'
loop_
_space_group_symop_operation_xyz
x,y,z
-x,-y,1/2+z
x,-y,-z
-x,y,1/2-z
loop_
_atom_site_type_symbol
_atom_site_label
_atom_site_fract_x
_atom_site_fract_y
_atom_site_fract_z
Si Si1 0.427529 0.319993 0.443344
Si Si2 0.375041 0.171561 0.696797
Si Si3 0.875042 0.671562 0.303203
Si Si4 0.839947 0.614381 0.872288
Si Si5 0.927529 0.180007 0.443343
Si Si6 0.339947 0.114381 0.127712
O O1 0.452650 0.500000 0.500000
O O2 0.381477 0.184933 0.546494
O O3 0.305619 0.324865 0.349098
O O4 0.559565 0.263456 0.381251
O O5 0.500000 0.266731 0.750000
O O6 0.250000 0.249999 0.750001
O O7 0.379914 0.984092 0.745909
O O8 0.879914 0.484093 0.254091
O O9 0.881478 0.684933 0.453507
O O10 0.000000 0.766731 0.250000
O O11 0.940435 0.763456 0.881251
O O12 0.843861 0.500000 0.000000
O O13 0.805619 0.175136 0.349098
O O14 0.952650 0.000000 0.500000
O O15 0.343861 0.000000 0.000000
#
# Coordination Sequence:
#
# PCOD8155728 Si02
#       6
#     4   4   4   4   4   4
#     4  11  23  45  75 105 147 194 247 310 371 441
#     4  12  22  44  76 105 143 194 247 302 372 443
#     4  12  22  44  76 105 143 194 247 302 372 443
#     4  11  23  43  75 106 143 198 243 305 373 434
#     4  11  23  45  75 105 147 194 247 310 371 441
#     4  11  23  43  75 106 143 198 243 305 373 434
#
# _framework density 26.592178000000001
#
# number of rings (size 3 to 8) (size 9 to 14) (size 15 to 20)
#    0.000    0.667   10.000    0.000    0.000    1.333 
#    6.000    3.333    0.000    0.000    0.000    0.000 
#    0.000    0.000    0.000    0.000    0.000    0.000 
#
# Total GULP energy -297517.043870 kJ/mol
# GULP energy per Si atom -12396.543495 kJ/mol
# Density = 2.653165 g / cm^3
# Si number density = 26.592178 Si / 1000 Ang^3
#
#
#
# Elastic Constant Matrix: (Units=GPa)
#
#
# Indices 1 2 3 4 5 6 
#
# 1 270.0633 85.7182 5.1403 0.0000 0.0000 0.0000
# 2 85.7182 137.6401 28.5820 0.0000 0.0000 0.0000
# 3 5.1403 28.5820 68.3644 0.0000 0.0000 0.0000
# 4 0.0000 0.0000 0.0000 42.6346 0.0000 0.0000
# 5 0.0000 0.0000 0.0000 0.0000 37.8073 0.0000
# 6 0.0000 0.0000 0.0000 0.0000 0.0000 49.2492
#
#
#
# Elastic Compliance Matrix: (Units=1/GPa)
#
#
# Indices 1 2 3 4 5 6 
#
# 1 0.004670 -0.003105 0.000947 0.000000 0.000000 0.000000
# 2 -0.003105 0.010021 -0.003956 0.000000 0.000000 0.000000
# 3 0.000947 -0.003956 0.016210 0.000000 0.000000 0.000000
# 4 0.000000 0.000000 0.000000 0.023455 0.000000 0.000000
# 5 0.000000 0.000000 0.000000 0.000000 0.026450 0.000000
# 6 0.000000 0.000000 0.000000 0.000000 0.000000 0.020305
#
#
# Mechanical properties :
#
#
# Convention : Reuss Voigt Hill
#
# Bulk Modulus (GPa) = 53.55333 79.43877 66.49605
# Shear Modulus (GPa) = 41.81862 49.71337 45.76600
#
# Velocity S-wave (km/s) = 3.96989 4.32843 4.15303
# Velocity P-wave (km/s) = 6.41840 7.41069 6.93232
#
# Compressibility (1/GPa) = 0.01867297
#
# Stress axis : x y z
#
# Youngs Moduli (GPa) = 214.11337 99.79354 61.68951
#
# Poissons Ratio (x) = 0.30989 -0.05843
# Poissons Ratio (y) = 0.66488 0.24404
# Poissons Ratio (z) = -0.20278 0.39478
#
# Static dielectric constant tensor:
#      x y z
#    x 5.340890 0.000000 0.000000 
#    y 0.000000 4.732590 0.000000 
#    z 0.000000 0.000000 5.607690 
# 
# 
# High freq. dielectric constant tensor:
#      x y z
#    x 2.107760 0.000000 0.000000 
#    y 0.000000 2.055650 0.000000 
#    z 0.000000 0.000000 2.063510 
# 
# From -- ./inp_files/6930.got.cif
#   From: 2010.03.12/outbox.cif.g09.slc.cpg/sg17_4_cif.got.tgz:6930.got - 2010.04.10 18:46:23.
