data_PCOD8155449
_publ_section_title
;
Structure prediction by ZEFSAII (Michael W. Deem and Ramdas Pophale) SiO2 
 PCOD8155449
Probable space group: P 2 2 21
;
_chemical_formula_sum "Si O2"
_cell_formula_units_Z 16
_cell_length_a 5.289925
_cell_length_b 8.525681
_cell_length_c 15.937866
_cell_angle_alpha 90.000000
_cell_angle_beta 90.000000
_cell_angle_gamma 90.000000
_cell_volume 718.801152
_symmetry_space_group_name_H-M "P 2 2 21"
_symmetry_group_IT_number 17
_symmetry_cell_setting 'orthorhombic'
loop_
_space_group_symop_operation_xyz
x,y,z
-x,-y,1/2+z
x,-y,-z
-x,y,1/2-z
loop_
_atom_site_type_symbol
_atom_site_label
_atom_site_fract_x
_atom_site_fract_y
_atom_site_fract_z
Si Si1 0.027315 0.061134 0.406950
Si Si2 0.957517 0.431245 0.093298
Si Si3 0.469188 0.096622 0.845247
Si Si4 0.543248 0.436171 0.594362
O O1 0.795117 0.995353 0.352366
O O2 0.297808 0.013245 0.370237
O O3 0.991628 0.000000 0.500000
O O4 0.013960 0.246769 0.406636
O O5 0.700973 0.487467 0.140243
O O6 0.199505 0.507304 0.140580
O O7 0.933509 0.500000 0.000000
O O8 0.500000 0.153845 0.750000
O O9 0.472478 0.247967 0.905635
O O10 0.564919 0.500000 0.500000
#
# Coordination Sequence:
#
# PCOD8155449 Si02
#       4
#     4   4   4   4
#     4  12  23  42  71  97 128 176 229 276 326 408
#     4  10  20  36  61  93 123 156 216 276 316 374
#     4  12  26  44  65  99 142 179 219 284 351 394
#     4  10  19  38  63  91 126 169 221 268 324 402
#
# _framework density 22.259285999999999
#
# number of rings (size 3 to 8) (size 9 to 14) (size 15 to 20)
#    0.000    1.000    0.000   10.500    0.000    0.000 
#    0.000    7.500    0.000    0.000    0.000    0.000 
#    0.000    0.000    0.000    0.000    0.000    0.000 
#
# Total GULP energy -198376.678867 kJ/mol
# GULP energy per Si atom -12398.542429 kJ/mol
# Density = 2.220862 g / cm^3
# Si number density = 22.259286 Si / 1000 Ang^3
#
#
#
# Elastic Constant Matrix: (Units=GPa)
#
#
# Indices 1 2 3 4 5 6 
#
# 1 187.4746 33.6549 -11.5055 0.0000 0.0000 0.0000
# 2 33.6549 154.8578 5.1543 0.0000 0.0000 0.0000
# 3 -11.5055 5.1543 42.9731 0.0000 0.0000 0.0000
# 4 0.0000 0.0000 0.0000 13.3739 0.0000 0.0000
# 5 0.0000 0.0000 0.0000 0.0000 17.1673 0.0000
# 6 0.0000 0.0000 0.0000 0.0000 0.0000 43.6500
#
#
#
# Elastic Compliance Matrix: (Units=1/GPa)
#
#
# Indices 1 2 3 4 5 6 
#
# 1 0.005668 -0.001287 0.001672 0.000000 0.000000 0.000000
# 2 -0.001287 0.006776 -0.001157 0.000000 0.000000 0.000000
# 3 0.001672 -0.001157 0.023857 0.000000 0.000000 0.000000
# 4 0.000000 0.000000 0.000000 0.074772 0.000000 0.000000
# 5 0.000000 0.000000 0.000000 0.000000 0.058250 0.000000
# 6 0.000000 0.000000 0.000000 0.000000 0.000000 0.022910
#
#
# Mechanical properties :
#
#
# Convention : Reuss Voigt Hill
#
# Bulk Modulus (GPa) = 28.77319 48.87923 38.82621
# Shear Modulus (GPa) = 24.34711 38.70504 31.52607
#
# Velocity S-wave (km/s) = 3.31085 4.17445 3.76747
# Velocity P-wave (km/s) = 5.25072 6.72617 6.03371
#
# Compressibility (1/GPa) = 0.03475457
#
# Stress axis : x y z
#
# Youngs Moduli (GPa) = 176.43617 147.58300 41.91678
#
# Poissons Ratio (x) = 0.19000 -0.07008
# Poissons Ratio (y) = 0.22715 0.04851
# Poissons Ratio (z) = -0.29498 0.17081
#
# Static dielectric constant tensor:
#      x y z
#    x 6.720450 0.000000 0.000000 
#    y 0.000000 4.181550 0.000000 
#    z 0.000000 0.000000 3.513080 
# 
# 
# High freq. dielectric constant tensor:
#      x y z
#    x 1.921370 0.000000 0.000000 
#    y 0.000000 1.888450 0.000000 
#    z 0.000000 0.000000 1.830760 
# 
# From -- ./inp_files/8855.got.cif
#   From: 2010.03.12/outbox.cif.g09.slc.cpg/sg17_5_cif.got.tgz:8855.got - 2010.04.10 18:46:23.
