data_PCOD8155031
_publ_section_title
;
Structure prediction by ZEFSAII (Michael W. Deem and Ramdas Pophale) SiO2 
 PCOD8155031
Probable space group: C 2/C
;
_chemical_formula_sum "Si O2"
_cell_formula_units_Z 36
_cell_length_a 28.169597
_cell_length_b 6.864374
_cell_length_c 15.032942
_cell_angle_alpha 90.000000
_cell_angle_beta 146.278858
_cell_angle_gamma 90.000000
_cell_volume 1613.752679
_symmetry_space_group_name_H-M "C 2/C"
_symmetry_group_IT_number 15
_symmetry_cell_setting 'monoclinic'
loop_
_space_group_symop_operation_xyz
x,y,z
-x,y,1/2-z
-x,-y,-z
x,-y,1/2+z
1/2+x,1/2+y,z
1/2-x,1/2+y,1/2-z
1/2-x,1/2-y,-z
1/2+x,1/2-y,1/2+z
loop_
_atom_site_type_symbol
_atom_site_label
_atom_site_fract_x
_atom_site_fract_y
_atom_site_fract_z
Si Si1 0.809394 0.631344 0.529182
Si Si2 0.830986 0.971045 0.437435
Si Si3 0.500000 0.309043 0.250000
Si Si4 0.700760 0.706538 0.792177
Si Si5 0.945104 0.583648 0.333670
O O1 0.750000 0.750000 0.500000
O O2 0.771294 0.416313 0.455290
O O3 0.899839 0.602528 0.718647
O O4 0.820520 0.751803 0.456802
O O5 0.915251 0.061691 0.612388
O O6 0.747466 0.100746 0.327858
O O7 0.838127 0.937510 0.343268
O O8 0.500882 0.182095 0.342110
O O9 0.622961 0.761717 0.734811
O O10 0.000000 0.500000 0.500000
#
# Coordination Sequence:
#
# PCOD8155031 Si02
#       5
#     8   8   4   8   8
#     4  12  25  47  79 104 146 199 249 305 371 441
#     4  12  27  47  79 109 149 198 249 306 375 447
#     4  12  30  50  70 112 160 192 246 318 374 438
#     4  12  26  51  76 112 147 198 255 302 372 459
#     4  12  30  48  76 112 155 195 252 310 373 446
#
# _framework density 22.308250999999998
#
# number of rings (size 3 to 8) (size 9 to 14) (size 15 to 20)
#    0.000    0.000    6.667    2.000   12.444    0.889 
#    0.000    0.000    0.000    0.000    0.000    0.000 
#    0.000    0.000    0.000    0.000    0.000    0.000 
#
# Total GULP energy -223250.711603 kJ/mol
# GULP energy per Si atom -12402.817311 kJ/mol
# Density = 2.225748 g / cm^3
# Si number density = 22.308251 Si / 1000 Ang^3
#
#
#
# Elastic Constant Matrix: (Units=GPa)
#
#
# Indices 1 2 3 4 5 6 
#
# 1 117.3751 39.8007 26.0563 0.0000 -10.6379 0.0000
# 2 39.8007 111.2262 41.5626 0.0000 -4.5269 0.0000
# 3 26.0563 41.5626 128.5001 0.0000 -11.2146 0.0000
# 4 0.0000 0.0000 0.0000 40.4868 0.0000 -4.7388
# 5 -10.6379 -4.5269 -11.2146 0.0000 34.7279 0.0000
# 6 0.0000 0.0000 0.0000 -4.7388 0.0000 46.5757
#
#
#
# Elastic Compliance Matrix: (Units=1/GPa)
#
#
# Indices 1 2 3 4 5 6 
#
# 1 0.009991 -0.003183 -0.000787 0.000000 0.002391 0.000000
# 2 -0.003183 0.011244 -0.003034 0.000000 -0.000489 0.000000
# 3 -0.000787 -0.003034 0.009125 0.000000 0.002310 0.000000
# 4 0.000000 0.000000 0.000000 0.024997 0.000000 0.002543
# 5 0.002391 -0.000489 0.002310 0.000000 0.030210 0.000000
# 6 0.000000 0.000000 0.000000 0.002543 0.000000 0.021729
#
#
# Mechanical properties :
#
#
# Convention : Reuss Voigt Hill
#
# Bulk Modulus (GPa) = 61.16446 63.54895 62.35671
# Shear Modulus (GPa) = 39.44634 41.00355 40.22495
#
# Velocity S-wave (km/s) = 4.20961 4.29189 4.25095
# Velocity P-wave (km/s) = 7.14878 7.28760 7.21852
#
# Compressibility (1/GPa) = 0.01634936
#
# Stress axis : x y z
#
# Youngs Moduli (GPa) = 100.09311 88.93942 109.59319
#
# Poissons Ratio (x) = 0.28313 0.08630
# Poissons Ratio (y) = 0.31864 0.33249
# Poissons Ratio (z) = 0.07882 0.26983
#
# Static dielectric constant tensor:
#      x y z
#    x 4.155410 0.000000 -0.220630 
#    y 0.000000 7.055700 0.000000 
#    z -0.220630 0.000000 4.181380 
# 
# 
# High freq. dielectric constant tensor:
#      x y z
#    x 1.884910 0.000000 -0.013920 
#    y 0.000000 1.885480 0.000000 
#    z -0.013920 0.000000 1.893640 
# 
# From -- ./inp_files/180272.got.cif
#   From: 2010.06.25/outbox.cif.g09.slc.cpg/sg15_91_cif.got.tgz:180272.got - 2010.06.28 07:06:18.
