data_PCOD8155195
_publ_section_title
;
Structure prediction by ZEFSAII (Michael W. Deem and Ramdas Pophale) SiO2 
 PCOD8155195
Probable space group: C 2/C
;
_chemical_formula_sum "Si O2"
_cell_formula_units_Z 64
_cell_length_a 23.786966
_cell_length_b 28.471988
_cell_length_c 17.252578
_cell_angle_alpha 90.000000
_cell_angle_beta 19.397034
_cell_angle_gamma 90.000000
_cell_volume 3880.572565
_symmetry_space_group_name_H-M "C 2/C"
_symmetry_group_IT_number 15
_symmetry_cell_setting 'monoclinic'
loop_
_space_group_symop_operation_xyz
x,y,z
-x,y,1/2-z
-x,-y,-z
x,-y,1/2+z
1/2+x,1/2+y,z
1/2-x,1/2+y,1/2-z
1/2-x,1/2-y,-z
1/2+x,1/2-y,1/2+z
loop_
_atom_site_type_symbol
_atom_site_label
_atom_site_fract_x
_atom_site_fract_y
_atom_site_fract_z
Si Si1 0.942630 0.296054 0.700087
Si Si2 0.267997 0.068318 0.878308
Si Si3 0.047348 0.386206 0.490122
Si Si4 0.121638 0.113772 0.841042
Si Si5 0.939019 0.931662 0.707445
Si Si6 0.227736 0.796088 0.129633
Si Si7 0.945177 0.476734 0.697177
Si Si8 0.770185 0.976739 0.372109
O O1 0.886741 0.249988 0.726705
O O2 0.941208 0.338397 0.639021
O O3 0.127727 0.286769 0.494705
O O4 0.809908 0.308993 0.940133
O O5 0.373965 0.110093 0.699032
O O6 0.384105 0.022432 0.730685
O O7 0.208957 0.085025 0.040895
O O8 0.106803 0.054746 0.036227
O O9 0.190602 0.385086 0.369021
O O10 0.934841 0.432377 0.652769
O O11 0.101087 0.161571 0.818813
O O12 0.109627 0.067574 0.802952
O O13 0.979393 0.110115 0.093813
O O14 0.886016 0.977485 0.728802
O O15 0.135496 0.486327 0.479037
O O16 0.822203 0.465086 0.927841
#
# Coordination Sequence:
#
# PCOD8155195 Si02
#       8
#     8   8   8   8   8   8   8   8
#     4   9  17  30  47  65  84 105 131 166 207 248
#     4   9  17  28  41  59  84 112 140 169 199 232
#     4   9  16  27  44  62  81 109 141 167 197 243
#     4   9  16  27  44  62  81 109 141 167 197 243
#     4   9  17  28  41  59  84 112 140 169 199 232
#     4   9  17  30  47  65  84 105 131 166 207 248
#     4   9  16  26  41  61  84 110 139 168 199 238
#     4   9  16  26  41  61  84 110 139 168 199 238
#
# _framework density 16.492411000000001
#
# number of rings (size 3 to 8) (size 9 to 14) (size 15 to 20)
#    0.000    3.000    0.000    1.500    0.000    3.000 
#    0.000    2.500    0.000    6.750    0.000    0.000 
#    0.000    0.000    0.000    0.000    0.000    0.000 
#
# Total GULP energy -396678.517024 kJ/mol
# GULP energy per Si atom -12396.203657 kJ/mol
# Density = 1.645487 g / cm^3
# Si number density = 16.492411 Si / 1000 Ang^3
#
#
#
# Elastic Constant Matrix: (Units=GPa)
#
#
# Indices 1 2 3 4 5 6 
#
# 1 55.2507 55.5205 31.1241 0.1213 14.8676 -0.0901
# 2 55.5205 127.6906 62.9411 0.2412 21.2718 -0.1216
# 3 31.1241 62.9411 65.8662 0.3297 16.8049 -0.2204
# 4 0.1213 0.2412 0.3297 27.2484 -0.1272 3.8761
# 5 14.8676 21.2718 16.8049 -0.1272 19.3346 0.0766
# 6 -0.0901 -0.1216 -0.2204 3.8761 0.0766 26.1461
#
#
#
# Elastic Compliance Matrix: (Units=1/GPa)
#
#
# Indices 1 2 3 4 5 6 
#
# 1 0.034435 -0.012246 -0.001606 -0.000093 -0.011611 0.000096
# 2 -0.012246 0.019567 -0.012621 0.000037 -0.001141 -0.000060
# 3 -0.001606 -0.012621 0.031028 -0.000352 -0.011851 0.000284
# 4 -0.000093 0.000037 -0.000352 0.037498 0.000606 -0.005564
# 5 -0.011611 -0.001141 -0.011851 0.000606 0.072211 -0.000447
# 6 0.000096 -0.000060 0.000284 -0.005564 -0.000447 0.039075
#
#
# Mechanical properties :
#
#
# Convention : Reuss Voigt Hill
#
# Bulk Modulus (GPa) = 31.16840 60.88656 46.02748
# Shear Modulus (GPa) = 16.80929 21.16059 18.98494
#
# Velocity S-wave (km/s) = 3.19598 3.58585 3.39651
# Velocity P-wave (km/s) = 5.70602 7.35816 6.58412
#
# Compressibility (1/GPa) = 0.03208378
#
# Stress axis : x y z
#
# Youngs Moduli (GPa) = 29.04023 51.10637 32.22910
#
# Poissons Ratio (x) = 0.62586 0.05176
# Poissons Ratio (y) = 0.35564 0.40675
# Poissons Ratio (z) = 0.04664 0.64499
#
# Static dielectric constant tensor:
#      x y z
#    x 3.059640 -0.000110 0.174330 
#    y -0.000110 3.069130 0.000240 
#    z 0.174330 0.000240 3.123170 
# 
# 
# High freq. dielectric constant tensor:
#      x y z
#    x 1.621260 -0.000010 0.016880 
#    y -0.000010 1.615280 0.000030 
#    z 0.016880 0.000030 1.627230 
# 
# From -- ./inp_files/220489.got.cif
#   From: 2010.06.25/outbox.cif.g09.slc.cpg/sg15_111_cif.got.tgz:220489.got - 2010.06.28 07:06:18.
