data_PCOD8155141
_publ_section_title
;
Structure prediction by ZEFSAII (Michael W. Deem and Ramdas Pophale) SiO2 
 PCOD8155141
Probable space group: C 2/C
;
_chemical_formula_sum "Si O2"
_cell_formula_units_Z 36
_cell_length_a 14.964889
_cell_length_b 8.729033
_cell_length_c 23.325786
_cell_angle_alpha 90.000000
_cell_angle_beta 26.840529
_cell_angle_gamma 90.000000
_cell_volume 1375.758334
_symmetry_space_group_name_H-M "C 2/C"
_symmetry_group_IT_number 15
_symmetry_cell_setting 'monoclinic'
loop_
_space_group_symop_operation_xyz
x,y,z
-x,y,1/2-z
-x,-y,-z
x,-y,1/2+z
1/2+x,1/2+y,z
1/2-x,1/2+y,1/2-z
1/2-x,1/2-y,-z
1/2+x,1/2-y,1/2+z
loop_
_atom_site_type_symbol
_atom_site_label
_atom_site_fract_x
_atom_site_fract_y
_atom_site_fract_z
Si Si1 0.500000 0.553539 0.250000
Si Si2 0.960836 0.023769 0.955846
Si Si3 0.448515 0.966603 0.840834
Si Si4 0.097611 0.681411 0.524868
Si Si5 0.824636 0.167487 0.760955
O O1 0.302766 0.652136 0.374488
O O2 0.536931 0.443511 0.282307
O O3 0.924182 0.859460 0.946651
O O4 0.141813 0.119401 0.825001
O O5 0.761037 0.118942 0.053686
O O6 0.000000 0.000000 0.000000
O O7 0.500000 0.046738 0.750000
O O8 0.423499 0.094061 0.903341
O O9 0.885195 0.655912 0.235866
O O10 0.908345 0.643859 0.591950
#
# Coordination Sequence:
#
# PCOD8155141 Si02
#       5
#     4   8   8   8   8
#     4  12  28  48  80 116 170 206 272 328 406 480
#     4  12  28  50  79 118 160 211 265 334 403 482
#     4  12  26  50  82 116 159 207 269 333 404 476
#     4  12  28  50  78 120 160 212 268 326 409 474
#     4  12  26  50  80 118 156 213 265 337 404 478
#
# _framework density 26.167387000000002
#
# number of rings (size 3 to 8) (size 9 to 14) (size 15 to 20)
#    0.000    0.000    3.333    6.000    1.556    3.556 
#    0.000    0.000    0.000    0.000    0.000    0.000 
#    0.000    0.000    0.000    0.000    0.000    0.000 
#
# Total GULP energy -223131.963125 kJ/mol
# GULP energy per Si atom -12396.220174 kJ/mol
# Density = 2.610783 g / cm^3
# Si number density = 26.167387 Si / 1000 Ang^3
#
#
#
# Elastic Constant Matrix: (Units=GPa)
#
#
# Indices 1 2 3 4 5 6 
#
# 1 148.7773 46.5875 67.0043 -0.0019 -13.9577 0.0031
# 2 46.5875 107.1794 53.9174 -0.0027 12.6713 -0.0013
# 3 67.0043 53.9174 175.7628 -0.0170 -16.7142 0.0095
# 4 -0.0019 -0.0027 -0.0170 23.0986 0.0043 -10.7861
# 5 -13.9577 12.6713 -16.7142 0.0043 63.1918 -0.0049
# 6 0.0031 -0.0013 0.0095 -10.7861 -0.0049 29.6321
#
#
#
# Elastic Compliance Matrix: (Units=1/GPa)
#
#
# Indices 1 2 3 4 5 6 
#
# 1 0.008851 -0.002922 -0.002294 -0.000002 0.001934 -0.000001
# 2 -0.002922 0.012661 -0.003152 0.000000 -0.004018 0.000001
# 3 -0.002294 -0.003152 0.007737 0.000005 0.002172 0.000000
# 4 -0.000002 0.000000 0.000005 0.052158 -0.000001 0.018986
# 5 0.001934 -0.004018 0.002172 -0.000001 0.017632 0.000001
# 6 -0.000001 0.000001 0.000000 0.018986 0.000001 0.040658
#
#
# Mechanical properties :
#
#
# Convention : Reuss Voigt Hill
#
# Bulk Modulus (GPa) = 79.91362 85.19309 82.55336
# Shear Modulus (GPa) = 31.13235 40.79854 35.96545
#
# Velocity S-wave (km/s) = 3.45300 3.95287 3.71136
# Velocity P-wave (km/s) = 6.81933 7.31172 7.06982
#
# Compressibility (1/GPa) = 0.01251351
#
# Stress axis : x y z
#
# Youngs Moduli (GPa) = 112.98204 78.98325 129.24165
#
# Poissons Ratio (x) = 0.23078 0.29647
# Poissons Ratio (y) = 0.33013 0.40738
# Poissons Ratio (z) = 0.25917 0.24896
#
# Static dielectric constant tensor:
#      x y z
#    x 5.014690 0.000000 -0.438420 
#    y 0.000000 4.615850 0.000010 
#    z -0.438420 0.000010 5.173750 
# 
# 
# High freq. dielectric constant tensor:
#      x y z
#    x 2.072720 0.000000 -0.019460 
#    y 0.000000 2.031960 0.000000 
#    z -0.019460 0.000000 2.063920 
# 
# From -- ./inp_files/243561.got.cif
#   From: 2010.06.25/outbox.cif.g09.slc.cpg/sg15_122_cif.got.tgz:243561.got - 2010.06.28 07:06:18.
