data_PCOD8155837
_publ_section_title
;
Structure prediction by ZEFSAII (Michael W. Deem and Ramdas Pophale) SiO2 
 PCOD8155837
Probable space group: P 21 21 2
;
_chemical_formula_sum "Si O2"
_cell_formula_units_Z 24
_cell_length_a 5.334218
_cell_length_b 12.454289
_cell_length_c 17.379982
_cell_angle_alpha 90.000000
_cell_angle_beta 90.000000
_cell_angle_gamma 90.000000
_cell_volume 1154.619857
_symmetry_space_group_name_H-M "P 21 21 2"
_symmetry_group_IT_number 18
_symmetry_cell_setting 'orthorhombic'
loop_
_space_group_symop_operation_xyz
x,y,z
-x,-y,z
1/2+x,1/2-y,-z
1/2-x,1/2+y,-z
loop_
_atom_site_type_symbol
_atom_site_label
_atom_site_fract_x
_atom_site_fract_y
_atom_site_fract_z
Si Si1 0.471835 0.689645 0.769721
Si Si2 0.993886 0.727275 0.399961
Si Si3 0.994356 0.874725 0.546840
Si Si4 0.031616 0.178754 0.956255
Si Si5 0.031849 0.327715 0.092622
Si Si6 0.972360 0.618331 0.843093
O O1 0.497388 0.712813 0.680540
O O2 0.471858 0.802977 0.817002
O O3 0.713218 0.620733 0.795059
O O4 0.207636 0.631576 0.785116
O O5 0.994981 0.817933 0.464679
O O6 0.741918 0.656515 0.405064
O O7 0.242801 0.654412 0.406191
O O8 0.000000 0.000000 0.530777
O O9 0.278669 0.110019 0.933025
O O10 0.026575 0.290204 0.907894
O O11 0.784707 0.109715 0.933308
O O12 0.031565 0.211761 0.045994
O O13 0.000000 0.500000 0.881186
#
# Coordination Sequence:
#
# PCOD8155837 Si02
#       6
#     4   4   4   4   4   4
#     4  10  19  32  49  73 102 130 169 216 256 308
#     4  10  21  37  57  84 109 136 179 217 258 322
#     4  10  21  38  59  80 107 142 175 214 263 315
#     4   8  14  25  40  61  87 120 162 197 234 298
#     4   8  14  25  43  63  85 119 160 200 243 286
#     4  10  19  29  44  69 103 139 170 210 264 307
#
# _framework density 20.786059999999999
#
# number of rings (size 3 to 8) (size 9 to 14) (size 15 to 20)
#    0.000    2.667    0.000    2.000    0.000    1.333 
#    0.000    0.000    0.000    2.000    0.000    0.000 
#    0.000    0.000    0.000    0.000    0.000    0.000 
#
# Total GULP energy -297317.184469 kJ/mol
# GULP energy per Si atom -12388.216020 kJ/mol
# Density = 2.073875 g / cm^3
# Si number density = 20.786060 Si / 1000 Ang^3
#
#
#
# Elastic Constant Matrix: (Units=GPa)
#
#
# Indices 1 2 3 4 5 6 
#
# 1 203.4844 4.2370 4.8487 0.0000 0.0000 0.0000
# 2 4.2370 50.0855 -9.7153 0.0000 0.0000 0.0000
# 3 4.8487 -9.7153 69.4621 0.0000 0.0000 0.0000
# 4 0.0000 0.0000 0.0000 9.9053 0.0000 0.0000
# 5 0.0000 0.0000 0.0000 0.0000 23.1641 0.0000
# 6 0.0000 0.0000 0.0000 0.0000 0.0000 11.3336
#
#
#
# Elastic Compliance Matrix: (Units=1/GPa)
#
#
# Indices 1 2 3 4 5 6 
#
# 1 0.004935 -0.000498 -0.000414 0.000000 0.000000 0.000000
# 2 -0.000498 0.020573 0.002912 0.000000 0.000000 0.000000
# 3 -0.000414 0.002912 0.014833 0.000000 0.000000 0.000000
# 4 0.000000 0.000000 0.000000 0.100956 0.000000 0.000000
# 5 0.000000 0.000000 0.000000 0.000000 0.043170 0.000000
# 6 0.000000 0.000000 0.000000 0.000000 0.000000 0.088233
#
#
# Mechanical properties :
#
#
# Convention : Reuss Voigt Hill
#
# Bulk Modulus (GPa) = 22.55265 35.75254 29.15260
# Shear Modulus (GPa) = 17.63799 30.45805 24.04802
#
# Velocity S-wave (km/s) = 2.91615 3.83209 3.40506
# Velocity P-wave (km/s) = 4.71296 6.06774 5.43275
#
# Compressibility (1/GPa) = 0.04434068
#
# Stress axis : x y z
#
# Youngs Moduli (GPa) = 202.65017 48.60774 67.41930
#
# Poissons Ratio (x) = 0.02420 0.02792
# Poissons Ratio (y) = 0.10087 -0.19634
# Poissons Ratio (z) = 0.08391 -0.14155
#
# Static dielectric constant tensor:
#      x y z
#    x 5.089680 0.000000 0.000000 
#    y 0.000000 3.148590 0.000000 
#    z 0.000000 0.000000 3.523700 
# 
# 
# High freq. dielectric constant tensor:
#      x y z
#    x 1.862650 0.000000 0.000000 
#    y 0.000000 1.761230 0.000000 
#    z 0.000000 0.000000 1.799140 
# 
# From -- ./inp_files/7146.got.cif
#   From: 2010.03.12/outbox.cif.g09.slc.cpg/sg18_4_cif.got.tgz:7146.got - 2010.04.10 18:53:55.
