data_PCOD8155972
_publ_section_title
;
Structure prediction by ZEFSAII (Michael W. Deem and Ramdas Pophale) SiO2 
 PCOD8155972
Probable space group: P 21 21 2
;
_chemical_formula_sum "Si O2"
_cell_formula_units_Z 20
_cell_length_a 11.347980
_cell_length_b 9.359331
_cell_length_c 9.021829
_cell_angle_alpha 90.000000
_cell_angle_beta 90.000000
_cell_angle_gamma 90.000000
_cell_volume 958.203956
_symmetry_space_group_name_H-M "P 21 21 2"
_symmetry_group_IT_number 18
_symmetry_cell_setting 'orthorhombic'
loop_
_space_group_symop_operation_xyz
x,y,z
-x,-y,z
1/2+x,1/2-y,-z
1/2-x,1/2+y,-z
loop_
_atom_site_type_symbol
_atom_site_label
_atom_site_fract_x
_atom_site_fract_y
_atom_site_fract_z
Si Si1 0.627583 0.555768 0.890656
Si Si2 0.452930 0.844552 0.208815
Si Si3 0.310983 0.260451 0.333238
Si Si4 0.251334 0.451551 0.597764
Si Si5 0.719523 0.271903 0.971923
O O1 0.500000 0.500000 0.936296
O O2 0.640489 0.557484 0.713411
O O3 0.722686 0.445229 0.964111
O O4 0.659450 0.712523 0.954213
O O5 0.557227 0.741532 0.264945
O O6 0.357022 0.857128 0.340173
O O7 0.500000 0.000000 0.164858
O O8 0.395210 0.779192 0.060687
O O9 0.296477 0.394643 0.440859
O O10 0.216561 0.279653 0.199847
O O11 0.288870 0.114958 0.424901
#
# Coordination Sequence:
#
# PCOD8155972 Si02
#       5
#     4   4   4   4   4
#     4  10  21  38  58  85 121 158 199 250 301 355
#     4   9  19  39  60  80 116 157 192 243 300 350
#     4  10  20  37  59  85 118 153 192 244 297 351
#     4   9  21  37  56  84 116 151 194 236 290 362
#     4  10  21  37  60  88 115 151 203 249 295 358
#
# _framework density 20.872382000000002
#
# number of rings (size 3 to 8) (size 9 to 14) (size 15 to 20)
#    0.000    2.400    0.000    2.400    0.000    6.400 
#    0.000    6.000    0.000    0.000    0.000    0.000 
#    0.000    0.000    0.000    0.000    0.000    0.000 
#
# Total GULP energy -247913.366287 kJ/mol
# GULP energy per Si atom -12395.668314 kJ/mol
# Density = 2.082488 g / cm^3
# Si number density = 20.872382 Si / 1000 Ang^3
#
#
#
# Elastic Constant Matrix: (Units=GPa)
#
#
# Indices 1 2 3 4 5 6 
#
# 1 109.1076 35.4880 52.3376 0.0000 0.0000 0.0000
# 2 35.4880 46.2905 41.6179 0.0000 0.0000 0.0000
# 3 52.3376 41.6179 109.9389 0.0000 0.0000 0.0000
# 4 0.0000 0.0000 0.0000 39.7331 0.0000 0.0000
# 5 0.0000 0.0000 0.0000 0.0000 27.3707 0.0000
# 6 0.0000 0.0000 0.0000 0.0000 0.0000 30.1899
#
#
#
# Elastic Compliance Matrix: (Units=1/GPa)
#
#
# Indices 1 2 3 4 5 6 
#
# 1 0.013133 -0.006742 -0.003700 0.000000 0.000000 0.000000
# 2 -0.006742 0.036209 -0.010498 0.000000 0.000000 0.000000
# 3 -0.003700 -0.010498 0.014831 0.000000 0.000000 0.000000
# 4 0.000000 0.000000 0.000000 0.025168 0.000000 0.000000
# 5 0.000000 0.000000 0.000000 0.000000 0.036535 0.000000
# 6 0.000000 0.000000 0.000000 0.000000 0.000000 0.033124
#
#
# Mechanical properties :
#
#
# Convention : Reuss Voigt Hill
#
# Bulk Modulus (GPa) = 44.85371 58.24711 51.55041
# Shear Modulus (GPa) = 24.00263 28.51831 26.26047
#
# Velocity S-wave (km/s) = 3.39480 3.70038 3.55088
# Velocity P-wave (km/s) = 6.07473 6.79882 6.44695
#
# Compressibility (1/GPa) = 0.02229470
#
# Stress axis : x y z
#
# Youngs Moduli (GPa) = 76.14488 27.61735 67.42489
#
# Poissons Ratio (x) = 0.18619 0.24947
# Poissons Ratio (y) = 0.51334 0.70781
# Poissons Ratio (z) = 0.28173 0.28992
#
# Static dielectric constant tensor:
#      x y z
#    x 3.849590 0.000000 0.000000 
#    y 0.000000 3.739570 0.000000 
#    z 0.000000 0.000000 3.604890 
# 
# 
# High freq. dielectric constant tensor:
#      x y z
#    x 1.812740 0.000000 0.000000 
#    y 0.000000 1.810320 0.000000 
#    z 0.000000 0.000000 1.808560 
# 
# From -- ./inp_files/2933.got.cif
#   From: 2010.03.12/outbox.cif.g09.slc.cpg/sg18_2_cif.got.tgz:2933.got - 2010.04.10 18:53:55.
