data_PCOD8155528
_publ_section_title
;
Structure prediction by ZEFSAII (Michael W. Deem and Ramdas Pophale) SiO2 
 PCOD8155528
Probable space group: P 2 2 21
;
_chemical_formula_sum "Si O2"
_cell_formula_units_Z 28
_cell_length_a 21.999440
_cell_length_b 12.015638
_cell_length_c 4.968837
_cell_angle_alpha 90.000000
_cell_angle_beta 90.000000
_cell_angle_gamma 90.000000
_cell_volume 1313.448993
_symmetry_space_group_name_H-M "P 2 2 21"
_symmetry_group_IT_number 17
_symmetry_cell_setting 'orthorhombic'
loop_
_space_group_symop_operation_xyz
x,y,z
-x,-y,1/2+z
x,-y,-z
-x,y,1/2-z
loop_
_atom_site_type_symbol
_atom_site_label
_atom_site_fract_x
_atom_site_fract_y
_atom_site_fract_z
Si Si1 0.500000 0.573360 0.250000
Si Si2 0.209766 0.129875 0.492109
Si Si3 0.667775 0.746322 0.853047
Si Si4 0.434847 0.922137 0.743888
Si Si5 0.866808 0.815539 0.488781
Si Si6 0.040865 0.629268 0.000368
Si Si7 0.039632 0.000000 0.000000
Si Si8 0.630856 0.380928 0.639817
O O1 0.475333 0.500000 0.500000
O O2 0.441960 0.644408 0.148507
O O3 0.267506 0.200526 0.406873
O O4 0.188841 0.174968 0.781853
O O5 0.227059 0.000000 0.500000
O O6 0.155531 0.149735 0.283319
O O7 0.616792 0.839933 0.861087
O O8 0.666369 0.704729 0.547444
O O9 0.656107 0.642727 0.059399
O O10 0.500000 0.856631 0.750000
O O11 0.448581 0.000000 0.500000
O O12 0.416136 0.000000 0.000000
O O13 0.894464 0.691699 0.496790
O O14 0.919769 0.898359 0.395029
O O15 0.000000 0.663965 0.250000
O O16 0.058033 0.500000 0.000000
O O17 0.000000 0.664450 0.750000
O O18 0.000000 0.957801 0.750000
O O19 0.642674 0.500000 0.500000
#
# Coordination Sequence:
#
# PCOD8155528 Si02
#       8
#     2   4   4   4   4   4   2   4
#     4  10  20  38  64  92 126 164 198 266 356 422
#     4  12  25  45  64  91 130 178 228 272 324 397
#     4  12  25  41  69  92 124 182 224 271 336 410
#     4  10  22  40  62  93 129 160 212 284 343 403
#     4  12  23  42  65  96 134 175 219 276 326 398
#     4  10  21  40  66  97 134 173 214 265 324 393
#     4  12  22  36  64 100 132 164 210 276 348 388
#     4  11  24  42  64  96 130 162 216 278 342 411
#
# _framework density 21.317917000000001
#
# number of rings (size 3 to 8) (size 9 to 14) (size 15 to 20)
#    0.000    0.857    1.429    6.857    2.000    1.143 
#    0.000    4.286    0.000    0.000    0.000    0.000 
#    0.000    0.000    0.000    0.000    0.000    0.000 
#
# Total GULP energy -347117.131610 kJ/mol
# GULP energy per Si atom -12397.040415 kJ/mol
# Density = 2.126940 g / cm^3
# Si number density = 21.317917 Si / 1000 Ang^3
#
#
#
# Elastic Constant Matrix: (Units=GPa)
#
#
# Indices 1 2 3 4 5 6 
#
# 1 104.3522 46.9963 23.6142 0.0000 0.0000 0.0000
# 2 46.9963 78.7363 15.3841 0.0000 0.0000 0.0000
# 3 23.6142 15.3841 114.0728 0.0000 0.0000 0.0000
# 4 0.0000 0.0000 0.0000 33.2484 0.0000 0.0000
# 5 0.0000 0.0000 0.0000 0.0000 40.8555 0.0000
# 6 0.0000 0.0000 0.0000 0.0000 0.0000 34.5782
#
#
#
# Elastic Compliance Matrix: (Units=1/GPa)
#
#
# Indices 1 2 3 4 5 6 
#
# 1 0.013436 -0.007679 -0.001746 0.000000 0.000000 0.000000
# 2 -0.007679 0.017433 -0.000761 0.000000 0.000000 0.000000
# 3 -0.001746 -0.000761 0.009230 0.000000 0.000000 0.000000
# 4 0.000000 0.000000 0.000000 0.030077 0.000000 0.000000
# 5 0.000000 0.000000 0.000000 0.000000 0.024476 0.000000
# 6 0.000000 0.000000 0.000000 0.000000 0.000000 0.028920
#
#
# Mechanical properties :
#
#
# Convention : Reuss Voigt Hill
#
# Bulk Modulus (GPa) = 50.69117 52.12782 51.40949
# Shear Modulus (GPa) = 33.21815 35.81422 34.51619
#
# Velocity S-wave (km/s) = 3.95172 4.10323 4.02819
# Velocity P-wave (km/s) = 6.68220 6.85233 6.76780
#
# Compressibility (1/GPa) = 0.01972730
#
# Stress axis : x y z
#
# Youngs Moduli (GPa) = 74.42581 57.36354 108.33727
#
# Poissons Ratio (x) = 0.44048 0.18914
# Poissons Ratio (y) = 0.57149 0.08249
# Poissons Ratio (z) = 0.12994 0.04368
#
# Static dielectric constant tensor:
#      x y z
#    x 3.748810 0.000000 0.000000 
#    y 0.000000 3.763130 0.000000 
#    z 0.000000 0.000000 4.167510 
# 
# 
# High freq. dielectric constant tensor:
#      x y z
#    x 1.832560 0.000000 0.000000 
#    y 0.000000 1.828350 0.000000 
#    z 0.000000 0.000000 1.859760 
# 
# From -- ./inp_files/2924.got.cif
#   From: 2010.03.12/outbox.cif.g09.slc.cpg/sg17_2_cif.got.tgz:2924.got - 2010.04.10 18:46:23.
