data_PCOD8155486
_publ_section_title
;
Structure prediction by ZEFSAII (Michael W. Deem and Ramdas Pophale) SiO2 
 PCOD8155486
Probable space group: P 2 2 21
;
_chemical_formula_sum "Si O2"
_cell_formula_units_Z 30
_cell_length_a 12.018678
_cell_length_b 6.689225
_cell_length_c 18.088467
_cell_angle_alpha 90.000000
_cell_angle_beta 90.000000
_cell_angle_gamma 90.000000
_cell_volume 1454.233905
_symmetry_space_group_name_H-M "P 2 2 21"
_symmetry_group_IT_number 17
_symmetry_cell_setting 'orthorhombic'
loop_
_space_group_symop_operation_xyz
x,y,z
-x,-y,1/2+z
x,-y,-z
-x,y,1/2-z
loop_
_atom_site_type_symbol
_atom_site_label
_atom_site_fract_x
_atom_site_fract_y
_atom_site_fract_z
Si Si1 0.149240 0.023826 0.414051
Si Si2 0.500000 0.285371 0.250000
Si Si3 0.605817 0.863749 0.928923
Si Si4 0.287248 0.025077 0.221694
Si Si5 0.758522 0.687404 0.169036
Si Si6 0.461899 0.456767 0.605610
Si Si7 0.110464 0.294981 0.290532
Si Si8 0.597824 0.080315 0.581488
O O1 0.147398 0.803079 0.379110
O O2 0.116876 0.000000 0.500000
O O3 0.271808 0.117573 0.394940
O O4 0.073969 0.178613 0.367086
O O5 0.500216 0.432344 0.180038
O O6 0.388691 0.152951 0.254903
O O7 0.572008 0.636341 0.951584
O O8 0.505264 0.956638 0.879660
O O9 0.601134 0.000000 0.000000
O O10 0.279561 0.809407 0.259660
O O11 0.298866 0.968968 0.134833
O O12 0.172823 0.143883 0.234928
O O13 0.650598 0.668599 0.117132
O O14 0.809132 0.478493 0.193009
O O15 0.563144 0.315159 0.578403
O O16 0.000000 0.372765 0.250000
O O17 0.628643 0.000000 0.500000
#
# Coordination Sequence:
#
# PCOD8155486 Si02
#       8
#     4   2   4   4   4   4   4   4
#     4  10  21  41  64  96 128 164 208 271 337 389
#     4  12  20  36  62  94 128 158 218 262 322 404
#     4  10  20  35  53  89 131 167 201 249 317 392
#     4  11  23  41  63  93 131 170 213 270 323 393
#     4  11  21  37  64  93 126 170 211 263 328 384
#     4  12  20  35  58  91 129 172 207 255 316 389
#     4  11  25  45  67  96 128 169 227 280 328 389
#     4  11  24  38  57  93 138 179 218 261 321 401
#
# _framework density 20.629418999999999
#
# number of rings (size 3 to 8) (size 9 to 14) (size 15 to 20)
#    0.000    1.067    5.333    2.400    0.000    4.800 
#    0.000    0.667    0.000    1.600    0.000    0.000 
#    0.000    0.000    0.000    0.000    0.000    0.000 
#
# Total GULP energy -371803.610667 kJ/mol
# GULP energy per Si atom -12393.453689 kJ/mol
# Density = 2.058247 g / cm^3
# Si number density = 20.629419 Si / 1000 Ang^3
#
#
#
# Elastic Constant Matrix: (Units=GPa)
#
#
# Indices 1 2 3 4 5 6 
#
# 1 39.8874 10.6698 23.0357 0.0000 0.0000 0.0000
# 2 10.6698 131.3334 48.2611 0.0000 0.0000 0.0000
# 3 23.0357 48.2611 119.0294 0.0000 0.0000 0.0000
# 4 0.0000 0.0000 0.0000 32.6085 0.0000 0.0000
# 5 0.0000 0.0000 0.0000 0.0000 21.6387 0.0000
# 6 0.0000 0.0000 0.0000 0.0000 0.0000 13.7378
#
#
#
# Elastic Compliance Matrix: (Units=1/GPa)
#
#
# Indices 1 2 3 4 5 6 
#
# 1 0.028238 -0.000336 -0.005329 0.000000 0.000000 0.000000
# 2 -0.000336 0.008951 -0.003564 0.000000 0.000000 0.000000
# 3 -0.005329 -0.003564 0.010878 0.000000 0.000000 0.000000
# 4 0.000000 0.000000 0.000000 0.030667 0.000000 0.000000
# 5 0.000000 0.000000 0.000000 0.000000 0.046213 0.000000
# 6 0.000000 0.000000 0.000000 0.000000 0.000000 0.072792
#
#
# Mechanical properties :
#
#
# Convention : Reuss Voigt Hill
#
# Bulk Modulus (GPa) = 33.77359 50.46482 42.11921
# Shear Modulus (GPa) = 22.11736 27.48257 24.79997
#
# Velocity S-wave (km/s) = 3.27789 3.65389 3.47099
# Velocity P-wave (km/s) = 5.54375 6.50515 6.04360
#
# Compressibility (1/GPa) = 0.02960893
#
# Stress axis : x y z
#
# Youngs Moduli (GPa) = 35.41353 111.71576 91.93119
#
# Poissons Ratio (x) = 0.03753 0.48987
# Poissons Ratio (y) = 0.01190 0.32767
# Poissons Ratio (z) = 0.18871 0.39819
#
# Static dielectric constant tensor:
#      x y z
#    x 3.789290 0.000000 0.000000 
#    y 0.000000 4.023590 0.000000 
#    z 0.000000 0.000000 3.851700 
# 
# 
# High freq. dielectric constant tensor:
#      x y z
#    x 1.747750 0.000000 0.000000 
#    y 0.000000 1.832800 0.000000 
#    z 0.000000 0.000000 1.818280 
# 
# From -- ./inp_files/10232.got.cif
#   From: 2010.03.12/outbox.cif.g09.slc.cpg/sg17_6_cif.got.tgz:10232.got - 2010.04.10 18:46:23.
