data_PCOD8155718
_publ_section_title
;
Structure prediction by ZEFSAII (Michael W. Deem and Ramdas Pophale) SiO2 
 PCOD8155718
Probable space group: P 2 2 21
;
_chemical_formula_sum "Si O2"
_cell_formula_units_Z 32
_cell_length_a 14.212610
_cell_length_b 8.716070
_cell_length_c 14.354755
_cell_angle_alpha 90.000000
_cell_angle_beta 90.000000
_cell_angle_gamma 90.000000
_cell_volume 1778.239828
_symmetry_space_group_name_H-M "P 2 2 21"
_symmetry_group_IT_number 17
_symmetry_cell_setting 'orthorhombic'
loop_
_space_group_symop_operation_xyz
x,y,z
-x,-y,1/2+z
x,-y,-z
-x,y,1/2-z
loop_
_atom_site_type_symbol
_atom_site_label
_atom_site_fract_x
_atom_site_fract_y
_atom_site_fract_z
Si Si1 0.749521 0.819093 0.647116
Si Si2 0.405135 0.179399 0.000000
Si Si3 0.258222 0.182434 0.355187
Si Si4 0.894126 0.818913 0.000000
Si Si5 0.250479 0.819094 0.147116
Si Si6 0.896509 0.183700 0.500000
Si Si7 0.393869 0.679644 0.500000
Si Si8 0.258222 0.182434 0.644813
O O1 0.654714 0.777230 0.591706
O O2 0.745938 0.748728 0.750854
O O3 0.840968 0.756484 0.591650
O O4 0.759250 1.000000 0.655016
O O5 0.496416 0.283634 0.999999
O O6 0.345286 0.222770 0.908294
O O7 0.432143 0.000000 0.000000
O O8 0.162945 0.233896 0.408289
O O9 0.348689 0.250130 0.406915
O O10 0.269011 1.000000 0.356068
O O11 0.837056 0.766105 0.091712
O O12 0.998411 0.745389 0.999999
O O13 0.904992 0.000000 0.000000
O O14 0.254062 0.748728 0.250854
O O15 0.159032 0.756485 0.091649
O O16 0.897771 0.000000 0.500000
O O17 0.377095 0.500000 0.500000
O O18 0.348688 0.749869 0.406914
#
# Coordination Sequence:
#
# PCOD8155718 Si02
#       8
#     4   4   4   4   4   4   4   4
#     4   8  15  27  46  69  95 123 153 186 224 267
#     4   9  17  32  50  68  90 121 155 189 226 271
#     4   9  17  31  48  69  94 123 155 187 222 269
#     4   8  14  23  40  67 100 127 149 182 224 261
#     4   8  15  27  46  69  95 123 153 186 224 267
#     4   8  13  23  40  71 104 123 145 186 229 263
#     4  11  22  34  47  66  90 119 151 193 239 277
#     4   9  17  31  48  69  94 123 155 187 222 269
#
# _framework density 17.995322999999999
#
# number of rings (size 3 to 8) (size 9 to 14) (size 15 to 20)
#    0.000    3.250    0.000    3.375    0.000    2.000 
#    0.000   11.250    0.000    0.000    0.000   28.000 
#    0.000    0.000    0.000    0.000    0.000    0.000 
#
# Total GULP energy -396633.341733 kJ/mol
# GULP energy per Si atom -12394.791929 kJ/mol
# Density = 1.795436 g / cm^3
# Si number density = 17.995323 Si / 1000 Ang^3
#
#
#
# Elastic Constant Matrix: (Units=GPa)
#
#
# Indices 1 2 3 4 5 6 
#
# 1 146.1125 19.9557 81.1812 0.0000 0.0000 0.0000
# 2 19.9557 24.7978 20.0707 0.0000 0.0000 0.0000
# 3 81.1812 20.0707 192.8322 0.0000 0.0000 0.0000
# 4 0.0000 0.0000 0.0000 2.9553 0.0000 0.0000
# 5 0.0000 0.0000 0.0000 0.0000 14.7627 0.0000
# 6 0.0000 0.0000 0.0000 0.0000 0.0000 -0.0072
#
#
#
# Elastic Compliance Matrix: (Units=1/GPa)
#
#
# Indices 1 2 3 4 5 6 
#
# 1 0.009425 -0.004775 -0.003471 0.000000 0.000000 0.000000
# 2 -0.004775 0.046455 -0.002825 0.000000 0.000000 0.000000
# 3 -0.003471 -0.002825 0.006941 0.000000 0.000000 0.000000
# 4 0.000000 0.000000 0.000000 0.338374 0.000000 0.000000
# 5 0.000000 0.000000 0.000000 0.000000 0.067738 0.000000
# 6 0.000000 0.000000 0.000000 0.000000 0.000000**********
#
#
# Mechanical properties :
#
#
# Convention : Reuss Voigt Hill
#
# Bulk Modulus (GPa) = 24.58247 67.35085 45.96666
# Shear Modulus (GPa) = -0.03595 19.71115 9.83760
#
# Velocity S-wave (km/s) = -0.14150 3.31320 2.34065
# Velocity P-wave (km/s) = 3.69641 7.22111 5.73620
#
# Compressibility (1/GPa) = 0.04067939
#
# Stress axis : x y z
#
# Youngs Moduli (GPa) = 106.10574 21.52601 144.07128
#
# Poissons Ratio (x) = 0.10279 0.50002
# Poissons Ratio (y) = 0.50668 0.40699
# Poissons Ratio (z) = 0.36826 0.06081
#
# Static dielectric constant tensor:
#      x y z
#    x 3.462480 0.000000 0.000000 
#    y 0.000000 2.718210 0.000000 
#    z 0.000000 0.000000 3.849230 
# 
# 
# High freq. dielectric constant tensor:
#      x y z
#    x 1.701200 0.000000 0.000000 
#    y 0.000000 1.636640 0.000000 
#    z 0.000000 0.000000 1.705080 
# 
# From -- ./inp_files/8651.got.cif
#   From: 2010.03.12/outbox.cif.g09.slc.cpg/sg17_5_cif.got.tgz:8651.got - 2010.04.10 18:46:23.
