data_PCOD8155622
_publ_section_title
;
Structure prediction by ZEFSAII (Michael W. Deem and Ramdas Pophale) SiO2 
 PCOD8155622
Probable space group: P 2 2 21
;
_chemical_formula_sum "Si O2"
_cell_formula_units_Z 28
_cell_length_a 19.504602
_cell_length_b 7.460023
_cell_length_c 9.997354
_cell_angle_alpha 90.000000
_cell_angle_beta 90.000000
_cell_angle_gamma 90.000000
_cell_volume 1454.662790
_symmetry_space_group_name_H-M "P 2 2 21"
_symmetry_group_IT_number 17
_symmetry_cell_setting 'orthorhombic'
loop_
_space_group_symop_operation_xyz
x,y,z
-x,-y,1/2+z
x,-y,-z
-x,y,1/2-z
loop_
_atom_site_type_symbol
_atom_site_label
_atom_site_fract_x
_atom_site_fract_y
_atom_site_fract_z
Si Si1 0.943874 0.213139 0.149782
Si Si2 0.675050 0.207019 0.653343
Si Si3 0.056126 0.786860 0.350218
Si Si4 0.675050 0.207018 0.346656
Si Si5 0.564060 0.500000 0.346685
Si Si6 0.791740 0.212588 0.149411
Si Si7 0.791740 0.212588 0.850589
O O1 0.867705 0.283034 0.188466
O O2 0.000000 0.297482 0.250000
O O3 0.945181 1.000000 0.158019
O O4 0.962230 0.276526 0.000000
O O5 0.698439 0.231013 0.500000
O O6 0.607594 0.321678 0.683621
O O7 0.736382 0.284688 0.744796
O O8 0.658100 0.000001 0.686301
O O9 0.132295 0.716965 0.311534
O O10 0.000000 0.702518 0.250000
O O11 0.607594 0.321675 0.316379
O O12 0.736381 0.284687 0.255203
O O13 0.538627 0.500000 0.500000
O O14 0.500000 0.500002 0.250000
O O15 0.792348 1.000000 0.152498
O O16 0.772363 0.279723 1.000000
#
# Coordination Sequence:
#
# PCOD8155622 Si02
#       7
#     4   4   4   4   4   4   4
#     4   8  13  20  31  52  85 122 158 197 238 278
#     4   9  18  33  52  73  98 128 160 195 236 281
#     4   8  13  20  31  52  85 122 158 197 238 278
#     4   9  18  33  52  73  98 128 160 195 236 281
#     4  10  22  38  54  76 103 126 155 194 233 282
#     4   8  14  25  41  63  92 125 162 202 240 281
#     4   8  14  25  41  63  92 125 162 202 240 281
#
# _framework density 19.248446999999999
#
# number of rings (size 3 to 8) (size 9 to 14) (size 15 to 20)
#    0.000    3.429    0.000    1.714    0.000    2.857 
#    0.000    5.714    0.000    0.000    0.000    1.000 
#    0.000    0.000    0.000    0.000    0.000    0.000 
#
# Total GULP energy -347030.177741 kJ/mol
# GULP energy per Si atom -12393.934919 kJ/mol
# Density = 1.920464 g / cm^3
# Si number density = 19.248447 Si / 1000 Ang^3
#
#
#
# Elastic Constant Matrix: (Units=GPa)
#
#
# Indices 1 2 3 4 5 6 
#
# 1 173.6033 35.9858 126.6694 0.0000 0.0000 0.0000
# 2 35.9858 54.2518 30.2480 0.0000 0.0000 0.0000
# 3 126.6694 30.2480 144.1346 0.0000 0.0000 0.0000
# 4 0.0000 0.0000 0.0000 5.9197 0.0000 0.0000
# 5 0.0000 0.0000 0.0000 0.0000 50.1597 0.0000
# 6 0.0000 0.0000 0.0000 0.0000 0.0000 -29.6534
#
#
#
# Elastic Compliance Matrix: (Units=1/GPa)
#
#
# Indices 1 2 3 4 5 6 
#
# 1 0.016546 -0.003248 -0.013860 0.000000 0.000000 0.000000
# 2 -0.003248 0.021513 -0.001660 0.000000 0.000000 0.000000
# 3 -0.013860 -0.001660 0.019467 0.000000 0.000000 0.000000
# 4 0.000000 0.000000 0.000000 0.168928 0.000000 0.000000
# 5 0.000000 0.000000 0.000000 0.000000 0.019936 0.000000
# 6 0.000000 0.000000 0.000000 0.000000 0.000000 -0.033723
#
#
# Mechanical properties :
#
#
# Convention : Reuss Voigt Hill
#
# Bulk Modulus (GPa) = 50.02556 84.19957 67.11257
# Shear Modulus (GPa) = 19.46543 17.22430 18.34487
#
# Velocity S-wave (km/s) = 3.18350 2.99463 3.09051
# Velocity P-wave (km/s) = 6.28957 7.46965 6.90487
#
# Compressibility (1/GPa) = 0.01998978
#
# Stress axis : x y z
#
# Youngs Moduli (GPa) = 60.43709 46.48437 51.37002
#
# Poissons Ratio (x) = 0.15097 0.71197
# Poissons Ratio (y) = 0.19629 0.08529
# Poissons Ratio (z) = 0.83763 0.07718
#
# Static dielectric constant tensor:
#      x y z
#    x 3.613350 0.000000 0.000000 
#    y 0.000000 3.248380 0.000000 
#    z 0.000000 0.000000 3.779170 
# 
# 
# High freq. dielectric constant tensor:
#      x y z
#    x 1.738130 0.000000 0.000000 
#    y 0.000000 1.730970 0.000000 
#    z 0.000000 0.000000 1.747850 
# 
# From -- ./inp_files/5524.got.cif
#   From: 2010.03.12/outbox.cif.g09.slc.cpg/sg17_3_cif.got.tgz:5524.got - 2010.04.10 18:46:23.
