data_PCOD8155884
_publ_section_title
;
Structure prediction by ZEFSAII (Michael W. Deem and Ramdas Pophale) SiO2 
 PCOD8155884
Probable space group: P 21 21 2
;
_chemical_formula_sum "Si O2"
_cell_formula_units_Z 32
_cell_length_a 8.726913
_cell_length_b 12.783330
_cell_length_c 13.795425
_cell_angle_alpha 90.000000
_cell_angle_beta 90.000000
_cell_angle_gamma 90.000000
_cell_volume 1539.003938
_symmetry_space_group_name_H-M "P 21 21 2"
_symmetry_group_IT_number 18
_symmetry_cell_setting 'orthorhombic'
loop_
_space_group_symop_operation_xyz
x,y,z
-x,-y,z
1/2+x,1/2-y,-z
1/2-x,1/2+y,-z
loop_
_atom_site_type_symbol
_atom_site_label
_atom_site_fract_x
_atom_site_fract_y
_atom_site_fract_z
Si Si1 0.846003 0.964280 0.613524
Si Si2 0.689005 0.694044 0.767438
Si Si3 0.378468 0.616834 0.179918
Si Si4 0.841061 0.773594 0.184182
Si Si5 0.319668 0.500913 0.876073
Si Si6 0.705689 0.180752 0.613837
Si Si7 0.201438 0.919497 0.913877
Si Si8 0.140655 0.719295 0.439241
O O1 0.917300 0.907273 0.708301
O O2 0.743925 0.884795 0.551384
O O3 0.735998 0.060654 0.641535
O O4 0.000000 0.000000 0.554564
O O5 0.801061 0.770408 0.826887
O O6 0.522119 0.715268 0.810462
O O7 0.739394 0.574559 0.789020
O O8 0.694493 0.712752 0.652773
O O9 0.525994 0.614886 0.109675
O O10 0.261275 0.525344 0.146010
O O11 0.762402 0.880103 0.142763
O O12 0.772254 0.751045 0.290557
O O13 0.810219 0.676719 0.113003
O O14 0.500000 0.500000 0.876554
O O15 0.263581 0.449067 0.975519
O O16 0.833484 0.214855 0.536222
O O17 0.536986 0.190186 0.568477
#
# Coordination Sequence:
#
# PCOD8155884 Si02
#       8
#     4   4   4   4   4   4   4   4
#     4  11  19  36  60  86 114 155 197 247 303 351
#     4   9  22  38  59  85 121 156 200 245 300 353
#     4  10  19  36  59  87 113 152 198 249 290 346
#     4  10  22  39  60  87 119 159 201 248 298 358
#     4  10  21  38  59  83 121 162 193 238 304 362
#     4  11  21  39  59  89 120 154 203 250 303 362
#     4  11  20  35  61  87 115 153 201 244 295 353
#     4  10  23  37  59  90 119 155 199 251 299 365
#
# _framework density 20.792669
#
# number of rings (size 3 to 8) (size 9 to 14) (size 15 to 20)
#    0.000    1.750    3.750    1.125    1.750    2.500 
#    0.000    3.125    2.750    0.000    0.000    0.000 
#    0.000    0.000    0.000    0.000    0.000    0.000 
#
# Total GULP energy -396688.039767 kJ/mol
# GULP energy per Si atom -12396.501243 kJ/mol
# Density = 2.074534 g / cm^3
# Si number density = 20.792669 Si / 1000 Ang^3
#
#
#
# Elastic Constant Matrix: (Units=GPa)
#
#
# Indices 1 2 3 4 5 6 
#
# 1 41.1323 13.5700 23.1807 0.0000 0.0000 0.0000
# 2 13.5700 103.5122 40.0982 0.0000 0.0000 0.0000
# 3 23.1807 40.0982 91.5291 0.0000 0.0000 0.0000
# 4 0.0000 0.0000 0.0000 31.1639 0.0000 0.0000
# 5 0.0000 0.0000 0.0000 0.0000 21.9832 0.0000
# 6 0.0000 0.0000 0.0000 0.0000 0.0000 28.5030
#
#
#
# Elastic Compliance Matrix: (Units=1/GPa)
#
#
# Indices 1 2 3 4 5 6 
#
# 1 0.028469 -0.001131 -0.006715 0.000000 0.000000 0.000000
# 2 -0.001131 0.011680 -0.004831 0.000000 0.000000 0.000000
# 3 -0.006715 -0.004831 0.014742 0.000000 0.000000 0.000000
# 4 0.000000 0.000000 0.000000 0.032088 0.000000 0.000000
# 5 0.000000 0.000000 0.000000 0.000000 0.045489 0.000000
# 6 0.000000 0.000000 0.000000 0.000000 0.000000 0.035084
#
#
# Mechanical properties :
#
#
# Convention : Reuss Voigt Hill
#
# Bulk Modulus (GPa) = 33.85345 43.31905 38.58625
# Shear Modulus (GPa) = 24.66066 26.95166 25.80616
#
# Velocity S-wave (km/s) = 3.44761 3.60420 3.52677
# Velocity P-wave (km/s) = 5.67140 6.18056 5.93145
#
# Compressibility (1/GPa) = 0.02953908
#
# Stress axis : x y z
#
# Youngs Moduli (GPa) = 35.12588 85.61483 67.83228
#
# Poissons Ratio (x) = 0.09684 0.45546
# Poissons Ratio (y) = 0.03973 0.32767
# Poissons Ratio (z) = 0.23586 0.41357
#
# Static dielectric constant tensor:
#      x y z
#    x 3.588610 0.000000 0.000000 
#    y 0.000000 4.279340 0.000000 
#    z 0.000000 0.000000 3.756380 
# 
# 
# High freq. dielectric constant tensor:
#      x y z
#    x 1.793160 0.000000 0.000000 
#    y 0.000000 1.826140 0.000000 
#    z 0.000000 0.000000 1.803370 
# 
# From -- ./inp_files/6803.got.cif
#   From: 2010.03.12/outbox.cif.g09.slc.cpg/sg18_4_cif.got.tgz:6803.got - 2010.04.10 18:53:55.
