data_PCOD8155127
_publ_section_title
;
Structure prediction by ZEFSAII (Michael W. Deem and Ramdas Pophale) SiO2 
 PCOD8155127
Probable space group: C 2/C
;
_chemical_formula_sum "Si O2"
_cell_formula_units_Z 40
_cell_length_a 18.557592
_cell_length_b 5.356253
_cell_length_c 29.648931
_cell_angle_alpha 90.000000
_cell_angle_beta 145.421053
_cell_angle_gamma 90.000000
_cell_volume 1672.588770
_symmetry_space_group_name_H-M "C 2/C"
_symmetry_group_IT_number 15
_symmetry_cell_setting 'monoclinic'
loop_
_space_group_symop_operation_xyz
x,y,z
-x,y,1/2-z
-x,-y,-z
x,-y,1/2+z
1/2+x,1/2+y,z
1/2-x,1/2+y,1/2-z
1/2-x,1/2-y,-z
1/2+x,1/2-y,1/2+z
loop_
_atom_site_type_symbol
_atom_site_label
_atom_site_fract_x
_atom_site_fract_y
_atom_site_fract_z
Si Si1 0.511868 0.381802 0.554885
Si Si2 0.952031 0.783956 0.344415
Si Si3 0.281813 0.988046 0.319364
Si Si4 0.265293 0.840289 0.905616
Si Si5 0.889248 0.657605 0.156218
O O1 0.500000 0.500000 0.500000
O O2 0.483547 0.574049 0.580636
O O3 0.401523 0.169707 0.501254
O O4 0.653070 0.270258 0.631440
O O5 0.857402 0.573227 0.314131
O O6 0.059137 0.664273 0.368227
O O7 0.866143 0.963052 0.268848
O O8 0.289330 0.185469 0.364110
O O9 0.181523 0.605349 0.877081
O O10 0.202352 0.105911 0.883927
O O11 0.000000 0.670594 0.250000
#
# Coordination Sequence:
#
# PCOD8155127 Si02
#       5
#     8   8   8   8   8
#     4  12  27  48  78 117 153 200 262 328 389 454
#     4  12  28  46  81 114 151 205 265 320 384 471
#     4  12  26  49  79 112 151 207 263 321 380 473
#     4  12  28  50  79 109 158 203 250 320 390 457
#     4  12  29  49  77 112 157 204 255 316 393 465
#
# _framework density 23.915026000000001
#
# number of rings (size 3 to 8) (size 9 to 14) (size 15 to 20)
#    0.000    0.000    6.000    2.400    8.400    1.600 
#    0.000    0.000    0.000    0.000    0.000    0.000 
#    0.000    0.000    0.000    0.000    0.000    0.000 
#
# Total GULP energy -248070.926101 kJ/mol
# GULP energy per Si atom -12403.546305 kJ/mol
# Density = 2.386059 g / cm^3
# Si number density = 23.915026 Si / 1000 Ang^3
#
#
#
# Elastic Constant Matrix: (Units=GPa)
#
#
# Indices 1 2 3 4 5 6 
#
# 1 156.8448 31.9631 21.3395 -0.0245 -19.4321 0.0101
# 2 31.9631 91.7461 7.3526 -0.0484 -4.3401 0.0293
# 3 21.3395 7.3526 79.5735 -0.0230 -13.6475 -0.0070
# 4 -0.0245 -0.0484 -0.0230 18.4632 0.0033 0.3183
# 5 -19.4321 -4.3401 -13.6475 0.0033 39.0317 -0.0124
# 6 0.0101 0.0293 -0.0070 0.3183 -0.0124 51.1835
#
#
#
# Elastic Compliance Matrix: (Units=1/GPa)
#
#
# Indices 1 2 3 4 5 6 
#
# 1 0.007391 -0.002333 -0.001255 0.000002 0.002982 0.000000
# 2 -0.002333 0.011749 -0.000463 0.000027 -0.000017 -0.000007
# 3 -0.001255 -0.000463 0.013649 0.000013 0.004096 0.000003
# 4 0.000002 0.000027 0.000013 0.054168 0.000004 -0.000337
# 5 0.002982 -0.000017 0.004096 0.000004 0.028535 0.000007
# 6 0.000000 -0.000007 0.000003 -0.000337 0.000007 0.019540
#
#
# Mechanical properties :
#
#
# Convention : Reuss Voigt Hill
#
# Bulk Modulus (GPa) = 40.50823 49.94164 45.22494
# Shear Modulus (GPa) = 33.03316 39.56962 36.30139
#
# Velocity S-wave (km/s) = 3.72058 4.07208 3.90029
# Velocity P-wave (km/s) = 5.95249 6.56029 6.26377
#
# Compressibility (1/GPa) = 0.02468634
#
# Stress axis : x y z
#
# Youngs Moduli (GPa) = 135.29198 85.11451 73.26612
#
# Poissons Ratio (x) = 0.19861 0.09197
# Poissons Ratio (y) = 0.31569 0.03390
# Poissons Ratio (z) = 0.16982 0.03939
#
# Static dielectric constant tensor:
#      x y z
#    x 4.561680 -0.000110 0.034040 
#    y -0.000110 4.158500 0.000070 
#    z 0.034040 0.000070 4.746670 
# 
# 
# High freq. dielectric constant tensor:
#      x y z
#    x 1.957990 -0.000010 -0.004710 
#    y -0.000010 1.949200 0.000000 
#    z -0.004710 0.000000 1.961950 
# 
# From -- ./inp_files/314961.got.cif
#   From: 2010.06.25/outbox.cif.g09.slc.cpg/sg15_158_cif.got.tgz:314961.got - 2010.06.28 07:06:18.
