data_PCOD8155030
_publ_section_title
;
Structure prediction by ZEFSAII (Michael W. Deem and Ramdas Pophale) SiO2 
 PCOD8155030
Probable space group: C 2/C
;
_chemical_formula_sum "Si O2"
_cell_formula_units_Z 40
_cell_length_a 17.379979
_cell_length_b 8.672618
_cell_length_c 11.420657
_cell_angle_alpha 90.000000
_cell_angle_beta 100.355749
_cell_angle_gamma 90.000000
_cell_volume 1693.393558
_symmetry_space_group_name_H-M "C 2/C"
_symmetry_group_IT_number 15
_symmetry_cell_setting 'monoclinic'
loop_
_space_group_symop_operation_xyz
x,y,z
-x,y,1/2-z
-x,-y,-z
x,-y,1/2+z
1/2+x,1/2+y,z
1/2-x,1/2+y,1/2-z
1/2-x,1/2-y,-z
1/2+x,1/2-y,1/2+z
loop_
_atom_site_type_symbol
_atom_site_label
_atom_site_fract_x
_atom_site_fract_y
_atom_site_fract_z
Si Si1 0.405527 0.786967 0.386651
Si Si2 0.645987 0.868390 0.665519
Si Si3 0.327668 0.729900 0.595450
Si Si4 0.447891 0.348480 0.511855
Si Si5 0.818651 0.898024 0.663347
O O1 0.395924 0.723805 0.517869
O O2 0.497991 0.761196 0.390986
O O3 0.353664 0.683955 0.286547
O O4 0.385648 0.964717 0.376095
O O5 0.658094 0.869153 0.809578
O O6 0.581178 0.740462 0.612625
O O7 0.729198 0.841964 0.622992
O O8 0.250000 0.750000 0.500000
O O9 0.320778 0.582680 0.679862
O O10 0.500000 0.500000 0.500000
O O11 0.367930 0.371279 0.560109
#
# Coordination Sequence:
#
# PCOD8155030 Si02
#       5
#     8   8   8   8   8
#     4  12  27  49  74 113 149 196 248 312 376 444
#     4  12  27  46  79 108 148 199 250 310 372 446
#     4  12  25  47  78 109 150 190 258 311 368 446
#     4  12  27  49  74 110 151 196 246 311 382 443
#     4  12  25  48  78 105 149 198 255 300 377 446
#
# _framework density 23.621206999999998
#
# number of rings (size 3 to 8) (size 9 to 14) (size 15 to 20)
#    0.000    0.000    6.000    3.000    2.800    2.400 
#    3.600    0.000    0.000    0.000    0.000    0.000 
#    0.000    0.000    0.000    0.000    0.000    0.000 
#
# Total GULP energy -247932.767755 kJ/mol
# GULP energy per Si atom -12396.638388 kJ/mol
# Density = 2.356744 g / cm^3
# Si number density = 23.621207 Si / 1000 Ang^3
#
#
#
# Elastic Constant Matrix: (Units=GPa)
#
#
# Indices 1 2 3 4 5 6 
#
# 1 97.2680 73.8033 37.0430 0.0000 26.4587 0.0000
# 2 73.8033 121.9244 81.0471 0.0000 12.6722 0.0000
# 3 37.0430 81.0471 113.3295 0.0000 11.6845 0.0000
# 4 0.0000 0.0000 0.0000 47.0925 0.0000 7.4779
# 5 26.4587 12.6722 11.6845 0.0000 43.5654 0.0000
# 6 0.0000 0.0000 0.0000 7.4779 0.0000 41.5490
#
#
#
# Elastic Compliance Matrix: (Units=1/GPa)
#
#
# Indices 1 2 3 4 5 6 
#
# 1 0.024286 -0.017206 0.005524 0.000000 -0.011227 0.000000
# 2 -0.017206 0.027932 -0.015006 0.000000 0.006350 0.000000
# 3 0.005524 -0.015006 0.018148 0.000000 -0.003857 0.000000
# 4 0.000000 0.000000 0.000000 0.021860 0.000000 -0.003934
# 5 -0.011227 0.006350 -0.003857 0.000000 0.028960 0.000000
# 6 0.000000 0.000000 0.000000 -0.003934 0.000000 0.024776
#
#
# Mechanical properties :
#
#
# Convention : Reuss Voigt Hill
#
# Bulk Modulus (GPa) = 58.85981 79.58985 69.22483
# Shear Modulus (GPa) = 24.39003 35.81662 30.10333
#
# Velocity S-wave (km/s) = 3.21681 3.89818 3.57377
# Velocity P-wave (km/s) = 6.22652 7.35041 6.81168
#
# Compressibility (1/GPa) = 0.01698952
#
# Stress axis : x y z
#
# Youngs Moduli (GPa) = 41.17524 35.80076 55.10390
#
# Poissons Ratio (x) = 0.61600 -0.30441
# Poissons Ratio (y) = 0.70848 0.82691
# Poissons Ratio (z) = -0.22746 0.53724
#
# Static dielectric constant tensor:
#      x y z
#    x 4.901530 0.000000 -0.201200 
#    y 0.000000 4.417770 0.000000 
#    z -0.201200 0.000000 4.223590 
# 
# 
# High freq. dielectric constant tensor:
#      x y z
#    x 1.954630 0.000000 0.007680 
#    y 0.000000 1.940110 0.000000 
#    z 0.007680 0.000000 1.932650 
# 
# From -- ./inp_files/102851.got.cif
#   From: 2010.06.25/outbox.cif.g09.slc.cpg/sg15_52_cif.got.tgz:102851.got - 2010.06.28 07:06:18.
