data_PCOD8155386
_publ_section_title
;
Structure prediction by ZEFSAII (Michael W. Deem and Ramdas Pophale) SiO2 
 PCOD8155386
Probable space group: P 2 2 21
;
_chemical_formula_sum "Si O2"
_cell_formula_units_Z 28
_cell_length_a 19.997863
_cell_length_b 8.758086
_cell_length_c 8.089875
_cell_angle_alpha 90.000000
_cell_angle_beta 90.000000
_cell_angle_gamma 90.000000
_cell_volume 1416.885009
_symmetry_space_group_name_H-M "P 2 2 21"
_symmetry_group_IT_number 17
_symmetry_cell_setting 'orthorhombic'
loop_
_space_group_symop_operation_xyz
x,y,z
-x,-y,1/2+z
x,-y,-z
-x,y,1/2-z
loop_
_atom_site_type_symbol
_atom_site_label
_atom_site_fract_x
_atom_site_fract_y
_atom_site_fract_z
Si Si1 0.145470 0.330117 0.053058
Si Si2 0.061733 0.623218 0.638369
Si Si3 0.714872 0.327158 0.551364
Si Si4 0.631067 0.596653 0.163560
Si Si5 0.543292 0.820617 0.976722
Si Si6 0.977498 0.838748 0.434191
Si Si7 0.591026 0.302356 0.346853
O O1 0.124881 0.327072 0.247856
O O2 0.156742 0.500000 0.000000
O O3 0.215322 0.244290 0.004060
O O4 0.086685 0.268594 0.938610
O O5 0.083048 0.500000 0.500000
O O6 0.000000 0.556576 0.750000
O O7 0.037433 0.776535 0.548079
O O8 0.721049 0.500000 0.500000
O O9 0.696972 0.328630 0.748547
O O10 0.654811 0.246971 0.451374
O O11 0.595490 0.481870 0.294956
O O12 0.651425 0.500000 0.000000
O O13 0.581675 0.738616 0.127458
O O14 0.475079 0.725475 0.954978
O O15 0.589093 0.804661 0.814301
O O16 0.529410 0.000000 0.000000
O O17 0.000000 0.854528 0.250000
O O18 0.953446 0.000000 0.500000
#
# Coordination Sequence:
#
# PCOD8155386 Si02
#       7
#     4   4   4   4   4   4   4
#     4  10  20  36  56  81 111 143 182 227 276 329
#     4  10  18  32  56  85 113 141 176 226 277 325
#     4   9  19  36  56  79 108 143 182 226 272 328
#     4   9  19  36  59  82 109 147 189 231 280 342
#     4  10  21  36  55  83 113 141 185 241 290 333
#     4  11  21  36  56  80 110 145 185 228 273 326
#     4   9  20  36  54  78 108 145 187 228 280 344
#
# _framework density 19.761661
#
# number of rings (size 3 to 8) (size 9 to 14) (size 15 to 20)
#    0.000    2.286    0.000    4.286    0.000   12.571 
#    0.000   18.571    0.000    1.714    0.000    0.000 
#    0.000    0.000    0.000    0.000    0.000    0.000 
#
# Total GULP energy -346976.277481 kJ/mol
# GULP energy per Si atom -12392.009910 kJ/mol
# Density = 1.971668 g / cm^3
# Si number density = 19.761661 Si / 1000 Ang^3
#
#
#
# Elastic Constant Matrix: (Units=GPa)
#
#
# Indices 1 2 3 4 5 6 
#
# 1 135.7105 29.4630 77.0922 0.0000 0.0000 0.0000
# 2 29.4630 54.3667 23.4216 0.0000 0.0000 0.0000
# 3 77.0922 23.4216 121.3012 0.0000 0.0000 0.0000
# 4 0.0000 0.0000 0.0000 24.8281 0.0000 0.0000
# 5 0.0000 0.0000 0.0000 0.0000 24.4961 0.0000
# 6 0.0000 0.0000 0.0000 0.0000 0.0000 2.9991
#
#
#
# Elastic Compliance Matrix: (Units=1/GPa)
#
#
# Indices 1 2 3 4 5 6 
#
# 1 0.012128 -0.003547 -0.007023 0.000000 0.000000 0.000000
# 2 -0.003547 0.021100 -0.001820 0.000000 0.000000 0.000000
# 3 -0.007023 -0.001820 0.013059 0.000000 0.000000 0.000000
# 4 0.000000 0.000000 0.000000 0.040277 0.000000 0.000000
# 5 0.000000 0.000000 0.000000 0.000000 0.040823 0.000000
# 6 0.000000 0.000000 0.000000 0.000000 0.000000 0.333438
#
#
# Mechanical properties :
#
#
# Convention : Reuss Voigt Hill
#
# Bulk Modulus (GPa) = 46.49657 63.48135 54.98896
# Shear Modulus (GPa) = 10.14665 22.55809 16.35237
#
# Velocity S-wave (km/s) = 2.26840 3.38229 2.87972
# Velocity P-wave (km/s) = 5.51730 6.88813 6.24047
#
# Compressibility (1/GPa) = 0.02150696
#
# Stress axis : x y z
#
# Youngs Moduli (GPa) = 82.45163 47.39367 76.57634
#
# Poissons Ratio (x) = 0.16811 0.53781
# Poissons Ratio (y) = 0.29246 0.13935
# Poissons Ratio (z) = 0.57907 0.08625
#
# Static dielectric constant tensor:
#      x y z
#    x 4.081900 0.000000 0.000000 
#    y 0.000000 3.380350 0.000000 
#    z 0.000000 0.000000 3.928500 
# 
# 
# High freq. dielectric constant tensor:
#      x y z
#    x 1.754890 0.000000 0.000000 
#    y 0.000000 1.743370 0.000000 
#    z 0.000000 0.000000 1.783640 
# 
# From -- ./inp_files/5521.got.cif
#   From: 2010.03.12/outbox.cif.g09.slc.cpg/sg17_3_cif.got.tgz:5521.got - 2010.04.10 18:46:23.
