data_PCOD8155382
_publ_section_title
;
Structure prediction by ZEFSAII (Michael W. Deem and Ramdas Pophale) SiO2 
 PCOD8155382
Probable space group: P 2 2 21
;
_chemical_formula_sum "Si O2"
_cell_formula_units_Z 28
_cell_length_a 12.086373
_cell_length_b 5.007065
_cell_length_c 25.387256
_cell_angle_alpha 90.000000
_cell_angle_beta 90.000000
_cell_angle_gamma 90.000000
_cell_volume 1536.367051
_symmetry_space_group_name_H-M "P 2 2 21"
_symmetry_group_IT_number 17
_symmetry_cell_setting 'orthorhombic'
loop_
_space_group_symop_operation_xyz
x,y,z
-x,-y,1/2+z
x,-y,-z
-x,y,1/2-z
loop_
_atom_site_type_symbol
_atom_site_label
_atom_site_fract_x
_atom_site_fract_y
_atom_site_fract_z
Si Si1 0.872256 0.375939 0.747131
Si Si2 0.713251 0.261095 0.533842
Si Si3 0.743952 0.691185 0.351351
Si Si4 0.589784 0.890682 0.876713
Si Si5 0.541427 0.615884 0.055132
Si Si6 0.622476 0.806534 0.683732
Si Si7 0.253369 0.862999 0.715147
O O1 0.844448 0.410403 0.685117
O O2 0.845282 0.649556 0.777850
O O3 0.000000 0.301150 0.750000
O O4 0.794888 0.153338 0.773167
O O5 0.760487 0.500000 0.500000
O O6 0.781181 0.280605 0.588081
O O7 0.583821 0.290268 0.546472
O O8 0.736538 0.000000 0.500000
O O9 0.641727 0.483024 0.343540
O O10 0.716033 0.992128 0.335836
O O11 0.554507 0.617452 0.903427
O O12 0.493891 0.939539 0.833049
O O13 0.704633 0.862049 0.845196
O O14 0.602685 0.124171 0.920569
O O15 0.591112 0.500000 0.000000
O O16 0.641618 0.785833 0.746967
#
# Coordination Sequence:
#
# PCOD8155382 Si02
#       7
#     4   4   4   4   4   4   4
#     4  10  21  39  57  77 106 133 176 229 277 327
#     4  11  19  30  47  71 105 139 178 207 246 307
#     4  10  19  32  50  76 103 142 173 210 266 316
#     4  12  19  34  51  74 111 144 176 212 254 308
#     4  11  22  32  48  73 107 152 184 211 248 303
#     4  10  18  32  47  75 111 139 170 203 256 307
#     4  10  22  33  55  81 102 136 179 211 263 333
#
# _framework density 18.224810999999999
#
# number of rings (size 3 to 8) (size 9 to 14) (size 15 to 20)
#    0.000    1.429    2.857    4.714    0.000    0.000 
#    0.000    5.714    0.000    0.000    0.000   10.000 
#    0.000    0.000    0.000    0.000    0.000    0.000 
#
# Total GULP energy -347048.524899 kJ/mol
# GULP energy per Si atom -12394.590175 kJ/mol
# Density = 1.818333 g / cm^3
# Si number density = 18.224811 Si / 1000 Ang^3
#
#
#
# Elastic Constant Matrix: (Units=GPa)
#
#
# Indices 1 2 3 4 5 6 
#
# 1 51.7761 8.7886 38.0011 0.0000 0.0000 0.0000
# 2 8.7886 108.0355 34.8874 0.0000 0.0000 0.0000
# 3 38.0011 34.8874 107.1975 0.0000 0.0000 0.0000
# 4 0.0000 0.0000 0.0000 20.6625 0.0000 0.0000
# 5 0.0000 0.0000 0.0000 0.0000 14.4687 0.0000
# 6 0.0000 0.0000 0.0000 0.0000 0.0000 2.9317
#
#
#
# Elastic Compliance Matrix: (Units=1/GPa)
#
#
# Indices 1 2 3 4 5 6 
#
# 1 0.026197 0.000970 -0.009602 0.000000 0.000000 0.000000
# 2 0.000970 0.010379 -0.003722 0.000000 0.000000 0.000000
# 3 -0.009602 -0.003722 0.013944 0.000000 0.000000 0.000000
# 4 0.000000 0.000000 0.000000 0.048397 0.000000 0.000000
# 5 0.000000 0.000000 0.000000 0.000000 0.069115 0.000000
# 6 0.000000 0.000000 0.000000 0.000000 0.000000 0.341101
#
#
# Mechanical properties :
#
#
# Convention : Reuss Voigt Hill
#
# Bulk Modulus (GPa) = 38.74260 47.81817 43.28038
# Shear Modulus (GPa) = 9.21753 19.96803 14.59278
#
# Velocity S-wave (km/s) = 2.25137 3.31365 2.83275
# Velocity P-wave (km/s) = 5.29741 6.39807 5.87358
#
# Compressibility (1/GPa) = 0.02581138
#
# Stress axis : x y z
#
# Youngs Moduli (GPa) = 38.17236 96.34704 71.71660
#
# Poissons Ratio (x) = -0.09343 0.68865
# Poissons Ratio (y) = -0.03702 0.26690
# Poissons Ratio (z) = 0.36654 0.35857
#
# Static dielectric constant tensor:
#      x y z
#    x 2.787010 0.000000 0.000000 
#    y 0.000000 3.508530 0.000000 
#    z 0.000000 0.000000 3.682160 
# 
# 
# High freq. dielectric constant tensor:
#      x y z
#    x 1.636190 0.000000 0.000000 
#    y 0.000000 1.730070 0.000000 
#    z 0.000000 0.000000 1.715650 
# 
# From -- ./inp_files/10655.got.cif
#   From: 2010.03.12/outbox.cif.g09.slc.cpg/sg17_6_cif.got.tgz:10655.got - 2010.04.10 18:46:23.
