data_PCOD8155574
_publ_section_title
;
Structure prediction by ZEFSAII (Michael W. Deem and Ramdas Pophale) SiO2 
 PCOD8155574
Probable space group: P 2 2 21
;
_chemical_formula_sum "Si O2"
_cell_formula_units_Z 18
_cell_length_a 17.051418
_cell_length_b 12.430985
_cell_length_c 5.009931
_cell_angle_alpha 90.000000
_cell_angle_beta 90.000000
_cell_angle_gamma 90.000000
_cell_volume 1061.934640
_symmetry_space_group_name_H-M "P 2 2 21"
_symmetry_group_IT_number 17
_symmetry_cell_setting 'orthorhombic'
loop_
_space_group_symop_operation_xyz
x,y,z
-x,-y,1/2+z
x,-y,-z
-x,y,1/2-z
loop_
_atom_site_type_symbol
_atom_site_label
_atom_site_fract_x
_atom_site_fract_y
_atom_site_fract_z
Si Si1 0.416140 0.424051 0.245271
Si Si2 0.949018 0.500000 0.000000
Si Si3 0.258901 0.373172 0.040619
Si Si4 0.947060 0.123714 0.998111
Si Si5 0.833252 0.687610 0.044981
O O1 0.394583 0.500000 0.500000
O O2 0.500000 0.359852 0.250000
O O3 0.344611 0.343407 0.166070
O O4 0.431916 0.500000 0.000000
O O5 0.897970 0.401727 0.881138
O O6 0.000000 0.542223 0.750000
O O7 0.194250 0.338698 0.249399
O O8 0.257014 0.500000 0.000000
O O9 0.238066 0.315007 0.760348
O O10 0.000000 0.154353 0.250000
O O11 0.868592 0.193344 0.972354
O O12 0.000000 0.151877 0.750000
O O13 0.919813 0.000000 0.000000
#
# Coordination Sequence:
#
# PCOD8155574 Si02
#       5
#     4   2   4   4   4
#     4   9  17  29  46  67  95 135 171 193 222 282
#     4  12  22  32  44  64  94 126 160 192 234 294
#     4  11  19  32  46  71 103 132 157 192 244 290
#     4  10  21  38  55  69  89 124 169 216 254 284
#     4  12  21  33  49  71  97 128 163 201 247 292
#
# _framework density 16.950195999999998
#
# number of rings (size 3 to 8) (size 9 to 14) (size 15 to 20)
#    0.000    1.333    2.222    6.667    0.000    0.000 
#    0.000    0.000    0.000    0.000    0.000    0.000 
#    0.000    3.556    0.000    3.111    0.000    0.000 
#
# Total GULP energy -223070.770628 kJ/mol
# GULP energy per Si atom -12392.820590 kJ/mol
# Density = 1.691162 g / cm^3
# Si number density = 16.950196 Si / 1000 Ang^3
#
#
#
# Elastic Constant Matrix: (Units=GPa)
#
#
# Indices 1 2 3 4 5 6 
#
# 1 103.9448 43.4929 29.3533 0.0000 0.0000 0.0000
# 2 43.4929 64.6013 19.0009 0.0000 0.0000 0.0000
# 3 29.3533 19.0009 108.6026 0.0000 0.0000 0.0000
# 4 0.0000 0.0000 0.0000 18.5897 0.0000 0.0000
# 5 0.0000 0.0000 0.0000 0.0000 35.1591 0.0000
# 6 0.0000 0.0000 0.0000 0.0000 0.0000 15.9486
#
#
#
# Elastic Compliance Matrix: (Units=1/GPa)
#
#
# Indices 1 2 3 4 5 6 
#
# 1 0.013889 -0.008694 -0.002233 0.000000 0.000000 0.000000
# 2 -0.008694 0.021761 -0.001458 0.000000 0.000000 0.000000
# 3 -0.002233 -0.001458 0.010066 0.000000 0.000000 0.000000
# 4 0.000000 0.000000 0.000000 0.053793 0.000000 0.000000
# 5 0.000000 0.000000 0.000000 0.000000 0.028442 0.000000
# 6 0.000000 0.000000 0.000000 0.000000 0.000000 0.062702
#
#
# Mechanical properties :
#
#
# Convention : Reuss Voigt Hill
#
# Bulk Modulus (GPa) = 47.73705 51.20477 49.47091
# Shear Modulus (GPa) = 22.48154 26.29292 24.38723
#
# Velocity S-wave (km/s) = 3.64583 3.94278 3.79721
# Velocity P-wave (km/s) = 6.77843 7.14156 6.96236
#
# Compressibility (1/GPa) = 0.02094809
#
# Stress axis : x y z
#
# Youngs Moduli (GPa) = 72.00076 45.95283 99.34056
#
# Poissons Ratio (x) = 0.39951 0.22181
# Poissons Ratio (y) = 0.62597 0.14479
# Poissons Ratio (z) = 0.16076 0.06698
#
# Static dielectric constant tensor:
#      x y z
#    x 3.767740 0.000000 0.000000 
#    y 0.000000 2.746630 0.000000 
#    z 0.000000 0.000000 3.274780 
# 
# 
# High freq. dielectric constant tensor:
#      x y z
#    x 1.658830 0.000000 0.000000 
#    y 0.000000 1.591610 0.000000 
#    z 0.000000 0.000000 1.684740 
# 
# From -- ./inp_files/1644.got.cif
#   From: 2010.03.12/outbox.cif.g09.slc.cpg/sg17_1_cif.got.tgz:1644.got - 2010.04.10 18:46:23.
