data_PCOD8155098
_publ_section_title
;
Structure prediction by ZEFSAII (Michael W. Deem and Ramdas Pophale) SiO2 
 PCOD8155098
Probable space group: C 2/C
;
_chemical_formula_sum "Si O2"
_cell_formula_units_Z 36
_cell_length_a 13.060115
_cell_length_b 14.936283
_cell_length_c 9.234918
_cell_angle_alpha 90.000000
_cell_angle_beta 135.000153
_cell_angle_gamma 90.000000
_cell_volume 1273.815182
_symmetry_space_group_name_H-M "C 2/C"
_symmetry_group_IT_number 15
_symmetry_cell_setting 'monoclinic'
loop_
_space_group_symop_operation_xyz
x,y,z
-x,y,1/2-z
-x,-y,-z
x,-y,1/2+z
1/2+x,1/2+y,z
1/2-x,1/2+y,1/2-z
1/2-x,1/2-y,-z
1/2+x,1/2-y,1/2+z
loop_
_atom_site_type_symbol
_atom_site_label
_atom_site_fract_x
_atom_site_fract_y
_atom_site_fract_z
Si Si1 0.073200 0.734002 0.107344
Si Si2 0.606365 0.935356 0.023835
Si Si3 0.332531 0.314644 0.688895
Si Si4 0.500000 0.625000 0.750000
Si Si5 0.784145 0.984002 0.460945
O O1 0.224858 0.685230 0.222006
O O2 0.101842 0.812726 0.251896
O O3 0.958071 0.663397 0.055760
O O4 0.993756 0.779623 0.888081
O O5 0.747148 0.935230 0.272291
O O6 0.644326 0.970377 0.900571
O O7 0.500000 0.000000 0.000000
O O8 0.250000 0.250000 0.500000
O O9 0.347690 0.413397 0.639618
O O10 0.400054 0.562726 0.548212
#
# Coordination Sequence:
#
# PCOD8155098 Si02
#       5
#     8   8   8   4   8
#     4  12  28  50  77 114 158 201 264 317 404 473
#     4  12  26  47  78 111 148 203 262 323 379 472
#     4  12  26  47  78 111 148 203 262 323 379 472
#     4  12  32  48  76 120 166 204 240 344 420 464
#     4  12  28  50  77 114 158 201 264 317 404 473
#
# _framework density 28.261554
#
# number of rings (size 3 to 8) (size 9 to 14) (size 15 to 20)
#    0.000    0.000    4.444    4.000    6.222    3.556 
#    0.000    0.000    0.000    0.000    0.000    0.000 
#    0.000    0.000    0.000    0.000    0.000    0.000 
#
# Total GULP energy -223316.484401 kJ/mol
# GULP energy per Si atom -12406.471356 kJ/mol
# Density = 2.819723 g / cm^3
# Si number density = 28.261554 Si / 1000 Ang^3
#
#
#
# Elastic Constant Matrix: (Units=GPa)
#
#
# Indices 1 2 3 4 5 6 
#
# 1 78.6117 14.4751 -2.4538 0.0000 2.9508 0.0000
# 2 14.4751 148.3137 14.4748 0.0000 0.0006 0.0000
# 3 -2.4538 14.4748 78.6095 0.0000 -2.9490 0.0000
# 4 0.0000 0.0000 0.0000 48.7312 0.0000 0.0002
# 5 2.9508 0.0006 -2.9490 0.0000 49.1204 0.0000
# 6 0.0000 0.0000 0.0000 0.0002 0.0000 48.7313
#
#
#
# Elastic Compliance Matrix: (Units=1/GPa)
#
#
# Indices 1 2 3 4 5 6 
#
# 1 0.013013 -0.001331 0.000623 0.000000 -0.000744 0.000000
# 2 -0.001331 0.007002 -0.001331 0.000000 0.000000 0.000000
# 3 0.000623 -0.001331 0.013014 0.000000 0.000744 0.000000
# 4 0.000000 0.000000 0.000000 0.020521 0.000000 0.000000
# 5 -0.000744 0.000000 0.000744 0.000000 0.020447 0.000000
# 6 0.000000 0.000000 0.000000 0.000000 0.000000 0.020521
#
#
# Mechanical properties :
#
#
# Convention : Reuss Voigt Hill
#
# Bulk Modulus (GPa) = 34.53984 39.83637 37.18811
# Shear Modulus (GPa) = 46.19129 47.91918 47.05523
#
# Velocity S-wave (km/s) = 4.04718 4.12219 4.08486
# Velocity P-wave (km/s) = 5.83846 6.06488 5.95275
#
# Compressibility (1/GPa) = 0.02895207
#
# Stress axis : x y z
#
# Youngs Moduli (GPa) = 76.84498 142.81127 76.84306
#
# Poissons Ratio (x) = 0.19007 -0.04790
# Poissons Ratio (y) = 0.10227 0.10227
# Poissons Ratio (z) = -0.04790 0.19007
#
# Static dielectric constant tensor:
#      x y z
#    x 5.401610 0.000000 -0.000020 
#    y 0.000000 5.340140 0.000000 
#    z -0.000020 0.000000 5.401620 
# 
# 
# High freq. dielectric constant tensor:
#      x y z
#    x 2.147410 0.000000 0.000000 
#    y 0.000000 2.157590 0.000000 
#    z 0.000000 0.000000 2.147410 
# 
# From -- ./inp_files/96773.got.cif
#   From: 2010.06.25/outbox.cif.g09.slc.cpg/sg15_49_cif.got.tgz:96773.got - 2010.06.28 07:06:18.
