data_PCOD8155700
_publ_section_title
;
Structure prediction by ZEFSAII (Michael W. Deem and Ramdas Pophale) SiO2 
 PCOD8155700
Probable space group: P 2 2 21
;
_chemical_formula_sum "Si O2"
_cell_formula_units_Z 18
_cell_length_a 7.855889
_cell_length_b 8.083413
_cell_length_c 14.641468
_cell_angle_alpha 90.000000
_cell_angle_beta 90.000000
_cell_angle_gamma 90.000000
_cell_volume 929.768288
_symmetry_space_group_name_H-M "P 2 2 21"
_symmetry_group_IT_number 17
_symmetry_cell_setting 'orthorhombic'
loop_
_space_group_symop_operation_xyz
x,y,z
-x,-y,1/2+z
x,-y,-z
-x,y,1/2-z
loop_
_atom_site_type_symbol
_atom_site_label
_atom_site_fract_x
_atom_site_fract_y
_atom_site_fract_z
Si Si1 0.809969 0.283455 0.761892
Si Si2 0.449113 0.868060 0.930951
Si Si3 0.379956 0.551779 0.833531
Si Si4 0.348260 0.646206 0.443363
Si Si5 0.500000 0.051446 0.750000
O O1 0.785684 0.458859 0.708068
O O2 0.789440 0.299064 0.870156
O O3 0.666985 0.157992 0.725599
O O4 0.000000 0.214508 0.750000
O O5 0.330449 0.714835 0.894353
O O6 0.533985 0.949464 0.841766
O O7 0.605861 0.797266 0.990071
O O8 0.354443 0.000000 0.000000
O O9 0.500000 0.609989 0.750000
O O10 0.479205 0.419745 0.895705
O O11 0.260122 0.500000 0.500000
#
# Coordination Sequence:
#
# PCOD8155700 Si02
#       5
#     4   4   4   4   2
#     4  11  21  39  63  90 125 165 209 260 309 376
#     4  11  19  33  64  91 120 162 201 256 322 373
#     4   9  17  35  60  88 114 156 212 249 299 371
#     4   9  18  35  62  87 116 161 209 253 308 373
#     4  12  22  38  62  92 128 164 206 258 322 366
#
# _framework density 19.359660999999999
#
# number of rings (size 3 to 8) (size 9 to 14) (size 15 to 20)
#    0.000    1.778    6.667    0.000    0.000    0.000 
#    0.000    6.667   14.667    0.000    0.000    0.000 
#    0.000    0.000    0.000    0.000    0.000    0.000 
#
# Total GULP energy -222992.874967 kJ/mol
# GULP energy per Si atom -12388.493054 kJ/mol
# Density = 1.931560 g / cm^3
# Si number density = 19.359661 Si / 1000 Ang^3
#
#
#
# Elastic Constant Matrix: (Units=GPa)
#
#
# Indices 1 2 3 4 5 6 
#
# 1 91.4443 40.0965 27.2562 0.0000 0.0000 0.0000
# 2 40.0965 105.1241 61.8062 0.0000 0.0000 0.0000
# 3 27.2562 61.8062 143.2088 0.0000 0.0000 0.0000
# 4 0.0000 0.0000 0.0000 62.2659 0.0000 0.0000
# 5 0.0000 0.0000 0.0000 0.0000 18.1470 0.0000
# 6 0.0000 0.0000 0.0000 0.0000 0.0000 2.2063
#
#
#
# Elastic Compliance Matrix: (Units=1/GPa)
#
#
# Indices 1 2 3 4 5 6 
#
# 1 0.013154 -0.004751 -0.000453 0.000000 0.000000 0.000000
# 2 -0.004751 0.014463 -0.005338 0.000000 0.000000 0.000000
# 3 -0.000453 -0.005338 0.009373 0.000000 0.000000 0.000000
# 4 0.000000 0.000000 0.000000 0.016060 0.000000 0.000000
# 5 0.000000 0.000000 0.000000 0.000000 0.055105 0.000000
# 6 0.000000 0.000000 0.000000 0.000000 0.000000 0.453246
#
#
# Mechanical properties :
#
#
# Convention : Reuss Voigt Hill
#
# Bulk Modulus (GPa) = 62.86873 66.45501 64.66187
# Shear Modulus (GPa) = 8.50650 30.56508 19.53579
#
# Velocity S-wave (km/s) = 2.09844 3.97773 3.18008
# Velocity P-wave (km/s) = 6.19805 7.44966 6.85249
#
# Compressibility (1/GPa) = 0.01590616
#
# Stress axis : x y z
#
# Youngs Moduli (GPa) = 76.02380 69.14292 106.69273
#
# Poissons Ratio (x) = 0.32848 0.04835
# Poissons Ratio (y) = 0.36116 0.56949
# Poissons Ratio (z) = 0.03445 0.36906
#
# Static dielectric constant tensor:
#      x y z
#    x 2.767110 0.000000 0.000000 
#    y 0.000000 3.856140 0.000000 
#    z 0.000000 0.000000 4.194430 
# 
# 
# High freq. dielectric constant tensor:
#      x y z
#    x 1.664500 0.000000 0.000000 
#    y 0.000000 1.767370 0.000000 
#    z 0.000000 0.000000 1.788120 
# 
# From -- ./inp_files/7894.got.cif
#   From: 2010.03.12/outbox.cif.g09.slc.cpg/sg17_4_cif.got.tgz:7894.got - 2010.04.10 18:46:23.
