data_PCOD8155050
_publ_section_title
;
Structure prediction by ZEFSAII (Michael W. Deem and Ramdas Pophale) SiO2 
 PCOD8155050
Probable space group: C 2/C
;
_chemical_formula_sum "Si O2"
_cell_formula_units_Z 40
_cell_length_a 17.421986
_cell_length_b 7.901086
_cell_length_c 13.578055
_cell_angle_alpha 90.000000
_cell_angle_beta 51.277940
_cell_angle_gamma 90.000000
_cell_volume 1458.217078
_symmetry_space_group_name_H-M "C 2/C"
_symmetry_group_IT_number 15
_symmetry_cell_setting 'monoclinic'
loop_
_space_group_symop_operation_xyz
x,y,z
-x,y,1/2-z
-x,-y,-z
x,-y,1/2+z
1/2+x,1/2+y,z
1/2-x,1/2+y,1/2-z
1/2-x,1/2-y,-z
1/2+x,1/2-y,1/2+z
loop_
_atom_site_type_symbol
_atom_site_label
_atom_site_fract_x
_atom_site_fract_y
_atom_site_fract_z
Si Si1 0.319428 0.369943 0.870035
Si Si2 0.353019 0.318418 0.475075
Si Si3 0.711052 0.165567 0.262398
Si Si4 0.383609 0.005385 0.828317
Si Si5 0.051684 0.937320 0.362771
O O1 0.308865 0.509061 0.963878
O O2 0.421768 0.406624 0.729950
O O3 0.231789 0.380921 0.858980
O O4 0.330665 0.180313 0.908817
O O5 0.328997 0.154836 0.426116
O O6 0.471840 0.316131 0.375439
O O7 0.312082 0.305807 0.619279
O O8 0.643127 0.019071 0.266097
O O9 0.652550 0.342025 0.306767
O O10 0.500000 0.017634 0.750000
O O11 0.000000 0.000000 0.500000
#
# Coordination Sequence:
#
# PCOD8155050 Si02
#       5
#     8   8   8   8   8
#     4  12  27  50  81 122 160 215 280 328 414 492
#     4  12  26  54  82 113 170 219 267 346 410 487
#     4  12  27  53  79 120 164 214 276 338 410 489
#     4  12  25  48  77 114 159 213 274 331 405 487
#     4  12  25  54  83 114 171 221 263 346 423 475
#
# _framework density 27.430755999999999
#
# number of rings (size 3 to 8) (size 9 to 14) (size 15 to 20)
#    0.000    0.000    6.000    3.600    0.000    0.800 
#    3.600    2.000    0.000    0.000    0.000    0.000 
#    0.000    0.000    0.000    0.000    0.000    0.000 
#
# Total GULP energy -248034.346648 kJ/mol
# GULP energy per Si atom -12401.717332 kJ/mol
# Density = 2.736832 g / cm^3
# Si number density = 27.430756 Si / 1000 Ang^3
#
#
#
# Elastic Constant Matrix: (Units=GPa)
#
#
# Indices 1 2 3 4 5 6 
#
# 1 151.4665 58.5951 35.9019 -0.0004 -1.3004 0.0007
# 2 58.5951 177.4862 40.7056 -0.0008 -4.2508 0.0020
# 3 35.9019 40.7056 116.1931 0.0000 10.6238 0.0002
# 4 -0.0004 -0.0008 0.0000 50.6552 0.0002 -11.5608
# 5 -1.3004 -4.2508 10.6238 0.0002 37.9946 -0.0006
# 6 0.0007 0.0020 0.0002 -11.5608 -0.0006 46.8263
#
#
#
# Elastic Compliance Matrix: (Units=1/GPa)
#
#
# Indices 1 2 3 4 5 6 
#
# 1 0.007858 -0.002191 -0.001706 0.000000 0.000501 0.000000
# 2 -0.002191 0.006802 -0.001815 0.000000 0.001194 0.000000
# 3 -0.001706 -0.001815 0.010050 0.000000 -0.003072 0.000000
# 4 0.000000 0.000000 0.000000 0.020920 0.000000 0.005165
# 5 0.000501 0.001194 -0.003072 0.000000 0.027329 0.000000
# 6 0.000000 0.000000 0.000000 0.005165 0.000000 0.022631
#
#
# Mechanical properties :
#
#
# Convention : Reuss Voigt Hill
#
# Bulk Modulus (GPa) = 75.26686 79.50565 77.38625
# Shear Modulus (GPa) = 44.86509 47.75809 46.31159
#
# Velocity S-wave (km/s) = 4.04861 4.17711 4.11336
# Velocity P-wave (km/s) = 7.02520 7.23266 7.12968
#
# Compressibility (1/GPa) = 0.01328606
#
# Stress axis : x y z
#
# Youngs Moduli (GPa) = 127.25083 147.00484 99.49867
#
# Poissons Ratio (x) = 0.32210 0.16978
# Poissons Ratio (y) = 0.27881 0.18061
# Poissons Ratio (z) = 0.21714 0.26685
#
# Static dielectric constant tensor:
#      x y z
#    x 8.931150 0.000000 -0.528090 
#    y 0.000000 5.296830 0.000000 
#    z -0.528090 0.000000 4.940150 
# 
# 
# High freq. dielectric constant tensor:
#      x y z
#    x 2.138280 0.000000 -0.015490 
#    y 0.000000 2.112350 0.000000 
#    z -0.015490 0.000000 2.112240 
# 
# From -- ./inp_files/208056.got.cif
#   From: 2010.06.25/outbox.cif.g09.slc.cpg/sg15_105_cif.got.tgz:208056.got - 2010.06.28 07:06:18.
