data_PCOD8155520
_publ_section_title
;
Structure prediction by ZEFSAII (Michael W. Deem and Ramdas Pophale) SiO2 
 PCOD8155520
Probable space group: P 2 2 21
;
_chemical_formula_sum "Si O2"
_cell_formula_units_Z 32
_cell_length_a 14.332705
_cell_length_b 12.910895
_cell_length_c 8.674618
_cell_angle_alpha 90.000000
_cell_angle_beta 90.000000
_cell_angle_gamma 90.000000
_cell_volume 1605.221140
_symmetry_space_group_name_H-M "P 2 2 21"
_symmetry_group_IT_number 17
_symmetry_cell_setting 'orthorhombic'
loop_
_space_group_symop_operation_xyz
x,y,z
-x,-y,1/2+z
x,-y,-z
-x,y,1/2-z
loop_
_atom_site_type_symbol
_atom_site_label
_atom_site_fract_x
_atom_site_fract_y
_atom_site_fract_z
Si Si1 0.854540 0.737551 0.855589
Si Si2 0.803558 0.094172 0.599050
Si Si3 0.099795 0.960980 0.671477
Si Si4 0.852915 0.383852 0.455202
Si Si5 0.490966 0.396497 0.924267
Si Si6 0.027889 0.224253 0.920503
Si Si7 0.300296 0.618299 0.457962
Si Si8 0.691845 0.703189 0.380758
O O1 0.837801 0.856103 0.803855
O O2 0.880681 0.657817 0.716292
O O3 0.763805 0.694842 0.942888
O O4 0.941812 0.754475 0.969112
O O5 0.896426 0.140674 0.513176
O O6 0.722201 0.177364 0.628745
O O7 0.762134 0.000000 0.500000
O O8 0.836645 0.052949 0.763759
O O9 0.000000 0.944714 0.750000
O O10 0.077783 0.000000 0.500000
O O11 0.874324 0.500000 0.500000
O O12 0.914128 0.329876 0.588541
O O13 0.745118 0.355346 0.481187
O O14 0.500000 0.431635 0.750000
O O15 0.590231 0.362257 0.998455
O O16 0.416806 0.302071 0.930556
O O17 0.449740 0.500000 0.000000
O O18 0.000000 0.188296 0.750000
O O19 0.272584 0.500000 0.500000
O O20 0.285262 0.642141 0.277581
#
# Coordination Sequence:
#
# PCOD8155520 Si02
#       8
#     4   4   4   4   4   4   4   4
#     4  12  23  37  56  84 118 150 195 245 286 342
#     4  11  22  38  58  82 112 150 198 241 291 343
#     4  12  22  35  57  82 112 152 195 246 291 335
#     4  11  23  36  53  81 115 154 189 230 288 349
#     4   9  19  36  62  89 114 145 184 230 284 344
#     4  11  23  38  56  81 113 153 197 243 290 344
#     4  10  21  38  60  87 115 150 189 231 286 350
#     4  10  20  38  59  82 114 148 188 238 289 345
#
# _framework density 19.934947000000001
#
# number of rings (size 3 to 8) (size 9 to 14) (size 15 to 20)
#    0.000    1.250    0.000    9.000    0.000    3.500 
#    0.000    0.000    0.000    5.250    0.000    0.000 
#    0.000    0.000    0.000    0.000    0.000    0.000 
#
# Total GULP energy -396476.340139 kJ/mol
# GULP energy per Si atom -12389.885629 kJ/mol
# Density = 1.988957 g / cm^3
# Si number density = 19.934947 Si / 1000 Ang^3
#
#
#
# Elastic Constant Matrix: (Units=GPa)
#
#
# Indices 1 2 3 4 5 6 
#
# 1 116.0268 67.1562 35.1984 0.0000 0.0000 0.0000
# 2 67.1562 154.1178 37.1788 0.0000 0.0000 0.0000
# 3 35.1984 37.1788 78.4652 0.0000 0.0000 0.0000
# 4 0.0000 0.0000 0.0000 39.0295 0.0000 0.0000
# 5 0.0000 0.0000 0.0000 0.0000 25.5416 0.0000
# 6 0.0000 0.0000 0.0000 0.0000 0.0000 30.9276
#
#
#
# Elastic Compliance Matrix: (Units=1/GPa)
#
#
# Indices 1 2 3 4 5 6 
#
# 1 0.012259 -0.004534 -0.003351 0.000000 0.000000 0.000000
# 2 -0.004534 0.009002 -0.002232 0.000000 0.000000 0.000000
# 3 -0.003351 -0.002232 0.015305 0.000000 0.000000 0.000000
# 4 0.000000 0.000000 0.000000 0.025622 0.000000 0.000000
# 5 0.000000 0.000000 0.000000 0.000000 0.039152 0.000000
# 6 0.000000 0.000000 0.000000 0.000000 0.000000 0.032334
#
#
# Mechanical properties :
#
#
# Convention : Reuss Voigt Hill
#
# Bulk Modulus (GPa) = 61.22292 69.74184 65.48238
# Shear Modulus (GPa) = 31.37704 33.03817 32.20761
#
# Velocity S-wave (km/s) = 3.97164 4.07541 4.02386
# Velocity P-wave (km/s) = 7.19791 7.56346 7.38295
#
# Compressibility (1/GPa) = 0.01633375
#
# Stress axis : x y z
#
# Youngs Moduli (GPa) = 81.57036 111.08134 65.33651
#
# Poissons Ratio (x) = 0.50359 0.21896
# Poissons Ratio (y) = 0.36980 0.14582
# Poissons Ratio (z) = 0.27337 0.24792
#
# Static dielectric constant tensor:
#      x y z
#    x 3.672730 0.000000 0.000000 
#    y 0.000000 3.996520 0.000000 
#    z 0.000000 0.000000 3.828840 
# 
# 
# High freq. dielectric constant tensor:
#      x y z
#    x 1.760360 0.000000 0.000000 
#    y 0.000000 1.782860 0.000000 
#    z 0.000000 0.000000 1.786400 
# 
# From -- ./inp_files/5294.got.cif
#   From: 2010.03.12/outbox.cif.g09.slc.cpg/sg17_3_cif.got.tgz:5294.got - 2010.04.10 18:46:23.
