data_PCOD8155926
_publ_section_title
;
Structure prediction by ZEFSAII (Michael W. Deem and Ramdas Pophale) SiO2 
 PCOD8155926
Probable space group: P 21 21 2
;
_chemical_formula_sum "Si O2"
_cell_formula_units_Z 30
_cell_length_a 21.200193
_cell_length_b 12.097979
_cell_length_c 5.285841
_cell_angle_alpha 90.000000
_cell_angle_beta 90.000000
_cell_angle_gamma 90.000000
_cell_volume 1355.709802
_symmetry_space_group_name_H-M "P 21 21 2"
_symmetry_group_IT_number 18
_symmetry_cell_setting 'orthorhombic'
loop_
_space_group_symop_operation_xyz
x,y,z
-x,-y,z
1/2+x,1/2-y,-z
1/2-x,1/2+y,-z
loop_
_atom_site_type_symbol
_atom_site_label
_atom_site_fract_x
_atom_site_fract_y
_atom_site_fract_z
Si Si1 0.000000 0.000000 0.771553
Si Si2 0.393754 0.460207 0.855129
Si Si3 0.546681 0.778162 0.840273
Si Si4 0.266839 0.252611 0.389466
Si Si5 0.645258 0.357982 0.480651
Si Si6 0.777769 0.020196 0.834780
Si Si7 0.678932 0.851516 0.897329
Si Si8 0.019420 0.235033 0.645215
O O1 0.008979 0.889133 0.608753
O O2 0.936509 0.978711 0.934672
O O3 0.424207 0.342863 0.795221
O O4 0.393291 0.544028 0.619627
O O5 0.321210 0.435877 0.936479
O O6 0.603535 0.865700 0.868575
O O7 0.506681 0.807665 0.589083
O O8 0.501957 0.785324 0.086361
O O9 0.195559 0.207687 0.344452
O O10 0.267373 0.386279 0.377904
O O11 0.294932 0.216625 0.657342
O O12 0.309819 0.211530 0.159688
O O13 0.685498 0.412182 0.259591
O O14 0.595511 0.269341 0.369883
O O15 0.709453 0.974049 0.920522
#
# Coordination Sequence:
#
# PCOD8155926 Si02
#       8
#     2   4   4   4   4   4   4   4
#     4  10  20  32  50  86 118 156 184 228 306 362
#     4  11  19  33  55  82 126 154 191 237 292 368
#     4  11  23  35  57  85 122 155 193 241 297 365
#     4  11  24  39  62  87 123 164 203 250 303 361
#     4  11  22  38  59  89 123 160 204 250 302 373
#     4  11  23  38  60  87 122 161 202 253 300 362
#     4  11  23  40  59  88 122 163 201 252 304 360
#     4  11  22  35  55  84 119 158 191 240 301 361
#
# _framework density 22.128630999999999
#
# number of rings (size 3 to 8) (size 9 to 14) (size 15 to 20)
#    0.000    1.067    4.000    4.000    3.733    0.533 
#    0.000    0.000    0.000    0.800    0.000    3.733 
#    0.000    0.000    0.000    0.000    0.000    0.000 
#
# Total GULP energy -371916.295903 kJ/mol
# GULP energy per Si atom -12397.209863 kJ/mol
# Density = 2.207826 g / cm^3
# Si number density = 22.128631 Si / 1000 Ang^3
#
#
#
# Elastic Constant Matrix: (Units=GPa)
#
#
# Indices 1 2 3 4 5 6 
#
# 1 57.9297 3.2501 12.7562 0.0000 0.0000 0.0000
# 2 3.2501 22.3805 -1.5184 0.0000 0.0000 0.0000
# 3 12.7562 -1.5184 99.7588 0.0000 0.0000 0.0000
# 4 0.0000 0.0000 0.0000 14.4577 0.0000 0.0000
# 5 0.0000 0.0000 0.0000 0.0000 34.5182 0.0000
# 6 0.0000 0.0000 0.0000 0.0000 0.0000 31.4733
#
#
#
# Elastic Compliance Matrix: (Units=1/GPa)
#
#
# Indices 1 2 3 4 5 6 
#
# 1 0.017931 -0.002762 -0.002335 0.000000 0.000000 0.000000
# 2 -0.002762 0.045153 0.001041 0.000000 0.000000 0.000000
# 3 -0.002335 0.001041 0.010339 0.000000 0.000000 0.000000
# 4 0.000000 0.000000 0.000000 0.069167 0.000000 0.000000
# 5 0.000000 0.000000 0.000000 0.000000 0.028970 0.000000
# 6 0.000000 0.000000 0.000000 0.000000 0.000000 0.031773
#
#
# Mechanical properties :
#
#
# Convention : Reuss Voigt Hill
#
# Bulk Modulus (GPa) = 15.31165 23.22719 19.26942
# Shear Modulus (GPa) = 21.43920 27.12857 24.28389
#
# Velocity S-wave (km/s) = 3.11600 3.50515 3.31629
# Velocity P-wave (km/s) = 4.45874 5.18659 4.83638
#
# Compressibility (1/GPa) = 0.06530977
#
# Stress axis : x y z
#
# Youngs Moduli (GPa) = 55.76801 22.14672 96.72499
#
# Poissons Ratio (x) = 0.06118 0.22585
# Poissons Ratio (y) = 0.15405 -0.10064
# Poissons Ratio (z) = 0.13022 -0.02304
#
# Static dielectric constant tensor:
#      x y z
#    x 4.453360 0.000000 0.000000 
#    y 0.000000 3.690710 0.000000 
#    z 0.000000 0.000000 3.835760 
# 
# 
# High freq. dielectric constant tensor:
#      x y z
#    x 1.881350 0.000000 0.000000 
#    y 0.000000 1.818160 0.000000 
#    z 0.000000 0.000000 1.873820 
# 
# From -- ./inp_files/1286.got.cif
#   From: 2010.03.12/outbox.cif.g09.slc.cpg/sg18_1_cif.got.tgz:1286.got - 2010.04.10 18:53:55.
