data_PCOD8155929
_publ_section_title
;
Structure prediction by ZEFSAII (Michael W. Deem and Ramdas Pophale) SiO2 
 PCOD8155929
Probable space group: P 21 21 2
;
_chemical_formula_sum "Si O2"
_cell_formula_units_Z 26
_cell_length_a 11.602538
_cell_length_b 12.709261
_cell_length_c 9.391870
_cell_angle_alpha 90.000000
_cell_angle_beta 90.000000
_cell_angle_gamma 90.000000
_cell_volume 1384.922180
_symmetry_space_group_name_H-M "P 21 21 2"
_symmetry_group_IT_number 18
_symmetry_cell_setting 'orthorhombic'
loop_
_space_group_symop_operation_xyz
x,y,z
-x,-y,z
1/2+x,1/2-y,-z
1/2-x,1/2+y,-z
loop_
_atom_site_type_symbol
_atom_site_label
_atom_site_fract_x
_atom_site_fract_y
_atom_site_fract_z
Si Si1 0.500000 0.000000 0.658967
Si Si2 0.748614 0.498197 0.440123
Si Si3 0.712380 0.643412 0.688530
Si Si4 0.076394 0.896422 0.746267
Si Si5 0.391266 0.712079 0.425694
Si Si6 0.997287 0.731037 0.288079
Si Si7 0.560002 0.612590 0.933846
O O1 0.612970 0.996001 0.559408
O O2 0.500893 0.106803 0.753605
O O3 0.700504 0.540710 0.589837
O O4 0.703028 0.575859 0.314118
O O5 0.696303 0.384140 0.416917
O O6 0.838505 0.693324 0.668871
O O7 0.618765 0.732154 0.643080
O O8 0.683121 0.607153 0.850429
O O9 0.015090 0.812245 0.643488
O O10 0.086519 0.850597 0.905797
O O11 0.000000 0.000000 0.748462
O O12 0.401698 0.748698 0.589967
O O13 0.976733 0.801050 0.144768
O O14 0.500000 0.500000 0.928031
#
# Coordination Sequence:
#
# PCOD8155929 Si02
#       7
#     2   4   4   4   4   4   4
#     4  12  22  36  54  82 126 148 182 228 296 342
#     4  11  20  34  57  85 110 148 188 237 282 339
#     4  10  20  33  54  83 111 143 184 236 282 324
#     4   9  19  34  59  81 106 144 191 234 273 332
#     4  11  19  35  58  84 111 142 193 236 281 331
#     4  10  21  35  55  83 111 151 180 234 279 330
#     4   9  18  37  56  82 109 143 195 235 274 331
#
# _framework density 18.773617999999999
#
# number of rings (size 3 to 8) (size 9 to 14) (size 15 to 20)
#    0.923    0.923    4.615    0.923    0.000    0.000 
#    2.769    0.000    0.000    1.846    0.000    0.000 
#    0.000    0.000    0.000    0.000    0.000    0.000 
#
# Total GULP energy -322138.149161 kJ/mol
# GULP energy per Si atom -12389.928814 kJ/mol
# Density = 1.873089 g / cm^3
# Si number density = 18.773618 Si / 1000 Ang^3
#
#
#
# Elastic Constant Matrix: (Units=GPa)
#
#
# Indices 1 2 3 4 5 6 
#
# 1 83.4590 12.6815 26.2434 0.0000 0.0000 0.0000
# 2 12.6815 85.3166 27.0008 0.0000 0.0000 0.0000
# 3 26.2434 27.0008 107.7634 0.0000 0.0000 0.0000
# 4 0.0000 0.0000 0.0000 14.1851 0.0000 0.0000
# 5 0.0000 0.0000 0.0000 0.0000 8.8986 0.0000
# 6 0.0000 0.0000 0.0000 0.0000 0.0000 27.1410
#
#
#
# Elastic Compliance Matrix: (Units=1/GPa)
#
#
# Indices 1 2 3 4 5 6 
#
# 1 0.013056 -0.001015 -0.002925 0.000000 0.000000 0.000000
# 2 -0.001015 0.012809 -0.002962 0.000000 0.000000 0.000000
# 3 -0.002925 -0.002962 0.010734 0.000000 0.000000 0.000000
# 4 0.000000 0.000000 0.000000 0.070496 0.000000 0.000000
# 5 0.000000 0.000000 0.000000 0.000000 0.112377 0.000000
# 6 0.000000 0.000000 0.000000 0.000000 0.000000 0.036845
#
#
# Mechanical properties :
#
#
# Convention : Reuss Voigt Hill
#
# Bulk Modulus (GPa) = 43.86981 45.37673 44.62327
# Shear Modulus (GPa) = 18.00369 24.08583 21.04476
#
# Velocity S-wave (km/s) = 3.10011 3.58573 3.35173
# Velocity P-wave (km/s) = 6.01937 6.43166 6.22893
#
# Compressibility (1/GPa) = 0.02279472
#
# Stress axis : x y z
#
# Youngs Moduli (GPa) = 76.59337 78.06757 93.16030
#
# Poissons Ratio (x) = 0.07923 0.27251
# Poissons Ratio (y) = 0.07773 0.27597
# Poissons Ratio (z) = 0.22405 0.23126
#
# Static dielectric constant tensor:
#      x y z
#    x 3.309910 0.000000 0.000000 
#    y 0.000000 3.457230 0.000000 
#    z 0.000000 0.000000 3.309370 
# 
# 
# High freq. dielectric constant tensor:
#      x y z
#    x 1.714900 0.000000 0.000000 
#    y 0.000000 1.730620 0.000000 
#    z 0.000000 0.000000 1.704370 
# 
# From -- ./inp_files/3837.got.cif
#   From: 2010.03.12/outbox.cif.g09.slc.cpg/sg18_2_cif.got.tgz:3837.got - 2010.04.10 18:53:55.
