data_PCOD8155128
_publ_section_title
;
Structure prediction by ZEFSAII (Michael W. Deem and Ramdas Pophale) SiO2 
 PCOD8155128
Probable space group: C 2/C
;
_chemical_formula_sum "Si O2"
_cell_formula_units_Z 40
_cell_length_a 13.665050
_cell_length_b 5.267757
_cell_length_c 25.714133
_cell_angle_alpha 90.000000
_cell_angle_beta 123.904390
_cell_angle_gamma 90.000000
_cell_volume 1536.282212
_symmetry_space_group_name_H-M "C 2/C"
_symmetry_group_IT_number 15
_symmetry_cell_setting 'monoclinic'
loop_
_space_group_symop_operation_xyz
x,y,z
-x,y,1/2-z
-x,-y,-z
x,-y,1/2+z
1/2+x,1/2+y,z
1/2-x,1/2+y,1/2-z
1/2-x,1/2-y,-z
1/2+x,1/2-y,1/2+z
loop_
_atom_site_type_symbol
_atom_site_label
_atom_site_fract_x
_atom_site_fract_y
_atom_site_fract_z
Si Si1 0.162246 0.110148 0.662786
Si Si2 0.971630 0.511024 0.124728
Si Si3 0.895831 0.841707 0.756618
Si Si4 0.774848 0.124886 0.416275
Si Si5 0.615446 0.894229 0.507311
O O1 0.287366 0.248790 0.689035
O O2 0.168240 0.864524 0.625680
O O3 0.047581 0.278250 0.615704
O O4 0.153829 0.066569 0.722247
O O5 0.866944 0.617037 0.129899
O O6 0.058366 0.361838 0.188236
O O7 0.906958 0.346264 0.060714
O O8 0.000000 0.938439 0.750000
O O9 0.834876 0.870773 0.457166
O O10 0.793530 0.375995 0.455900
O O11 0.500000 0.000000 0.500000
#
# Coordination Sequence:
#
# PCOD8155128 Si02
#       5
#     8   8   8   8   8
#     4  12  27  47  78 109 153 207 258 321 386 461
#     4  12  27  47  77 109 155 203 255 319 388 457
#     4  12  27  48  73 110 151 202 264 317 387 453
#     4  12  28  49  79 116 155 202 257 318 389 464
#     4  12  26  49  79 113 156 202 254 317 392 460
#
# _framework density 26.036885000000002
#
# number of rings (size 3 to 8) (size 9 to 14) (size 15 to 20)
#    0.000    0.000    6.000    3.000    5.600    2.400 
#    0.000    0.000    0.000    0.000    0.000    0.000 
#    0.000    0.000    0.000    0.000    0.000    0.000 
#
# Total GULP energy -247884.322476 kJ/mol
# GULP energy per Si atom -12394.216124 kJ/mol
# Density = 2.597762 g / cm^3
# Si number density = 26.036885 Si / 1000 Ang^3
#
#
#
# Elastic Constant Matrix: (Units=GPa)
#
#
# Indices 1 2 3 4 5 6 
#
# 1 158.3264 2.5654 28.3518 0.0001 1.7546 0.0000
# 2 2.5654 74.2209 18.2840 0.0002 3.5243 -0.0001
# 3 28.3518 18.2840 89.2733 0.0000 -3.0431 0.0000
# 4 0.0001 0.0002 0.0000 36.9821 0.0000 3.8633
# 5 1.7546 3.5243 -3.0431 0.0000 42.4488 0.0000
# 6 0.0000 -0.0001 0.0000 3.8633 0.0000 17.5544
#
#
#
# Elastic Compliance Matrix: (Units=1/GPa)
#
#
# Indices 1 2 3 4 5 6 
#
# 1 0.006713 0.000336 -0.002216 0.000000 -0.000464 0.000000
# 2 0.000336 0.014288 -0.003082 0.000000 -0.001421 0.000000
# 3 -0.002216 -0.003082 0.012579 0.000000 0.001249 0.000000
# 4 0.000000 0.000000 0.000000 0.027676 0.000000 -0.006091
# 5 -0.000464 -0.001421 0.001249 0.000000 0.023785 0.000000
# 6 0.000000 0.000000 0.000000 -0.006091 0.000000 0.058306
#
#
# Mechanical properties :
#
#
# Convention : Reuss Voigt Hill
#
# Bulk Modulus (GPa) = 42.27225 46.69145 44.48185
# Shear Modulus (GPa) = 31.02570 37.57169 34.29869
#
# Velocity S-wave (km/s) = 3.45571 3.80283 3.63342
# Velocity P-wave (km/s) = 5.67392 6.10358 5.89267
#
# Compressibility (1/GPa) = 0.02365618
#
# Stress axis : x y z
#
# Youngs Moduli (GPa) = 148.97191 69.98743 79.49633
#
# Poissons Ratio (x) = -0.02352 0.17620
# Poissons Ratio (y) = -0.05006 0.24497
# Poissons Ratio (z) = 0.33020 0.21567
#
# Static dielectric constant tensor:
#      x y z
#    x 5.150200 0.000000 -0.137270 
#    y 0.000000 4.921410 0.000000 
#    z -0.137270 0.000000 5.026110 
# 
# 
# High freq. dielectric constant tensor:
#      x y z
#    x 2.072300 0.000000 0.002290 
#    y 0.000000 2.015900 0.000000 
#    z 0.002290 0.000000 2.054470 
# 
# From -- ./inp_files/294324.got.cif
#   From: 2010.06.25/outbox.cif.g09.slc.cpg/sg15_148_cif.got.tgz:294324.got - 2010.06.28 07:06:18.
