data_PCOD8155803
_publ_section_title
;
Structure prediction by ZEFSAII (Michael W. Deem and Ramdas Pophale) SiO2 
 PCOD8155803
Probable space group: P 21 21 2
;
_chemical_formula_sum "Si O2"
_cell_formula_units_Z 24
_cell_length_a 26.976677
_cell_length_b 5.018756
_cell_length_c 10.378745
_cell_angle_alpha 90.000000
_cell_angle_beta 90.000000
_cell_angle_gamma 90.000000
_cell_volume 1405.171639
_symmetry_space_group_name_H-M "P 21 21 2"
_symmetry_group_IT_number 18
_symmetry_cell_setting 'orthorhombic'
loop_
_space_group_symop_operation_xyz
x,y,z
-x,-y,z
1/2+x,1/2-y,-z
1/2-x,1/2+y,-z
loop_
_atom_site_type_symbol
_atom_site_label
_atom_site_fract_x
_atom_site_fract_y
_atom_site_fract_z
Si Si1 0.382699 0.997008 0.217161
Si Si2 0.717224 0.555245 0.848582
Si Si3 0.184107 0.445041 0.011204
Si Si4 0.031360 0.742543 0.659548
Si Si5 0.629837 0.537155 0.380032
Si Si6 0.222578 0.016907 0.451312
O O1 0.376763 0.731309 0.299896
O O2 0.440198 0.101177 0.218760
O O3 0.349055 0.231950 0.283359
O O4 0.366710 0.948957 0.070070
O O5 0.685260 0.307206 0.896127
O O6 0.722951 0.563342 0.696553
O O7 0.686154 0.807951 0.893471
O O8 0.771862 0.557540 0.907721
O O9 0.075779 0.856950 0.567230
O O10 0.000000 0.500000 0.593251
O O11 0.000000 0.000000 0.704365
O O12 0.666167 0.493403 0.499039
O O13 0.243180 0.314022 0.468929
#
# Coordination Sequence:
#
# PCOD8155803 Si02
#       6
#     4   4   4   4   4   4
#     4  10  19  32  55  76 109 131 171 217 273 311
#     4  10  21  32  50  70 105 144 183 201 247 300
#     4  10  19  34  48  73 102 142 176 211 242 303
#     4  10  18  33  53  82 108 126 170 224 282 327
#     4  10  20  32  52  79 108 137 170 215 274 318
#     4  12  23  35  52  76 112 149 182 222 258 314
#
# _framework density 17.079763
#
# number of rings (size 3 to 8) (size 9 to 14) (size 15 to 20)
#    1.000    0.667    1.667    5.000    0.000    2.667 
#    0.000    0.000    0.000    0.000    0.000    4.667 
#    0.000    0.000    0.000    0.000    0.000    0.000 
#
# Total GULP energy -297354.118549 kJ/mol
# GULP energy per Si atom -12389.754940 kJ/mol
# Density = 1.704089 g / cm^3
# Si number density = 17.079763 Si / 1000 Ang^3
#
#
#
# Elastic Constant Matrix: (Units=GPa)
#
#
# Indices 1 2 3 4 5 6 
#
# 1 80.6877 32.1042 25.6817 0.0000 0.0000 0.0000
# 2 32.1042 136.5969 29.2471 0.0000 0.0000 0.0000
# 3 25.6817 29.2471 81.9674 0.0000 0.0000 0.0000
# 4 0.0000 0.0000 0.0000 23.4098 0.0000 0.0000
# 5 0.0000 0.0000 0.0000 0.0000 15.4869 0.0000
# 6 0.0000 0.0000 0.0000 0.0000 0.0000 27.1179
#
#
#
# Elastic Compliance Matrix: (Units=1/GPa)
#
#
# Indices 1 2 3 4 5 6 
#
# 1 0.014605 -0.002656 -0.003628 0.000000 0.000000 0.000000
# 2 -0.002656 0.008409 -0.002168 0.000000 0.000000 0.000000
# 3 -0.003628 -0.002168 0.014111 0.000000 0.000000 0.000000
# 4 0.000000 0.000000 0.000000 0.042717 0.000000 0.000000
# 5 0.000000 0.000000 0.000000 0.000000 0.064571 0.000000
# 6 0.000000 0.000000 0.000000 0.000000 0.000000 0.036876
#
#
# Mechanical properties :
#
#
# Convention : Reuss Voigt Hill
#
# Bulk Modulus (GPa) = 49.45679 52.59089 51.02384
# Shear Modulus (GPa) = 24.39815 27.35086 25.87451
#
# Velocity S-wave (km/s) = 3.78363 4.00604 3.89642
# Velocity P-wave (km/s) = 6.93592 7.22883 7.08389
#
# Compressibility (1/GPa) = 0.02021967
#
# Stress axis : x y z
#
# Youngs Moduli (GPa) = 68.46981 118.91632 70.86904
#
# Poissons Ratio (x) = 0.31581 0.25714
# Poissons Ratio (y) = 0.18184 0.15368
# Poissons Ratio (z) = 0.24844 0.25787
#
# Static dielectric constant tensor:
#      x y z
#    x 3.197530 0.000000 0.000000 
#    y 0.000000 3.519550 0.000000 
#    z 0.000000 0.000000 2.841560 
# 
# 
# High freq. dielectric constant tensor:
#      x y z
#    x 1.644320 0.000000 0.000000 
#    y 0.000000 1.693080 0.000000 
#    z 0.000000 0.000000 1.614900 
# 
# From -- ./inp_files/4724.got.cif
#   From: 2010.03.12/outbox.cif.g09.slc.cpg/sg18_3_cif.got.tgz:4724.got - 2010.04.10 18:53:55.
