data_PCOD8155670
_publ_section_title
;
Structure prediction by ZEFSAII (Michael W. Deem and Ramdas Pophale) SiO2 
 PCOD8155670
Probable space group: P 2 2 21
;
_chemical_formula_sum "Si O2"
_cell_formula_units_Z 32
_cell_length_a 9.501362
_cell_length_b 10.668018
_cell_length_c 14.853962
_cell_angle_alpha 90.000000
_cell_angle_beta 90.000000
_cell_angle_gamma 90.000000
_cell_volume 1505.607999
_symmetry_space_group_name_H-M "P 2 2 21"
_symmetry_group_IT_number 17
_symmetry_cell_setting 'orthorhombic'
loop_
_space_group_symop_operation_xyz
x,y,z
-x,-y,1/2+z
x,-y,-z
-x,y,1/2-z
loop_
_atom_site_type_symbol
_atom_site_label
_atom_site_fract_x
_atom_site_fract_y
_atom_site_fract_z
Si Si1 0.273977 0.941279 0.588328
Si Si2 0.333379 0.528972 0.744834
Si Si3 0.682341 0.376731 0.440146
Si Si4 0.650150 0.341731 0.062447
Si Si5 0.501953 0.117261 0.647509
Si Si6 0.772167 0.869000 0.458201
Si Si7 0.052438 0.888049 0.348678
Si Si8 0.728584 0.681898 0.126623
O O1 0.288776 0.796076 0.575053
O O2 0.204034 0.000000 0.500000
O O3 0.431172 0.996441 0.601018
O O4 0.155500 0.988934 0.659831
O O5 0.500000 0.517842 0.750000
O O6 0.271746 0.590663 0.836284
O O7 0.289423 0.599219 0.653423
O O8 0.267435 0.393000 0.721775
O O9 0.716579 0.500000 0.500000
O O10 0.518179 0.345376 0.441506
O O11 0.767590 0.252995 0.474569
O O12 0.711441 0.398577 0.967332
O O13 0.500000 0.080135 0.750000
O O14 0.660039 0.152967 0.620641
O O15 0.413946 0.239300 0.624483
O O16 0.925365 0.896464 0.418775
O O17 0.721415 0.000000 0.500000
O O18 0.135542 0.766161 0.380980
O O19 0.000000 0.861588 0.250000
#
# Coordination Sequence:
#
# PCOD8155670 Si02
#       8
#     4   4   4   4   4   4   4   4
#     4  11  20  41  63  93 133 175 219 286 339 411
#     4  10  23  37  66 105 138 170 221 290 350 415
#     4  11  24  41  67 107 149 178 222 296 364 415
#     4  11  20  38  70  98 134 175 223 275 355 415
#     4  11  22  34  65 100 130 169 228 283 337 412
#     4  12  25  43  69 100 142 185 230 290 362 412
#     4  11  26  42  68  95 131 184 239 284 334 416
#     4  11  21  41  69  92 131 176 235 279 338 411
#
# _framework density 21.253872999999999
#
# number of rings (size 3 to 8) (size 9 to 14) (size 15 to 20)
#    0.000    1.000    3.750    5.250    3.500    3.500 
#    0.000    1.250    0.000    0.000    0.000    0.000 
#    0.000    0.000    0.000    0.000    0.000    0.000 
#
# Total GULP energy -396429.121762 kJ/mol
# GULP energy per Si atom -12388.410055 kJ/mol
# Density = 2.120550 g / cm^3
# Si number density = 21.253873 Si / 1000 Ang^3
#
#
#
# Elastic Constant Matrix: (Units=GPa)
#
#
# Indices 1 2 3 4 5 6 
#
# 1 77.6559 12.1769 23.9618 0.0000 0.0000 0.0000
# 2 12.1769 73.3101 42.2356 0.0000 0.0000 0.0000
# 3 23.9618 42.2356 139.4248 0.0000 0.0000 0.0000
# 4 0.0000 0.0000 0.0000 63.8778 0.0000 0.0000
# 5 0.0000 0.0000 0.0000 0.0000 6.2562 0.0000
# 6 0.0000 0.0000 0.0000 0.0000 0.0000 11.7446
#
#
#
# Elastic Compliance Matrix: (Units=1/GPa)
#
#
# Indices 1 2 3 4 5 6 
#
# 1 0.013673 -0.001111 -0.002013 0.000000 0.000000 0.000000
# 2 -0.001111 0.016615 -0.004842 0.000000 0.000000 0.000000
# 3 -0.002013 -0.004842 0.008985 0.000000 0.000000 0.000000
# 4 0.000000 0.000000 0.000000 0.015655 0.000000 0.000000
# 5 0.000000 0.000000 0.000000 0.000000 0.159841 0.000000
# 6 0.000000 0.000000 0.000000 0.000000 0.000000 0.085145
#
#
# Mechanical properties :
#
#
# Convention : Reuss Voigt Hill
#
# Bulk Modulus (GPa) = 42.84544 49.68218 46.26381
# Shear Modulus (GPa) = 15.44988 30.51017 22.98002
#
# Velocity S-wave (km/s) = 2.69907 3.79292 3.29175
# Velocity P-wave (km/s) = 5.46955 6.52748 6.02179
#
# Compressibility (1/GPa) = 0.02333970
#
# Stress axis : x y z
#
# Youngs Moduli (GPa) = 73.13804 60.18686 111.29487
#
# Poissons Ratio (x) = 0.06688 0.22406
# Poissons Ratio (y) = 0.08127 0.53891
# Poissons Ratio (z) = 0.14724 0.29143
#
# Static dielectric constant tensor:
#      x y z
#    x 1.398630 0.000000 0.000000 
#    y 0.000000 4.826430 0.000000 
#    z 0.000000 0.000000 4.256370 
# 
# 
# High freq. dielectric constant tensor:
#      x y z
#    x 1.806240 0.000000 0.000000 
#    y 0.000000 1.840240 0.000000 
#    z 0.000000 0.000000 1.851410 
# 
# From -- ./inp_files/8295.got.cif
#   From: 2010.03.12/outbox.cif.g09.slc.cpg/sg17_5_cif.got.tgz:8295.got - 2010.04.10 18:46:23.
