data_PCOD8155374
_publ_section_title
;
Structure prediction by ZEFSAII (Michael W. Deem and Ramdas Pophale) SiO2 
 PCOD8155374
Probable space group: P 2 2 21
;
_chemical_formula_sum "Si O2"
_cell_formula_units_Z 24
_cell_length_a 7.880510
_cell_length_b 8.845426
_cell_length_c 17.497751
_cell_angle_alpha 90.000000
_cell_angle_beta 90.000000
_cell_angle_gamma 90.000000
_cell_volume 1219.706421
_symmetry_space_group_name_H-M "P 2 2 21"
_symmetry_group_IT_number 17
_symmetry_cell_setting 'orthorhombic'
loop_
_space_group_symop_operation_xyz
x,y,z
-x,-y,1/2+z
x,-y,-z
-x,y,1/2-z
loop_
_atom_site_type_symbol
_atom_site_label
_atom_site_fract_x
_atom_site_fract_y
_atom_site_fract_z
Si Si1 0.337429 0.477538 0.166530
Si Si2 0.329333 0.167675 0.836912
Si Si3 0.340844 0.673807 0.669358
Si Si4 0.979526 0.694980 0.658613
Si Si5 0.978570 0.012756 0.589825
Si Si6 0.326365 0.972050 0.328154
O O1 0.360050 0.654553 0.161704
O O2 0.495693 0.392177 0.123696
O O3 0.333390 0.421620 0.253233
O O4 0.157934 0.427139 0.129982
O O5 0.503048 0.091868 0.868496
O O6 0.293380 0.111953 0.751442
O O7 0.167250 0.132964 0.889506
O O8 0.163781 0.647854 0.623761
O O9 0.356847 0.851162 0.687365
O O10 0.000000 0.708265 0.750000
O O11 0.920270 0.856231 0.627506
O O12 0.163532 0.063189 0.619800
O O13 0.992364 0.000000 0.500000
#
# Coordination Sequence:
#
# PCOD8155374 Si02
#       6
#     4   4   4   4   4   4
#     4  10  18  29  52  84 111 135 170 224 283 327
#     4  11  21  34  58  87 113 137 177 237 282 320
#     4   9  16  29  50  78 107 136 171 216 269 323
#     4   9  18  34  56  77 101 140 184 222 266 326
#     4  11  23  38  56  78 110 150 188 226 271 327
#     4  10  20  36  60  86 110 142 188 235 272 319
#
# _framework density 19.676867999999999
#
# number of rings (size 3 to 8) (size 9 to 14) (size 15 to 20)
#    0.000    2.000    0.000    8.500    0.000    6.000 
#    0.000    0.833    0.000    0.000    0.000    0.000 
#    0.000    0.000    0.000    0.000    0.000    0.000 
#
# Total GULP energy -297431.813026 kJ/mol
# GULP energy per Si atom -12392.992209 kJ/mol
# Density = 1.963208 g / cm^3
# Si number density = 19.676868 Si / 1000 Ang^3
#
#
#
# Elastic Constant Matrix: (Units=GPa)
#
#
# Indices 1 2 3 4 5 6 
#
# 1 189.5681 72.1092 28.8855 0.0000 0.0000 0.0000
# 2 72.1092 110.8747 8.2771 0.0000 0.0000 0.0000
# 3 28.8855 8.2771 44.4396 0.0000 0.0000 0.0000
# 4 0.0000 0.0000 0.0000 -0.5222 0.0000 0.0000
# 5 0.0000 0.0000 0.0000 0.0000 11.6775 0.0000
# 6 0.0000 0.0000 0.0000 0.0000 0.0000 37.7682
#
#
#
# Elastic Compliance Matrix: (Units=1/GPa)
#
#
# Indices 1 2 3 4 5 6 
#
# 1 0.007688 -0.004692 -0.004123 0.000000 0.000000 0.000000
# 2 -0.004692 0.012010 0.000813 0.000000 0.000000 0.000000
# 3 -0.004123 0.000813 0.025031 0.000000 0.000000 0.000000
# 4 0.000000 0.000000 0.000000 -1.914911 0.000000 0.000000
# 5 0.000000 0.000000 0.000000 0.000000 0.085635 0.000000
# 6 0.000000 0.000000 0.000000 0.000000 0.000000 0.026477
#
#
# Mechanical properties :
#
#
# Convention : Reuss Voigt Hill
#
# Bulk Modulus (GPa) = 34.81370 62.60290 48.70830
# Shear Modulus (GPa) = -2.88602 25.49207 11.30302
#
# Velocity S-wave (km/s) = -1.21239 3.60326 2.39933
# Velocity P-wave (km/s) = 3.97130 7.01398 5.69943
#
# Compressibility (1/GPa) = 0.02872433
#
# Stress axis : x y z
#
# Youngs Moduli (GPa) = 130.06595 83.26182 39.95012
#
# Poissons Ratio (x) = 0.39070 0.16473
# Poissons Ratio (y) = 0.61033 -0.03248
# Poissons Ratio (z) = 0.53632 -0.06770
#
# Static dielectric constant tensor:
#      x y z
#    x 5.072580 0.000000 0.000000 
#    y 0.000000 3.558500 0.000000 
#    z 0.000000 0.000000 2.958890 
# 
# 
# High freq. dielectric constant tensor:
#      x y z
#    x 1.806400 0.000000 0.000000 
#    y 0.000000 1.768730 0.000000 
#    z 0.000000 0.000000 1.695800 
# 
# From -- ./inp_files/9402.got.cif
#   From: 2010.03.12/outbox.cif.g09.slc.cpg/sg17_5_cif.got.tgz:9402.got - 2010.04.10 18:46:23.
