data_PCOD8155478
_publ_section_title
;
Structure prediction by ZEFSAII (Michael W. Deem and Ramdas Pophale) SiO2 
 PCOD8155478
Probable space group: P 2 2 21
;
_chemical_formula_sum "Si O2"
_cell_formula_units_Z 20
_cell_length_a 16.690956
_cell_length_b 12.274088
_cell_length_c 4.864605
_cell_angle_alpha 90.000000
_cell_angle_beta 90.000000
_cell_angle_gamma 90.000000
_cell_volume 996.593446
_symmetry_space_group_name_H-M "P 2 2 21"
_symmetry_group_IT_number 17
_symmetry_cell_setting 'orthorhombic'
loop_
_space_group_symop_operation_xyz
x,y,z
-x,-y,1/2+z
x,-y,-z
-x,y,1/2-z
loop_
_atom_site_type_symbol
_atom_site_label
_atom_site_fract_x
_atom_site_fract_y
_atom_site_fract_z
Si Si1 0.946533 0.784041 0.504095
Si Si2 0.192147 0.929572 0.245970
Si Si3 0.267982 0.280376 0.574740
Si Si4 0.591433 0.422518 0.752875
Si Si5 0.183344 0.373091 0.059489
O O1 0.882707 0.872761 0.403051
O O2 0.902472 0.677971 0.640556
O O3 0.000000 0.745234 0.250000
O O4 0.000000 0.834909 0.750000
O O5 0.258702 0.850015 0.389168
O O6 0.158733 0.000000 0.500000
O O7 0.233713 0.000000 0.000000
O O8 0.353111 0.316722 0.706161
O O9 0.252607 0.329136 0.268741
O O10 0.197113 0.327683 0.756376
O O11 0.614465 0.500000 0.500000
O O12 0.500000 0.380674 0.750000
O O13 0.609440 0.500000 0.000000
O O14 0.182882 0.500000 0.000000
#
# Coordination Sequence:
#
# PCOD8155478 Si02
#       5
#     4   4   4   4   4
#     4  11  23  39  56  80 109 140 186 239 291 346
#     4  11  23  40  59  80 106 145 194 243 293 337
#     4  11  21  37  58  82 114 147 188 233 274 336
#     4  10  20  34  57  90 122 150 180 220 277 341
#     4  11  22  36  57  82 111 150 186 223 279 346
#
# _framework density 20.068366000000001
#
# number of rings (size 3 to 8) (size 9 to 14) (size 15 to 20)
#    0.000    1.200    0.000    9.600    0.000    2.400 
#    0.000    2.000    0.000    1.200    0.000    0.000 
#    0.000    0.000    0.000    0.000    0.000    0.000 
#
# Total GULP energy -247783.651255 kJ/mol
# GULP energy per Si atom -12389.182563 kJ/mol
# Density = 2.002269 g / cm^3
# Si number density = 20.068366 Si / 1000 Ang^3
#
#
#
# Elastic Constant Matrix: (Units=GPa)
#
#
# Indices 1 2 3 4 5 6 
#
# 1 103.7082 48.8347 32.3491 0.0000 0.0000 0.0000
# 2 48.8347 126.0607 50.2288 0.0000 0.0000 0.0000
# 3 32.3491 50.2288 125.1412 0.0000 0.0000 0.0000
# 4 0.0000 0.0000 0.0000 32.7978 0.0000 0.0000
# 5 0.0000 0.0000 0.0000 0.0000 28.2720 0.0000
# 6 0.0000 0.0000 0.0000 0.0000 0.0000 17.6458
#
#
#
# Elastic Compliance Matrix: (Units=1/GPa)
#
#
# Indices 1 2 3 4 5 6 
#
# 1 0.012018 -0.004068 -0.001474 0.000000 0.000000 0.000000
# 2 -0.004068 0.010820 -0.003291 0.000000 0.000000 0.000000
# 3 -0.001474 -0.003291 0.009693 0.000000 0.000000 0.000000
# 4 0.000000 0.000000 0.000000 0.030490 0.000000 0.000000
# 5 0.000000 0.000000 0.000000 0.000000 0.035371 0.000000
# 6 0.000000 0.000000 0.000000 0.000000 0.000000 0.056671
#
#
# Mechanical properties :
#
#
# Convention : Reuss Voigt Hill
#
# Bulk Modulus (GPa) = 67.27542 68.63728 67.95635
# Shear Modulus (GPa) = 28.13990 30.64295 29.39143
#
# Velocity S-wave (km/s) = 3.74866 3.91183 3.83112
# Velocity P-wave (km/s) = 7.23412 7.39454 7.31477
#
# Compressibility (1/GPa) = 0.01486427
#
# Stress axis : x y z
#
# Youngs Moduli (GPa) = 83.20941 92.42000 103.16772
#
# Poissons Ratio (x) = 0.37600 0.15203
# Poissons Ratio (y) = 0.33853 0.33955
# Poissons Ratio (z) = 0.12262 0.30418
#
# Static dielectric constant tensor:
#      x y z
#    x 3.439240 0.000000 0.000000 
#    y 0.000000 4.644720 0.000000 
#    z 0.000000 0.000000 3.943870 
# 
# 
# High freq. dielectric constant tensor:
#      x y z
#    x 1.756400 0.000000 0.000000 
#    y 0.000000 1.773790 0.000000 
#    z 0.000000 0.000000 1.812060 
# 
# From -- ./inp_files/2047.got.cif
#   From: 2010.03.12/outbox.cif.g09.slc.cpg/sg17_2_cif.got.tgz:2047.got - 2010.04.10 18:46:23.
