data_PCOD8155815
_publ_section_title
;
Structure prediction by ZEFSAII (Michael W. Deem and Ramdas Pophale) SiO2 
 PCOD8155815
Probable space group: P 21 21 2
;
_chemical_formula_sum "Si O2"
_cell_formula_units_Z 22
_cell_length_a 4.980747
_cell_length_b 13.785748
_cell_length_c 14.038294
_cell_angle_alpha 90.000000
_cell_angle_beta 90.000000
_cell_angle_gamma 90.000000
_cell_volume 963.915915
_symmetry_space_group_name_H-M "P 21 21 2"
_symmetry_group_IT_number 18
_symmetry_cell_setting 'orthorhombic'
loop_
_space_group_symop_operation_xyz
x,y,z
-x,-y,z
1/2+x,1/2-y,-z
1/2-x,1/2+y,-z
loop_
_atom_site_type_symbol
_atom_site_label
_atom_site_fract_x
_atom_site_fract_y
_atom_site_fract_z
Si Si1 0.133743 0.311954 0.507715
Si Si2 0.254985 0.791954 0.290393
Si Si3 0.243311 0.340234 0.307086
Si Si4 0.500000 0.000000 0.825586
Si Si5 0.691727 0.155004 0.086910
Si Si6 0.696336 0.376471 0.027789
O O1 0.320588 0.215106 0.501536
O O2 0.186801 0.355866 0.613585
O O3 0.219910 0.378818 0.417389
O O4 0.461037 0.700619 0.284011
O O5 0.271369 0.863446 0.199530
O O6 0.956186 0.749815 0.292694
O O7 0.175403 0.427036 0.236965
O O8 0.271314 0.051179 0.887957
O O9 0.404414 0.113104 0.059011
O O10 0.906557 0.100344 0.018575
O O11 0.714590 0.269615 0.071236
#
# Coordination Sequence:
#
# PCOD8155815 Si02
#       6
#     4   4   4   2   4   4
#     4   8  16  31  51  81 110 138 182 232 277 343
#     4  10  18  35  59  80 111 151 198 242 286 334
#     4  10  21  32  54  86 118 149 183 236 303 360
#     4  12  24  38  56  88 128 156 188 246 326 356
#     4  10  20  38  53  80 109 155 203 242 277 344
#     4  10  23  34  54  78 117 152 196 240 292 349
#
# _framework density 22.823568999999999
#
# number of rings (size 3 to 8) (size 9 to 14) (size 15 to 20)
#    0.000    2.182    1.818    1.091    5.091    2.909 
#    0.000    0.000    0.000    1.091    0.000   12.727 
#    0.000    0.000    0.000    0.000    0.000    0.000 
#
# Total GULP energy -272681.117801 kJ/mol
# GULP energy per Si atom -12394.596264 kJ/mol
# Density = 2.277162 g / cm^3
# Si number density = 22.823569 Si / 1000 Ang^3
#
#
#
# Elastic Constant Matrix: (Units=GPa)
#
#
# Indices 1 2 3 4 5 6 
#
# 1 88.9976 1.0426 12.1201 0.0000 0.0000 0.0000
# 2 1.0426 27.9749 24.4228 0.0000 0.0000 0.0000
# 3 12.1201 24.4228 188.5223 0.0000 0.0000 0.0000
# 4 0.0000 0.0000 0.0000 25.6712 0.0000 0.0000
# 5 0.0000 0.0000 0.0000 0.0000 34.1758 0.0000
# 6 0.0000 0.0000 0.0000 0.0000 0.0000 14.0885
#
#
#
# Elastic Compliance Matrix: (Units=1/GPa)
#
#
# Indices 1 2 3 4 5 6 
#
# 1 0.011337 0.000241 -0.000760 0.000000 0.000000 0.000000
# 2 0.000241 0.040310 -0.005238 0.000000 0.000000 0.000000
# 3 -0.000760 -0.005238 0.006032 0.000000 0.000000 0.000000
# 4 0.000000 0.000000 0.000000 0.038954 0.000000 0.000000
# 5 0.000000 0.000000 0.000000 0.000000 0.029260 0.000000
# 6 0.000000 0.000000 0.000000 0.000000 0.000000 0.070980
#
#
# Mechanical properties :
#
#
# Convention : Reuss Voigt Hill
#
# Bulk Modulus (GPa) = 21.66122 42.29617 31.97870
# Shear Modulus (GPa) = 22.34386 32.64771 27.49579
#
# Velocity S-wave (km/s) = 3.13226 3.78622 3.47466
# Velocity P-wave (km/s) = 4.75318 6.13889 5.48993
#
# Compressibility (1/GPa) = 0.04616545
#
# Stress axis : x y z
#
# Youngs Moduli (GPa) = 88.20715 24.80779 165.78802
#
# Poissons Ratio (x) = -0.00598 0.12601
# Poissons Ratio (y) = -0.02126 0.86833
# Poissons Ratio (z) = 0.06704 0.12993
#
# Static dielectric constant tensor:
#      x y z
#    x 4.230430 0.000000 0.000000 
#    y 0.000000 3.427480 0.000000 
#    z 0.000000 0.000000 4.737100 
# 
# 
# High freq. dielectric constant tensor:
#      x y z
#    x 1.920800 0.000000 0.000000 
#    y 0.000000 1.823460 0.000000 
#    z 0.000000 0.000000 1.932140 
# 
# From -- ./inp_files/6466.got.cif
#   From: 2010.03.12/outbox.cif.g09.slc.cpg/sg18_4_cif.got.tgz:6466.got - 2010.04.10 18:53:55.
