data_PCOD8155825
_publ_section_title
;
Structure prediction by ZEFSAII (Michael W. Deem and Ramdas Pophale) SiO2 
 PCOD8155825
Probable space group: P 21 21 2
;
_chemical_formula_sum "Si O2"
_cell_formula_units_Z 24
_cell_length_a 8.632425
_cell_length_b 16.118640
_cell_length_c 8.554965
_cell_angle_alpha 90.000000
_cell_angle_beta 90.000000
_cell_angle_gamma 90.000000
_cell_volume 1190.363075
_symmetry_space_group_name_H-M "P 21 21 2"
_symmetry_group_IT_number 18
_symmetry_cell_setting 'orthorhombic'
loop_
_space_group_symop_operation_xyz
x,y,z
-x,-y,z
1/2+x,1/2-y,-z
1/2-x,1/2+y,-z
loop_
_atom_site_type_symbol
_atom_site_label
_atom_site_fract_x
_atom_site_fract_y
_atom_site_fract_z
Si Si1 0.226619 0.057064 0.179945
Si Si2 0.561618 0.849293 0.406220
Si Si3 0.735146 0.259426 0.356291
Si Si4 0.262450 0.581282 0.185862
Si Si5 0.394028 0.408000 0.676097
Si Si6 0.500000 0.000000 0.621842
Si Si7 0.500000 0.500000 0.390952
O O1 0.372978 0.106811 0.249988
O O2 0.065519 0.087472 0.253217
O O3 0.233831 0.958718 0.221716
O O4 0.226291 0.065031 0.995786
O O5 0.439031 0.776516 0.368206
O O6 0.713320 0.809782 0.488786
O O7 0.476219 0.918106 0.514432
O O8 0.764317 0.320670 0.209895
O O9 0.855506 0.187300 0.325054
O O10 0.141969 0.517156 0.262306
O O11 0.420823 0.565975 0.277801
O O12 0.385134 0.447083 0.501813
#
# Coordination Sequence:
#
# PCOD8155825 Si02
#       7
#     4   4   4   4   4   2   2
#     4  10  22  39  59  84 121 156 189 233 301 360
#     4  11  21  39  59  86 116 155 200 245 288 349
#     4  11  22  36  60  87 115 149 200 250 289 336
#     4  11  23  38  58  88 118 150 189 244 298 346
#     4  10  20  39  63  85 113 158 200 238 284 351
#     4  10  22  38  60  82 112 154 204 234 278 352
#     4  10  18  38  62  80 110 156 196 226 282 356
#
# _framework density 20.161916000000002
#
# number of rings (size 3 to 8) (size 9 to 14) (size 15 to 20)
#    0.000    1.667    0.000    9.000    0.000    3.333 
#    0.000    5.000    0.000    0.000    0.000    0.000 
#    0.000    0.000    0.000    0.000    0.000    0.000 
#
# Total GULP energy -297480.573045 kJ/mol
# GULP energy per Si atom -12395.023877 kJ/mol
# Density = 2.011603 g / cm^3
# Si number density = 20.161916 Si / 1000 Ang^3
#
#
#
# Elastic Constant Matrix: (Units=GPa)
#
#
# Indices 1 2 3 4 5 6 
#
# 1 73.9323 32.9065 39.0113 0.0000 0.0000 0.0000
# 2 32.9065 133.6307 59.9418 0.0000 0.0000 0.0000
# 3 39.0113 59.9418 162.2622 0.0000 0.0000 0.0000
# 4 0.0000 0.0000 0.0000 22.7962 0.0000 0.0000
# 5 0.0000 0.0000 0.0000 0.0000 13.6840 0.0000
# 6 0.0000 0.0000 0.0000 0.0000 0.0000 42.0757
#
#
#
# Elastic Compliance Matrix: (Units=1/GPa)
#
#
# Indices 1 2 3 4 5 6 
#
# 1 0.016264 -0.002698 -0.002914 0.000000 0.000000 0.000000
# 2 -0.002698 0.009417 -0.002830 0.000000 0.000000 0.000000
# 3 -0.002914 -0.002830 0.007909 0.000000 0.000000 0.000000
# 4 0.000000 0.000000 0.000000 0.043867 0.000000 0.000000
# 5 0.000000 0.000000 0.000000 0.000000 0.073078 0.000000
# 6 0.000000 0.000000 0.000000 0.000000 0.000000 0.023767
#
#
# Mechanical properties :
#
#
# Convention : Reuss Voigt Hill
#
# Bulk Modulus (GPa) = 59.85667 70.39385 65.12526
# Shear Modulus (GPa) = 25.41239 31.57555 28.49397
#
# Velocity S-wave (km/s) = 3.55408 3.96169 3.76341
# Velocity P-wave (km/s) = 6.82601 7.47775 7.15930
#
# Compressibility (1/GPa) = 0.01670658
#
# Stress axis : x y z
#
# Youngs Moduli (GPa) = 61.48486 106.18835 126.44087
#
# Poissons Ratio (x) = 0.28651 0.36839
# Poissons Ratio (y) = 0.16590 0.35785
# Poissons Ratio (z) = 0.17914 0.30053
#
# Static dielectric constant tensor:
#      x y z
#    x 3.223220 0.000000 0.000000 
#    y 0.000000 4.012690 0.000000 
#    z 0.000000 0.000000 3.547750 
# 
# 
# High freq. dielectric constant tensor:
#      x y z
#    x 1.787850 0.000000 0.000000 
#    y 0.000000 1.799010 0.000000 
#    z 0.000000 0.000000 1.774280 
# 
# From -- ./inp_files/3197.got.cif
#   From: 2010.03.12/outbox.cif.g09.slc.cpg/sg18_2_cif.got.tgz:3197.got - 2010.04.10 18:53:55.
