data_PCOD8155082
_publ_section_title
;
Structure prediction by ZEFSAII (Michael W. Deem and Ramdas Pophale) SiO2 
 PCOD8155082
Probable space group: C 2/C
;
_chemical_formula_sum "Si O2"
_cell_formula_units_Z 32
_cell_length_a 17.716740
_cell_length_b 8.973825
_cell_length_c 8.392102
_cell_angle_alpha 90.000000
_cell_angle_beta 75.493026
_cell_angle_gamma 90.000000
_cell_volume 1291.695297
_symmetry_space_group_name_H-M "C 2/C"
_symmetry_group_IT_number 15
_symmetry_cell_setting 'monoclinic'
loop_
_space_group_symop_operation_xyz
x,y,z
-x,y,1/2-z
-x,-y,-z
x,-y,1/2+z
1/2+x,1/2+y,z
1/2-x,1/2+y,1/2-z
1/2-x,1/2-y,-z
1/2+x,1/2-y,1/2+z
loop_
_atom_site_type_symbol
_atom_site_label
_atom_site_fract_x
_atom_site_fract_y
_atom_site_fract_z
Si Si1 0.912645 0.145692 0.248664
Si Si2 0.085130 0.429933 0.462668
Si Si3 0.320339 0.571911 0.603525
Si Si4 0.322117 0.135979 0.284536
O O1 0.907484 0.309670 0.180052
O O2 0.848449 0.143873 0.423346
O O3 0.000000 0.108963 0.250000
O O4 0.893574 0.018974 0.131180
O O5 0.145303 0.561753 0.393019
O O6 0.108471 0.358914 0.620610
O O7 0.000000 0.500000 0.500000
O O8 0.295530 0.698191 0.745974
O O9 0.251088 0.454881 0.608263
#
# Coordination Sequence:
#
# PCOD8155082 Si02
#       4
#     8   8   8   8
#     4  12  26  47  73 106 144 188 241 297 360 426
#     4  12  26  46  73 104 144 188 236 295 358 427
#     4  12  27  47  75 107 146 191 240 298 355 424
#     4  12  26  46  71 105 143 188 240 293 358 421
#
# _framework density 24.773647
#
# number of rings (size 3 to 8) (size 9 to 14) (size 15 to 20)
#    0.000    0.000    0.000   10.500    0.000    8.000 
#    0.000    2.500    0.000    0.000    0.000    0.000 
#    0.000    0.000    0.000    0.000    0.000    0.000 
#
# Total GULP energy -198502.484435 kJ/mol
# GULP energy per Si atom -12406.405277 kJ/mol
# Density = 2.471726 g / cm^3
# Si number density = 24.773647 Si / 1000 Ang^3
#
#
#
# Elastic Constant Matrix: (Units=GPa)
#
#
# Indices 1 2 3 4 5 6 
#
# 1 112.9367 53.9093 22.0135 0.0000 1.3920 0.0000
# 2 53.9093 136.5415 35.5415 0.0000 -3.4549 0.0000
# 3 22.0135 35.5415 99.6659 0.0000 -1.2754 0.0000
# 4 0.0000 0.0000 0.0000 46.5473 0.0000 -7.8581
# 5 1.3920 -3.4549 -1.2754 0.0000 47.2789 0.0000
# 6 0.0000 0.0000 0.0000 -7.8581 0.0000 43.9219
#
#
#
# Elastic Compliance Matrix: (Units=1/GPa)
#
#
# Indices 1 2 3 4 5 6 
#
# 1 0.011015 -0.004112 -0.000975 0.000000 -0.000651 0.000000
# 2 -0.004112 0.009620 -0.002513 0.000000 0.000756 0.000000
# 3 -0.000975 -0.002513 0.011147 0.000000 0.000146 0.000000
# 4 0.000000 0.000000 0.000000 0.022153 0.000000 0.003963
# 5 -0.000651 0.000756 0.000146 0.000000 0.021229 0.000000
# 6 0.000000 0.000000 0.000000 0.003963 0.000000 0.023477
#
#
# Mechanical properties :
#
#
# Convention : Reuss Voigt Hill
#
# Bulk Modulus (GPa) = 60.30161 63.56361 61.93261
# Shear Modulus (GPa) = 41.88714 43.39493 42.64104
#
# Velocity S-wave (km/s) = 4.11639 4.18982 4.15327
# Velocity P-wave (km/s) = 6.85469 7.00854 6.93204
#
# Compressibility (1/GPa) = 0.01658331
#
# Stress axis : x y z
#
# Youngs Moduli (GPa) = 90.78286 103.94581 89.71146
#
# Poissons Ratio (x) = 0.42740 0.08747
# Poissons Ratio (y) = 0.37327 0.22543
# Poissons Ratio (z) = 0.08852 0.26120
#
# Static dielectric constant tensor:
#      x y z
#    x 4.500460 0.000000 0.162710 
#    y 0.000000 4.597400 0.000000 
#    z 0.162710 0.000000 4.427140 
# 
# 
# High freq. dielectric constant tensor:
#      x y z
#    x 1.996530 0.000000 0.007950 
#    y 0.000000 1.999500 0.000000 
#    z 0.007950 0.000000 1.994100 
# 
# From -- ./inp_files/53460.got.cif
#   From: 2010.06.25/outbox.cif.g09.slc.cpg/sg15_27_cif.got.tgz:53460.got - 2010.06.28 07:06:18.
