data_PCOD8155727
_publ_section_title
;
Structure prediction by ZEFSAII (Michael W. Deem and Ramdas Pophale) SiO2 
 PCOD8155727
Probable space group: P 2 2 21
;
_chemical_formula_sum "Si O2"
_cell_formula_units_Z 12
_cell_length_a 6.522327
_cell_length_b 4.620063
_cell_length_c 16.568297
_cell_angle_alpha 90.000000
_cell_angle_beta 90.000000
_cell_angle_gamma 90.000000
_cell_volume 499.261799
_symmetry_space_group_name_H-M "P 2 2 21"
_symmetry_group_IT_number 17
_symmetry_cell_setting 'orthorhombic'
loop_
_space_group_symop_operation_xyz
x,y,z
-x,-y,1/2+z
x,-y,-z
-x,y,1/2-z
loop_
_atom_site_type_symbol
_atom_site_label
_atom_site_fract_x
_atom_site_fract_y
_atom_site_fract_z
Si Si1 0.169120 0.754630 0.055148
Si Si2 0.463042 0.430567 0.659323
Si Si3 0.764364 0.944152 0.908382
O O1 0.320463 0.576134 0.112685
O O2 0.064290 0.500000 0.000000
O O3 0.997635 0.057501 0.896901
O O4 0.284024 0.000000 0.000000
O O5 0.500000 0.536859 0.750000
O O6 0.282702 0.612200 0.614565
O O7 0.379406 0.105513 0.656405
O O8 0.694843 0.000000 0.000000
#
# Coordination Sequence:
#
# PCOD8155727 Si02
#       3
#     4   4   4
#     4  11  23  43  72 100 130 178 234 280 328 398
#     4  12  25  42  67 101 140 176 216 279 347 402
#     4  11  23  43  68  95 131 178 230 277 327 398
#
# _framework density 24.035487
#
# number of rings (size 3 to 8) (size 9 to 14) (size 15 to 20)
#    0.000    0.667    0.000   11.000    0.000    1.333 
#    0.000    6.667    0.000    0.000    0.000    0.000 
#    0.000    0.000    0.000    0.000    0.000    0.000 
#
# Total GULP energy -148686.795320 kJ/mol
# GULP energy per Si atom -12390.566277 kJ/mol
# Density = 2.398078 g / cm^3
# Si number density = 24.035487 Si / 1000 Ang^3
#
#
#
# Elastic Constant Matrix: (Units=GPa)
#
#
# Indices 1 2 3 4 5 6 
#
# 1 142.2027 29.9079 48.4772 0.0000 0.0000 0.0000
# 2 29.9079 88.0801 36.6147 0.0000 0.0000 0.0000
# 3 48.4772 36.6147 123.5797 0.0000 0.0000 0.0000
# 4 0.0000 0.0000 0.0000 36.9214 0.0000 0.0000
# 5 0.0000 0.0000 0.0000 0.0000 13.3175 0.0000
# 6 0.0000 0.0000 0.0000 0.0000 0.0000 36.6375
#
#
#
# Elastic Compliance Matrix: (Units=1/GPa)
#
#
# Indices 1 2 3 4 5 6 
#
# 1 0.008329 -0.001677 -0.002771 0.000000 0.000000 0.000000
# 2 -0.001677 0.013285 -0.003279 0.000000 0.000000 0.000000
# 3 -0.002771 -0.003279 0.010150 0.000000 0.000000 0.000000
# 4 0.000000 0.000000 0.000000 0.027085 0.000000 0.000000
# 5 0.000000 0.000000 0.000000 0.000000 0.075089 0.000000
# 6 0.000000 0.000000 0.000000 0.000000 0.000000 0.027294
#
#
# Mechanical properties :
#
#
# Convention : Reuss Voigt Hill
#
# Bulk Modulus (GPa) = 61.29914 64.87356 63.08635
# Shear Modulus (GPa) = 27.45400 33.29944 30.37672
#
# Velocity S-wave (km/s) = 3.38335 3.72617 3.55889
# Velocity P-wave (km/s) = 6.38919 6.74995 6.57204
#
# Compressibility (1/GPa) = 0.01631344
#
# Stress axis : x y z
#
# Youngs Moduli (GPa) = 120.05746 75.27013 98.52008
#
# Poissons Ratio (x) = 0.12619 0.27297
# Poissons Ratio (y) = 0.20128 0.32301
# Poissons Ratio (z) = 0.33264 0.24678
#
# Static dielectric constant tensor:
#      x y z
#    x 4.043210 0.000000 0.000000 
#    y 0.000000 4.567530 0.000000 
#    z 0.000000 0.000000 3.916810 
# 
# 
# High freq. dielectric constant tensor:
#      x y z
#    x 1.952520 0.000000 0.000000 
#    y 0.000000 1.981940 0.000000 
#    z 0.000000 0.000000 1.918780 
# 
# From -- ./inp_files/8755.got.cif
#   From: 2010.03.12/outbox.cif.g09.slc.cpg/sg17_5_cif.got.tgz:8755.got - 2010.04.10 18:46:23.
