data_PCOD8155643
_publ_section_title
;
Structure prediction by ZEFSAII (Michael W. Deem and Ramdas Pophale) SiO2 
 PCOD8155643
Probable space group: P 2 2 21
;
_chemical_formula_sum "Si O2"
_cell_formula_units_Z 30
_cell_length_a 6.248159
_cell_length_b 11.416323
_cell_length_c 18.541453
_cell_angle_alpha 90.000000
_cell_angle_beta 90.000000
_cell_angle_gamma 90.000000
_cell_volume 1322.580408
_symmetry_space_group_name_H-M "P 2 2 21"
_symmetry_group_IT_number 17
_symmetry_cell_setting 'orthorhombic'
loop_
_space_group_symop_operation_xyz
x,y,z
-x,-y,1/2+z
x,-y,-z
-x,y,1/2-z
loop_
_atom_site_type_symbol
_atom_site_label
_atom_site_fract_x
_atom_site_fract_y
_atom_site_fract_z
Si Si1 0.839846 0.888907 0.362159
Si Si2 0.559682 0.264038 0.122804
Si Si3 0.496005 0.131240 0.517849
Si Si4 0.138084 0.520611 0.582762
Si Si5 0.931686 0.885104 0.831239
Si Si6 0.776323 0.266714 0.871793
Si Si7 0.500000 0.834646 0.250000
Si Si8 0.863477 0.340736 0.324556
O O1 0.710427 0.873091 0.435340
O O2 0.677983 0.911170 0.293909
O O3 0.982601 0.772428 0.350715
O O4 0.007898 0.995787 0.372519
O O5 0.707437 0.370126 0.096340
O O6 0.683712 0.155388 0.161639
O O7 0.392729 0.322835 0.180126
O O8 0.447266 0.206348 0.053231
O O9 0.300334 0.193738 0.558782
O O10 0.419187 0.000000 0.500000
O O11 0.081080 0.500000 0.500000
O O12 0.240486 0.403950 0.614293
O O13 0.916694 0.547828 0.625318
O O14 0.000000 0.906529 0.750000
O O15 0.064490 0.778052 0.865266
O O16 0.617420 0.248365 0.805837
O O17 0.000000 0.350646 0.250000
#
# Coordination Sequence:
#
# PCOD8155643 Si02
#       8
#     4   4   4   4   4   4   2   4
#     4  11  24  41  69 101 143 181 229 287 349 416
#     4  11  24  45  71  98 141 182 234 285 353 414
#     4  11  24  40  65 101 133 179 230 281 351 420
#     4  11  25  45  70 102 139 189 239 293 346 412
#     4  10  22  41  67 100 135 181 228 285 348 413
#     4  11  24  43  67  97 140 179 236 287 347 410
#     4  10  24  44  68 106 134 188 232 286 344 414
#     4  10  25  43  70 104 137 183 235 292 345 413
#
# _framework density 22.682929999999999
#
# number of rings (size 3 to 8) (size 9 to 14) (size 15 to 20)
#    0.000    1.333    1.333    2.800    1.867   14.400 
#    0.000    0.000    0.000    0.000    0.000    0.000 
#    0.000    0.000    0.000    0.000    0.000    0.000 
#
# Total GULP energy -371793.024987 kJ/mol
# GULP energy per Si atom -12393.100833 kJ/mol
# Density = 2.263130 g / cm^3
# Si number density = 22.682930 Si / 1000 Ang^3
#
#
#
# Elastic Constant Matrix: (Units=GPa)
#
#
# Indices 1 2 3 4 5 6 
#
# 1 134.8751 46.8817 67.7278 0.0000 0.0000 0.0000
# 2 46.8817 140.8110 46.0850 0.0000 0.0000 0.0000
# 3 67.7278 46.0850 121.2888 0.0000 0.0000 0.0000
# 4 0.0000 0.0000 0.0000 30.0592 0.0000 0.0000
# 5 0.0000 0.0000 0.0000 0.0000 27.7460 0.0000
# 6 0.0000 0.0000 0.0000 0.0000 0.0000 17.9839
#
#
#
# Elastic Compliance Matrix: (Units=1/GPa)
#
#
# Indices 1 2 3 4 5 6 
#
# 1 0.010703 -0.001836 -0.005279 0.000000 0.000000 0.000000
# 2 -0.001836 0.008425 -0.002176 0.000000 0.000000 0.000000
# 3 -0.005279 -0.002176 0.012020 0.000000 0.000000 0.000000
# 4 0.000000 0.000000 0.000000 0.033268 0.000000 0.000000
# 5 0.000000 0.000000 0.000000 0.000000 0.036041 0.000000
# 6 0.000000 0.000000 0.000000 0.000000 0.000000 0.055605
#
#
# Mechanical properties :
#
#
# Convention : Reuss Voigt Hill
#
# Bulk Modulus (GPa) = 79.58129 79.81820 79.69975
# Shear Modulus (GPa) = 27.95900 30.90983 29.43442
#
# Velocity S-wave (km/s) = 3.51465 3.69547 3.60619
# Velocity P-wave (km/s) = 7.18545 7.31257 7.24929
#
# Compressibility (1/GPa) = 0.01256577
#
# Stress axis : x y z
#
# Youngs Moduli (GPa) = 93.42871 118.69258 83.19777
#
# Poissons Ratio (x) = 0.21789 0.43922
# Poissons Ratio (y) = 0.17151 0.18105
# Poissons Ratio (z) = 0.49323 0.25829
#
# Static dielectric constant tensor:
#      x y z
#    x 4.172060 0.000000 0.000000 
#    y 0.000000 4.196080 0.000000 
#    z 0.000000 0.000000 4.127460 
# 
# 
# High freq. dielectric constant tensor:
#      x y z
#    x 1.895200 0.000000 0.000000 
#    y 0.000000 1.894490 0.000000 
#    z 0.000000 0.000000 1.897120 
# 
# From -- ./inp_files/9946.got.cif
#   From: 2010.03.12/outbox.cif.g09.slc.cpg/sg17_5_cif.got.tgz:9946.got - 2010.04.10 18:46:23.
