data_PCOD8155640
_publ_section_title
;
Structure prediction by ZEFSAII (Michael W. Deem and Ramdas Pophale) SiO2 
 PCOD8155640
Probable space group: P 2 2 21
;
_chemical_formula_sum "Si O2"
_cell_formula_units_Z 24
_cell_length_a 5.005553
_cell_length_b 13.736144
_cell_length_c 16.791957
_cell_angle_alpha 90.000000
_cell_angle_beta 90.000000
_cell_angle_gamma 90.000000
_cell_volume 1154.564534
_symmetry_space_group_name_H-M "P 2 2 21"
_symmetry_group_IT_number 17
_symmetry_cell_setting 'orthorhombic'
loop_
_space_group_symop_operation_xyz
x,y,z
-x,-y,1/2+z
x,-y,-z
-x,y,1/2-z
loop_
_atom_site_type_symbol
_atom_site_label
_atom_site_fract_x
_atom_site_fract_y
_atom_site_fract_z
Si Si1 0.995609 0.742867 0.560668
Si Si2 0.561407 0.031152 0.589051
Si Si3 0.505437 0.756192 0.045909
Si Si4 0.478331 0.423457 0.659105
Si Si5 0.934987 0.933542 0.841972
Si Si6 0.022261 0.550619 0.841011
O O1 0.194090 0.753503 0.486517
O O2 0.052938 0.824015 0.626408
O O3 0.039156 0.638811 0.600656
O O4 0.695133 0.754675 0.528860
O O5 0.534567 0.147015 0.598211
O O6 0.486272 0.000000 0.500000
O O7 0.360921 0.976735 0.648551
O O8 0.862941 0.001839 0.609369
O O9 0.450090 0.665747 0.102835
O O10 0.500000 0.387256 0.750000
O O11 0.183278 0.463303 0.641121
O O12 0.682191 0.511238 0.641806
O O13 0.000000 0.932522 0.750000
O O14 0.000000 0.586849 0.750000
#
# Coordination Sequence:
#
# PCOD8155640 Si02
#       6
#     4   4   4   4   4   4
#     4  12  23  40  64  96 124 162 206 260 318 381
#     4  12  23  45  66  90 133 173 207 258 328 377
#     4  12  25  39  67  91 123 168 208 258 319 372
#     4  10  23  42  60  87 124 164 209 257 306 374
#     4  12  25  42  67  98 127 166 217 265 311 384
#     4  10  22  41  63  87 127 166 199 257 319 364
#
# _framework density 20.787057000000001
#
# number of rings (size 3 to 8) (size 9 to 14) (size 15 to 20)
#    0.000    0.667    3.333    4.500    0.000    5.333 
#    0.000    6.667    0.000    0.000    0.000    0.000 
#    0.000    0.000    0.000    0.000    0.000    0.000 
#
# Total GULP energy -297830.134620 kJ/mol
# GULP energy per Si atom -12409.588942 kJ/mol
# Density = 2.073974 g / cm^3
# Si number density = 20.787057 Si / 1000 Ang^3
#
#
#
# Elastic Constant Matrix: (Units=GPa)
#
#
# Indices 1 2 3 4 5 6 
#
# 1 78.5834 0.2763 7.5735 0.0000 0.0000 0.0000
# 2 0.2763 100.0479 40.5791 0.0000 0.0000 0.0000
# 3 7.5735 40.5791 77.7796 0.0000 0.0000 0.0000
# 4 0.0000 0.0000 0.0000 28.1903 0.0000 0.0000
# 5 0.0000 0.0000 0.0000 0.0000 25.3250 0.0000
# 6 0.0000 0.0000 0.0000 0.0000 0.0000 19.2730
#
#
#
# Elastic Compliance Matrix: (Units=1/GPa)
#
#
# Indices 1 2 3 4 5 6 
#
# 1 0.012874 0.000600 -0.001567 0.000000 0.000000 0.000000
# 2 0.000600 0.012706 -0.006687 0.000000 0.000000 0.000000
# 3 -0.001567 -0.006687 0.016498 0.000000 0.000000 0.000000
# 4 0.000000 0.000000 0.000000 0.035473 0.000000 0.000000
# 5 0.000000 0.000000 0.000000 0.000000 0.039487 0.000000
# 6 0.000000 0.000000 0.000000 0.000000 0.000000 0.051886
#
#
# Mechanical properties :
#
#
# Convention : Reuss Voigt Hill
#
# Bulk Modulus (GPa) = 37.35475 39.25208 38.30341
# Shear Modulus (GPa) = 25.88584 28.42312 27.15448
#
# Velocity S-wave (km/s) = 3.53269 3.70178 3.61822
# Velocity P-wave (km/s) = 5.88635 6.09875 5.99349
#
# Compressibility (1/GPa) = 0.02677036
#
# Stress axis : x y z
#
# Youngs Moduli (GPa) = 77.67471 78.70353 60.61235
#
# Poissons Ratio (x) = -0.04721 0.09495
# Poissons Ratio (y) = -0.04659 0.40533
# Poissons Ratio (z) = 0.12168 0.52632
#
# Static dielectric constant tensor:
#      x y z
#    x 3.900820 0.000000 0.000000 
#    y 0.000000 3.787400 0.000000 
#    z 0.000000 0.000000 3.683210 
# 
# 
# High freq. dielectric constant tensor:
#      x y z
#    x 1.830760 0.000000 0.000000 
#    y 0.000000 1.821440 0.000000 
#    z 0.000000 0.000000 1.810570 
# 
# From -- ./inp_files/7745.got.cif
#   From: 2010.03.12/outbox.cif.g09.slc.cpg/sg17_4_cif.got.tgz:7745.got - 2010.04.10 18:46:23.
