data_PCOD8155100
_publ_section_title
;
Structure prediction by ZEFSAII (Michael W. Deem and Ramdas Pophale) SiO2 
 PCOD8155100
Probable space group: C 2/C
;
_chemical_formula_sum "Si O2"
_cell_formula_units_Z 56
_cell_length_a 22.164188
_cell_length_b 9.306350
_cell_length_c 12.947504
_cell_angle_alpha 90.000000
_cell_angle_beta 115.695628
_cell_angle_gamma 90.000000
_cell_volume 2406.551294
_symmetry_space_group_name_H-M "C 2/C"
_symmetry_group_IT_number 15
_symmetry_cell_setting 'monoclinic'
loop_
_space_group_symop_operation_xyz
x,y,z
-x,y,1/2-z
-x,-y,-z
x,-y,1/2+z
1/2+x,1/2+y,z
1/2-x,1/2+y,1/2-z
1/2-x,1/2-y,-z
1/2+x,1/2-y,1/2+z
loop_
_atom_site_type_symbol
_atom_site_label
_atom_site_fract_x
_atom_site_fract_y
_atom_site_fract_z
Si Si1 0.088856 0.781400 0.412489
Si Si2 0.372661 0.770653 0.992104
Si Si3 0.134405 0.511075 0.349713
Si Si4 0.075646 0.929071 0.806481
Si Si5 0.251054 0.372087 0.316266
Si Si6 0.464337 0.105967 0.394858
Si Si7 0.160252 0.864368 0.670688
O O1 0.142295 0.668109 0.406674
O O2 0.114518 0.855865 0.535806
O O3 0.018131 0.703145 0.376413
O O4 0.079486 0.898653 0.315202
O O5 0.392305 0.625186 0.063737
O O6 0.388530 0.904977 0.076851
O O7 0.294474 0.750028 0.906690
O O8 0.413963 0.788132 0.917347
O O9 0.206348 0.462423 0.362570
O O10 0.078058 0.511954 0.218494
O O11 0.113153 0.863116 0.735977
O O12 0.000000 0.873484 0.750000
O O13 0.205036 0.280625 0.203849
O O14 0.297225 0.488318 0.292416
O O15 0.500000 0.000000 0.500000
#
# Coordination Sequence:
#
# PCOD8155100 Si02
#       7
#     8   8   8   8   8   8   8
#     4  12  28  48  77 115 150 196 257 315 384 445
#     4  12  27  47  76 107 151 199 245 313 374 444
#     4  12  27  47  76 110 148 203 251 306 377 446
#     4  12  28  47  76 108 152 194 252 316 386 448
#     4  12  28  50  74 110 156 199 257 304 375 458
#     4  12  26  47  78 112 151 194 257 315 372 450
#     4  12  29  50  76 112 150 203 250 317 376 449
#
# _framework density 23.269814
#
# number of rings (size 3 to 8) (size 9 to 14) (size 15 to 20)
#    0.000    0.000    4.286    4.286   10.000    1.714 
#    0.000    0.000    0.000    0.000    0.000    0.000 
#    0.000    0.000    0.000    0.000    0.000    0.000 
#
# Total GULP energy -347330.681045 kJ/mol
# GULP energy per Si atom -12404.667180 kJ/mol
# Density = 2.321685 g / cm^3
# Si number density = 23.269814 Si / 1000 Ang^3
#
#
#
# Elastic Constant Matrix: (Units=GPa)
#
#
# Indices 1 2 3 4 5 6 
#
# 1 106.2273 28.8398 39.2619 0.0000 7.0068 0.0000
# 2 28.8398 93.6802 19.6552 0.0000 -0.9685 0.0000
# 3 39.2619 19.6552 94.2152 0.0000 -0.4694 0.0000
# 4 0.0000 0.0000 0.0000 26.7868 0.0000 6.8981
# 5 7.0068 -0.9685 -0.4694 0.0000 28.1347 0.0000
# 6 0.0000 0.0000 0.0000 6.8981 0.0000 43.5619
#
#
#
# Elastic Compliance Matrix: (Units=1/GPa)
#
#
# Indices 1 2 3 4 5 6 
#
# 1 0.012025 -0.002803 -0.004442 0.000000 -0.003165 0.000000
# 2 -0.002803 0.011820 -0.001292 0.000000 0.001083 0.000000
# 3 -0.004442 -0.001292 0.012741 0.000000 0.001274 0.000000
# 4 0.000000 0.000000 0.000000 0.038919 0.000000 -0.006163
# 5 -0.003165 0.001083 0.001274 0.000000 0.036390 0.000000
# 6 0.000000 0.000000 0.000000 -0.006163 0.000000 0.023932
#
#
# Mechanical properties :
#
#
# Convention : Reuss Voigt Hill
#
# Bulk Modulus (GPa) = 51.25234 52.18183 51.71708
# Shear Modulus (GPa) = 31.36644 33.45442 32.41043
#
# Velocity S-wave (km/s) = 3.67542 3.79578 3.73609
# Velocity P-wave (km/s) = 6.33125 6.45631 6.39409
#
# Compressibility (1/GPa) = 0.01951130
#
# Stress axis : x y z
#
# Youngs Moduli (GPa) = 83.15740 84.60366 78.48539
#
# Poissons Ratio (x) = 0.23712 0.34866
# Poissons Ratio (y) = 0.23307 0.10144
# Poissons Ratio (z) = 0.36941 0.10935
#
# Static dielectric constant tensor:
#      x y z
#    x 4.239600 0.000000 0.019160 
#    y 0.000000 4.345560 0.000000 
#    z 0.019160 0.000000 4.173250 
# 
# 
# High freq. dielectric constant tensor:
#      x y z
#    x 1.924660 0.000000 0.001050 
#    y 0.000000 1.936280 0.000000 
#    z 0.001050 0.000000 1.927740 
# 
# From -- ./inp_files/172472.got.cif
#   From: 2010.06.25/outbox.cif.g09.slc.cpg/sg15_87_cif.got.tgz:172472.got - 2010.06.28 07:06:18.
