data_PCOD8155492
_publ_section_title
;
Structure prediction by ZEFSAII (Michael W. Deem and Ramdas Pophale) SiO2 
 PCOD8155492
Probable space group: P 2 2 21
;
_chemical_formula_sum "Si O2"
_cell_formula_units_Z 32
_cell_length_a 10.739328
_cell_length_b 9.550490
_cell_length_c 15.035548
_cell_angle_alpha 90.000000
_cell_angle_beta 90.000000
_cell_angle_gamma 90.000000
_cell_volume 1542.133681
_symmetry_space_group_name_H-M "P 2 2 21"
_symmetry_group_IT_number 17
_symmetry_cell_setting 'orthorhombic'
loop_
_space_group_symop_operation_xyz
x,y,z
-x,-y,1/2+z
x,-y,-z
-x,y,1/2-z
loop_
_atom_site_type_symbol
_atom_site_label
_atom_site_fract_x
_atom_site_fract_y
_atom_site_fract_z
Si Si1 0.869890 0.214387 0.945763
Si Si2 0.447274 0.577714 0.916103
Si Si3 0.137014 0.643622 0.055397
Si Si4 0.226858 0.472350 0.207154
Si Si5 0.723094 0.460422 0.903899
Si Si6 0.159568 0.171095 0.184909
Si Si7 0.334538 0.150709 0.036405
Si Si8 0.891780 0.082960 0.128651
O O1 0.750339 0.294507 0.903699
O O2 0.995460 0.305145 0.944992
O O3 0.883895 0.081510 0.883631
O O4 0.837460 0.169957 0.046378
O O5 0.369356 0.551728 0.826126
O O6 0.580785 0.507634 0.902809
O O7 0.450389 0.743272 0.943777
O O8 0.381183 0.500000 0.000000
O O9 0.171870 0.609386 0.158493
O O10 0.150894 0.500000 0.000000
O O11 0.228301 0.767867 0.020850
O O12 0.215435 0.479240 0.314186
O O13 0.146794 0.338759 0.176770
O O14 0.786007 0.500000 0.000000
O O15 0.275285 0.110752 0.130834
O O16 0.186771 0.126715 0.285701
O O17 0.036207 0.110989 0.142509
O O18 0.381145 0.000000 0.000000
#
# Coordination Sequence:
#
# PCOD8155492 Si02
#       8
#     4   4   4   4   4   4   4   4
#     4  11  23  38  58  93 134 178 209 266 318 399
#     4  10  20  43  66  91 122 167 216 271 324 377
#     4  12  20  37  66 100 131 162 222 273 326 386
#     4  11  21  38  65  94 119 166 220 276 321 375
#     4  11  25  40  62  88 126 171 219 261 319 391
#     4  10  20  35  60  91 128 176 208 257 325 403
#     4  11  20  36  66 102 127 164 213 285 333 377
#     4  10  21  38  57  86 138 180 209 248 334 397
#
# _framework density 20.750471999999998
#
# number of rings (size 3 to 8) (size 9 to 14) (size 15 to 20)
#    0.000    1.250    5.000    2.250    0.000    5.500 
#    0.000    0.000   16.500    0.000    6.500    0.000 
#    0.000    0.000    0.000    0.000    0.000    0.000 
#
# Total GULP energy -396496.248348 kJ/mol
# GULP energy per Si atom -12390.507761 kJ/mol
# Density = 2.070324 g / cm^3
# Si number density = 20.750472 Si / 1000 Ang^3
#
#
#
# Elastic Constant Matrix: (Units=GPa)
#
#
# Indices 1 2 3 4 5 6 
#
# 1 81.8554 58.0607 20.5045 0.0000 0.0000 0.0000
# 2 58.0607 143.4942 42.4385 0.0000 0.0000 0.0000
# 3 20.5045 42.4385 107.8881 0.0000 0.0000 0.0000
# 4 0.0000 0.0000 0.0000 29.0889 0.0000 0.0000
# 5 0.0000 0.0000 0.0000 0.0000 22.7715 0.0000
# 6 0.0000 0.0000 0.0000 0.0000 0.0000 28.8462
#
#
#
# Elastic Compliance Matrix: (Units=1/GPa)
#
#
# Indices 1 2 3 4 5 6 
#
# 1 0.017168 -0.006769 -0.000600 0.000000 0.000000 0.000000
# 2 -0.006769 0.010555 -0.002866 0.000000 0.000000 0.000000
# 3 -0.000600 -0.002866 0.010510 0.000000 0.000000 0.000000
# 4 0.000000 0.000000 0.000000 0.034377 0.000000 0.000000
# 5 0.000000 0.000000 0.000000 0.000000 0.043915 0.000000
# 6 0.000000 0.000000 0.000000 0.000000 0.000000 0.034667
#
#
# Mechanical properties :
#
#
# Convention : Reuss Voigt Hill
#
# Bulk Modulus (GPa) = 56.29338 63.91611 60.10474
# Shear Modulus (GPa) = 28.15572 30.29023 29.22298
#
# Velocity S-wave (km/s) = 3.68757 3.82480 3.75681
# Velocity P-wave (km/s) = 6.73190 7.09750 6.91712
#
# Compressibility (1/GPa) = 0.01776408
#
# Stress axis : x y z
#
# Youngs Moduli (GPa) = 58.24634 94.73861 95.14657
#
# Poissons Ratio (x) = 0.64130 0.05711
# Poissons Ratio (y) = 0.39428 0.27264
# Poissons Ratio (z) = 0.03496 0.27147
#
# Static dielectric constant tensor:
#      x y z
#    x 3.415850 0.000000 0.000000 
#    y 0.000000 3.865800 0.000000 
#    z 0.000000 0.000000 4.324630 
# 
# 
# High freq. dielectric constant tensor:
#      x y z
#    x 1.783140 0.000000 0.000000 
#    y 0.000000 1.814770 0.000000 
#    z 0.000000 0.000000 1.825490 
# 
# From -- ./inp_files/8555.got.cif
#   From: 2010.03.12/outbox.cif.g09.slc.cpg/sg17_5_cif.got.tgz:8555.got - 2010.04.10 18:46:23.
