data_PCOD8155917
_publ_section_title
;
Structure prediction by ZEFSAII (Michael W. Deem and Ramdas Pophale) SiO2 
 PCOD8155917
Probable space group: P 21 21 2
;
_chemical_formula_sum "Si O2"
_cell_formula_units_Z 24
_cell_length_a 13.717232
_cell_length_b 9.721868
_cell_length_c 8.859855
_cell_angle_alpha 90.000000
_cell_angle_beta 90.000000
_cell_angle_gamma 90.000000
_cell_volume 1181.524736
_symmetry_space_group_name_H-M "P 21 21 2"
_symmetry_group_IT_number 18
_symmetry_cell_setting 'orthorhombic'
loop_
_space_group_symop_operation_xyz
x,y,z
-x,-y,z
1/2+x,1/2-y,-z
1/2-x,1/2+y,-z
loop_
_atom_site_type_symbol
_atom_site_label
_atom_site_fract_x
_atom_site_fract_y
_atom_site_fract_z
Si Si1 0.536061 0.201802 0.665820
Si Si2 0.797215 0.074177 0.154472
Si Si3 0.686070 0.839986 0.676043
Si Si4 0.500000 0.500000 0.747361
Si Si5 0.680767 0.854107 0.325620
Si Si6 0.771401 0.612080 0.178114
Si Si7 0.000000 0.500000 0.585752
O O1 0.429260 0.147264 0.714654
O O2 0.530883 0.368553 0.642152
O O3 0.619389 0.168560 0.788314
O O4 0.559406 0.115106 0.513038
O O5 0.772594 0.193411 0.273977
O O6 0.754037 0.934620 0.218620
O O7 0.749611 0.119698 0.998475
O O8 0.913343 0.049218 0.141924
O O9 0.709915 0.859920 0.500600
O O10 0.741793 0.955888 0.769595
O O11 0.688677 0.697911 0.267809
O O12 0.573201 0.917260 0.305623
#
# Coordination Sequence:
#
# PCOD8155917 Si02
#       7
#     4   4   4   2   4   4   2
#     4  10  19  40  66  89 128 170 211 268 323 402
#     4  11  24  39  64  96 126 173 215 273 324 388
#     4  10  22  39  66  94 122 172 221 257 328 390
#     4  10  22  40  62  90 130 166 218 258 336 388
#     4  11  22  42  65  89 130 171 216 273 311 394
#     4  12  21  40  64  94 129 168 217 263 331 386
#     4  10  22  44  62 102 128 166 226 258 332 386
#
# _framework density 20.312736999999998
#
# number of rings (size 3 to 8) (size 9 to 14) (size 15 to 20)
#    0.000    1.333    5.000    2.000    0.000    0.000 
#    9.000    0.000    0.000    0.000    0.000    0.000 
#    0.000    0.000    0.000    0.000    0.000    0.000 
#
# Total GULP energy -297501.677967 kJ/mol
# GULP energy per Si atom -12395.903249 kJ/mol
# Density = 2.026650 g / cm^3
# Si number density = 20.312737 Si / 1000 Ang^3
#
#
#
# Elastic Constant Matrix: (Units=GPa)
#
#
# Indices 1 2 3 4 5 6 
#
# 1 82.0572 36.7819 44.5604 0.0000 0.0000 0.0000
# 2 36.7819 120.5963 20.8709 0.0000 0.0000 0.0000
# 3 44.5604 20.8709 90.9786 0.0000 0.0000 0.0000
# 4 0.0000 0.0000 0.0000 26.0112 0.0000 0.0000
# 5 0.0000 0.0000 0.0000 0.0000 26.1392 0.0000
# 6 0.0000 0.0000 0.0000 0.0000 0.0000 38.8146
#
#
#
# Elastic Compliance Matrix: (Units=1/GPa)
#
#
# Indices 1 2 3 4 5 6 
#
# 1 0.018470 -0.004236 -0.008075 0.000000 0.000000 0.000000
# 2 -0.004236 0.009606 -0.000129 0.000000 0.000000 0.000000
# 3 -0.008075 -0.000129 0.014976 0.000000 0.000000 0.000000
# 4 0.000000 0.000000 0.000000 0.038445 0.000000 0.000000
# 5 0.000000 0.000000 0.000000 0.000000 0.038257 0.000000
# 6 0.000000 0.000000 0.000000 0.000000 0.000000 0.025764
#
#
# Mechanical properties :
#
#
# Convention : Reuss Voigt Hill
#
# Bulk Modulus (GPa) = 55.02589 55.33985 55.18287
# Shear Modulus (GPa) = 28.33574 30.95426 29.64500
#
# Velocity S-wave (km/s) = 3.73899 3.90793 3.82439
# Velocity P-wave (km/s) = 6.76670 6.90403 6.83571
#
# Compressibility (1/GPa) = 0.01817326
#
# Stress axis : x y z
#
# Youngs Moduli (GPa) = 54.14081 104.09690 66.77269
#
# Poissons Ratio (x) = 0.44095 0.53918
# Poissons Ratio (y) = 0.22934 0.00861
# Poissons Ratio (z) = 0.43718 0.01343
#
# Static dielectric constant tensor:
#      x y z
#    x 3.720490 0.000000 0.000000 
#    y 0.000000 4.148330 0.000000 
#    z 0.000000 0.000000 3.366110 
# 
# 
# High freq. dielectric constant tensor:
#      x y z
#    x 1.785440 0.000000 0.000000 
#    y 0.000000 1.823550 0.000000 
#    z 0.000000 0.000000 1.757890 
# 
# From -- ./inp_files/4201.got.cif
#   From: 2010.03.12/outbox.cif.g09.slc.cpg/sg18_3_cif.got.tgz:4201.got - 2010.04.10 18:53:55.
