data_PCOD8155120
_publ_section_title
;
Structure prediction by ZEFSAII (Michael W. Deem and Ramdas Pophale) SiO2 
 PCOD8155120
Probable space group: C 2/C
;
_chemical_formula_sum "Si O2"
_cell_formula_units_Z 32
_cell_length_a 16.935830
_cell_length_b 14.667298
_cell_length_c 11.769275
_cell_angle_alpha 90.000000
_cell_angle_beta 25.768281
_cell_angle_gamma 90.000000
_cell_volume 1270.950206
_symmetry_space_group_name_H-M "C 2/C"
_symmetry_group_IT_number 15
_symmetry_cell_setting 'monoclinic'
loop_
_space_group_symop_operation_xyz
x,y,z
-x,y,1/2-z
-x,-y,-z
x,-y,1/2+z
1/2+x,1/2+y,z
1/2-x,1/2+y,1/2-z
1/2-x,1/2-y,-z
1/2+x,1/2-y,1/2+z
loop_
_atom_site_type_symbol
_atom_site_label
_atom_site_fract_x
_atom_site_fract_y
_atom_site_fract_z
Si Si1 0.188647 0.169783 0.443896
Si Si2 0.799774 0.967788 0.773856
Si Si3 0.335616 0.152463 0.876990
Si Si4 0.920361 0.640280 0.506173
O O1 0.234312 0.108819 0.276242
O O2 0.189709 0.274456 0.401563
O O3 0.364103 0.156710 0.300044
O O4 0.000000 0.141883 0.750000
O O5 0.650505 0.047882 0.959236
O O6 0.800075 0.925256 0.900680
O O7 0.000000 0.000000 0.500000
O O8 0.500000 0.143858 0.750000
O O9 0.389274 0.130879 0.680131
O O10 0.250000 0.250000 0.000000
#
# Coordination Sequence:
#
# PCOD8155120 Si02
#       4
#     8   8   8   8
#     4  12  27  50  77 109 155 203 251 321 386 460
#     4  12  29  46  78 116 152 203 255 316 387 455
#     4  12  26  48  80 107 153 201 254 317 378 452
#     4  12  26  52  76 113 154 198 265 314 385 456
#
# _framework density 25.178011999999999
#
# number of rings (size 3 to 8) (size 9 to 14) (size 15 to 20)
#    0.000    0.000    5.000    3.000    7.000    1.000 
#    0.000    0.000    0.000    0.000    0.000    0.000 
#    0.000    0.000    0.000    0.000    0.000    0.000 
#
# Total GULP energy -198419.119963 kJ/mol
# GULP energy per Si atom -12401.194998 kJ/mol
# Density = 2.512071 g / cm^3
# Si number density = 25.178012 Si / 1000 Ang^3
#
#
#
# Elastic Constant Matrix: (Units=GPa)
#
#
# Indices 1 2 3 4 5 6 
#
# 1 75.8753 55.1475 44.9943 -0.0008 12.7856 0.0005
# 2 55.1475 186.9539 70.4313 0.0003 0.6262 -0.0003
# 3 44.9943 70.4313 169.7174 0.0005 0.1128 0.0007
# 4 -0.0008 0.0003 0.0005 43.0173 -0.0003 -2.6066
# 5 12.7856 0.6262 0.1128 -0.0003 43.4394 -0.0003
# 6 0.0005 -0.0003 0.0007 -2.6066 -0.0003 54.2560
#
#
#
# Elastic Compliance Matrix: (Units=1/GPa)
#
#
# Indices 1 2 3 4 5 6 
#
# 1 0.019289 -0.004440 -0.003267 0.000000 -0.005605 0.000000
# 2 -0.004440 0.007362 -0.001879 0.000000 0.001206 0.000000
# 3 -0.003267 -0.001879 0.007538 0.000000 0.000969 0.000000
# 4 0.000000 0.000000 0.000000 0.023314 0.000000 0.001120
# 5 -0.005605 0.001206 0.000969 0.000000 0.024650 0.000000
# 6 0.000000 0.000000 0.000000 0.001120 0.000000 0.018485
#
#
# Mechanical properties :
#
#
# Convention : Reuss Voigt Hill
#
# Bulk Modulus (GPa) = 66.59699 85.96587 76.28143
# Shear Modulus (GPa) = 40.05885 45.60747 42.83316
#
# Velocity S-wave (km/s) = 3.99309 4.26067 4.12905
# Velocity P-wave (km/s) = 6.91141 7.64341 7.28661
#
# Compressibility (1/GPa) = 0.01501569
#
# Stress axis : x y z
#
# Youngs Moduli (GPa) = 51.84404 135.82346 132.66972
#
# Poissons Ratio (x) = 0.60306 0.43348
# Poissons Ratio (y) = 0.23019 0.24929
# Poissons Ratio (z) = 0.16939 0.25522
#
# Static dielectric constant tensor:
#      x y z
#    x 3.423840 0.000050 0.082750 
#    y 0.000050 5.118150 0.000000 
#    z 0.082750 0.000000 4.817980 
# 
# 
# High freq. dielectric constant tensor:
#      x y z
#    x 2.012810 0.000000 0.007950 
#    y 0.000000 2.021520 0.000000 
#    z 0.007950 0.000000 2.025010 
# 
# From -- ./inp_files/168373.got.cif
#   From: 2010.06.25/outbox.cif.g09.slc.cpg/sg15_85_cif.got.tgz:168373.got - 2010.06.28 07:06:18.
