data_PCOD8155080
_publ_section_title
;
Structure prediction by ZEFSAII (Michael W. Deem and Ramdas Pophale) SiO2 
 PCOD8155080
Probable space group: C 2/C
;
_chemical_formula_sum "Si O2"
_cell_formula_units_Z 44
_cell_length_a 7.107024
_cell_length_b 21.640458
_cell_length_c 13.386532
_cell_angle_alpha 90.000000
_cell_angle_beta 74.606044
_cell_angle_gamma 90.000000
_cell_volume 1984.974534
_symmetry_space_group_name_H-M "C 2/C"
_symmetry_group_IT_number 15
_symmetry_cell_setting 'monoclinic'
loop_
_space_group_symop_operation_xyz
x,y,z
-x,y,1/2-z
-x,-y,-z
x,-y,1/2+z
1/2+x,1/2+y,z
1/2-x,1/2+y,1/2-z
1/2-x,1/2-y,-z
1/2+x,1/2-y,1/2+z
loop_
_atom_site_type_symbol
_atom_site_label
_atom_site_fract_x
_atom_site_fract_y
_atom_site_fract_z
Si Si1 0.304065 0.715647 0.097677
Si Si2 0.348257 0.965647 0.597677
Si Si3 0.500000 0.125000 0.250000
Si Si4 0.128854 0.125000 0.992292
Si Si5 0.027046 0.334436 0.355686
Si Si6 0.867268 0.915564 0.355686
O O1 0.144678 0.672141 0.172965
O O2 0.372965 0.767463 0.166473
O O3 0.250000 0.750000 0.000000
O O4 0.492850 0.674947 0.059856
O O5 0.432356 0.922141 0.672966
O O6 0.197296 0.924947 0.559854
O O7 0.500000 0.000000 0.500000
O O8 0.210561 0.017463 0.666473
O O9 0.312442 0.165309 0.931010
O O10 0.006547 0.084692 0.931010
O O11 0.173546 0.375000 0.402907
O O12 0.000000 0.363648 0.250000
O O13 0.000000 0.886352 0.250000
#
# Coordination Sequence:
#
# PCOD8155080 Si02
#       6
#     8   8   4   8   8   8
#     4  12  28  50  77 111 160 202 265 329 387 473
#     4  12  28  50  77 111 160 202 265 329 387 473
#     4  12  32  50  82 120 158 214 268 320 400 470
#     4  12  26  49  77 112 150 203 258 323 402 456
#     4  12  26  45  76 110 148 199 257 320 397 470
#     4  12  26  45  76 110 148 199 257 320 397 470
#
# _framework density 22.166530999999999
#
# number of rings (size 3 to 8) (size 9 to 14) (size 15 to 20)
#    0.000    0.000    5.455    3.273   12.727    0.000 
#    0.000    0.000    0.000    0.000    0.000    0.000 
#    0.000    0.000    0.000    0.000    0.000    0.000 
#
# Total GULP energy -272542.604541 kJ/mol
# GULP energy per Si atom -12388.300206 kJ/mol
# Density = 2.211608 g / cm^3
# Si number density = 22.166531 Si / 1000 Ang^3
#
#
#
# Elastic Constant Matrix: (Units=GPa)
#
#
# Indices 1 2 3 4 5 6 
#
# 1 172.0542 85.3383 69.6707 0.0000 0.8949 0.0000
# 2 85.3383 164.5530 53.9988 0.0000 0.4839 0.0000
# 3 69.6707 53.9988 110.9892 0.0000 0.0471 0.0000
# 4 0.0000 0.0000 0.0000 37.5911 0.0000 0.3648
# 5 0.8949 0.4839 0.0471 0.0000 22.1856 0.0000
# 6 0.0000 0.0000 0.0000 0.3648 0.0000 61.2817
#
#
#
# Elastic Compliance Matrix: (Units=1/GPa)
#
#
# Indices 1 2 3 4 5 6 
#
# 1 0.009161 -0.003407 -0.004093 0.000000 -0.000287 0.000000
# 2 -0.003407 0.008499 -0.001996 0.000000 -0.000044 0.000000
# 3 -0.004093 -0.001996 0.012550 0.000000 0.000182 0.000000
# 4 0.000000 0.000000 0.000000 0.026604 0.000000 -0.000158
# 5 -0.000287 -0.000044 0.000182 0.000000 0.045086 0.000000
# 6 0.000000 0.000000 0.000000 -0.000158 0.000000 0.016319
#
#
# Mechanical properties :
#
#
# Convention : Reuss Voigt Hill
#
# Bulk Modulus (GPa) = 89.14271 96.17908 92.66089
# Shear Modulus (GPa) = 35.47341 40.11759 37.79550
#
# Velocity S-wave (km/s) = 4.00473 4.25882 4.13373
# Velocity P-wave (km/s) = 7.85405 8.22599 8.04217
#
# Compressibility (1/GPa) = 0.01121797
#
# Stress axis : x y z
#
# Youngs Moduli (GPa) = 109.16158 117.65839 79.67973
#
# Poissons Ratio (x) = 0.40085 0.32611
# Poissons Ratio (y) = 0.37190 0.15907
# Poissons Ratio (z) = 0.44677 0.23490
#
# Static dielectric constant tensor:
#      x y z
#    x 4.082270 0.000000 0.000020 
#    y 0.000000 4.196080 0.000000 
#    z 0.000020 0.000000 4.080890 
# 
# 
# High freq. dielectric constant tensor:
#      x y z
#    x 1.895850 0.000000 0.000370 
#    y 0.000000 1.891900 0.000000 
#    z 0.000370 0.000000 1.871950 
# 
# From -- ./inp_files/129373.got.cif
#   From: 2010.06.25/outbox.cif.g09.slc.cpg/sg15_65_cif.got.tgz:129373.got - 2010.06.28 07:06:18.
