data_PCOD8155022
_publ_section_title
;
Structure prediction by ZEFSAII (Michael W. Deem and Ramdas Pophale) SiO2 
 PCOD8155022
Probable space group: C 2/C
;
_chemical_formula_sum "Si O2"
_cell_formula_units_Z 56
_cell_length_a 27.028486
_cell_length_b 12.875766
_cell_length_c 13.066936
_cell_angle_alpha 90.000000
_cell_angle_beta 31.730526
_cell_angle_gamma 90.000000
_cell_volume 2391.620502
_symmetry_space_group_name_H-M "C 2/C"
_symmetry_group_IT_number 15
_symmetry_cell_setting 'monoclinic'
loop_
_space_group_symop_operation_xyz
x,y,z
-x,y,1/2-z
-x,-y,-z
x,-y,1/2+z
1/2+x,1/2+y,z
1/2-x,1/2+y,1/2-z
1/2-x,1/2-y,-z
1/2+x,1/2-y,1/2+z
loop_
_atom_site_type_symbol
_atom_site_label
_atom_site_fract_x
_atom_site_fract_y
_atom_site_fract_z
Si Si1 0.692194 0.650723 0.571593
Si Si2 0.088797 0.167126 0.157940
Si Si3 0.133157 0.800347 0.956981
Si Si4 0.894282 0.560165 0.472558
Si Si5 0.690105 0.134784 0.478925
Si Si6 0.996718 0.879065 0.483989
Si Si7 0.724978 0.055422 0.626121
O O1 0.750000 0.750000 0.500000
O O2 0.656911 0.637589 0.517224
O O3 0.604521 0.656186 0.802598
O O4 0.755592 0.548820 0.473522
O O5 0.064502 0.173695 0.320608
O O6 0.000000 0.122408 0.250000
O O7 0.108580 0.285320 0.087065
O O8 0.181185 0.094682 0.978362
O O9 0.214680 0.817393 0.732224
O O10 0.125062 0.681615 0.010482
O O11 0.039888 0.844159 0.064643
O O12 0.827802 0.482797 0.526040
O O13 0.866090 0.538517 0.640703
O O14 0.000000 0.534113 0.250000
O O15 0.697272 0.139556 0.589332
O O16 0.000000 0.000000 0.500000
#
# Coordination Sequence:
#
# PCOD8155022 Si02
#       7
#     8   8   8   8   8   8   8
#     4  12  27  44  72 112 154 196 248 321 387 456
#     4  12  27  44  75 109 147 193 255 325 380 463
#     4  12  25  47  74 107 154 202 254 323 385 465
#     4  12  27  47  75 110 149 206 258 312 389 464
#     4  12  25  48  76 106 149 203 259 308 397 467
#     4  12  26  45  75 112 150 200 264 317 396 467
#     4  12  25  47  76 105 150 199 250 319 387 460
#
# _framework density 23.415085000000001
#
# number of rings (size 3 to 8) (size 9 to 14) (size 15 to 20)
#    0.000    0.000    5.714    3.857    4.000    2.857 
#    0.000    0.000    0.000    0.000    0.000    0.000 
#    0.000    0.000    0.000    0.000    0.000    0.000 
#
# Total GULP energy -347088.355354 kJ/mol
# GULP energy per Si atom -12396.012691 kJ/mol
# Density = 2.336179 g / cm^3
# Si number density = 23.415085 Si / 1000 Ang^3
#
#
#
# Elastic Constant Matrix: (Units=GPa)
#
#
# Indices 1 2 3 4 5 6 
#
# 1 81.7881 27.9274 27.0837 0.0000 0.7757 0.0000
# 2 27.9274 138.3769 27.8269 0.0000 -15.7595 0.0000
# 3 27.0837 27.8269 169.6238 0.0000 -0.0929 0.0000
# 4 0.0000 0.0000 0.0000 41.5843 0.0000 -2.1728
# 5 0.7757 -15.7595 -0.0929 0.0000 31.2142 0.0000
# 6 0.0000 0.0000 0.0000 -2.1728 0.0000 28.2497
#
#
#
# Elastic Compliance Matrix: (Units=1/GPa)
#
#
# Indices 1 2 3 4 5 6 
#
# 1 0.013715 -0.002602 -0.001764 0.000000 -0.001660 0.000000
# 2 -0.002602 0.008438 -0.000966 0.000000 0.004322 0.000000
# 3 -0.001764 -0.000966 0.006335 0.000000 -0.000425 0.000000
# 4 0.000000 0.000000 0.000000 0.024145 0.000000 0.001857
# 5 -0.001660 0.004322 -0.000425 0.000000 0.034259 0.000000
# 6 0.000000 0.000000 0.000000 0.001857 0.000000 0.035541
#
#
# Mechanical properties :
#
#
# Convention : Reuss Voigt Hill
#
# Bulk Modulus (GPa) = 56.10541 61.71831 58.91186
# Shear Modulus (GPa) = 35.96074 40.67301 38.31688
#
# Velocity S-wave (km/s) = 3.92317 4.17231 4.04966
# Velocity P-wave (km/s) = 6.67345 7.04460 6.86154
#
# Compressibility (1/GPa) = 0.01782359
#
# Stress axis : x y z
#
# Youngs Moduli (GPa) = 72.91199 118.50525 157.84449
#
# Poissons Ratio (x) = 0.30839 0.27842
# Poissons Ratio (y) = 0.18974 0.15255
# Poissons Ratio (z) = 0.12861 0.11453
#
# Static dielectric constant tensor:
#      x y z
#    x 4.028300 0.000000 -0.007460 
#    y 0.000000 4.284970 0.000000 
#    z -0.007460 0.000000 4.095220 
# 
# 
# High freq. dielectric constant tensor:
#      x y z
#    x 1.913650 0.000000 0.006230 
#    y 0.000000 1.938840 0.000000 
#    z 0.006230 0.000000 1.942800 
# 
# From -- ./inp_files/181936.got.cif
#   From: 2010.06.25/outbox.cif.g09.slc.cpg/sg15_91_cif.got.tgz:181936.got - 2010.06.28 07:06:18.
