data_PCOD8155809
_publ_section_title
;
Structure prediction by ZEFSAII (Michael W. Deem and Ramdas Pophale) SiO2 
 PCOD8155809
Probable space group: P 21 21 2
;
_chemical_formula_sum "Si O2"
_cell_formula_units_Z 30
_cell_length_a 19.375057
_cell_length_b 7.992329
_cell_length_c 9.938208
_cell_angle_alpha 90.000000
_cell_angle_beta 90.000000
_cell_angle_gamma 90.000000
_cell_volume 1538.949695
_symmetry_space_group_name_H-M "P 21 21 2"
_symmetry_group_IT_number 18
_symmetry_cell_setting 'orthorhombic'
loop_
_space_group_symop_operation_xyz
x,y,z
-x,-y,z
1/2+x,1/2-y,-z
1/2-x,1/2+y,-z
loop_
_atom_site_type_symbol
_atom_site_label
_atom_site_fract_x
_atom_site_fract_y
_atom_site_fract_z
Si Si1 0.731574 0.369458 0.114670
Si Si2 0.931278 0.404094 0.774530
Si Si3 0.380697 0.437578 0.262341
Si Si4 0.757201 0.258815 0.596882
Si Si5 0.718565 0.990513 0.164166
Si Si6 0.547485 0.853489 0.534782
Si Si7 0.185872 0.553766 0.357367
Si Si8 0.500000 0.500000 0.447762
O O1 0.655836 0.443721 0.152111
O O2 0.789450 0.460918 0.203536
O O3 0.741300 0.179038 0.154397
O O4 0.749032 0.387406 0.959014
O O5 0.926336 0.206508 0.813856
O O6 0.864640 0.492265 0.837666
O O7 0.927589 0.409922 0.612764
O O8 0.000000 0.500000 0.827663
O O9 0.324376 0.349458 0.359359
O O10 0.433161 0.542861 0.355737
O O11 0.748738 0.410397 0.702210
O O12 0.762555 0.334518 0.448041
O O13 0.689631 0.139388 0.591464
O O14 0.611787 0.859775 0.635547
O O15 0.513596 0.667541 0.536436
O O16 0.500000 0.000000 0.593171
#
# Coordination Sequence:
#
# PCOD8155809 Si02
#       8
#     4   4   4   4   4   4   4   2
#     4  11  24  35  63  81 128 152 204 250 312 360
#     4   9  18  34  57  84 118 148 200 248 292 355
#     4   9  19  33  53  90 115 152 195 249 303 353
#     4  10  20  35  58  83 125 145 205 242 306 362
#     4  11  21  41  56  89 113 166 197 255 302 369
#     4  10  21  35  57  88 121 157 200 253 304 360
#     4  11  20  37  54  92 115 158 190 254 297 366
#     4  10  18  34  58  84 128 150 204 250 296 360
#
# _framework density 19.493815000000001
#
# number of rings (size 3 to 8) (size 9 to 14) (size 15 to 20)
#    0.000    1.867    4.000    3.200    5.600    1.067 
#    2.400    0.667    0.000    0.000    0.000    0.000 
#    0.000    0.000    0.000    0.000    0.000    0.000 
#
# Total GULP energy -371786.549903 kJ/mol
# GULP energy per Si atom -12392.884997 kJ/mol
# Density = 1.944945 g / cm^3
# Si number density = 19.493815 Si / 1000 Ang^3
#
#
#
# Elastic Constant Matrix: (Units=GPa)
#
#
# Indices 1 2 3 4 5 6 
#
# 1 74.8826 34.2326 6.4806 0.0000 0.0000 0.0000
# 2 34.2326 106.4975 -1.7964 0.0000 0.0000 0.0000
# 3 6.4806 -1.7964 36.4971 0.0000 0.0000 0.0000
# 4 0.0000 0.0000 0.0000 26.4537 0.0000 0.0000
# 5 0.0000 0.0000 0.0000 0.0000 22.0639 0.0000
# 6 0.0000 0.0000 0.0000 0.0000 0.0000 40.9199
#
#
#
# Elastic Compliance Matrix: (Units=1/GPa)
#
#
# Indices 1 2 3 4 5 6 
#
# 1 0.015997 -0.005194 -0.003096 0.000000 0.000000 0.000000
# 2 -0.005194 0.011084 0.001468 0.000000 0.000000 0.000000
# 3 -0.003096 0.001468 0.028021 0.000000 0.000000 0.000000
# 4 0.000000 0.000000 0.000000 0.037802 0.000000 0.000000
# 5 0.000000 0.000000 0.000000 0.000000 0.045323 0.000000
# 6 0.000000 0.000000 0.000000 0.000000 0.000000 0.024438
#
#
# Mechanical properties :
#
#
# Convention : Reuss Voigt Hill
#
# Bulk Modulus (GPa) = 24.12105 32.85675 28.48890
# Shear Modulus (GPa) = 26.29789 29.81819 28.05804
#
# Velocity S-wave (km/s) = 3.67691 3.91528 3.79797
# Velocity P-wave (km/s) = 5.51605 6.10989 5.82055
#
# Compressibility (1/GPa) = 0.04145756
#
# Stress axis : x y z
#
# Youngs Moduli (GPa) = 62.51278 90.21787 35.68697
#
# Poissons Ratio (x) = 0.46861 0.11049
# Poissons Ratio (y) = 0.32470 -0.05238
# Poissons Ratio (z) = 0.19355 -0.13243
#
# Static dielectric constant tensor:
#      x y z
#    x 3.683230 0.000000 0.000000 
#    y 0.000000 3.857050 0.000000 
#    z 0.000000 0.000000 3.315160 
# 
# 
# High freq. dielectric constant tensor:
#      x y z
#    x 1.748250 0.000000 0.000000 
#    y 0.000000 1.777420 0.000000 
#    z 0.000000 0.000000 1.716900 
# 
# From -- ./inp_files/4700.got.cif
#   From: 2010.03.12/outbox.cif.g09.slc.cpg/sg18_3_cif.got.tgz:4700.got - 2010.04.10 18:53:55.
