data_PCOD8155582
_publ_section_title
;
Structure prediction by ZEFSAII (Michael W. Deem and Ramdas Pophale) SiO2 
 PCOD8155582
Probable space group: P 2 2 21
;
_chemical_formula_sum "Si O2"
_cell_formula_units_Z 20
_cell_length_a 9.459627
_cell_length_b 10.359216
_cell_length_c 10.003250
_cell_angle_alpha 90.000000
_cell_angle_beta 90.000000
_cell_angle_gamma 90.000000
_cell_volume 980.261675
_symmetry_space_group_name_H-M "P 2 2 21"
_symmetry_group_IT_number 17
_symmetry_cell_setting 'orthorhombic'
loop_
_space_group_symop_operation_xyz
x,y,z
-x,-y,1/2+z
x,-y,-z
-x,y,1/2-z
loop_
_atom_site_type_symbol
_atom_site_label
_atom_site_fract_x
_atom_site_fract_y
_atom_site_fract_z
Si Si1 0.654184 0.500000 0.000000
Si Si2 0.114700 0.851622 0.025858
Si Si3 0.339574 0.102530 0.753349
Si Si4 0.183721 0.761676 0.474086
Si Si5 0.266262 0.187312 0.231829
Si Si6 0.500000 0.608618 0.750000
O O1 0.756060 0.382189 0.960013
O O2 0.552294 0.522685 0.873711
O O3 0.244233 0.832676 0.129923
O O4 0.977674 0.773220 0.078392
O O5 0.151961 0.792138 0.883102
O O6 0.073297 0.000000 0.000000
O O7 0.500000 0.155568 0.750000
O O8 0.276442 0.137705 0.609910
O O9 0.343876 0.950041 0.780322
O O10 0.188433 0.804678 0.627295
O O11 0.374754 0.300561 0.201902
#
# Coordination Sequence:
#
# PCOD8155582 Si02
#       6
#     2   4   4   4   4   2
#     4  10  26  42  64  84 128 172 222 250 312 360
#     4  10  22  39  62  96 130 163 201 256 327 383
#     4  11  23  36  64  99 130 158 204 262 325 381
#     4  11  23  41  62  87 129 169 212 258 305 376
#     4  10  21  38  66  92 126 162 205 260 331 374
#     4  10  22  42  62  94 124 164 212 270 308 372
#
# _framework density 20.402715000000001
#
# number of rings (size 3 to 8) (size 9 to 14) (size 15 to 20)
#    0.000    1.600    1.000    3.000    7.000    4.800 
#    0.000    9.000    0.000    0.000    0.000    0.000 
#    0.000    0.000    0.000    0.000    0.000    0.000 
#
# Total GULP energy -248004.874734 kJ/mol
# GULP energy per Si atom -12400.243737 kJ/mol
# Density = 2.035628 g / cm^3
# Si number density = 20.402715 Si / 1000 Ang^3
#
#
#
# Elastic Constant Matrix: (Units=GPa)
#
#
# Indices 1 2 3 4 5 6 
#
# 1 177.1364 50.7055 77.1868 0.0000 0.0000 0.0000
# 2 50.7055 71.7933 51.3747 0.0000 0.0000 0.0000
# 3 77.1868 51.3747 130.5814 0.0000 0.0000 0.0000
# 4 0.0000 0.0000 0.0000 30.0076 0.0000 0.0000
# 5 0.0000 0.0000 0.0000 0.0000 33.4140 0.0000
# 6 0.0000 0.0000 0.0000 0.0000 0.0000 25.9224
#
#
#
# Elastic Compliance Matrix: (Units=1/GPa)
#
#
# Indices 1 2 3 4 5 6 
#
# 1 0.008098 -0.003193 -0.003530 0.000000 0.000000 0.000000
# 2 -0.003193 0.020646 -0.006235 0.000000 0.000000 0.000000
# 3 -0.003530 -0.006235 0.012198 0.000000 0.000000 0.000000
# 4 0.000000 0.000000 0.000000 0.033325 0.000000 0.000000
# 5 0.000000 0.000000 0.000000 0.000000 0.029928 0.000000
# 6 0.000000 0.000000 0.000000 0.000000 0.000000 0.038577
#
#
# Mechanical properties :
#
#
# Convention : Reuss Voigt Hill
#
# Bulk Modulus (GPa) = 66.55862 82.00500 74.28181
# Shear Modulus (GPa) = 28.78586 31.21839 30.00213
#
# Velocity S-wave (km/s) = 3.76025 3.91591 3.83887
# Velocity P-wave (km/s) = 7.17955 7.79270 7.49240
#
# Compressibility (1/GPa) = 0.01502435
#
# Stress axis : x y z
#
# Youngs Moduli (GPa) = 123.49223 48.43568 81.98000
#
# Poissons Ratio (x) = 0.15465 0.28942
# Poissons Ratio (y) = 0.39429 0.51118
# Poissons Ratio (z) = 0.43597 0.30202
#
# Static dielectric constant tensor:
#      x y z
#    x 3.809760 0.000000 0.000000 
#    y 0.000000 3.595630 0.000000 
#    z 0.000000 0.000000 3.911530 
# 
# 
# High freq. dielectric constant tensor:
#      x y z
#    x 1.806450 0.000000 0.000000 
#    y 0.000000 1.777860 0.000000 
#    z 0.000000 0.000000 1.809980 
# 
# From -- ./inp_files/4054.got.cif
#   From: 2010.03.12/outbox.cif.g09.slc.cpg/sg17_3_cif.got.tgz:4054.got - 2010.04.10 18:46:23.
