data_PCOD8155891
_publ_section_title
;
Structure prediction by ZEFSAII (Michael W. Deem and Ramdas Pophale) SiO2 
 PCOD8155891
Probable space group: P 21 21 2
;
_chemical_formula_sum "Si O2"
_cell_formula_units_Z 24
_cell_length_a 16.799887
_cell_length_b 14.541482
_cell_length_c 4.997375
_cell_angle_alpha 90.000000
_cell_angle_beta 90.000000
_cell_angle_gamma 90.000000
_cell_volume 1220.834997
_symmetry_space_group_name_H-M "P 21 21 2"
_symmetry_group_IT_number 18
_symmetry_cell_setting 'orthorhombic'
loop_
_space_group_symop_operation_xyz
x,y,z
-x,-y,z
1/2+x,1/2-y,-z
1/2-x,1/2+y,-z
loop_
_atom_site_type_symbol
_atom_site_label
_atom_site_fract_x
_atom_site_fract_y
_atom_site_fract_z
Si Si1 0.440357 0.581436 0.036871
Si Si2 0.674270 0.997857 0.483072
Si Si3 0.577639 0.943348 0.978044
Si Si4 0.472426 0.783475 0.102179
Si Si5 0.868939 0.694351 0.397629
Si Si6 0.836351 0.897129 0.462869
O O1 0.500000 0.500000 0.102601
O O2 0.405393 0.571582 0.740017
O O3 0.490412 0.675609 0.064719
O O4 0.366051 0.580698 0.239540
O O5 0.640526 0.942851 0.737817
O O6 0.757527 0.953902 0.398983
O O7 0.686545 0.105868 0.549689
O O8 0.613327 0.991087 0.239107
O O9 0.500000 0.000000 0.887007
O O10 0.553723 0.838284 0.043821
O O11 0.444584 0.804025 0.403800
O O12 0.401797 0.814626 0.902963
O O13 0.818037 0.787980 0.431759
#
# Coordination Sequence:
#
# PCOD8155891 Si02
#       6
#     4   4   4   4   4   4
#     4  10  21  42  63  81 111 152 194 231 283 335
#     4  12  22  37  58  83 120 149 186 238 278 340
#     4  12  21  35  59  88 113 147 192 229 285 332
#     4  10  20  35  58  83 110 143 189 232 271 340
#     4  10  19  37  57  77 112 156 177 222 291 331
#     4  10  23  39  58  85 116 149 191 229 287 342
#
# _framework density 19.658676
#
# number of rings (size 3 to 8) (size 9 to 14) (size 15 to 20)
#    0.000    1.333    3.333    3.000    0.000    0.000 
#    6.000    0.000    0.000    0.000    0.000    0.000 
#    0.000    0.000    0.000    0.000    0.000    0.000 
#
# Total GULP energy -297722.740577 kJ/mol
# GULP energy per Si atom -12405.114191 kJ/mol
# Density = 1.961393 g / cm^3
# Si number density = 19.658676 Si / 1000 Ang^3
#
#
#
# Elastic Constant Matrix: (Units=GPa)
#
#
# Indices 1 2 3 4 5 6 
#
# 1 55.5344 49.8430 -0.8884 0.0000 0.0000 0.0000
# 2 49.8430 118.0477 4.0593 0.0000 0.0000 0.0000
# 3 -0.8884 4.0593 74.8591 0.0000 0.0000 0.0000
# 4 0.0000 0.0000 0.0000 24.3432 0.0000 0.0000
# 5 0.0000 0.0000 0.0000 0.0000 16.5409 0.0000
# 6 0.0000 0.0000 0.0000 0.0000 0.0000 32.7593
#
#
#
# Elastic Compliance Matrix: (Units=1/GPa)
#
#
# Indices 1 2 3 4 5 6 
#
# 1 0.029071 -0.012309 0.001012 0.000000 0.000000 0.000000
# 2 -0.012309 0.013699 -0.000889 0.000000 0.000000 0.000000
# 3 0.001012 -0.000889 0.013419 0.000000 0.000000 0.000000
# 4 0.000000 0.000000 0.000000 0.041079 0.000000 0.000000
# 5 0.000000 0.000000 0.000000 0.000000 0.060456 0.000000
# 6 0.000000 0.000000 0.000000 0.000000 0.000000 0.030526
#
#
# Mechanical properties :
#
#
# Convention : Reuss Voigt Hill
#
# Bulk Modulus (GPa) = 31.42970 39.38544 35.40757
# Shear Modulus (GPa) = 22.39875 27.75718 25.07796
#
# Velocity S-wave (km/s) = 3.37914 3.76168 3.57553
# Velocity P-wave (km/s) = 5.58992 6.24060 5.92420
#
# Compressibility (1/GPa) = 0.03181704
#
# Stress axis : x y z
#
# Youngs Moduli (GPa) = 34.39869 72.99773 74.52312
#
# Poissons Ratio (x) = 0.89855 -0.07545
# Poissons Ratio (y) = 0.42342 0.06625
# Poissons Ratio (z) = -0.03483 0.06489
#
# Static dielectric constant tensor:
#      x y z
#    x 3.099420 0.000000 0.000000 
#    y 0.000000 3.808610 0.000000 
#    z 0.000000 0.000000 3.736770 
# 
# 
# High freq. dielectric constant tensor:
#      x y z
#    x 1.722270 0.000000 0.000000 
#    y 0.000000 1.778070 0.000000 
#    z 0.000000 0.000000 1.788480 
# 
# From -- ./inp_files/1480.got.cif
#   From: 2010.03.12/outbox.cif.g09.slc.cpg/sg18_1_cif.got.tgz:1480.got - 2010.04.10 18:53:55.
