data_PCOD8155198
_publ_section_title
;
Structure prediction by ZEFSAII (Michael W. Deem and Ramdas Pophale) SiO2 
 PCOD8155198
Probable space group: C 2/C
;
_chemical_formula_sum "Si O2"
_cell_formula_units_Z 64
_cell_length_a 26.457148
_cell_length_b 17.944514
_cell_length_c 9.444875
_cell_angle_alpha 90.000000
_cell_angle_beta 90.000000
_cell_angle_gamma 90.000000
_cell_volume 4484.055114
_symmetry_space_group_name_H-M "C 2/C"
_symmetry_group_IT_number 15
_symmetry_cell_setting 'monoclinic'
loop_
_space_group_symop_operation_xyz
x,y,z
-x,y,1/2-z
-x,-y,-z
x,-y,1/2+z
1/2+x,1/2+y,z
1/2-x,1/2+y,1/2-z
1/2-x,1/2-y,-z
1/2+x,1/2-y,1/2+z
loop_
_atom_site_type_symbol
_atom_site_label
_atom_site_fract_x
_atom_site_fract_y
_atom_site_fract_z
Si Si1 0.703747 0.716784 0.586031
Si Si2 0.147902 0.674882 0.585029
Si Si3 0.852098 0.674882 0.585029
Si Si4 0.296253 0.283216 0.086031
Si Si5 0.942744 0.571864 0.913580
Si Si6 0.741693 0.072855 0.589547
Si Si7 0.942744 0.571864 0.586420
Si Si8 0.741693 0.927145 0.410453
O O1 0.750000 0.750000 0.500000
O O2 0.653650 0.749913 0.509783
O O3 0.705400 0.741960 0.750000
O O4 0.709281 0.627176 0.574859
O O5 0.153798 0.696048 0.750000
O O6 0.153650 0.750087 0.490217
O O7 0.093024 0.641418 0.549756
O O8 0.190662 0.615007 0.540256
O O9 0.906976 0.641418 0.549756
O O10 0.809338 0.615007 0.540256
O O11 0.290719 0.372824 0.074859
O O12 0.250000 0.250000 0.000000
O O13 0.937731 0.550083 0.750000
O O14 1.000000 0.594745 0.953560
O O15 0.924784 0.500000 1.000000
O O16 0.734608 0.046601 0.750000
O O17 0.752189 1.000000 0.500000
#
# Coordination Sequence:
#
# PCOD8155198 Si02
#       8
#     8   8   8   8   8   8   8   8
#     4   9  17  28  40  56  77 101 130 162 194 230
#     4   9  17  28  40  56  78 105 136 164 193 230
#     4   9  17  28  40  56  78 105 136 164 193 230
#     4   9  17  28  40  56  77 101 130 162 194 230
#     4   9  17  28  41  58  81 107 136 170 202 232
#     4   9  17  26  37  55  77 100 128 159 189 227
#     4   9  17  28  41  58  81 107 136 170 202 232
#     4   9  17  26  37  55  77 100 128 159 189 227
#
# _framework density 14.272796
#
# number of rings (size 3 to 8) (size 9 to 14) (size 15 to 20)
#    0.000    3.000    0.000    3.000    0.000    6.000 
#    0.000    0.000    0.000    0.000    0.000    0.000 
#    0.000    1.000    0.000    2.250    0.000    3.500 
#
# Total GULP energy -396587.762964 kJ/mol
# GULP energy per Si atom -12393.367593 kJ/mol
# Density = 1.424031 g / cm^3
# Si number density = 14.272796 Si / 1000 Ang^3
#
#
#
# Elastic Constant Matrix: (Units=GPa)
#
#
# Indices 1 2 3 4 5 6 
#
# 1 63.5100 37.8182 32.5503 0.0000 0.0000 0.0000
# 2 37.8182 74.1861 45.9210 0.0000 0.0000 0.0000
# 3 32.5503 45.9210 70.0074 0.0000 0.0000 0.0000
# 4 0.0000 0.0000 0.0000 30.2904 0.0000 0.0000
# 5 0.0000 0.0000 0.0000 0.0000 17.8788 0.0000
# 6 0.0000 0.0000 0.0000 0.0000 0.0000 21.9596
#
#
#
# Elastic Compliance Matrix: (Units=1/GPa)
#
#
# Indices 1 2 3 4 5 6 
#
# 1 0.023684 -0.008851 -0.005206 0.000000 0.000000 0.000000
# 2 -0.008851 0.026002 -0.012940 0.000000 0.000000 0.000000
# 3 -0.005206 -0.012940 0.025193 0.000000 0.000000 0.000000
# 4 0.000000 0.000000 0.000000 0.033014 0.000000 0.000000
# 5 0.000000 0.000000 0.000000 0.000000 0.055932 0.000000
# 6 0.000000 0.000000 0.000000 0.000000 0.000000 0.045538
#
#
# Mechanical properties :
#
#
# Convention : Reuss Voigt Hill
#
# Bulk Modulus (GPa) = 47.88426 48.92027 48.40226
# Shear Modulus (GPa) = 18.49659 20.12003 19.30831
#
# Velocity S-wave (km/s) = 3.60381 3.75864 3.68204
# Velocity P-wave (km/s) = 7.13714 7.29288 7.21543
#
# Compressibility (1/GPa) = 0.02088369
#
# Stress axis : x y z
#
# Youngs Moduli (GPa) = 42.22186 38.45908 39.69333
#
# Poissons Ratio (x) = 0.34040 0.20666
# Poissons Ratio (y) = 0.37370 0.51365
# Poissons Ratio (z) = 0.21983 0.49767
#
# Static dielectric constant tensor:
#      x y z
#    x 2.864100 0.000000 0.000000 
#    y 0.000000 2.891840 0.000000 
#    z 0.000000 0.000000 3.082560 
# 
# 
# High freq. dielectric constant tensor:
#      x y z
#    x 1.514920 0.000000 0.000000 
#    y 0.000000 1.526150 0.000000 
#    z 0.000000 0.000000 1.556060 
# 
# From -- ./inp_files/66708.got.cif
#   From: 2010.06.25/outbox.cif.g09.slc.cpg/sg15_34_cif.got.tgz:66708.got - 2010.06.28 07:06:18.
