data_PCOD8155979
_publ_section_title
;
Structure prediction by ZEFSAII (Michael W. Deem and Ramdas Pophale) SiO2 
 PCOD8155979
Probable space group: P 21 21 2
;
_chemical_formula_sum "Si O2"
_cell_formula_units_Z 32
_cell_length_a 11.072849
_cell_length_b 16.095658
_cell_length_c 8.541352
_cell_angle_alpha 90.000000
_cell_angle_beta 90.000000
_cell_angle_gamma 90.000000
_cell_volume 1522.280672
_symmetry_space_group_name_H-M "P 21 21 2"
_symmetry_group_IT_number 18
_symmetry_cell_setting 'orthorhombic'
loop_
_space_group_symop_operation_xyz
x,y,z
-x,-y,z
1/2+x,1/2-y,-z
1/2-x,1/2+y,-z
loop_
_atom_site_type_symbol
_atom_site_label
_atom_site_fract_x
_atom_site_fract_y
_atom_site_fract_z
Si Si1 0.763193 0.548771 0.682292
Si Si2 0.672877 0.294619 0.076106
Si Si3 0.556808 0.289542 0.547870
Si Si4 0.537935 0.168954 0.272799
Si Si5 0.096803 0.932752 0.582975
Si Si6 0.889560 0.198329 0.180432
Si Si7 0.517891 0.588189 0.087701
Si Si8 0.744640 0.860577 0.252528
O O1 0.901181 0.577721 0.711259
O O2 0.725723 0.546096 0.497653
O O3 0.672041 0.615573 0.754133
O O4 0.744535 0.460087 0.765982
O O5 0.587318 0.214579 0.115677
O O6 0.801177 0.276058 0.155160
O O7 0.611474 0.377041 0.154300
O O8 0.692713 0.313091 0.892189
O O9 0.584448 0.214406 0.430900
O O10 0.456477 0.344278 0.462377
O O11 0.494590 0.263684 0.711935
O O12 0.684598 0.333030 0.589932
O O13 0.394519 0.164028 0.267971
O O14 0.111224 0.931433 0.771587
O O15 0.000000 0.000000 0.525445
O O16 0.942043 0.166104 0.015990
O O17 0.500000 0.500000 0.996916
#
# Coordination Sequence:
#
# PCOD8155979 Si02
#       8
#     4   4   4   4   4   4   4   4
#     4  10  23  43  64  95 129 173 220 273 322 406
#     4  11  23  40  62  95 130 165 214 273 328 399
#     4  11  23  38  65  96 125 172 218 277 324 396
#     4  11  26  42  64  99 136 170 220 275 343 394
#     4  10  20  37  63  94 130 160 220 279 322 377
#     4  10  23  39  61  94 133 162 223 271 327 392
#     4  11  21  37  63  95 126 168 217 276 333 390
#     4  12  24  41  70  90 131 180 218 265 343 403
#
# _framework density 21.021090999999998
#
# number of rings (size 3 to 8) (size 9 to 14) (size 15 to 20)
#    0.000    1.250    3.750    1.875    5.250    0.000 
#    0.000    0.000    0.000    0.000    0.000    0.000 
#    0.000    0.000    0.000    0.000    0.000    0.000 
#
# Total GULP energy -396490.065872 kJ/mol
# GULP energy per Si atom -12390.314558 kJ/mol
# Density = 2.097325 g / cm^3
# Si number density = 21.021091 Si / 1000 Ang^3
#
#
#
# Elastic Constant Matrix: (Units=GPa)
#
#
# Indices 1 2 3 4 5 6 
#
# 1 102.2954 33.5393 32.7647 0.0000 0.0000 0.0000
# 2 33.5393 94.2641 36.7810 0.0000 0.0000 0.0000
# 3 32.7647 36.7810 95.9889 0.0000 0.0000 0.0000
# 4 0.0000 0.0000 0.0000 21.3292 0.0000 0.0000
# 5 0.0000 0.0000 0.0000 0.0000 23.0332 0.0000
# 6 0.0000 0.0000 0.0000 0.0000 0.0000 34.6332
#
#
#
# Elastic Compliance Matrix: (Units=1/GPa)
#
#
# Indices 1 2 3 4 5 6 
#
# 1 0.011680 -0.003057 -0.002815 0.000000 0.000000 0.000000
# 2 -0.003057 0.013274 -0.004043 0.000000 0.000000 0.000000
# 3 -0.002815 -0.004043 0.012928 0.000000 0.000000 0.000000
# 4 0.000000 0.000000 0.000000 0.046884 0.000000 0.000000
# 5 0.000000 0.000000 0.000000 0.000000 0.043416 0.000000
# 6 0.000000 0.000000 0.000000 0.000000 0.000000 0.028874
#
#
# Mechanical properties :
#
#
# Convention : Reuss Voigt Hill
#
# Bulk Modulus (GPa) = 55.39854 55.41316 55.40585
# Shear Modulus (GPa) = 27.33702 28.43001 27.88352
#
# Velocity S-wave (km/s) = 3.61010 3.68156 3.64600
# Velocity P-wave (km/s) = 6.61726 6.67007 6.64371
#
# Compressibility (1/GPa) = 0.01805102
#
# Stress axis : x y z
#
# Youngs Moduli (GPa) = 85.61883 75.33723 77.35199
#
# Poissons Ratio (x) = 0.23032 0.21777
# Poissons Ratio (y) = 0.26175 0.31271
# Poissons Ratio (z) = 0.24104 0.30456
#
# Static dielectric constant tensor:
#      x y z
#    x 3.914010 0.000000 0.000000 
#    y 0.000000 3.838960 0.000000 
#    z 0.000000 0.000000 3.878750 
# 
# 
# High freq. dielectric constant tensor:
#      x y z
#    x 1.819990 0.000000 0.000000 
#    y 0.000000 1.816260 0.000000 
#    z 0.000000 0.000000 1.818750 
# 
# From -- ./inp_files/3962.got.cif
#   From: 2010.03.12/outbox.cif.g09.slc.cpg/sg18_2_cif.got.tgz:3962.got - 2010.04.10 18:53:55.
