data_PCOD8155866
_publ_section_title
;
Structure prediction by ZEFSAII (Michael W. Deem and Ramdas Pophale) SiO2 
 PCOD8155866
Probable space group: P 21 21 2
;
_chemical_formula_sum "Si O2"
_cell_formula_units_Z 26
_cell_length_a 15.792203
_cell_length_b 9.250052
_cell_length_c 9.354710
_cell_angle_alpha 90.000000
_cell_angle_beta 90.000000
_cell_angle_gamma 90.000000
_cell_volume 1366.523866
_symmetry_space_group_name_H-M "P 21 21 2"
_symmetry_group_IT_number 18
_symmetry_cell_setting 'orthorhombic'
loop_
_space_group_symop_operation_xyz
x,y,z
-x,-y,z
1/2+x,1/2-y,-z
1/2-x,1/2+y,-z
loop_
_atom_site_type_symbol
_atom_site_label
_atom_site_fract_x
_atom_site_fract_y
_atom_site_fract_z
Si Si1 0.500000 0.000000 0.692942
Si Si2 0.874318 0.957313 0.120023
Si Si3 0.742124 0.069737 0.927727
Si Si4 0.843961 0.344886 0.899072
Si Si5 0.023613 0.763091 0.103816
Si Si6 0.181370 0.430714 0.388660
Si Si7 0.751936 0.373603 0.635518
O O1 0.466010 0.132090 0.787546
O O2 0.420313 0.949309 0.597380
O O3 0.810634 0.949073 0.252313
O O4 0.924659 0.806564 0.092138
O O5 0.931834 0.093700 0.163765
O O6 0.829109 0.988601 0.968939
O O7 0.713975 0.028542 0.768815
O O8 0.762713 0.241507 0.946038
O O9 0.669765 0.005586 0.034009
O O10 0.839780 0.346219 0.725487
O O11 0.934286 0.283406 0.951973
O O12 0.229650 0.529922 0.500058
O O13 0.207573 0.268409 0.426506
#
# Coordination Sequence:
#
# PCOD8155866 Si02
#       7
#     2   4   4   4   4   4   4
#     4  12  22  36  56  88 114 148 192 244 288 348
#     4   9  19  37  60  85 110 146 196 241 290 355
#     4   9  18  33  57  82 108 144 191 230 279 339
#     4   9  18  34  56  83 110 144 186 239 284 333
#     4  10  19  34  61  85 114 143 186 247 301 332
#     4  11  23  38  57  83 121 158 195 237 286 354
#     4  10  22  38  57  84 118 158 200 230 287 356
#
# _framework density 19.026378999999999
#
# number of rings (size 3 to 8) (size 9 to 14) (size 15 to 20)
#    0.000    2.154    3.077    0.000    2.154    1.231 
#    0.000    2.308    0.000    3.692    0.000    0.000 
#    0.000    0.000    0.000    0.000    0.000    0.000 
#
# Total GULP energy -322132.142766 kJ/mol
# GULP energy per Si atom -12389.697799 kJ/mol
# Density = 1.898307 g / cm^3
# Si number density = 19.026379 Si / 1000 Ang^3
#
#
#
# Elastic Constant Matrix: (Units=GPa)
#
#
# Indices 1 2 3 4 5 6 
#
# 1 72.0181 5.0428 31.9513 0.0000 0.0000 0.0000
# 2 5.0428 80.5655 31.6542 0.0000 0.0000 0.0000
# 3 31.9513 31.6542 73.2922 0.0000 0.0000 0.0000
# 4 0.0000 0.0000 0.0000 25.1053 0.0000 0.0000
# 5 0.0000 0.0000 0.0000 0.0000 27.1598 0.0000
# 6 0.0000 0.0000 0.0000 0.0000 0.0000 18.8141
#
#
#
# Elastic Compliance Matrix: (Units=1/GPa)
#
#
# Indices 1 2 3 4 5 6 
#
# 1 0.017561 0.002299 -0.008649 0.000000 0.000000 0.000000
# 2 0.002299 0.015250 -0.007588 0.000000 0.000000 0.000000
# 3 -0.008649 -0.007588 0.020692 0.000000 0.000000 0.000000
# 4 0.000000 0.000000 0.000000 0.039832 0.000000 0.000000
# 5 0.000000 0.000000 0.000000 0.000000 0.036819 0.000000
# 6 0.000000 0.000000 0.000000 0.000000 0.000000 0.053152
#
#
# Mechanical properties :
#
#
# Convention : Reuss Voigt Hill
#
# Bulk Modulus (GPa) = 39.02205 40.35249 39.68727
# Shear Modulus (GPa) = 22.75574 24.69767 23.72670
#
# Velocity S-wave (km/s) = 3.46209 3.60679 3.53518
# Velocity P-wave (km/s) = 6.04445 6.21289 6.12925
#
# Compressibility (1/GPa) = 0.02562653
#
# Stress axis : x y z
#
# Youngs Moduli (GPa) = 56.94290 65.57435 48.32851
#
# Poissons Ratio (x) = -0.15074 0.41798
# Poissons Ratio (y) = -0.13090 0.36674
# Poissons Ratio (z) = 0.49248 0.49761
#
# Static dielectric constant tensor:
#      x y z
#    x 3.734960 0.000000 0.000000 
#    y 0.000000 3.745370 0.000000 
#    z 0.000000 0.000000 3.252350 
# 
# 
# High freq. dielectric constant tensor:
#      x y z
#    x 1.738230 0.000000 0.000000 
#    y 0.000000 1.758190 0.000000 
#    z 0.000000 0.000000 1.706270 
# 
# From -- ./inp_files/3344.got.cif
#   From: 2010.03.12/outbox.cif.g09.slc.cpg/sg18_2_cif.got.tgz:3344.got - 2010.04.10 18:53:55.
