data_PCOD8155991
_publ_section_title
;
Structure prediction by ZEFSAII (Michael W. Deem and Ramdas Pophale) SiO2 
 PCOD8155991
Probable space group: P 21 21 2
;
_chemical_formula_sum "Si O2"
_cell_formula_units_Z 28
_cell_length_a 10.005861
_cell_length_b 20.673955
_cell_length_c 6.360815
_cell_angle_alpha 90.000000
_cell_angle_beta 90.000000
_cell_angle_gamma 90.000000
_cell_volume 1315.802771
_symmetry_space_group_name_H-M "P 21 21 2"
_symmetry_group_IT_number 18
_symmetry_cell_setting 'orthorhombic'
loop_
_space_group_symop_operation_xyz
x,y,z
-x,-y,z
1/2+x,1/2-y,-z
1/2-x,1/2+y,-z
loop_
_atom_site_type_symbol
_atom_site_label
_atom_site_fract_x
_atom_site_fract_y
_atom_site_fract_z
Si Si1 0.909121 0.107109 0.290299
Si Si2 0.400514 0.924435 0.760251
Si Si3 0.000000 0.000000 0.568634
Si Si4 0.724769 0.186254 0.534006
Si Si5 0.484811 0.706830 0.420334
Si Si6 0.500000 0.000000 0.381476
Si Si7 0.844194 0.451720 0.996289
Si Si8 0.423530 0.603865 0.105262
O O1 0.765971 0.142800 0.327641
O O2 0.024436 0.153237 0.393503
O O3 0.899032 0.039243 0.416467
O O4 0.948636 0.094718 0.048852
O O5 0.313982 0.859262 0.733606
O O6 0.534609 0.911976 0.895960
O O7 0.441110 0.943221 0.524118
O O8 0.316423 0.981792 0.872556
O O9 0.922150 0.949535 0.713105
O O10 0.601104 0.230846 0.475385
O O11 0.857461 0.226190 0.606825
O O12 0.429846 0.675448 0.204542
O O13 0.381696 0.029720 0.240456
O O14 0.715177 0.405894 0.982279
#
# Coordination Sequence:
#
# PCOD8155991 Si02
#       8
#     4   4   2   4   4   2   4   4
#     4   9  22  39  61  96 121 166 208 260 325 381
#     4   9  19  38  61  87 124 163 206 252 314 383
#     4  10  20  38  62  94 126 168 196 264 328 380
#     4  10  21  46  63  86 123 174 214 266 311 378
#     4   9  24  42  62  87 123 166 220 261 321 362
#     4   8  18  36  52 100 120 160 190 248 308 394
#     4   9  20  34  59  94 122 163 197 251 323 381
#     4  11  21  39  60  97 129 159 214 268 316 385
#
# _framework density 21.279785
#
# number of rings (size 3 to 8) (size 9 to 14) (size 15 to 20)
#    0.857    2.000    0.000    1.286    2.000    6.857 
#    5.143    0.000    0.000    0.000    0.000    0.000 
#    0.000    0.000    0.000    0.000    0.000    0.000 
#
# Total GULP energy -346920.162857 kJ/mol
# GULP energy per Si atom -12390.005816 kJ/mol
# Density = 2.123135 g / cm^3
# Si number density = 21.279785 Si / 1000 Ang^3
#
#
#
# Elastic Constant Matrix: (Units=GPa)
#
#
# Indices 1 2 3 4 5 6 
#
# 1 86.0837 33.9510 0.8627 0.0000 0.0000 0.0000
# 2 33.9510 75.9993 17.4099 0.0000 0.0000 0.0000
# 3 0.8627 17.4099 81.0241 0.0000 0.0000 0.0000
# 4 0.0000 0.0000 0.0000 12.1150 0.0000 0.0000
# 5 0.0000 0.0000 0.0000 0.0000 20.1874 0.0000
# 6 0.0000 0.0000 0.0000 0.0000 0.0000 50.1861
#
#
#
# Elastic Compliance Matrix: (Units=1/GPa)
#
#
# Indices 1 2 3 4 5 6 
#
# 1 0.014226 -0.006647 0.001277 0.000000 0.000000 0.000000
# 2 -0.006647 0.016946 -0.003570 0.000000 0.000000 0.000000
# 3 0.001277 -0.003570 0.013096 0.000000 0.000000 0.000000
# 4 0.000000 0.000000 0.000000 0.082543 0.000000 0.000000
# 5 0.000000 0.000000 0.000000 0.000000 0.049536 0.000000
# 6 0.000000 0.000000 0.000000 0.000000 0.000000 0.019926
#
#
# Mechanical properties :
#
#
# Convention : Reuss Voigt Hill
#
# Bulk Modulus (GPa) = 37.90059 38.61712 38.25885
# Shear Modulus (GPa) = 22.42680 29.22327 25.82503
#
# Velocity S-wave (km/s) = 3.24991 3.70981 3.48745
# Velocity P-wave (km/s) = 5.65082 6.04458 5.85102
#
# Compressibility (1/GPa) = 0.02638482
#
# Stress axis : x y z
#
# Youngs Moduli (GPa) = 70.29612 59.01264 76.36160
#
# Poissons Ratio (x) = 0.39228 -0.09751
# Poissons Ratio (y) = 0.46729 0.27264
# Poissons Ratio (z) = -0.08976 0.21070
#
# Static dielectric constant tensor:
#      x y z
#    x 3.629010 0.000000 0.000000 
#    y 0.000000 3.550820 0.000000 
#    z 0.000000 0.000000 3.746860 
# 
# 
# High freq. dielectric constant tensor:
#      x y z
#    x 1.827870 0.000000 0.000000 
#    y 0.000000 1.807570 0.000000 
#    z 0.000000 0.000000 1.828970 
# 
# From -- ./inp_files/1262.got.cif
#   From: 2010.03.12/outbox.cif.g09.slc.cpg/sg18_1_cif.got.tgz:1262.got - 2010.04.10 18:53:55.
