data_PCOD8155797
_publ_section_title
;
Structure prediction by ZEFSAII (Michael W. Deem and Ramdas Pophale) SiO2 
 PCOD8155797
Probable space group: P 21 21 2
;
_chemical_formula_sum "Si O2"
_cell_formula_units_Z 26
_cell_length_a 25.273340
_cell_length_b 5.118069
_cell_length_c 12.693774
_cell_angle_alpha 90.000000
_cell_angle_beta 90.000000
_cell_angle_gamma 90.000000
_cell_volume 1641.948527
_symmetry_space_group_name_H-M "P 21 21 2"
_symmetry_group_IT_number 18
_symmetry_cell_setting 'orthorhombic'
loop_
_space_group_symop_operation_xyz
x,y,z
-x,-y,z
1/2+x,1/2-y,-z
1/2-x,1/2+y,-z
loop_
_atom_site_type_symbol
_atom_site_label
_atom_site_fract_x
_atom_site_fract_y
_atom_site_fract_z
Si Si1 0.282395 0.697832 0.875216
Si Si2 0.180587 0.698378 0.014102
Si Si3 0.500000 0.000000 0.227031
Si Si4 0.754853 0.819141 0.361342
Si Si5 0.599507 0.750242 0.155260
Si Si6 0.806470 0.819628 0.575568
Si Si7 0.897797 0.729972 0.717115
O O1 0.223094 0.715196 0.919867
O O2 0.281871 0.732643 0.750169
O O3 0.318127 0.923576 0.926211
O O4 0.309148 0.422400 0.900775
O O5 0.122914 0.738823 0.962415
O O6 0.463768 0.187351 0.152972
O O7 0.539153 0.175837 0.300824
O O8 0.800858 0.793783 0.449837
O O9 0.729496 0.106246 0.364978
O O10 0.710201 0.604389 0.384265
O O11 0.611194 0.470200 0.204546
O O12 0.627855 0.975533 0.226023
O O13 0.868086 0.778670 0.606652
#
# Coordination Sequence:
#
# PCOD8155797 Si02
#       7
#     4   4   2   4   4   4   4
#     4  10  19  30  43  68  97 128 165 190 217 289
#     4  10  19  29  46  66  94 133 158 186 240 270
#     4   8  22  30  50  74 102 112 168 196 262 274
#     4  10  20  32  46  71 101 130 168 194 223 297
#     4  10  19  32  48  71 101 122 156 199 246 291
#     4  10  19  31  50  70  96 136 159 192 250 280
#     4  10  18  31  49  71 100 121 153 199 248 291
#
# _framework density 15.834846000000001
#
# number of rings (size 3 to 8) (size 9 to 14) (size 15 to 20)
#    0.923    1.231    0.000    5.077    0.000    2.462 
#    0.000    0.000    0.000    0.000    0.000    1.077 
#    0.000    0.000    0.000    0.000    0.000    0.000 
#
# Total GULP energy -322258.771239 kJ/mol
# GULP energy per Si atom -12394.568125 kJ/mol
# Density = 1.579881 g / cm^3
# Si number density = 15.834846 Si / 1000 Ang^3
#
#
#
# Elastic Constant Matrix: (Units=GPa)
#
#
# Indices 1 2 3 4 5 6 
#
# 1 77.6870 2.2600 36.2592 0.0000 0.0000 0.0000
# 2 2.2600 71.3166 6.4631 0.0000 0.0000 0.0000
# 3 36.2592 6.4631 90.8072 0.0000 0.0000 0.0000
# 4 0.0000 0.0000 0.0000 19.7826 0.0000 0.0000
# 5 0.0000 0.0000 0.0000 0.0000 24.9422 0.0000
# 6 0.0000 0.0000 0.0000 0.0000 0.0000 13.5120
#
#
#
# Elastic Compliance Matrix: (Units=1/GPa)
#
#
# Indices 1 2 3 4 5 6 
#
# 1 0.015821 0.000072 -0.006322 0.000000 0.000000 0.000000
# 2 0.000072 0.014113 -0.001033 0.000000 0.000000 0.000000
# 3 -0.006322 -0.001033 0.013610 0.000000 0.000000 0.000000
# 4 0.000000 0.000000 0.000000 0.050550 0.000000 0.000000
# 5 0.000000 0.000000 0.000000 0.000000 0.040093 0.000000
# 6 0.000000 0.000000 0.000000 0.000000 0.000000 0.074008
#
#
# Mechanical properties :
#
#
# Convention : Reuss Voigt Hill
#
# Bulk Modulus (GPa) = 34.51018 36.64171 35.57595
# Shear Modulus (GPa) = 21.51260 24.63593 23.07426
#
# Velocity S-wave (km/s) = 3.68986 3.94865 3.82145
# Velocity P-wave (km/s) = 6.32413 6.63169 6.47973
#
# Compressibility (1/GPa) = 0.02897695
#
# Stress axis : x y z
#
# Youngs Moduli (GPa) = 63.20728 70.85494 73.47321
#
# Poissons Ratio (x) = -0.00507 0.46453
# Poissons Ratio (y) = -0.00453 0.07590
# Poissons Ratio (z) = 0.39962 0.07320
#
# Static dielectric constant tensor:
#      x y z
#    x 2.818710 0.000000 0.000000 
#    y 0.000000 3.218430 0.000000 
#    z 0.000000 0.000000 2.825440 
# 
# 
# High freq. dielectric constant tensor:
#      x y z
#    x 1.578000 0.000000 0.000000 
#    y 0.000000 1.634920 0.000000 
#    z 0.000000 0.000000 1.582480 
# 
# From -- ./inp_files/6302.got.cif
#   From: 2010.03.12/outbox.cif.g09.slc.cpg/sg18_4_cif.got.tgz:6302.got - 2010.04.10 18:53:55.
