data_PCOD8155317
_publ_section_title
;
Structure prediction by ZEFSAII (Michael W. Deem and Ramdas Pophale) SiO2 
 PCOD8155317
Probable space group: P 2 2 2
;
_chemical_formula_sum "Si O2"
_cell_formula_units_Z 16
_cell_length_a 5.068025
_cell_length_b 8.708851
_cell_length_c 15.720978
_cell_angle_alpha 90.000000
_cell_angle_beta 90.000000
_cell_angle_gamma 90.000000
_cell_volume 693.871690
_symmetry_space_group_name_H-M "P 2 2 2"
_symmetry_group_IT_number 16
_symmetry_cell_setting 'orthorhombic'
loop_
_space_group_symop_operation_xyz
x,y,z
-x,-y,z
x,-y,-z
-x,y,-z
loop_
_atom_site_type_symbol
_atom_site_label
_atom_site_fract_x
_atom_site_fract_y
_atom_site_fract_z
Si Si1 0.438587 0.330694 0.099308
Si Si2 0.747517 0.570230 0.594259
Si Si3 0.071220 0.166154 0.835512
Si Si4 0.770285 0.097464 0.351853
O O1 0.500000 0.500000 0.135452
O O2 0.632535 0.207510 0.139871
O O3 0.139445 0.287520 0.126250
O O4 0.500000 0.327532 0.000000
O O5 0.500000 0.500000 0.645346
O O6 0.748820 0.500000 0.500000
O O7 0.719104 0.753853 0.590178
O O8 0.000000 0.500000 0.643176
O O9 0.084233 0.157349 0.733598
O O10 0.000000 0.000000 0.874306
O O11 0.500000 0.000000 0.337952
O O12 0.000000 0.000000 0.398998
#
# Coordination Sequence:
#
# PCOD8155317 Si02
#       4
#     4   4   4   4
#     4  11  24  41  61  90 127 167 212 263 321 383
#     4  10  22  42  64  94 129 165 214 266 319 390
#     4  11  23  40  62  91 124 164 215 264 319 384
#     4  11  23  42  65  93 129 169 214 270 329 386
#
# _framework density 23.05902
#
# number of rings (size 3 to 8) (size 9 to 14) (size 15 to 20)
#    0.000    1.250    0.000    6.750    0.000    8.000 
#    0.000   15.000    0.000    0.000    0.000    0.000 
#    0.000    0.000    0.000    0.000    0.000    0.000 
#
# Total GULP energy -198266.593974 kJ/mol
# GULP energy per Si atom -12391.662123 kJ/mol
# Density = 2.300654 g / cm^3
# Si number density = 23.059020 Si / 1000 Ang^3
#
#
#
# Elastic Constant Matrix: (Units=GPa)
#
#
# Indices 1 2 3 4 5 6 
#
# 1 177.8154 55.7317 14.4195 0.0000 0.0000 0.0000
# 2 55.7317 172.2038 37.1004 0.0000 0.0000 0.0000
# 3 14.4195 37.1004 56.5586 0.0000 0.0000 0.0000
# 4 0.0000 0.0000 0.0000 26.6087 0.0000 0.0000
# 5 0.0000 0.0000 0.0000 0.0000 5.5583 0.0000
# 6 0.0000 0.0000 0.0000 0.0000 0.0000 63.2459
#
#
#
# Elastic Compliance Matrix: (Units=1/GPa)
#
#
# Indices 1 2 3 4 5 6 
#
# 1 0.006263 -0.001960 -0.000311 0.000000 0.000000 0.000000
# 2 -0.001960 0.007376 -0.004339 0.000000 0.000000 0.000000
# 3 -0.000311 -0.004339 0.020606 0.000000 0.000000 0.000000
# 4 0.000000 0.000000 0.000000 0.037582 0.000000 0.000000
# 5 0.000000 0.000000 0.000000 0.000000 0.179912 0.000000
# 6 0.000000 0.000000 0.000000 0.000000 0.000000 0.015811
#
#
# Mechanical properties :
#
#
# Convention : Reuss Voigt Hill
#
# Bulk Modulus (GPa) = 47.56055 69.00901 58.28478
# Shear Modulus (GPa) = 17.37441 39.03766 28.20603
#
# Velocity S-wave (km/s) = 2.74793 4.11901 3.50124
# Velocity P-wave (km/s) = 5.54423 7.25353 6.45570
#
# Compressibility (1/GPa) = 0.02102583
#
# Stress axis : x y z
#
# Youngs Moduli (GPa) = 159.65869 135.57141 48.52906
#
# Poissons Ratio (x) = 0.26572 0.01510
# Poissons Ratio (y) = 0.31294 0.21056
# Poissons Ratio (z) = 0.04967 0.58822
#
# Static dielectric constant tensor:
#      x y z
#    x 2.635780 0.000000 0.000000 
#    y 0.000000 4.613310 0.000000 
#    z 0.000000 0.000000 3.745140 
# 
# 
# High freq. dielectric constant tensor:
#      x y z
#    x 1.940740 0.000000 0.000000 
#    y 0.000000 1.926830 0.000000 
#    z 0.000000 0.000000 1.880080 
# 
# From -- ./inp_files/8471.got.cif
#   From: 2010.03.12/outbox.cif.g09.slc.cpg/sg16_5_cif.got.tgz:8471.got - 2010.03.31 00:51:45.
