data_PCOD8155915
_publ_section_title
;
Structure prediction by ZEFSAII (Michael W. Deem and Ramdas Pophale) SiO2 
 PCOD8155915
Probable space group: P 21 21 2
;
_chemical_formula_sum "Si O2"
_cell_formula_units_Z 32
_cell_length_a 19.307816
_cell_length_b 9.657508
_cell_length_c 9.145382
_cell_angle_alpha 90.000000
_cell_angle_beta 90.000000
_cell_angle_gamma 90.000000
_cell_volume 1705.297198
_symmetry_space_group_name_H-M "P 21 21 2"
_symmetry_group_IT_number 18
_symmetry_cell_setting 'orthorhombic'
loop_
_space_group_symop_operation_xyz
x,y,z
-x,-y,z
1/2+x,1/2-y,-z
1/2-x,1/2+y,-z
loop_
_atom_site_type_symbol
_atom_site_label
_atom_site_fract_x
_atom_site_fract_y
_atom_site_fract_z
Si Si1 0.211454 0.623648 0.364103
Si Si2 0.597564 0.288106 0.885911
Si Si3 0.727204 0.378283 0.050214
Si Si4 0.576541 0.990350 0.762358
Si Si5 0.681307 0.674132 0.112919
Si Si6 0.942075 0.225308 0.079092
Si Si7 0.421258 0.476186 0.665905
Si Si8 0.310142 0.386480 0.447200
O O1 0.131955 0.573199 0.349491
O O2 0.251372 0.502164 0.446439
O O3 0.218026 0.758881 0.461094
O O4 0.246325 0.664805 0.209970
O O5 0.651695 0.313905 0.016612
O O6 0.521480 0.315061 0.952919
O O7 0.610785 0.392986 0.752013
O O8 0.605871 0.135022 0.820921
O O9 0.780750 0.317069 0.931265
O O10 0.724388 0.545521 0.043744
O O11 0.567053 0.890160 0.902797
O O12 0.500000 0.000000 0.686204
O O13 0.673396 0.665300 0.285290
O O14 0.603063 0.669851 0.054261
O O15 0.915753 0.157720 0.230359
O O16 0.500000 0.500000 0.617509
O O17 0.378895 0.450922 0.518381
#
# Coordination Sequence:
#
# PCOD8155915 Si02
#       8
#     4   4   4   4   4   4   4   4
#     4  11  24  42  59  90 122 161 204 247 311 365
#     4  10  21  34  67  94 112 154 209 252 300 355
#     4  11  22  38  62  90 118 151 205 249 298 359
#     4  10  20  39  66  88 117 156 209 253 288 361
#     4  11  23  38  61  88 120 157 196 257 303 355
#     4  10  19  40  63  87 117 155 206 254 297 353
#     4  10  20  39  63  87 116 163 203 241 300 369
#     4  11  25  40  58  89 127 162 195 250 312 370
#
# _framework density 18.765056999999999
#
# number of rings (size 3 to 8) (size 9 to 14) (size 15 to 20)
#    0.000    1.500    3.750    1.500    3.500    0.000 
#    4.500    0.000    0.000    0.000    0.000    0.000 
#    0.000    0.000    0.000    0.000    0.000    0.000 
#
# Total GULP energy -396825.242141 kJ/mol
# GULP energy per Si atom -12400.788817 kJ/mol
# Density = 1.872235 g / cm^3
# Si number density = 18.765057 Si / 1000 Ang^3
#
#
#
# Elastic Constant Matrix: (Units=GPa)
#
#
# Indices 1 2 3 4 5 6 
#
# 1 129.9982 40.9174 72.7330 0.0000 0.0000 0.0000
# 2 40.9174 108.4114 59.7753 0.0000 0.0000 0.0000
# 3 72.7330 59.7753 108.0485 0.0000 0.0000 0.0000
# 4 0.0000 0.0000 0.0000 28.1354 0.0000 0.0000
# 5 0.0000 0.0000 0.0000 0.0000 30.2277 0.0000
# 6 0.0000 0.0000 0.0000 0.0000 0.0000 32.7912
#
#
#
# Elastic Compliance Matrix: (Units=1/GPa)
#
#
# Indices 1 2 3 4 5 6 
#
# 1 0.012341 -0.000111 -0.008246 0.000000 0.000000 0.000000
# 2 -0.000111 0.013274 -0.007268 0.000000 0.000000 0.000000
# 3 -0.008246 -0.007268 0.018827 0.000000 0.000000 0.000000
# 4 0.000000 0.000000 0.000000 0.035542 0.000000 0.000000
# 5 0.000000 0.000000 0.000000 0.000000 0.033082 0.000000
# 6 0.000000 0.000000 0.000000 0.000000 0.000000 0.030496
#
#
# Mechanical properties :
#
#
# Convention : Reuss Voigt Hill
#
# Bulk Modulus (GPa) = 75.81213 77.03439 76.42326
# Shear Modulus (GPa) = 27.90025 29.76635 28.83330
#
# Velocity S-wave (km/s) = 3.86011 3.98711 3.92413
# Velocity P-wave (km/s) = 7.76889 7.89540 7.83240
#
# Compressibility (1/GPa) = 0.01319050
#
# Stress axis : x y z
#
# Youngs Moduli (GPa) = 81.03181 75.33636 53.11578
#
# Poissons Ratio (x) = 0.00839 0.43797
# Poissons Ratio (y) = 0.00902 0.38607
# Poissons Ratio (z) = 0.66816 0.54758
#
# Static dielectric constant tensor:
#      x y z
#    x 3.636330 0.000000 0.000000 
#    y 0.000000 3.676300 0.000000 
#    z 0.000000 0.000000 3.170880 
# 
# 
# High freq. dielectric constant tensor:
#      x y z
#    x 1.742430 0.000000 0.000000 
#    y 0.000000 1.749160 0.000000 
#    z 0.000000 0.000000 1.695160 
# 
# From -- ./inp_files/4685.got.cif
#   From: 2010.03.12/outbox.cif.g09.slc.cpg/sg18_3_cif.got.tgz:4685.got - 2010.04.10 18:53:55.
