data_PCOD8155693
_publ_section_title
;
Structure prediction by ZEFSAII (Michael W. Deem and Ramdas Pophale) SiO2 
 PCOD8155693
Probable space group: P 2 2 21
;
_chemical_formula_sum "Si O2"
_cell_formula_units_Z 12
_cell_length_a 6.117971
_cell_length_b 15.685945
_cell_length_c 5.015095
_cell_angle_alpha 90.000000
_cell_angle_beta 90.000000
_cell_angle_gamma 90.000000
_cell_volume 481.279392
_symmetry_space_group_name_H-M "P 2 2 21"
_symmetry_group_IT_number 17
_symmetry_cell_setting 'orthorhombic'
loop_
_space_group_symop_operation_xyz
x,y,z
-x,-y,1/2+z
x,-y,-z
-x,y,1/2-z
loop_
_atom_site_type_symbol
_atom_site_label
_atom_site_fract_x
_atom_site_fract_y
_atom_site_fract_z
Si Si1 0.144979 0.326006 0.008560
Si Si2 0.852006 0.098589 0.997716
Si Si3 0.640622 0.500000 0.500000
Si Si4 0.500000 0.789040 0.250000
O O1 0.000000 0.286642 0.250000
O O2 0.217368 0.420217 0.099368
O O3 0.352483 0.267406 0.946159
O O4 0.000000 0.333708 0.750000
O O5 0.632782 0.153443 0.963292
O O6 0.000000 0.123104 0.750000
O O7 0.000000 0.122828 0.250000
O O8 0.781678 0.000000 0.000000
O O9 0.500000 0.467464 0.750000
#
# Coordination Sequence:
#
# PCOD8155693 Si02
#       4
#     4   4   2   2
#     4  12  28  49  76 112 155 202 251 316 376 450
#     4  10  25  50  78 110 151 200 256 315 382 457
#     4  12  24  50  80 108 148 208 254 302 382 450
#     4  12  28  50  78 116 154 202 256 316 388 446
#
# _framework density 24.933544999999999
#
# number of rings (size 3 to 8) (size 9 to 14) (size 15 to 20)
#    0.000    0.667    1.667    4.000    0.000   13.333 
#    0.000    3.333    0.000    0.000    0.000    0.000 
#    0.000    0.000    0.000    0.000    0.000    0.000 
#
# Total GULP energy -148869.998689 kJ/mol
# GULP energy per Si atom -12405.833224 kJ/mol
# Density = 2.487680 g / cm^3
# Si number density = 24.933545 Si / 1000 Ang^3
#
#
#
# Elastic Constant Matrix: (Units=GPa)
#
#
# Indices 1 2 3 4 5 6 
#
# 1 169.6665 94.9344 76.7116 0.0000 0.0000 0.0000
# 2 94.9344 158.7848 36.6795 0.0000 0.0000 0.0000
# 3 76.7116 36.6795 183.1707 0.0000 0.0000 0.0000
# 4 0.0000 0.0000 0.0000 43.1861 0.0000 0.0000
# 5 0.0000 0.0000 0.0000 0.0000 58.6134 0.0000
# 6 0.0000 0.0000 0.0000 0.0000 0.0000 34.4384
#
#
#
# Elastic Compliance Matrix: (Units=1/GPa)
#
#
# Indices 1 2 3 4 5 6 
#
# 1 0.010446 -0.005489 -0.003276 0.000000 0.000000 0.000000
# 2 -0.005489 0.009487 0.000399 0.000000 0.000000 0.000000
# 3 -0.003276 0.000399 0.006751 0.000000 0.000000 0.000000
# 4 0.000000 0.000000 0.000000 0.023156 0.000000 0.000000
# 5 0.000000 0.000000 0.000000 0.000000 0.017061 0.000000
# 6 0.000000 0.000000 0.000000 0.000000 0.000000 0.029037
#
#
# Mechanical properties :
#
#
# Convention : Reuss Voigt Hill
#
# Bulk Modulus (GPa) = 100.46647 103.14146 101.80397
# Shear Modulus (GPa) = 43.10790 47.46737 45.28763
#
# Velocity S-wave (km/s) = 4.16253 4.36794 4.26647
# Velocity P-wave (km/s) = 7.96765 8.17893 8.07398
#
# Compressibility (1/GPa) = 0.00995357
#
# Stress axis : x y z
#
# Youngs Moduli (GPa) = 95.72867 105.40319 148.11810
#
# Poissons Ratio (x) = 0.57855 0.48519
# Poissons Ratio (y) = 0.52544 -0.05909
# Poissons Ratio (z) = 0.31358 -0.04205
#
# Static dielectric constant tensor:
#      x y z
#    x 4.599450 0.000000 0.000000 
#    y 0.000000 4.855090 0.000000 
#    z 0.000000 0.000000 4.311150 
# 
# 
# High freq. dielectric constant tensor:
#      x y z
#    x 2.000690 0.000000 0.000000 
#    y 0.000000 2.018310 0.000000 
#    z 0.000000 0.000000 2.001690 
# 
# From -- ./inp_files/163.got.cif
#   From: 2010.03.12/outbox.cif.g09.slc.cpg/sg17_1_cif.got.tgz:163.got - 2010.04.10 18:46:23.
