data_PCOD8155912
_publ_section_title
;
Structure prediction by ZEFSAII (Michael W. Deem and Ramdas Pophale) SiO2 
 PCOD8155912
Probable space group: P 21 21 2
;
_chemical_formula_sum "Si O2"
_cell_formula_units_Z 30
_cell_length_a 16.162375
_cell_length_b 8.119296
_cell_length_c 11.609561
_cell_angle_alpha 90.000000
_cell_angle_beta 90.000000
_cell_angle_gamma 90.000000
_cell_volume 1523.489100
_symmetry_space_group_name_H-M "P 21 21 2"
_symmetry_group_IT_number 18
_symmetry_cell_setting 'orthorhombic'
loop_
_space_group_symop_operation_xyz
x,y,z
-x,-y,z
1/2+x,1/2-y,-z
1/2-x,1/2+y,-z
loop_
_atom_site_type_symbol
_atom_site_label
_atom_site_fract_x
_atom_site_fract_y
_atom_site_fract_z
Si Si1 0.903912 0.453598 0.548774
Si Si2 0.191473 0.546851 0.317072
Si Si3 0.545676 0.161135 0.117193
Si Si4 0.227805 0.644186 0.883366
Si Si5 0.148334 0.425585 0.076352
Si Si6 0.701601 0.137486 0.271323
Si Si7 0.352099 0.345463 0.302067
Si Si8 0.000000 0.000000 0.794580
O O1 0.875733 0.449981 0.416974
O O2 0.846896 0.586182 0.613493
O O3 0.890282 0.273718 0.602285
O O4 0.000000 0.500000 0.556984
O O5 0.139501 0.498544 0.203668
O O6 0.233577 0.722847 0.301678
O O7 0.263791 0.414751 0.343587
O O8 0.634636 0.188440 0.175553
O O9 0.496865 0.332429 0.130083
O O10 0.500000 0.000000 0.173930
O O11 0.560123 0.118999 0.981960
O O12 0.304278 0.752963 0.921303
O O13 0.254766 0.511017 0.785848
O O14 0.157378 0.755450 0.821848
O O15 0.193264 0.563040 0.999032
O O16 0.417632 0.494755 0.284778
#
# Coordination Sequence:
#
# PCOD8155912 Si02
#       8
#     4   4   4   4   4   4   4   2
#     4  11  23  39  61  89 120 159 203 261 318 375
#     4  11  22  39  62  88 122 166 202 247 312 385
#     4  11  22  37  59  95 127 162 205 257 315 366
#     4   9  19  33  59  86 118 149 201 252 302 363
#     4  10  20  35  55  86 121 155 196 240 306 375
#     4  10  19  39  61  87 116 154 209 264 305 354
#     4  10  22  38  60  94 115 158 210 259 309 364
#     4  12  20  36  64  92 128 152 210 266 320 350
#
# _framework density 19.69164
#
# number of rings (size 3 to 8) (size 9 to 14) (size 15 to 20)
#    0.000    1.600    1.333    6.000    1.867    0.533 
#    2.400    0.000    0.000    0.000    0.000    0.000 
#    0.000    0.000    0.000    0.000    0.000    0.000 
#
# Total GULP energy -371867.397132 kJ/mol
# GULP energy per Si atom -12395.579904 kJ/mol
# Density = 1.964682 g / cm^3
# Si number density = 19.691640 Si / 1000 Ang^3
#
#
#
# Elastic Constant Matrix: (Units=GPa)
#
#
# Indices 1 2 3 4 5 6 
#
# 1 47.0843 28.0491 33.0208 0.0000 0.0000 0.0000
# 2 28.0491 114.0836 30.5279 0.0000 0.0000 0.0000
# 3 33.0208 30.5279 111.7816 0.0000 0.0000 0.0000
# 4 0.0000 0.0000 0.0000 21.0192 0.0000 0.0000
# 5 0.0000 0.0000 0.0000 0.0000 27.7665 0.0000
# 6 0.0000 0.0000 0.0000 0.0000 0.0000 29.3333
#
#
#
# Elastic Compliance Matrix: (Units=1/GPa)
#
#
# Indices 1 2 3 4 5 6 
#
# 1 0.029494 -0.005308 -0.007263 0.000000 0.000000 0.000000
# 2 -0.005308 0.010412 -0.001275 0.000000 0.000000 0.000000
# 3 -0.007263 -0.001275 0.011440 0.000000 0.000000 0.000000
# 4 0.000000 0.000000 0.000000 0.047576 0.000000 0.000000
# 5 0.000000 0.000000 0.000000 0.000000 0.036015 0.000000
# 6 0.000000 0.000000 0.000000 0.000000 0.000000 0.034091
#
#
# Mechanical properties :
#
#
# Convention : Reuss Voigt Hill
#
# Bulk Modulus (GPa) = 42.27828 50.68278 46.48053
# Shear Modulus (GPa) = 24.43735 27.71393 26.07564
#
# Velocity S-wave (km/s) = 3.52661 3.75560 3.64290
# Velocity P-wave (km/s) = 6.17247 6.67833 6.43038
#
# Compressibility (1/GPa) = 0.02365281
#
# Stress axis : x y z
#
# Youngs Moduli (GPa) = 33.90480 96.04415 87.41327
#
# Poissons Ratio (x) = 0.50981 0.63489
# Poissons Ratio (y) = 0.17997 0.11149
# Poissons Ratio (z) = 0.24625 0.12250
#
# Static dielectric constant tensor:
#      x y z
#    x 3.455590 0.000000 0.000000 
#    y 0.000000 3.792510 0.000000 
#    z 0.000000 0.000000 3.612970 
# 
# 
# High freq. dielectric constant tensor:
#      x y z
#    x 1.751180 0.000000 0.000000 
#    y 0.000000 1.780870 0.000000 
#    z 0.000000 0.000000 1.757920 
# 
# From -- ./inp_files/6098.got.cif
#   From: 2010.03.12/outbox.cif.g09.slc.cpg/sg18_4_cif.got.tgz:6098.got - 2010.04.10 18:53:55.
