data_PCOD8155335
_publ_section_title
;
Structure prediction by ZEFSAII (Michael W. Deem and Ramdas Pophale) SiO2 
 PCOD8155335
Probable space group: P 2 2 2
;
_chemical_formula_sum "Si O2"
_cell_formula_units_Z 12
_cell_length_a 5.230566
_cell_length_b 5.204238
_cell_length_c 17.385302
_cell_angle_alpha 90.000000
_cell_angle_beta 90.000000
_cell_angle_gamma 90.000000
_cell_volume 473.247224
_symmetry_space_group_name_H-M "P 2 2 2"
_symmetry_group_IT_number 16
_symmetry_cell_setting 'orthorhombic'
loop_
_space_group_symop_operation_xyz
x,y,z
-x,-y,z
x,-y,-z
-x,y,-z
loop_
_atom_site_type_symbol
_atom_site_label
_atom_site_fract_x
_atom_site_fract_y
_atom_site_fract_z
Si Si1 0.669726 0.255568 0.372142
Si Si2 0.000000 0.500000 0.500000
Si Si3 0.759021 0.648688 0.146199
Si Si4 0.000000 0.000000 0.748133
Si Si5 0.000000 0.500000 0.000000
O O1 0.500000 0.500000 0.347546
O O2 0.818872 0.313943 0.450716
O O3 0.500000 0.000000 0.383450
O O4 0.879675 0.219002 0.305710
O O5 0.500000 0.500000 0.160638
O O6 0.765918 0.911622 0.194963
O O7 0.000000 0.500000 0.183259
O O8 0.818230 0.679852 0.054182
#
# Coordination Sequence:
#
# PCOD8155335 Si02
#       5
#     4   1   4   2   1
#     4  12  31  51  82 114 159 210 270 337 411 491
#     4  12  30  56  76 120 152 216 266 342 406 496
#     4  10  25  46  77 113 160 209 268 331 402 481
#     4  12  30  46  80 116 158 208 270 332 414 482
#     4   8  22  44  78 108 164 210 270 334 402 480
#
# _framework density 25.356725000000001
#
# number of rings (size 3 to 8) (size 9 to 14) (size 15 to 20)
#    1.000    0.000    0.000    3.000   11.667   10.667 
#    0.000    0.000    7.333    0.000    0.000    0.000 
#    0.000    0.000    0.000    0.000    0.000    0.000 
#
# Total GULP energy -148693.449675 kJ/mol
# GULP energy per Si atom -12391.120806 kJ/mol
# Density = 2.529901 g / cm^3
# Si number density = 25.356725 Si / 1000 Ang^3
#
#
#
# Elastic Constant Matrix: (Units=GPa)
#
#
# Indices 1 2 3 4 5 6 
#
# 1 179.6739 72.8485 73.7460 0.0000 0.0000 0.0000
# 2 72.8485 142.1921 77.7928 0.0000 0.0000 0.0000
# 3 73.7460 77.7928 204.0300 0.0000 0.0000 0.0000
# 4 0.0000 0.0000 0.0000 79.7220 0.0000 0.0000
# 5 0.0000 0.0000 0.0000 0.0000 16.9097 0.0000
# 6 0.0000 0.0000 0.0000 0.0000 0.0000 44.7581
#
#
#
# Elastic Compliance Matrix: (Units=1/GPa)
#
#
# Indices 1 2 3 4 5 6 
#
# 1 0.007394 -0.002939 -0.001552 0.000000 0.000000 0.000000
# 2 -0.002939 0.010055 -0.002771 0.000000 0.000000 0.000000
# 3 -0.001552 -0.002771 0.006519 0.000000 0.000000 0.000000
# 4 0.000000 0.000000 0.000000 0.012544 0.000000 0.000000
# 5 0.000000 0.000000 0.000000 0.000000 0.059138 0.000000
# 6 0.000000 0.000000 0.000000 0.000000 0.000000 0.022342
#
#
# Mechanical properties :
#
#
# Convention : Reuss Voigt Hill
#
# Bulk Modulus (GPa) = 105.89971 108.29673 107.09822
# Shear Modulus (GPa) = 36.85572 48.37855 42.61713
#
# Velocity S-wave (km/s) = 3.81660 4.37271 4.10409
# Velocity P-wave (km/s) = 7.82793 8.26415 8.04900
#
# Compressibility (1/GPa) = 0.00944290
#
# Stress axis : x y z
#
# Youngs Moduli (GPa) = 135.23849 99.45546 153.40117
#
# Poissons Ratio (x) = 0.29232 0.23808
# Poissons Ratio (y) = 0.39750 0.42512
# Poissons Ratio (z) = 0.20989 0.27562
#
# Static dielectric constant tensor:
#      x y z
#    x 4.692050 0.000000 0.000000 
#    y 0.000000 4.471080 0.000000 
#    z 0.000000 0.000000 4.689110 
# 
# 
# High freq. dielectric constant tensor:
#      x y z
#    x 2.021430 0.000000 0.000000 
#    y 0.000000 1.992130 0.000000 
#    z 0.000000 0.000000 2.032900 
# 
# From -- ./inp_files/8416.got.cif
#   From: 2010.03.12/outbox.cif.g09.slc.cpg/sg16_5_cif.got.tgz:8416.got - 2010.03.31 00:51:45.
