data_PCOD8155342
_publ_section_title
;
Structure prediction by ZEFSAII (Michael W. Deem and Ramdas Pophale) SiO2 
 PCOD8155342
Probable space group: P 2 2 2
;
_chemical_formula_sum "Si O2"
_cell_formula_units_Z 32
_cell_length_a 8.637548
_cell_length_b 11.900088
_cell_length_c 15.504212
_cell_angle_alpha 90.000000
_cell_angle_beta 90.000000
_cell_angle_gamma 90.000000
_cell_volume 1593.640452
_symmetry_space_group_name_H-M "P 2 2 2"
_symmetry_group_IT_number 16
_symmetry_cell_setting 'orthorhombic'
loop_
_space_group_symop_operation_xyz
x,y,z
-x,-y,z
x,-y,-z
-x,y,-z
loop_
_atom_site_type_symbol
_atom_site_label
_atom_site_fract_x
_atom_site_fract_y
_atom_site_fract_z
Si Si1 0.183607 0.260539 0.839417
Si Si2 0.320785 0.132547 0.000000
Si Si3 0.183587 0.500000 0.096152
Si Si4 0.316782 0.729177 0.339688
Si Si5 0.183269 0.500000 0.598086
Si Si6 0.816393 0.739461 0.160583
Si Si7 0.315959 0.125588 0.500000
Si Si8 0.316781 0.729177 0.660312
O O1 0.241017 0.388393 0.855276
O O2 0.260479 0.218569 0.750663
O O3 0.000000 0.253174 0.832525
O O4 0.239231 0.180772 0.915578
O O5 0.239231 0.180772 0.084422
O O6 0.500000 0.167044 0.000000
O O7 0.297817 0.000000 0.000000
O O8 0.241017 0.388393 0.144724
O O9 0.000000 0.500000 0.090165
O O10 0.254399 0.500000 0.000000
O O11 0.243756 0.607261 0.351235
O O12 0.255074 0.810226 0.415350
O O13 0.500000 0.719255 0.341852
O O14 0.246474 0.500000 0.500000
O O15 0.243757 0.607261 0.648765
O O16 0.000000 0.500000 0.600490
O O17 0.739522 0.781431 0.249337
O O18 0.500000 0.121612 0.500000
O O19 0.255074 0.189774 0.415350
O O20 0.246737 0.000000 0.500000
#
# Coordination Sequence:
#
# PCOD8155342 Si02
#       8
#     4   4   4   4   4   4   4   4
#     4  11  22  39  64  92 124 159 198 247 309 373
#     4  11  25  44  63  86 120 163 212 261 303 351
#     4   9  17  34  59  86 116 152 188 231 290 359
#     4  11  22  38  62  91 123 159 203 251 304 370
#     4  11  22  37  60  89 125 163 202 253 312 364
#     4  11  22  39  64  92 124 159 198 247 309 373
#     4   9  20  39  61  84 114 157 204 249 300 357
#     4  11  22  38  62  91 123 159 203 251 304 370
#
# _framework density 20.079812
#
# number of rings (size 3 to 8) (size 9 to 14) (size 15 to 20)
#    0.000    1.500    2.500    3.000    0.000    3.500 
#    0.000    5.000    0.000    5.250    0.000    0.000 
#    0.000    0.000    0.000    0.000    0.000    0.000 
#
# Total GULP energy -396931.584568 kJ/mol
# GULP energy per Si atom -12404.112018 kJ/mol
# Density = 2.003411 g / cm^3
# Si number density = 20.079812 Si / 1000 Ang^3
#
#
#
# Elastic Constant Matrix: (Units=GPa)
#
#
# Indices 1 2 3 4 5 6 
#
# 1 64.5775 26.9370 33.7091 0.0000 0.0000 0.0000
# 2 26.9370 119.7020 55.8282 0.0000 0.0000 0.0000
# 3 33.7091 55.8282 180.9686 0.0000 0.0000 0.0000
# 4 0.0000 0.0000 0.0000 9.1488 0.0000 0.0000
# 5 0.0000 0.0000 0.0000 0.0000 35.3377 0.0000
# 6 0.0000 0.0000 0.0000 0.0000 0.0000 19.5185
#
#
#
# Elastic Compliance Matrix: (Units=1/GPa)
#
#
# Indices 1 2 3 4 5 6 
#
# 1 0.017976 -0.002901 -0.002453 0.000000 0.000000 0.000000
# 2 -0.002901 0.010226 -0.002614 0.000000 0.000000 0.000000
# 3 -0.002453 -0.002614 0.006789 0.000000 0.000000 0.000000
# 4 0.000000 0.000000 0.000000 0.109304 0.000000 0.000000
# 5 0.000000 0.000000 0.000000 0.000000 0.028298 0.000000
# 6 0.000000 0.000000 0.000000 0.000000 0.000000 0.051233
#
#
# Mechanical properties :
#
#
# Convention : Reuss Voigt Hill
#
# Bulk Modulus (GPa) = 52.48240 66.46630 59.47435
# Shear Modulus (GPa) = 20.31561 29.38592 24.85077
#
# Velocity S-wave (km/s) = 3.18424 3.82966 3.52177
# Velocity P-wave (km/s) = 6.30181 7.26141 6.79856
#
# Compressibility (1/GPa) = 0.01905401
#
# Stress axis : x y z
#
# Youngs Moduli (GPa) = 55.62967 97.78781 147.28910
#
# Poissons Ratio (x) = 0.28367 0.36137
# Poissons Ratio (y) = 0.16138 0.38507
# Poissons Ratio (z) = 0.13649 0.25566
#
# Static dielectric constant tensor:
#      x y z
#    x 3.466680 0.000000 0.000000 
#    y 0.000000 3.731750 0.000000 
#    z 0.000000 0.000000 3.640620 
# 
# 
# High freq. dielectric constant tensor:
#      x y z
#    x 1.770160 0.000000 0.000000 
#    y 0.000000 1.780980 0.000000 
#    z 0.000000 0.000000 1.804510 
# 
# From -- ./inp_files/7995.got.cif
#   From: 2010.03.12/outbox.cif.g09.slc.cpg/sg16_4_cif.got.tgz:7995.got - 2010.03.31 00:51:45.
