data_PCOD8155898
_publ_section_title
;
Structure prediction by ZEFSAII (Michael W. Deem and Ramdas Pophale) SiO2 
 PCOD8155898
Probable space group: P 21 21 2
;
_chemical_formula_sum "Si O2"
_cell_formula_units_Z 30
_cell_length_a 5.095164
_cell_length_b 15.641566
_cell_length_c 18.366762
_cell_angle_alpha 90.000000
_cell_angle_beta 90.000000
_cell_angle_gamma 90.000000
_cell_volume 1463.763782
_symmetry_space_group_name_H-M "P 21 21 2"
_symmetry_group_IT_number 18
_symmetry_cell_setting 'orthorhombic'
loop_
_space_group_symop_operation_xyz
x,y,z
-x,-y,z
1/2+x,1/2-y,-z
1/2-x,1/2+y,-z
loop_
_atom_site_type_symbol
_atom_site_label
_atom_site_fract_x
_atom_site_fract_y
_atom_site_fract_z
Si Si1 0.741052 0.448502 0.749151
Si Si2 0.295919 0.672853 0.347732
Si Si3 0.696603 0.803288 0.497174
Si Si4 0.704042 0.287283 0.657995
Si Si5 0.291839 0.173634 0.925629
Si Si6 0.293179 0.357975 0.981113
Si Si7 0.251095 0.558449 0.211156
Si Si8 0.000000 0.000000 0.112838
O O1 0.500000 0.500000 0.711404
O O2 0.759768 0.351554 0.723165
O O3 0.689582 0.441918 0.836169
O O4 0.000000 0.500000 0.729337
O O5 0.255589 0.638316 0.431411
O O6 0.586560 0.710660 0.338336
O O7 0.264606 0.593811 0.293260
O O8 0.083927 0.747235 0.332659
O O9 0.388759 0.779577 0.495839
O O10 0.770325 0.841811 0.417910
O O11 0.052674 0.138492 0.971429
O O12 0.269842 0.139241 0.843379
O O13 0.551759 0.138304 0.963913
O O14 0.286154 0.276693 0.926674
O O15 0.299418 0.442783 0.933089
O O16 0.500000 0.500000 0.192733
O O17 0.000000 0.500000 0.201610
#
# Coordination Sequence:
#
# PCOD8155898 Si02
#       8
#     4   4   4   4   4   4   4   2
#     4  10  23  37  52  91 125 156 190 235 297 377
#     4  10  21  38  62  87 116 161 208 257 300 356
#     4   8  16  32  57  87 113 153 207 249 295 355
#     4  10  19  37  63  87 122 161 204 249 298 369
#     4  10  24  43  62  88 115 155 206 243 301 368
#     4  10  23  42  65  89 115 152 200 249 299 372
#     4  12  26  42  61  89 125 162 207 264 317 367
#     4  10  26  38  66  88 126 150 192 246 308 362
#
# _framework density 20.49511
#
# number of rings (size 3 to 8) (size 9 to 14) (size 15 to 20)
#    0.400    1.600    0.000    2.400    6.533    0.000 
#    2.400    1.333    0.000    0.000    0.000    0.000 
#    0.000    0.000    0.000    0.000    0.000    0.000 
#
# Total GULP energy -371844.466651 kJ/mol
# GULP energy per Si atom -12394.815555 kJ/mol
# Density = 2.044846 g / cm^3
# Si number density = 20.495110 Si / 1000 Ang^3
#
#
#
# Elastic Constant Matrix: (Units=GPa)
#
#
# Indices 1 2 3 4 5 6 
#
# 1 130.7287 16.7750 24.1439 0.0000 0.0000 0.0000
# 2 16.7750 60.7742 45.4311 0.0000 0.0000 0.0000
# 3 24.1439 45.4311 116.5659 0.0000 0.0000 0.0000
# 4 0.0000 0.0000 0.0000 36.0951 0.0000 0.0000
# 5 0.0000 0.0000 0.0000 0.0000 18.1366 0.0000
# 6 0.0000 0.0000 0.0000 0.0000 0.0000 29.5641
#
#
#
# Elastic Compliance Matrix: (Units=1/GPa)
#
#
# Indices 1 2 3 4 5 6 
#
# 1 0.008034 -0.001374 -0.001129 0.000000 0.000000 0.000000
# 2 -0.001374 0.023454 -0.008857 0.000000 0.000000 0.000000
# 3 -0.001129 -0.008857 0.012264 0.000000 0.000000 0.000000
# 4 0.000000 0.000000 0.000000 0.027705 0.000000 0.000000
# 5 0.000000 0.000000 0.000000 0.000000 0.055137 0.000000
# 6 0.000000 0.000000 0.000000 0.000000 0.000000 0.033825
#
#
# Mechanical properties :
#
#
# Convention : Reuss Voigt Hill
#
# Bulk Modulus (GPa) = 47.54084 53.41874 50.47979
# Shear Modulus (GPa) = 26.29513 31.54040 28.91777
#
# Velocity S-wave (km/s) = 3.58578 3.92717 3.76035
# Velocity P-wave (km/s) = 6.35534 6.83259 6.59828
#
# Compressibility (1/GPa) = 0.02103455
#
# Stress axis : x y z
#
# Youngs Moduli (GPa) = 124.46830 42.63617 81.53660
#
# Poissons Ratio (x) = 0.05858 0.09202
# Poissons Ratio (y) = 0.17101 0.72214
# Poissons Ratio (z) = 0.14048 0.37761
#
# Static dielectric constant tensor:
#      x y z
#    x 3.833550 0.000000 0.000000 
#    y 0.000000 3.403470 0.000000 
#    z 0.000000 0.000000 3.893520 
# 
# 
# High freq. dielectric constant tensor:
#      x y z
#    x 1.824400 0.000000 0.000000 
#    y 0.000000 1.761030 0.000000 
#    z 0.000000 0.000000 1.809720 
# 
# From -- ./inp_files/7194.got.cif
#   From: 2010.03.12/outbox.cif.g09.slc.cpg/sg18_4_cif.got.tgz:7194.got - 2010.04.10 18:53:55.
