data_PCOD8155715
_publ_section_title
;
Structure prediction by ZEFSAII (Michael W. Deem and Ramdas Pophale) SiO2 
 PCOD8155715
Probable space group: P 2 2 21
;
_chemical_formula_sum "Si O2"
_cell_formula_units_Z 16
_cell_length_a 8.875533
_cell_length_b 10.683739
_cell_length_c 7.591688
_cell_angle_alpha 90.000000
_cell_angle_beta 90.000000
_cell_angle_gamma 90.000000
_cell_volume 719.873297
_symmetry_space_group_name_H-M "P 2 2 21"
_symmetry_group_IT_number 17
_symmetry_cell_setting 'orthorhombic'
loop_
_space_group_symop_operation_xyz
x,y,z
-x,-y,1/2+z
x,-y,-z
-x,y,1/2-z
loop_
_atom_site_type_symbol
_atom_site_label
_atom_site_fract_x
_atom_site_fract_y
_atom_site_fract_z
Si Si1 0.189053 0.244242 0.861871
Si Si2 0.666680 0.481532 0.792629
Si Si3 0.117675 0.858528 0.482229
Si Si4 0.668911 0.236190 0.289239
O O1 0.215271 0.385917 0.793909
O O2 0.217784 0.152537 0.695141
O O3 0.021817 0.235368 0.947621
O O4 0.300841 0.193375 0.011557
O O5 0.500000 0.428606 0.750000
O O6 0.687723 0.614779 0.701703
O O7 0.693121 0.500000 0.000000
O O8 0.212420 0.821502 0.653062
O O9 0.058450 0.000000 0.500000
O O10 0.500000 0.192625 0.250000
#
# Coordination Sequence:
#
# PCOD8155715 Si02
#       4
#     4   4   4   4
#     4  11  25  44  75  99 138 191 230 291 356 421
#     4  11  21  43  72 107 149 181 229 295 362 424
#     4  11  27  49  68 101 142 191 241 291 351 416
#     4  11  24  46  74 108 142 182 231 294 360 424
#
# _framework density 22.226134999999999
#
# number of rings (size 3 to 8) (size 9 to 14) (size 15 to 20)
#    0.000    1.000    2.500    4.500    7.000    0.000 
#   22.500    0.000    0.000    0.000    0.000    0.000 
#    0.000    0.000    0.000    0.000    0.000    0.000 
#
# Total GULP energy -198369.561181 kJ/mol
# GULP energy per Si atom -12398.097574 kJ/mol
# Density = 2.217555 g / cm^3
# Si number density = 22.226135 Si / 1000 Ang^3
#
#
#
# Elastic Constant Matrix: (Units=GPa)
#
#
# Indices 1 2 3 4 5 6 
#
# 1 103.4896 61.9969 48.6429 0.0000 0.0000 0.0000
# 2 61.9969 87.9017 25.2027 0.0000 0.0000 0.0000
# 3 48.6429 25.2027 180.2395 0.0000 0.0000 0.0000
# 4 0.0000 0.0000 0.0000 21.4307 0.0000 0.0000
# 5 0.0000 0.0000 0.0000 0.0000 43.6573 0.0000
# 6 0.0000 0.0000 0.0000 0.0000 0.0000 13.6460
#
#
#
# Elastic Compliance Matrix: (Units=1/GPa)
#
#
# Indices 1 2 3 4 5 6 
#
# 1 0.018431 -0.012057 -0.003288 0.000000 0.000000 0.000000
# 2 -0.012057 0.019738 0.000494 0.000000 0.000000 0.000000
# 3 -0.003288 0.000494 0.006367 0.000000 0.000000 0.000000
# 4 0.000000 0.000000 0.000000 0.046662 0.000000 0.000000
# 5 0.000000 0.000000 0.000000 0.000000 0.022906 0.000000
# 6 0.000000 0.000000 0.000000 0.000000 0.000000 0.073281
#
#
# Mechanical properties :
#
#
# Convention : Reuss Voigt Hill
#
# Bulk Modulus (GPa) = 67.41372 71.47954 69.44663
# Shear Modulus (GPa) = 22.51932 31.46602 26.99267
#
# Velocity S-wave (km/s) = 3.18652 3.76669 3.48869
# Velocity P-wave (km/s) = 6.62836 7.15173 6.89501
#
# Compressibility (1/GPa) = 0.01483378
#
# Stress axis : x y z
#
# Youngs Moduli (GPa) = 54.25626 50.66310 157.07066
#
# Poissons Ratio (x) = 0.61082 0.51649
# Poissons Ratio (y) = 0.65414 -0.07757
# Poissons Ratio (z) = 0.17841 -0.02502
#
# Static dielectric constant tensor:
#      x y z
#    x 3.990880 0.000000 0.000000 
#    y 0.000000 3.905730 0.000000 
#    z 0.000000 0.000000 4.504500 
# 
# 
# High freq. dielectric constant tensor:
#      x y z
#    x 1.864240 0.000000 0.000000 
#    y 0.000000 1.857170 0.000000 
#    z 0.000000 0.000000 1.909080 
# 
# From -- ./inp_files/3894.got.cif
#   From: 2010.03.12/outbox.cif.g09.slc.cpg/sg17_2_cif.got.tgz:3894.got - 2010.04.10 18:46:23.
