data_PCOD8155677
_publ_section_title
;
Structure prediction by ZEFSAII (Michael W. Deem and Ramdas Pophale) SiO2 
 PCOD8155677
Probable space group: P 2 2 21
;
_chemical_formula_sum "Si O2"
_cell_formula_units_Z 24
_cell_length_a 12.797740
_cell_length_b 6.624465
_cell_length_c 13.584196
_cell_angle_alpha 90.000000
_cell_angle_beta 90.000000
_cell_angle_gamma 90.000000
_cell_volume 1151.643423
_symmetry_space_group_name_H-M "P 2 2 21"
_symmetry_group_IT_number 17
_symmetry_cell_setting 'orthorhombic'
loop_
_space_group_symop_operation_xyz
x,y,z
-x,-y,1/2+z
x,-y,-z
-x,y,1/2-z
loop_
_atom_site_type_symbol
_atom_site_label
_atom_site_fract_x
_atom_site_fract_y
_atom_site_fract_z
Si Si1 0.953024 0.417572 0.599293
Si Si2 0.410672 0.803224 0.930380
Si Si3 0.335593 0.858389 0.403994
Si Si4 0.000000 0.261084 0.250000
Si Si5 0.417765 0.500000 0.500000
Si Si6 0.898547 0.944862 0.113961
Si Si7 0.757192 0.500000 0.500000
Si Si8 0.500000 0.014485 0.250000
O O1 0.010939 0.500000 0.500000
O O2 0.936285 0.595609 0.677208
O O3 0.832308 0.363885 0.571168
O O4 0.019480 0.231762 0.641922
O O5 0.513995 0.675155 0.951515
O O6 0.310814 0.660957 0.940831
O O7 0.418539 0.858903 0.815606
O O8 0.403357 0.000000 0.000000
O O9 0.341742 0.619297 0.426289
O O10 0.220116 0.887046 0.360782
O O11 0.426998 0.888550 0.323989
O O12 0.353791 0.000000 0.500000
O O13 0.079575 0.130880 0.314629
O O14 0.913895 0.000000 0.000000
#
# Coordination Sequence:
#
# PCOD8155677 Si02
#       8
#     4   4   4   2   2   4   2   2
#     4  10  23  46  66 106 140 177 233 294 342 427
#     4  11  23  44  65  99 139 177 228 280 348 415
#     4  11  25  43  69 101 135 186 232 288 346 411
#     4  12  24  44  72 100 146 184 234 288 354 432
#     4  11  20  45  62  92 140 175 216 287 334 398
#     4  11  24  45  73 100 142 191 232 290 359 413
#     4   9  24  43  74  94 140 189 218 291 356 398
#     4  12  22  46  66 100 138 168 238 284 332 416
#
# _framework density 20.839782
#
# number of rings (size 3 to 8) (size 9 to 14) (size 15 to 20)
#    0.500    0.667    5.000    0.500    3.500    2.667 
#    3.000    0.000    0.000    0.000    0.000    0.000 
#    0.000    0.000    0.000    0.000    0.000    0.000 
#
# Total GULP energy -297386.173772 kJ/mol
# GULP energy per Si atom -12391.090574 kJ/mol
# Density = 2.079235 g / cm^3
# Si number density = 20.839782 Si / 1000 Ang^3
#
#
#
# Elastic Constant Matrix: (Units=GPa)
#
#
# Indices 1 2 3 4 5 6 
#
# 1 150.0744 61.5372 47.0968 0.0000 0.0000 0.0000
# 2 61.5372 120.6266 48.1451 0.0000 0.0000 0.0000
# 3 47.0968 48.1451 119.3028 0.0000 0.0000 0.0000
# 4 0.0000 0.0000 0.0000 44.3725 0.0000 0.0000
# 5 0.0000 0.0000 0.0000 0.0000 19.1519 0.0000
# 6 0.0000 0.0000 0.0000 0.0000 0.0000 11.7547
#
#
#
# Elastic Compliance Matrix: (Units=1/GPa)
#
#
# Indices 1 2 3 4 5 6 
#
# 1 0.008802 -0.003699 -0.001982 0.000000 0.000000 0.000000
# 2 -0.003699 0.011436 -0.003155 0.000000 0.000000 0.000000
# 3 -0.001982 -0.003155 0.010438 0.000000 0.000000 0.000000
# 4 0.000000 0.000000 0.000000 0.022536 0.000000 0.000000
# 5 0.000000 0.000000 0.000000 0.000000 0.052214 0.000000
# 6 0.000000 0.000000 0.000000 0.000000 0.000000 0.085073
#
#
# Mechanical properties :
#
#
# Convention : Reuss Voigt Hill
#
# Bulk Modulus (GPa) = 76.89956 78.17354 77.53655
# Shear Modulus (GPa) = 23.52868 30.60413 27.06640
#
# Velocity S-wave (km/s) = 3.36375 3.83632 3.60778
# Velocity P-wave (km/s) = 7.21574 7.56414 7.39199
#
# Compressibility (1/GPa) = 0.01300398
#
# Stress axis : x y z
#
# Youngs Moduli (GPa) = 113.60726 87.43974 95.80764
#
# Poissons Ratio (x) = 0.32347 0.18988
# Poissons Ratio (y) = 0.42028 0.30226
# Poissons Ratio (z) = 0.22516 0.27586
#
# Static dielectric constant tensor:
#      x y z
#    x 3.730590 0.000000 0.000000 
#    y 0.000000 3.910960 0.000000 
#    z 0.000000 0.000000 4.145100 
# 
# 
# High freq. dielectric constant tensor:
#      x y z
#    x 1.817490 0.000000 0.000000 
#    y 0.000000 1.818110 0.000000 
#    z 0.000000 0.000000 1.815030 
# 
# From -- ./inp_files/8634.got.cif
#   From: 2010.03.12/outbox.cif.g09.slc.cpg/sg17_5_cif.got.tgz:8634.got - 2010.04.10 18:46:23.
