data_PCOD8155267
_publ_section_title
;
Structure prediction by ZEFSAII (Michael W. Deem and Ramdas Pophale) SiO2 
 PCOD8155267
Probable space group: P 2 2 2
;
_chemical_formula_sum "Si O2"
_cell_formula_units_Z 32
_cell_length_a 15.372695
_cell_length_b 12.027734
_cell_length_c 9.000226
_cell_angle_alpha 90.000000
_cell_angle_beta 90.000000
_cell_angle_gamma 90.000000
_cell_volume 1664.129964
_symmetry_space_group_name_H-M "P 2 2 2"
_symmetry_group_IT_number 16
_symmetry_cell_setting 'orthorhombic'
loop_
_space_group_symop_operation_xyz
x,y,z
-x,-y,z
x,-y,-z
-x,y,-z
loop_
_atom_site_type_symbol
_atom_site_label
_atom_site_fract_x
_atom_site_fract_y
_atom_site_fract_z
Si Si1 0.654803 0.278732 0.327825
Si Si2 0.000000 0.129399 0.826747
Si Si3 0.654803 0.721268 0.327824
Si Si4 0.500000 0.124112 0.323619
Si Si5 0.599749 0.500000 0.175680
Si Si6 0.149865 0.737285 0.327085
Si Si7 0.102321 0.500000 0.669164
Si Si8 0.149865 0.737284 0.672915
O O1 0.637353 0.306629 0.500000
O O2 0.585435 0.189220 0.267172
O O3 0.647945 0.392099 0.237289
O O4 0.750302 0.225560 0.305267
O O5 0.912372 0.178928 0.758087
O O6 0.087629 0.178928 0.758087
O O7 0.000000 0.000000 0.790772
O O8 0.000000 0.155317 0.000000
O O9 0.585435 0.810780 0.267172
O O10 0.647946 0.607902 0.237287
O O11 0.750302 0.774440 0.305268
O O12 0.500000 0.116185 0.500000
O O13 0.500000 0.000000 0.254768
O O14 0.500000 0.500000 0.229965
O O15 0.606633 0.500000 0.000000
O O16 0.139300 0.612929 0.257914
O O17 0.122290 0.737712 0.500000
O O18 0.134123 0.500000 0.500000
O O19 0.139300 0.612929 0.742085
O O20 0.000000 0.500000 0.686239
#
# Coordination Sequence:
#
# PCOD8155267 Si02
#       8
#     4   4   4   4   4   4   4   4
#     4  10  20  35  59  86 113 148 188 235 291 340
#     4  11  25  42  57  78 114 157 194 233 284 337
#     4  10  20  35  59  86 113 148 188 235 291 340
#     4   9  18  33  53  80 112 143 182 235 288 335
#     4  11  22  35  55  84 120 158 194 231 275 336
#     4  10  20  36  60  87 111 143 188 236 285 340
#     4   9  15  28  52  79 108 134 164 218 283 333
#     4  10  20  36  60  87 111 143 188 236 285 340
#
# _framework density 19.229268000000001
#
# number of rings (size 3 to 8) (size 9 to 14) (size 15 to 20)
#    0.000    2.000    2.500    1.500    0.000    5.500 
#    0.000    3.750    0.000    1.500    0.000    0.000 
#    0.000    0.000    0.000    0.000    0.000    0.000 
#
# Total GULP energy -396815.593102 kJ/mol
# GULP energy per Si atom -12400.487284 kJ/mol
# Density = 1.918550 g / cm^3
# Si number density = 19.229268 Si / 1000 Ang^3
#
#
#
# Elastic Constant Matrix: (Units=GPa)
#
#
# Indices 1 2 3 4 5 6 
#
# 1 118.4539 76.7803 47.1317 0.0000 0.0000 0.0000
# 2 76.7803 148.6993 49.8910 0.0000 0.0000 0.0000
# 3 47.1317 49.8910 56.1175 0.0000 0.0000 0.0000
# 4 0.0000 0.0000 0.0000 17.1242 0.0000 0.0000
# 5 0.0000 0.0000 0.0000 0.0000 16.1450 0.0000
# 6 0.0000 0.0000 0.0000 0.0000 0.0000 11.9963
#
#
#
# Elastic Compliance Matrix: (Units=1/GPa)
#
#
# Indices 1 2 3 4 5 6 
#
# 1 0.014879 -0.004973 -0.008075 0.000000 0.000000 0.000000
# 2 -0.004973 0.011246 -0.005821 0.000000 0.000000 0.000000
# 3 -0.008075 -0.005821 0.029777 0.000000 0.000000 0.000000
# 4 0.000000 0.000000 0.000000 0.058397 0.000000 0.000000
# 5 0.000000 0.000000 0.000000 0.000000 0.061939 0.000000
# 6 0.000000 0.000000 0.000000 0.000000 0.000000 0.083359
#
#
# Mechanical properties :
#
#
# Convention : Reuss Voigt Hill
#
# Bulk Modulus (GPa) = 55.05710 74.54186 64.79948
# Shear Modulus (GPa) = 16.48051 19.01762 17.74907
#
# Velocity S-wave (km/s) = 2.93072 3.14824 3.04143
# Velocity P-wave (km/s) = 6.33611 7.21555 6.79008
#
# Compressibility (1/GPa) = 0.01816296
#
# Stress axis : x y z
#
# Youngs Moduli (GPa) = 67.21084 88.91987 33.58318
#
# Poissons Ratio (x) = 0.44223 0.27117
# Poissons Ratio (y) = 0.33426 0.19550
# Poissons Ratio (z) = 0.54270 0.51763
#
# Static dielectric constant tensor:
#      x y z
#    x 3.640750 0.000000 0.000000 
#    y 0.000000 3.631020 0.000000 
#    z 0.000000 0.000000 3.170130 
# 
# 
# High freq. dielectric constant tensor:
#      x y z
#    x 1.764930 0.000000 0.000000 
#    y 0.000000 1.748390 0.000000 
#    z 0.000000 0.000000 1.708330 
# 
# From -- ./inp_files/5213.got.cif
#   From: 2010.03.12/outbox.cif.g09.slc.cpg/sg16_3_cif.got.tgz:5213.got - 2010.03.31 00:51:45.
