data_PCOD8155254
_publ_section_title
;
Structure prediction by ZEFSAII (Michael W. Deem and Ramdas Pophale) SiO2 
 PCOD8155254
Probable space group: P 2 2 2
;
_chemical_formula_sum "Si O2"
_cell_formula_units_Z 32
_cell_length_a 8.677798
_cell_length_b 14.360064
_cell_length_c 13.375463
_cell_angle_alpha 90.000000
_cell_angle_beta 90.000000
_cell_angle_gamma 90.000000
_cell_volume 1666.766397
_symmetry_space_group_name_H-M "P 2 2 2"
_symmetry_group_IT_number 16
_symmetry_cell_setting 'orthorhombic'
loop_
_space_group_symop_operation_xyz
x,y,z
-x,-y,z
x,-y,-z
-x,y,-z
loop_
_atom_site_type_symbol
_atom_site_label
_atom_site_fract_x
_atom_site_fract_y
_atom_site_fract_z
Si Si1 0.866236 0.428202 0.101191
Si Si2 0.567946 0.642566 0.811772
Si Si3 0.639530 0.811871 0.934967
Si Si4 0.563796 0.602612 0.398707
Si Si5 0.933348 0.600172 0.392525
Si Si6 0.058282 0.102050 0.891204
Si Si7 0.968293 0.721216 0.210955
Si Si8 0.725546 0.652163 0.081028
O O1 0.707760 0.431654 0.167114
O O2 0.830311 0.572889 0.022036
O O3 0.000000 0.500000 0.137655
O O4 0.922409 0.324087 0.126974
O O5 0.593199 0.751924 0.837550
O O6 0.514464 0.648421 0.697865
O O7 0.436746 0.606865 0.889140
O O8 0.755202 0.893230 0.898713
O O9 0.500000 0.857122 0.000000
O O10 0.719988 0.737573 0.006726
O O11 0.500000 0.500000 0.401286
O O12 0.500000 0.653466 0.500000
O O13 0.748671 0.601526 0.394982
O O14 0.001428 0.681957 0.321520
O O15 0.000000 0.500000 0.356637
O O16 0.000000 0.624851 0.500000
O O17 0.993593 0.168277 0.802307
O O18 0.000000 0.000000 0.862522
O O19 0.000000 0.133251 0.000000
O O20 0.795745 0.688081 0.185026
#
# Coordination Sequence:
#
# PCOD8155254 Si02
#       8
#     4   4   4   4   4   4   4   4
#     4  11  23  33  57  85 116 160 207 239 289 360
#     4  10  21  38  59  81 115 160 205 251 306 355
#     4   9  18  35  61  81 116 158 199 244 298 356
#     4  11  24  39  57  79 114 153 203 260 307 353
#     4  11  25  41  62  89 117 155 209 261 312 360
#     4  11  21  36  60  92 124 159 202 249 303 367
#     4  12  21  37  60  84 118 157 202 249 300 362
#     4  10  19  38  55  82 117 158 199 253 293 357
#
# _framework density 19.198851999999999
#
# number of rings (size 3 to 8) (size 9 to 14) (size 15 to 20)
#    0.000    1.375    5.000    3.375    5.250    1.500 
#    0.000    2.500    0.000    8.250    0.000    0.000 
#    0.000    0.000    0.000    0.000    0.000    0.000 
#
# Total GULP energy -396418.899490 kJ/mol
# GULP energy per Si atom -12388.090609 kJ/mol
# Density = 1.915515 g / cm^3
# Si number density = 19.198852 Si / 1000 Ang^3
#
#
#
# Elastic Constant Matrix: (Units=GPa)
#
#
# Indices 1 2 3 4 5 6 
#
# 1 142.1546 50.0510 51.6534 0.0000 0.0000 0.0000
# 2 50.0510 106.4949 48.6450 0.0000 0.0000 0.0000
# 3 51.6534 48.6450 136.6497 0.0000 0.0000 0.0000
# 4 0.0000 0.0000 0.0000 17.9933 0.0000 0.0000
# 5 0.0000 0.0000 0.0000 0.0000 31.5324 0.0000
# 6 0.0000 0.0000 0.0000 0.0000 0.0000 24.1518
#
#
#
# Elastic Compliance Matrix: (Units=1/GPa)
#
#
# Indices 1 2 3 4 5 6 
#
# 1 0.008978 -0.003188 -0.002259 0.000000 0.000000 0.000000
# 2 -0.003188 0.012345 -0.003190 0.000000 0.000000 0.000000
# 3 -0.002259 -0.003190 0.009307 0.000000 0.000000 0.000000
# 4 0.000000 0.000000 0.000000 0.055576 0.000000 0.000000
# 5 0.000000 0.000000 0.000000 0.000000 0.031713 0.000000
# 6 0.000000 0.000000 0.000000 0.000000 0.000000 0.041405
#
#
# Mechanical properties :
#
#
# Convention : Reuss Voigt Hill
#
# Bulk Modulus (GPa) = 74.86230 76.22200 75.54215
# Shear Modulus (GPa) = 27.61672 30.39883 29.00777
#
# Velocity S-wave (km/s) = 3.79681 3.98347 3.89126
# Velocity P-wave (km/s) = 7.63537 7.80672 7.72152
#
# Compressibility (1/GPa) = 0.01335786
#
# Stress axis : x y z
#
# Youngs Moduli (GPa) = 111.38742 81.00250 107.44221
#
# Poissons Ratio (x) = 0.25820 0.24269
# Poissons Ratio (y) = 0.35506 0.34272
# Poissons Ratio (z) = 0.25160 0.25838
#
# Static dielectric constant tensor:
#      x y z
#    x 4.506940 0.000000 0.000000 
#    y 0.000000 3.520390 0.000000 
#    z 0.000000 0.000000 4.542520 
# 
# 
# High freq. dielectric constant tensor:
#      x y z
#    x 1.778820 0.000000 0.000000 
#    y 0.000000 1.698110 0.000000 
#    z 0.000000 0.000000 1.732070 
# 
# From -- ./inp_files/8035.got.cif
#   From: 2010.03.12/outbox.cif.g09.slc.cpg/sg16_5_cif.got.tgz:8035.got - 2010.03.31 00:51:45.
