data_PCOD8155410
_publ_section_title
;
Structure prediction by ZEFSAII (Michael W. Deem and Ramdas Pophale) SiO2 
 PCOD8155410
Probable space group: P 2 2 21
;
_chemical_formula_sum "Si O2"
_cell_formula_units_Z 24
_cell_length_a 17.903231
_cell_length_b 17.903325
_cell_length_c 5.136870
_cell_angle_alpha 90.000000
_cell_angle_beta 90.000000
_cell_angle_gamma 90.000000
_cell_volume 1646.507396
_symmetry_space_group_name_H-M "P 2 2 21"
_symmetry_group_IT_number 17
_symmetry_cell_setting 'orthorhombic'
loop_
_space_group_symop_operation_xyz
x,y,z
-x,-y,1/2+z
x,-y,-z
-x,y,1/2-z
loop_
_atom_site_type_symbol
_atom_site_label
_atom_site_fract_x
_atom_site_fract_y
_atom_site_fract_z
Si Si1 0.089107 0.956154 0.747198
Si Si2 0.088122 0.700157 0.233874
Si Si3 0.088575 0.788690 0.742421
Si Si4 0.200156 0.411878 0.983875
Si Si5 0.288690 0.588574 0.507578
Si Si6 0.543846 0.589107 0.997198
O O1 0.121197 0.872225 0.718499
O O2 0.000000 0.953958 0.750000
O O3 0.120140 0.000000 0.500000
O O4 0.119259 0.000000 0.000000
O O5 0.116392 0.732813 0.511863
O O6 0.000000 0.686164 0.250000
O O7 0.114822 0.760436 0.022588
O O8 0.123155 0.623156 0.125000
O O9 0.000000 0.791582 0.750000
O O10 0.232812 0.383609 0.261865
O O11 0.186162 0.500000 0.000000
O O12 0.260436 0.385180 0.772590
O O13 0.291583 0.500000 0.500000
O O14 0.372225 0.621197 0.531501
O O15 0.500000 0.619259 0.250000
O O16 0.546043 0.500000 0.000000
O O17 0.500000 0.620138 0.750000
#
# Coordination Sequence:
#
# PCOD8155410 Si02
#       6
#     4   4   4   4   4   4
#     4   9  15  23  37  57  77  95 113 136 176 233
#     4  10  19  31  43  55  71  96 130 170 213 247
#     4   9  17  28  41  56  75  95 118 152 196 242
#     4  10  19  31  43  55  71  96 130 170 213 247
#     4   9  17  28  41  56  75  95 118 152 196 242
#     4   9  15  23  37  57  77  95 113 136 176 233
#
# _framework density 14.576307
#
# number of rings (size 3 to 8) (size 9 to 14) (size 15 to 20)
#    0.000    2.667    0.000    3.000    0.000    8.000 
#    0.000    5.000    0.000    0.000    0.000    0.000 
#    0.000    0.000    0.000    0.000    0.000    0.000 
#
# Total GULP energy -297331.317011 kJ/mol
# GULP energy per Si atom -12388.804875 kJ/mol
# Density = 1.454313 g / cm^3
# Si number density = 14.576307 Si / 1000 Ang^3
#
#
#
# Elastic Constant Matrix: (Units=GPa)
#
#
# Indices 1 2 3 4 5 6 
#
# 1 55.4373 28.3992 32.9519 0.0000 0.0000 0.0000
# 2 28.3992 55.4406 32.9530 0.0000 0.0000 0.0000
# 3 32.9519 32.9530 122.7607 0.0000 0.0000 0.0000
# 4 0.0000 0.0000 0.0000 20.2235 0.0000 0.0000
# 5 0.0000 0.0000 0.0000 0.0000 20.2228 0.0000
# 6 0.0000 0.0000 0.0000 0.0000 0.0000 1.0552
#
#
#
# Elastic Compliance Matrix: (Units=1/GPa)
#
#
# Indices 1 2 3 4 5 6 
#
# 1 0.026051 -0.010932 -0.004058 0.000000 0.000000 0.000000
# 2 -0.010932 0.026049 -0.004058 0.000000 0.000000 0.000000
# 3 -0.004058 -0.004058 0.010325 0.000000 0.000000 0.000000
# 4 0.000000 0.000000 0.000000 0.049447 0.000000 0.000000
# 5 0.000000 0.000000 0.000000 0.000000 0.049449 0.000000
# 6 0.000000 0.000000 0.000000 0.000000 0.000000 0.947668
#
#
# Mechanical properties :
#
#
# Convention : Reuss Voigt Hill
#
# Bulk Modulus (GPa) = 41.10508 46.91630 44.01069
# Shear Modulus (GPa) = 4.32827 17.58928 10.95877
#
# Velocity S-wave (km/s) = 1.72506 3.47753 2.74491
# Velocity P-wave (km/s) = 5.67705 6.95564 6.34861
#
# Compressibility (1/GPa) = 0.02432789
#
# Stress axis : x y z
#
# Youngs Moduli (GPa) = 38.38636 38.38864 96.85695
#
# Poissons Ratio (x) = 0.41968 0.39305
# Poissons Ratio (y) = 0.41965 0.39304
# Poissons Ratio (z) = 0.15577 0.15578
#
# Static dielectric constant tensor:
#      x y z
#    x 2.658210 0.000000 0.000000 
#    y 0.000000 2.658220 0.000000 
#    z 0.000000 0.000000 3.212460 
# 
# 
# High freq. dielectric constant tensor:
#      x y z
#    x 1.514350 0.000000 0.000000 
#    y 0.000000 1.514350 0.000000 
#    z 0.000000 0.000000 1.585510 
# 
# From -- ./inp_files/2203.got.cif
#   From: 2010.03.12/outbox.cif.g09.slc.cpg/sg17_2_cif.got.tgz:2203.got - 2010.04.10 18:46:23.
