data_PCOD8155500
_publ_section_title
;
Structure prediction by ZEFSAII (Michael W. Deem and Ramdas Pophale) SiO2 
 PCOD8155500
Probable space group: P 2 2 21
;
_chemical_formula_sum "Si O2"
_cell_formula_units_Z 32
_cell_length_a 12.683123
_cell_length_b 15.145593
_cell_length_c 9.090890
_cell_angle_alpha 90.000000
_cell_angle_beta 90.000000
_cell_angle_gamma 90.000000
_cell_volume 1746.300141
_symmetry_space_group_name_H-M "P 2 2 21"
_symmetry_group_IT_number 17
_symmetry_cell_setting 'orthorhombic'
loop_
_space_group_symop_operation_xyz
x,y,z
-x,-y,1/2+z
x,-y,-z
-x,y,1/2-z
loop_
_atom_site_type_symbol
_atom_site_label
_atom_site_fract_x
_atom_site_fract_y
_atom_site_fract_z
Si Si1 0.614763 0.993528 0.821828
Si Si2 0.862507 0.604477 0.026453
Si Si3 0.098005 0.396212 0.030360
Si Si4 0.386951 0.832179 0.173827
Si Si5 0.754965 0.345504 0.245952
Si Si6 0.604197 0.499281 0.668085
Si Si7 0.613187 0.180164 0.322761
Si Si8 0.743024 0.338621 0.699813
O O1 0.500000 0.987128 0.750000
O O2 0.667544 0.902765 0.763440
O O3 0.665660 0.079731 0.745489
O O4 0.614454 0.000000 0.000000
O O5 0.833983 0.632731 0.189061
O O6 0.854344 0.500000 0.000000
O O7 0.775835 0.656335 0.928305
O O8 0.982124 0.638155 0.007325
O O9 0.125456 0.365675 0.195940
O O10 0.107972 0.500000 0.000000
O O11 0.195427 0.345842 0.952805
O O12 0.500000 0.813632 0.250000
O O13 0.302566 0.758756 0.218823
O O14 0.402252 0.839500 0.997015
O O15 0.692192 0.430896 0.294997
O O16 0.695509 0.258899 0.301174
O O17 0.573653 0.500000 0.500000
O O18 0.500000 0.527505 0.750000
O O19 0.642778 0.402575 0.714287
O O20 0.500000 0.205126 0.250000
#
# Coordination Sequence:
#
# PCOD8155500 Si02
#       8
#     4   4   4   4   4   4   4   4
#     4  10  20  36  58  86 117 148 189 235 277 334
#     4  11  24  36  62  85 110 153 197 250 289 341
#     4  11  20  42  60  81 114 151 197 246 295 325
#     4  11  22  37  59  85 119 155 190 232 280 342
#     4  12  22  38  56  85 116 151 191 236 287 341
#     4  12  24  38  53  77 118 156 191 225 273 340
#     4  11  22  37  59  85 119 155 190 232 280 342
#     4  12  22  38  56  85 116 151 191 236 287 341
#
# _framework density 18.324455
#
# number of rings (size 3 to 8) (size 9 to 14) (size 15 to 20)
#    0.000    0.750    5.000    4.875    5.250    2.000 
#    0.000    0.000    0.000    0.000    0.000    5.250 
#    0.000    0.000    0.000    0.000    0.000    0.000 
#
# Total GULP energy -396581.509164 kJ/mol
# GULP energy per Si atom -12393.172161 kJ/mol
# Density = 1.828275 g / cm^3
# Si number density = 18.324455 Si / 1000 Ang^3
#
#
#
# Elastic Constant Matrix: (Units=GPa)
#
#
# Indices 1 2 3 4 5 6 
#
# 1 77.6177 32.1443 33.9484 0.0000 0.0000 0.0000
# 2 32.1443 107.4203 30.3578 0.0000 0.0000 0.0000
# 3 33.9484 30.3578 83.2182 0.0000 0.0000 0.0000
# 4 0.0000 0.0000 0.0000 29.0165 0.0000 0.0000
# 5 0.0000 0.0000 0.0000 0.0000 38.5164 0.0000
# 6 0.0000 0.0000 0.0000 0.0000 0.0000 23.4495
#
#
#
# Elastic Compliance Matrix: (Units=1/GPa)
#
#
# Indices 1 2 3 4 5 6 
#
# 1 0.016746 -0.003435 -0.005579 0.000000 0.000000 0.000000
# 2 -0.003435 0.011084 -0.002642 0.000000 0.000000 0.000000
# 3 -0.005579 -0.002642 0.015256 0.000000 0.000000 0.000000
# 4 0.000000 0.000000 0.000000 0.034463 0.000000 0.000000
# 5 0.000000 0.000000 0.000000 0.000000 0.025963 0.000000
# 6 0.000000 0.000000 0.000000 0.000000 0.000000 0.042645
#
#
# Mechanical properties :
#
#
# Convention : Reuss Voigt Hill
#
# Bulk Modulus (GPa) = 50.56800 51.23970 50.90385
# Shear Modulus (GPa) = 28.39957 29.65019 29.02488
#
# Velocity S-wave (km/s) = 3.94104 4.02688 3.98420
# Velocity P-wave (km/s) = 6.95449 7.04587 7.00033
#
# Compressibility (1/GPa) = 0.01977535
#
# Stress axis : x y z
#
# Youngs Moduli (GPa) = 59.71598 90.22280 65.54717
#
# Poissons Ratio (x) = 0.30987 0.36566
# Poissons Ratio (y) = 0.20509 0.17319
# Poissons Ratio (z) = 0.33313 0.23839
#
# Static dielectric constant tensor:
#      x y z
#    x 3.195270 0.000000 0.000000 
#    y 0.000000 3.733120 0.000000 
#    z 0.000000 0.000000 3.239940 
# 
# 
# High freq. dielectric constant tensor:
#      x y z
#    x 1.690130 0.000000 0.000000 
#    y 0.000000 1.701060 0.000000 
#    z 0.000000 0.000000 1.736050 
# 
# From -- ./inp_files/4945.got.cif
#   From: 2010.03.12/outbox.cif.g09.slc.cpg/sg17_3_cif.got.tgz:4945.got - 2010.04.10 18:46:23.
