data_PCOD8155818
_publ_section_title
;
Structure prediction by ZEFSAII (Michael W. Deem and Ramdas Pophale) SiO2 
 PCOD8155818
Probable space group: P 21 21 2
;
_chemical_formula_sum "Si O2"
_cell_formula_units_Z 16
_cell_length_a 4.880475
_cell_length_b 8.372499
_cell_length_c 20.696546
_cell_angle_alpha 90.000000
_cell_angle_beta 90.000000
_cell_angle_gamma 90.000000
_cell_volume 845.697545
_symmetry_space_group_name_H-M "P 21 21 2"
_symmetry_group_IT_number 18
_symmetry_cell_setting 'orthorhombic'
loop_
_space_group_symop_operation_xyz
x,y,z
-x,-y,z
1/2+x,1/2-y,-z
1/2-x,1/2+y,-z
loop_
_atom_site_type_symbol
_atom_site_label
_atom_site_fract_x
_atom_site_fract_y
_atom_site_fract_z
Si Si1 0.500000 0.500000 0.765457
Si Si2 0.387273 0.163654 0.023652
Si Si3 0.266682 0.605125 0.644278
Si Si4 0.000000 0.500000 0.852367
Si Si5 0.096993 0.818808 0.534389
O O1 0.389452 0.641087 0.716674
O O2 0.747985 0.563082 0.809408
O O3 0.400967 0.147209 0.101913
O O4 0.500000 0.000000 0.991269
O O5 0.575571 0.308809 0.998306
O O6 0.500000 0.500000 0.605767
O O7 0.203878 0.766462 0.605348
O O8 0.000000 0.500000 0.653883
O O9 0.347995 0.798474 0.484639
O O10 0.000000 0.000000 0.537539
#
# Coordination Sequence:
#
# PCOD8155818 Si02
#       5
#     2   4   4   2   4
#     4  10  18  36  56  88 106 160 200 240 268 356
#     4  10  20  34  56  88 122 151 192 238 294 334
#     4  10  20  36  59  82 112 149 196 244 288 334
#     4  10  20  32  62  86 116 152 204 230 280 352
#     4  12  24  38  59  88 121 148 191 242 306 356
#
# _framework density 18.919295000000002
#
# number of rings (size 3 to 8) (size 9 to 14) (size 15 to 20)
#    1.500    0.000    1.250    6.750    0.000    0.000 
#    0.000    0.000    0.000    6.000    6.500    0.000 
#    0.000    0.000    0.000    0.000    0.000    0.000 
#
# Total GULP energy -198219.583283 kJ/mol
# GULP energy per Si atom -12388.723955 kJ/mol
# Density = 1.887623 g / cm^3
# Si number density = 18.919295 Si / 1000 Ang^3
#
#
#
# Elastic Constant Matrix: (Units=GPa)
#
#
# Indices 1 2 3 4 5 6 
#
# 1 123.1429 21.3825 50.1962 0.0000 0.0000 0.0000
# 2 21.3825 63.6874 39.7390 0.0000 0.0000 0.0000
# 3 50.1962 39.7390 133.4108 0.0000 0.0000 0.0000
# 4 0.0000 0.0000 0.0000 13.6340 0.0000 0.0000
# 5 0.0000 0.0000 0.0000 0.0000 15.2572 0.0000
# 6 0.0000 0.0000 0.0000 0.0000 0.0000 33.0172
#
#
#
# Elastic Compliance Matrix: (Units=1/GPa)
#
#
# Indices 1 2 3 4 5 6 
#
# 1 0.009666 -0.001199 -0.003280 0.000000 0.000000 0.000000
# 2 -0.001199 0.019435 -0.005338 0.000000 0.000000 0.000000
# 3 -0.003280 -0.005338 0.010320 0.000000 0.000000 0.000000
# 4 0.000000 0.000000 0.000000 0.073346 0.000000 0.000000
# 5 0.000000 0.000000 0.000000 0.000000 0.065543 0.000000
# 6 0.000000 0.000000 0.000000 0.000000 0.000000 0.030287
#
#
# Mechanical properties :
#
#
# Convention : Reuss Voigt Hill
#
# Bulk Modulus (GPa) = 50.53732 60.31960 55.42846
# Shear Modulus (GPa) = 21.29244 26.30991 23.80118
#
# Velocity S-wave (km/s) = 3.35839 3.73317 3.55073
# Velocity P-wave (km/s) = 6.46594 7.10872 6.79494
#
# Compressibility (1/GPa) = 0.01978736
#
# Stress axis : x y z
#
# Youngs Moduli (GPa) = 103.45890 51.45376 96.90235
#
# Poissons Ratio (x) = 0.06168 0.31781
# Poissons Ratio (y) = 0.12402 0.51727
# Poissons Ratio (z) = 0.33931 0.27466
#
# Static dielectric constant tensor:
#      x y z
#    x 3.794800 0.000000 0.000000 
#    y 0.000000 2.936780 0.000000 
#    z 0.000000 0.000000 3.523030 
# 
# 
# High freq. dielectric constant tensor:
#      x y z
#    x 1.768670 0.000000 0.000000 
#    y 0.000000 1.679300 0.000000 
#    z 0.000000 0.000000 1.731830 
# 
# From -- ./inp_files/7049.got.cif
#   From: 2010.03.12/outbox.cif.g09.slc.cpg/sg18_4_cif.got.tgz:7049.got - 2010.04.10 18:53:55.
