data_PCOD8155906
_publ_section_title
;
Structure prediction by ZEFSAII (Michael W. Deem and Ramdas Pophale) SiO2 
 PCOD8155906
Probable space group: P 21 21 2
;
_chemical_formula_sum "Si O2"
_cell_formula_units_Z 32
_cell_length_a 17.046844
_cell_length_b 10.378531
_cell_length_c 8.845406
_cell_angle_alpha 90.000000
_cell_angle_beta 90.000000
_cell_angle_gamma 90.000000
_cell_volume 1564.939834
_symmetry_space_group_name_H-M "P 21 21 2"
_symmetry_group_IT_number 18
_symmetry_cell_setting 'orthorhombic'
loop_
_space_group_symop_operation_xyz
x,y,z
-x,-y,z
1/2+x,1/2-y,-z
1/2-x,1/2+y,-z
loop_
_atom_site_type_symbol
_atom_site_label
_atom_site_fract_x
_atom_site_fract_y
_atom_site_fract_z
Si Si1 0.442019 0.614081 0.895865
Si Si2 0.344516 0.204243 0.210713
Si Si3 0.231902 0.412118 0.267900
Si Si4 0.725767 0.984844 0.420027
Si Si5 0.488406 0.851936 0.092142
Si Si6 0.869169 0.816530 0.382137
Si Si7 0.149716 0.276618 0.703976
Si Si8 0.723405 0.394752 0.036301
O O1 0.500000 0.500000 0.946062
O O2 0.444379 0.635005 0.713438
O O3 0.463190 0.754215 0.961408
O O4 0.355081 0.568190 0.945659
O O5 0.316551 0.340554 0.280763
O O6 0.343226 0.099613 0.345432
O O7 0.432797 0.211163 0.155932
O O8 0.284891 0.175904 0.071695
O O9 0.224031 0.520524 0.398078
O O10 0.161727 0.310515 0.292163
O O11 0.229901 0.480777 0.103338
O O12 0.806763 0.929716 0.360547
O O13 0.716570 0.130523 0.362708
O O14 0.421149 0.854698 0.219474
O O15 0.500000 0.000000 0.034549
O O16 0.888100 0.796729 0.558886
O O17 0.195207 0.186687 0.819547
#
# Coordination Sequence:
#
# PCOD8155906 Si02
#       8
#     4   4   4   4   4   4   4   4
#     4  11  24  43  64  95 137 168 214 271 332 393
#     4  11  23  38  63  93 123 166 221 262 319 394
#     4  10  21  37  61  92 122 157 217 263 320 381
#     4  10  19  38  64  88 127 158 215 261 318 383
#     4  11  24  42  63  92 132 177 215 263 338 390
#     4  10  21  42  62  93 125 170 211 269 326 391
#     4  10  22  40  63  92 129 171 207 274 328 383
#     4  11  22  37  66  93 124 164 213 273 324 378
#
# _framework density 20.448070000000001
#
# number of rings (size 3 to 8) (size 9 to 14) (size 15 to 20)
#    0.000    1.500    5.000    0.750    3.500    1.000 
#    2.250    2.500    0.000    0.000    0.000    0.000 
#    0.000    0.000    0.000    0.000    0.000    0.000 
#
# Total GULP energy -396553.860181 kJ/mol
# GULP energy per Si atom -12392.308131 kJ/mol
# Density = 2.040153 g / cm^3
# Si number density = 20.448070 Si / 1000 Ang^3
#
#
#
# Elastic Constant Matrix: (Units=GPa)
#
#
# Indices 1 2 3 4 5 6 
#
# 1 71.3029 21.0632 29.1939 0.0000 0.0000 0.0000
# 2 21.0632 64.6271 47.6336 0.0000 0.0000 0.0000
# 3 29.1939 47.6336 117.2794 0.0000 0.0000 0.0000
# 4 0.0000 0.0000 0.0000 24.1743 0.0000 0.0000
# 5 0.0000 0.0000 0.0000 0.0000 21.9894 0.0000
# 6 0.0000 0.0000 0.0000 0.0000 0.0000 21.6016
#
#
#
# Elastic Compliance Matrix: (Units=1/GPa)
#
#
# Indices 1 2 3 4 5 6 
#
# 1 0.016086 -0.003271 -0.002676 0.000000 0.000000 0.000000
# 2 -0.003271 0.022750 -0.008426 0.000000 0.000000 0.000000
# 3 -0.002676 -0.008426 0.012615 0.000000 0.000000 0.000000
# 4 0.000000 0.000000 0.000000 0.041366 0.000000 0.000000
# 5 0.000000 0.000000 0.000000 0.000000 0.045476 0.000000
# 6 0.000000 0.000000 0.000000 0.000000 0.000000 0.046293
#
#
# Mechanical properties :
#
#
# Convention : Reuss Voigt Hill
#
# Bulk Modulus (GPa) = 44.04044 49.88787 46.96415
# Shear Modulus (GPa) = 22.63472 23.90765 23.27118
#
# Velocity S-wave (km/s) = 3.33068 3.42305 3.37718
# Velocity P-wave (km/s) = 6.03122 6.33035 6.18260
#
# Compressibility (1/GPa) = 0.02270641
#
# Stress axis : x y z
#
# Youngs Moduli (GPa) = 62.16413 43.95701 79.27127
#
# Poissons Ratio (x) = 0.14376 0.21213
# Poissons Ratio (y) = 0.20331 0.66792
# Poissons Ratio (z) = 0.16635 0.37037
#
# Static dielectric constant tensor:
#      x y z
#    x 3.518730 0.000000 0.000000 
#    y 0.000000 3.834250 0.000000 
#    z 0.000000 0.000000 3.956070 
# 
# 
# High freq. dielectric constant tensor:
#      x y z
#    x 1.773860 0.000000 0.000000 
#    y 0.000000 1.803370 0.000000 
#    z 0.000000 0.000000 1.810540 
# 
# From -- ./inp_files/4611.got.cif
#   From: 2010.03.12/outbox.cif.g09.slc.cpg/sg18_3_cif.got.tgz:4611.got - 2010.04.10 18:53:55.
