data_PCOD8155703
_publ_section_title
;
Structure prediction by ZEFSAII (Michael W. Deem and Ramdas Pophale) SiO2 
 PCOD8155703
Probable space group: P 2 2 21
;
_chemical_formula_sum "Si O2"
_cell_formula_units_Z 32
_cell_length_a 6.594426
_cell_length_b 8.228167
_cell_length_c 29.400426
_cell_angle_alpha 90.000000
_cell_angle_beta 90.000000
_cell_angle_gamma 90.000000
_cell_volume 1595.268244
_symmetry_space_group_name_H-M "P 2 2 21"
_symmetry_group_IT_number 17
_symmetry_cell_setting 'orthorhombic'
loop_
_space_group_symop_operation_xyz
x,y,z
-x,-y,1/2+z
x,-y,-z
-x,y,1/2-z
loop_
_atom_site_type_symbol
_atom_site_label
_atom_site_fract_x
_atom_site_fract_y
_atom_site_fract_z
Si Si1 0.415528 0.454034 0.296307
Si Si2 0.159293 0.597060 0.372119
Si Si3 0.255905 0.387942 0.457751
Si Si4 0.110330 0.173219 0.295796
Si Si5 0.418064 0.845562 0.923192
Si Si6 0.985657 0.893081 0.541241
Si Si7 0.764164 0.970989 0.122263
Si Si8 0.197506 0.617261 0.854586
O O1 0.500000 0.535515 0.250000
O O2 0.259809 0.570724 0.322589
O O3 0.606394 0.433019 0.327846
O O4 0.306037 0.283599 0.284029
O O5 0.263746 0.485350 0.410416
O O6 0.195103 0.782050 0.385626
O O7 0.921808 0.546654 0.370319
O O8 0.310581 0.500000 0.500000
O O9 0.423527 0.247394 0.454876
O O10 0.041141 0.297457 0.467269
O O11 0.953521 0.278977 0.324084
O O12 0.000000 0.109634 0.250000
O O13 0.186326 0.020254 0.325640
O O14 0.255099 0.931749 0.956175
O O15 0.272609 0.721186 0.896782
O O16 0.533128 0.974908 0.890308
O O17 0.076070 0.000000 0.500000
O O18 0.084892 0.935309 0.589413
#
# Coordination Sequence:
#
# PCOD8155703 Si02
#       8
#     4   4   4   4   4   4   4   4
#     4  11  21  39  66  92 120 164 216 259 307 385
#     4  11  24  40  62  93 130 168 205 267 330 378
#     4  11  23  41  63  92 130 162 209 267 318 384
#     4  11  21  37  65  92 119 166 213 258 315 378
#     4  11  21  42  68  88 122 169 215 258 320 385
#     4  11  23  41  65  90 121 167 211 262 320 389
#     4  11  24  42  61  92 134 163 207 271 324 374
#     4  11  19  41  65  87 120 163 214 253 310 378
#
# _framework density 20.059322000000002
#
# number of rings (size 3 to 8) (size 9 to 14) (size 15 to 20)
#    0.000    1.000    6.250    2.250    0.000    4.500 
#    4.500    0.625    0.000    0.000    0.000    0.000 
#    0.000    0.000    0.000    0.000    0.000    0.000 
#
# Total GULP energy -396712.605030 kJ/mol
# GULP energy per Si atom -12397.268907 kJ/mol
# Density = 2.001367 g / cm^3
# Si number density = 20.059322 Si / 1000 Ang^3
#
#
#
# Elastic Constant Matrix: (Units=GPa)
#
#
# Indices 1 2 3 4 5 6 
#
# 1 110.0420 30.2732 23.3033 0.0000 0.0000 0.0000
# 2 30.2732 96.2633 24.4063 0.0000 0.0000 0.0000
# 3 23.3033 24.4063 101.1962 0.0000 0.0000 0.0000
# 4 0.0000 0.0000 0.0000 30.5855 0.0000 0.0000
# 5 0.0000 0.0000 0.0000 0.0000 25.6395 0.0000
# 6 0.0000 0.0000 0.0000 0.0000 0.0000 22.1147
#
#
#
# Elastic Compliance Matrix: (Units=1/GPa)
#
#
# Indices 1 2 3 4 5 6 
#
# 1 0.010209 -0.002785 -0.001679 0.000000 0.000000 0.000000
# 2 -0.002785 0.011824 -0.002210 0.000000 0.000000 0.000000
# 3 -0.001679 -0.002210 0.010802 0.000000 0.000000 0.000000
# 4 0.000000 0.000000 0.000000 0.032695 0.000000 0.000000
# 5 0.000000 0.000000 0.000000 0.000000 0.039002 0.000000
# 6 0.000000 0.000000 0.000000 0.000000 0.000000 0.045219
#
#
# Mechanical properties :
#
#
# Convention : Reuss Voigt Hill
#
# Bulk Modulus (GPa) = 51.31914 51.49634 51.40774
# Shear Modulus (GPa) = 29.48181 30.96919 30.22550
#
# Velocity S-wave (km/s) = 3.83787 3.93349 3.88597
# Velocity P-wave (km/s) = 6.72891 6.80864 6.76889
#
# Compressibility (1/GPa) = 0.01948591
#
# Stress axis : x y z
#
# Youngs Moduli (GPa) = 97.95099 84.57088 92.57863
#
# Poissons Ratio (x) = 0.23552 0.15547
# Poissons Ratio (y) = 0.27278 0.20464
# Poissons Ratio (z) = 0.16449 0.18694
#
# Static dielectric constant tensor:
#      x y z
#    x 3.999430 0.000000 0.000000 
#    y 0.000000 3.465750 0.000000 
#    z 0.000000 0.000000 3.593610 
# 
# 
# High freq. dielectric constant tensor:
#      x y z
#    x 1.796930 0.000000 0.000000 
#    y 0.000000 1.756030 0.000000 
#    z 0.000000 0.000000 1.790120 
# 
# From -- ./inp_files/11178.got.cif
#   From: 2010.03.12/outbox.cif.g09.slc.cpg/sg17_6_cif.got.tgz:11178.got - 2010.04.10 18:46:23.
