data_PCOD8155252
_publ_section_title
;
Structure prediction by ZEFSAII (Michael W. Deem and Ramdas Pophale) SiO2 
 PCOD8155252
Probable space group: P 2 2 2
;
_chemical_formula_sum "Si O2"
_cell_formula_units_Z 21
_cell_length_a 10.926971
_cell_length_b 14.712061
_cell_length_c 6.476313
_cell_angle_alpha 90.000000
_cell_angle_beta 90.000000
_cell_angle_gamma 90.000000
_cell_volume 1041.120834
_symmetry_space_group_name_H-M "P 2 2 2"
_symmetry_group_IT_number 16
_symmetry_cell_setting 'orthorhombic'
loop_
_space_group_symop_operation_xyz
x,y,z
-x,-y,z
x,-y,-z
-x,y,-z
loop_
_atom_site_type_symbol
_atom_site_label
_atom_site_fract_x
_atom_site_fract_y
_atom_site_fract_z
Si Si1 0.209263 0.748445 0.727174
Si Si2 0.000000 0.717692 0.000000
Si Si3 0.114064 0.377119 0.620092
Si Si4 0.500000 0.000000 0.000000
Si Si5 0.375980 0.590893 0.887818
Si Si6 0.322711 0.500000 0.500000
Si Si7 0.619127 0.087647 0.624331
O O1 0.155017 0.707763 0.519125
O O2 0.284354 0.675870 0.868578
O O3 0.283257 0.833741 0.644601
O O4 0.096356 0.780043 0.873553
O O5 0.074397 0.652108 0.152860
O O6 0.231302 0.441826 0.646018
O O7 0.000000 0.424395 0.500000
O O8 0.585088 0.937500 0.142112
O O9 0.406388 0.561106 0.650750
O O10 0.323325 0.500000 0.000000
O O11 0.500000 0.623918 0.000000
O O12 0.500000 0.123505 0.500000
O O13 0.672335 0.000000 0.500000
#
# Coordination Sequence:
#
# PCOD8155252 Si02
#       7
#     4   2   4   1   4   2   4
#     4  10  21  38  60  87 120 159 202 248 316 367
#     4  10  20  36  61  85 114 150 206 256 292 377
#     4   9  19  35  57  84 112 157 206 253 297 355
#     4   8  18  36  64  88 118 144 194 248 306 358
#     4  10  22  38  52  83 125 163 206 247 301 369
#     4  10  19  37  56  76 120 164 202 258 302 342
#     4   9  20  39  60  91 120 151 197 258 307 373
#
# _framework density 20.170569
#
# number of rings (size 3 to 8) (size 9 to 14) (size 15 to 20)
#    0.000    2.667    0.000    1.429    1.333    4.571 
#   13.714   10.952    0.000   13.714    0.000    0.000 
#    0.000    0.000    0.000    0.000    0.000    0.000 
#
# Total GULP energy -260155.694006 kJ/mol
# GULP energy per Si atom -12388.366381 kJ/mol
# Density = 2.012466 g / cm^3
# Si number density = 20.170569 Si / 1000 Ang^3
#
#
#
# Elastic Constant Matrix: (Units=GPa)
#
#
# Indices 1 2 3 4 5 6 
#
# 1 101.4445 52.9402 59.9684 0.0000 0.0000 0.0000
# 2 52.9402 101.4103 38.7529 0.0000 0.0000 0.0000
# 3 59.9684 38.7529 132.9338 0.0000 0.0000 0.0000
# 4 0.0000 0.0000 0.0000 19.1711 0.0000 0.0000
# 5 0.0000 0.0000 0.0000 0.0000 42.0974 0.0000
# 6 0.0000 0.0000 0.0000 0.0000 0.0000 -13.3269
#
#
#
# Elastic Compliance Matrix: (Units=1/GPa)
#
#
# Indices 1 2 3 4 5 6 
#
# 1 0.016545 -0.006510 -0.005566 0.000000 0.000000 0.000000
# 2 -0.006510 0.013659 -0.001045 0.000000 0.000000 0.000000
# 3 -0.005566 -0.001045 0.010338 0.000000 0.000000 0.000000
# 4 0.000000 0.000000 0.000000 0.052162 0.000000 0.000000
# 5 0.000000 0.000000 0.000000 0.000000 0.023754 0.000000
# 6 0.000000 0.000000 0.000000 0.000000 0.000000 -0.075036
#
#
# Mechanical properties :
#
#
# Convention : Reuss Voigt Hill
#
# Bulk Modulus (GPa) = 69.93089 71.01239 70.47164
# Shear Modulus (GPa) = 69.03029 21.86345 45.44687
#
# Velocity S-wave (km/s) = 5.85641 3.29588 4.75186
# Velocity P-wave (km/s) = 8.97079 7.05451 8.06974
#
# Compressibility (1/GPa) = 0.01429983
#
# Stress axis : x y z
#
# Youngs Moduli (GPa) = 60.43956 73.21222 96.72999
#
# Poissons Ratio (x) = 0.47664 0.53840
# Poissons Ratio (y) = 0.39349 0.10107
# Poissons Ratio (z) = 0.33641 0.07650
#
# Static dielectric constant tensor:
#      x y z
#    x 3.722760 0.000000 0.000000 
#    y 0.000000 3.252370 0.000000 
#    z 0.000000 0.000000 4.232470 
# 
# 
# High freq. dielectric constant tensor:
#      x y z
#    x 1.788810 0.000000 0.000000 
#    y 0.000000 1.745000 0.000000 
#    z 0.000000 0.000000 1.811610 
# 
# From -- ./inp_files/1465.got.cif
#   From: 2010.03.12/outbox.cif.g09.slc.cpg/sg16_1_cif.got.tgz:1465.got - 2010.03.31 00:51:45.
