data_PCOD8155196
_publ_section_title
;
Structure prediction by ZEFSAII (Michael W. Deem and Ramdas Pophale) SiO2 
 PCOD8155196
Probable space group: C 2/C
;
_chemical_formula_sum "Si O2"
_cell_formula_units_Z 64
_cell_length_a 20.516424
_cell_length_b 8.368501
_cell_length_c 27.917775
_cell_angle_alpha 90.000000
_cell_angle_beta 131.458925
_cell_angle_gamma 90.000000
_cell_volume 3592.208512
_symmetry_space_group_name_H-M "C 2/C"
_symmetry_group_IT_number 15
_symmetry_cell_setting 'monoclinic'
loop_
_space_group_symop_operation_xyz
x,y,z
-x,y,1/2-z
-x,-y,-z
x,-y,1/2+z
1/2+x,1/2+y,z
1/2-x,1/2+y,1/2-z
1/2-x,1/2-y,-z
1/2+x,1/2-y,1/2+z
loop_
_atom_site_type_symbol
_atom_site_label
_atom_site_fract_x
_atom_site_fract_y
_atom_site_fract_z
Si Si1 0.215210 0.101206 0.121526
Si Si2 0.131723 0.404904 0.331598
Si Si3 0.965347 0.479129 0.802941
Si Si4 0.151567 0.190439 0.757522
Si Si5 0.789724 0.899846 0.657533
Si Si6 0.160950 0.812524 0.152393
Si Si7 0.631754 0.902058 0.049967
Si Si8 0.968883 0.459037 0.913677
O O1 0.281070 0.007149 0.118715
O O2 0.267022 0.204946 0.185692
O O3 0.157970 0.215989 0.059948
O O4 0.153780 0.975775 0.119053
O O5 0.099084 0.415116 0.260536
O O6 0.152680 0.216099 0.349020
O O7 0.063454 0.482022 0.334955
O O8 0.938614 0.292048 0.781901
O O9 0.955212 0.526022 0.853494
O O10 0.172038 0.143075 0.713175
O O11 0.146434 0.029560 0.786763
O O12 0.743355 0.792875 0.675696
O O13 0.716869 0.986036 0.589537
O O14 0.071878 0.716791 0.100308
O O15 0.579010 0.920024 0.073990
O O16 0.571251 0.947138 0.975540
#
# Coordination Sequence:
#
# PCOD8155196 Si02
#       8
#     8   8   8   8   8   8   8   8
#     4   9  17  28  46  67  93 123 153 194 238 278
#     4   9  18  33  49  68  94 124 158 194 236 281
#     4   9  18  33  50  68  93 126 156 192 239 281
#     4   9  16  27  46  71  95 121 155 197 241 284
#     4   9  17  29  47  70  96 125 156 194 237 280
#     4   9  16  26  45  72  97 121 153 196 242 285
#     4   9  18  32  48  69  95 125 159 195 234 277
#     4   9  18  32  49  68  95 126 157 194 236 280
#
# _framework density 17.816337999999998
#
# number of rings (size 3 to 8) (size 9 to 14) (size 15 to 20)
#    0.000    3.000    0.000    0.750    0.000    7.500 
#    0.000    8.750    0.000    0.000    0.000    0.000 
#    0.000    0.000    0.000    0.000    0.000    0.000 
#
# Total GULP energy -396641.726147 kJ/mol
# GULP energy per Si atom -12395.053942 kJ/mol
# Density = 1.777579 g / cm^3
# Si number density = 17.816338 Si / 1000 Ang^3
#
#
#
# Elastic Constant Matrix: (Units=GPa)
#
#
# Indices 1 2 3 4 5 6 
#
# 1 63.6376 32.4521 18.5462 0.0000 8.7224 0.0000
# 2 32.4521 100.7833 16.6680 -0.0001 11.7148 0.0001
# 3 18.5462 16.6680 50.4940 0.0000 5.3275 0.0000
# 4 0.0000 -0.0001 0.0000 15.3336 0.0000 2.9789
# 5 8.7224 11.7148 5.3275 0.0000 18.9194 0.0000
# 6 0.0000 0.0001 0.0000 2.9789 0.0000 26.1820
#
#
#
# Elastic Compliance Matrix: (Units=1/GPa)
#
#
# Indices 1 2 3 4 5 6 
#
# 1 0.020568 -0.005186 -0.005340 0.000000 -0.004768 0.000000
# 2 -0.005186 0.012433 -0.001690 0.000000 -0.004832 0.000000
# 3 -0.005340 -0.001690 0.022625 0.000000 -0.002863 0.000000
# 4 0.000000 0.000000 0.000000 0.066690 0.000000 -0.007588
# 5 -0.004768 -0.004832 -0.002863 0.000000 0.058852 0.000000
# 6 0.000000 0.000000 0.000000 -0.007588 0.000000 0.039057
#
#
# Mechanical properties :
#
#
# Convention : Reuss Voigt Hill
#
# Bulk Modulus (GPa) = 32.05477 38.91638 35.48557
# Shear Modulus (GPa) = 19.60360 21.90360 20.75360
#
# Velocity S-wave (km/s) = 3.32070 3.51010 3.41671
# Velocity P-wave (km/s) = 5.72133 6.19017 5.96036
#
# Compressibility (1/GPa) = 0.03119660
#
# Stress axis : x y z
#
# Youngs Moduli (GPa) = 48.61909 80.43025 44.19809
#
# Poissons Ratio (x) = 0.41708 0.23601
# Poissons Ratio (y) = 0.25212 0.07468
# Poissons Ratio (z) = 0.25961 0.13590
#
# Static dielectric constant tensor:
#      x y z
#    x 3.155380 0.000000 0.160130 
#    y 0.000000 3.424830 0.000000 
#    z 0.160130 0.000000 3.167590 
# 
# 
# High freq. dielectric constant tensor:
#      x y z
#    x 1.666770 0.000000 0.012890 
#    y 0.000000 1.690550 0.000000 
#    z 0.012890 0.000000 1.668650 
# 
# From -- ./inp_files/300371.got.cif
#   From: 2010.06.25/outbox.cif.g09.slc.cpg/sg15_151_cif.got.tgz:300371.got - 2010.06.28 07:06:18.
