data_PCOD8155261
_publ_section_title
;
Structure prediction by ZEFSAII (Michael W. Deem and Ramdas Pophale) SiO2 
 PCOD8155261
Probable space group: P 2 2 2
;
_chemical_formula_sum "Si O2"
_cell_formula_units_Z 17
_cell_length_a 5.850578
_cell_length_b 8.795732
_cell_length_c 15.084360
_cell_angle_alpha 90.000000
_cell_angle_beta 90.000000
_cell_angle_gamma 90.000000
_cell_volume 776.242917
_symmetry_space_group_name_H-M "P 2 2 2"
_symmetry_group_IT_number 16
_symmetry_cell_setting 'orthorhombic'
loop_
_space_group_symop_operation_xyz
x,y,z
-x,-y,z
x,-y,-z
-x,y,-z
loop_
_atom_site_type_symbol
_atom_site_label
_atom_site_fract_x
_atom_site_fract_y
_atom_site_fract_z
Si Si1 0.500000 0.000000 0.359798
Si Si2 0.500000 0.500000 0.000000
Si Si3 0.111490 0.161380 0.735459
Si Si4 0.194496 0.250818 0.926038
Si Si5 0.500000 0.000000 0.000000
Si Si6 0.819438 0.750060 0.422476
Si Si7 0.500000 0.500000 0.500000
O O1 0.633243 0.126716 0.300797
O O2 0.328108 0.095084 0.421692
O O3 0.345911 0.599887 0.064535
O O4 0.101010 0.255043 0.826579
O O5 0.962963 0.264283 0.668249
O O6 0.000000 0.000000 0.753405
O O7 0.000000 0.250122 0.000000
O O8 0.346221 0.100374 0.935250
O O9 0.659158 0.603051 0.436616
O O10 0.000000 0.767501 0.500000
#
# Coordination Sequence:
#
# PCOD8155261 Si02
#       7
#     2   1   4   4   1   4   1
#     4  10  23  43  69  99 130 160 207 273 321 375
#     4  10  26  42  62  92 132 180 214 250 322 376
#     4  10  22  40  68 100 125 163 215 266 321 375
#     4  11  22  43  65  94 133 168 213 265 314 378
#     4  10  20  34  70 100 124 168 208 262 326 376
#     4  11  25  44  67  96 129 169 215 259 320 382
#     4  12  26  46  62  90 136 176 210 264 314 372
#
# _framework density 21.900359000000002
#
# number of rings (size 3 to 8) (size 9 to 14) (size 15 to 20)
#    0.000    1.412    0.000    4.588    0.000   16.941 
#    0.000   17.647    0.000    0.000    0.000    0.000 
#    0.000    0.000    0.000    0.000    0.000    0.000 
#
# Total GULP energy -210846.405614 kJ/mol
# GULP energy per Si atom -12402.729742 kJ/mol
# Density = 2.185051 g / cm^3
# Si number density = 21.900359 Si / 1000 Ang^3
#
#
#
# Elastic Constant Matrix: (Units=GPa)
#
#
# Indices 1 2 3 4 5 6 
#
# 1 153.0246 64.5670 92.0334 0.0000 0.0000 0.0000
# 2 64.5670 114.2980 83.7856 0.0000 0.0000 0.0000
# 3 92.0334 83.7856 192.9485 0.0000 0.0000 0.0000
# 4 0.0000 0.0000 0.0000 -20.9930 0.0000 0.0000
# 5 0.0000 0.0000 0.0000 0.0000 29.8463 0.0000
# 6 0.0000 0.0000 0.0000 0.0000 0.0000 80.8233
#
#
#
# Elastic Compliance Matrix: (Units=1/GPa)
#
#
# Indices 1 2 3 4 5 6 
#
# 1 0.009866 -0.003115 -0.003353 0.000000 0.000000 0.000000
# 2 -0.003115 0.013818 -0.004514 0.000000 0.000000 0.000000
# 3 -0.003353 -0.004514 0.008742 0.000000 0.000000 0.000000
# 4 0.000000 0.000000 0.000000 -0.047635 0.000000 0.000000
# 5 0.000000 0.000000 0.000000 0.000000 0.033505 0.000000
# 6 0.000000 0.000000 0.000000 0.000000 0.000000 0.012373
#
#
# Mechanical properties :
#
#
# Convention : Reuss Voigt Hill
#
# Bulk Modulus (GPa) = 95.59410 104.56034 100.07722
# Shear Modulus (GPa) = 89.09126 32.59432 60.84279
#
# Velocity S-wave (km/s) = 6.38503 3.86204 5.27655
# Velocity P-wave (km/s) = 9.90467 8.23009 9.10595
#
# Compressibility (1/GPa) = 0.01046090
#
# Stress axis : x y z
#
# Youngs Moduli (GPa) = 101.35755 72.36839 114.38412
#
# Poissons Ratio (x) = 0.22545 0.38355
# Poissons Ratio (y) = 0.31576 0.51638
# Poissons Ratio (z) = 0.33987 0.32670
#
# Static dielectric constant tensor:
#      x y z
#    x 4.921080 0.000000 0.000000 
#    y 0.000000 3.853310 0.000000 
#    z 0.000000 0.000000 3.888370 
# 
# 
# High freq. dielectric constant tensor:
#      x y z
#    x 1.883510 0.000000 0.000000 
#    y 0.000000 1.853790 0.000000 
#    z 0.000000 0.000000 1.857720 
# 
# From -- ./inp_files/8500.got.cif
#   From: 2010.03.12/outbox.cif.g09.slc.cpg/sg16_5_cif.got.tgz:8500.got - 2010.03.31 00:51:45.
