data_PCOD8155447
_publ_section_title
;
Structure prediction by ZEFSAII (Michael W. Deem and Ramdas Pophale) SiO2 
 PCOD8155447
Probable space group: P 2 2 21
;
_chemical_formula_sum "Si O2"
_cell_formula_units_Z 20
_cell_length_a 8.671166
_cell_length_b 14.553507
_cell_length_c 8.756681
_cell_angle_alpha 90.000000
_cell_angle_beta 90.000000
_cell_angle_gamma 90.000000
_cell_volume 1105.057022
_symmetry_space_group_name_H-M "P 2 2 21"
_symmetry_group_IT_number 17
_symmetry_cell_setting 'orthorhombic'
loop_
_space_group_symop_operation_xyz
x,y,z
-x,-y,1/2+z
x,-y,-z
-x,y,1/2-z
loop_
_atom_site_type_symbol
_atom_site_label
_atom_site_fract_x
_atom_site_fract_y
_atom_site_fract_z
Si Si1 0.026376 0.096478 0.429911
Si Si2 0.982985 0.277725 0.569529
Si Si3 0.500000 0.286075 0.750000
Si Si4 0.292269 0.215703 0.497781
Si Si5 0.500000 0.298929 0.250000
Si Si6 0.693933 0.608455 0.500604
O O1 0.206920 0.117394 0.472696
O O2 0.000000 0.096155 0.250000
O O3 0.923115 0.177618 0.507916
O O4 0.974641 0.000000 0.500000
O O5 0.869257 0.356072 0.510363
O O6 0.000000 0.276081 0.750000
O O7 0.155945 0.293819 0.501157
O O8 0.384998 0.219309 0.657385
O O9 0.405253 0.352420 0.861194
O O10 0.407255 0.231944 0.360049
O O11 0.619175 0.362627 0.339882
O O12 0.698673 0.500000 0.500000
#
# Coordination Sequence:
#
# PCOD8155447 Si02
#       6
#     4   4   2   4   2   4
#     4  10  20  35  60  90 114 143 185 232 285 338
#     4  10  20  39  58  83 113 149 190 239 274 330
#     4  10  19  38  57  78 116 160 183 234 283 336
#     4   9  21  37  60  81 116 152 189 227 290 329
#     4  10  21  38  55  80 116 156 181 236 283 342
#     4  11  21  36  56  84 113 153 194 232 282 333
#
# _framework density 18.098616
#
# number of rings (size 3 to 8) (size 9 to 14) (size 15 to 20)
#    1.200    0.800    2.000    2.400    0.000    0.000 
#    3.600    2.000    0.000    4.800    0.000    0.000 
#    0.000    0.000    0.000    0.000    0.000    0.000 
#
# Total GULP energy -247820.763932 kJ/mol
# GULP energy per Si atom -12391.038197 kJ/mol
# Density = 1.805742 g / cm^3
# Si number density = 18.098616 Si / 1000 Ang^3
#
#
#
# Elastic Constant Matrix: (Units=GPa)
#
#
# Indices 1 2 3 4 5 6 
#
# 1 81.5681 2.4157 29.8394 0.0000 0.0000 0.0000
# 2 2.4157 63.6089 27.0552 0.0000 0.0000 0.0000
# 3 29.8394 27.0552 113.4130 0.0000 0.0000 0.0000
# 4 0.0000 0.0000 0.0000 4.5350 0.0000 0.0000
# 5 0.0000 0.0000 0.0000 0.0000 27.0241 0.0000
# 6 0.0000 0.0000 0.0000 0.0000 0.0000 25.2156
#
#
#
# Elastic Compliance Matrix: (Units=1/GPa)
#
#
# Indices 1 2 3 4 5 6 
#
# 1 0.013637 0.001122 -0.003856 0.000000 0.000000 0.000000
# 2 0.001122 0.017589 -0.004491 0.000000 0.000000 0.000000
# 3 -0.003856 -0.004491 0.010903 0.000000 0.000000 0.000000
# 4 0.000000 0.000000 0.000000 0.220505 0.000000 0.000000
# 5 0.000000 0.000000 0.000000 0.000000 0.037004 0.000000
# 6 0.000000 0.000000 0.000000 0.000000 0.000000 0.039658
#
#
# Mechanical properties :
#
#
# Convention : Reuss Voigt Hill
#
# Bulk Modulus (GPa) = 36.12789 41.91230 39.02009
# Shear Modulus (GPa) = 13.77518 24.64026 19.20772
#
# Velocity S-wave (km/s) = 2.76183 3.69378 3.26127
# Velocity P-wave (km/s) = 5.49320 6.43428 5.98228
#
# Compressibility (1/GPa) = 0.02767945
#
# Stress axis : x y z
#
# Youngs Moduli (GPa) = 73.33032 56.85477 91.71683
#
# Poissons Ratio (x) = -0.06379 0.35362
# Poissons Ratio (y) = -0.08228 0.41191
# Poissons Ratio (z) = 0.28273 0.25534
#
# Static dielectric constant tensor:
#      x y z
#    x 3.479360 0.000000 0.000000 
#    y 0.000000 3.047510 0.000000 
#    z 0.000000 0.000000 3.230620 
# 
# 
# High freq. dielectric constant tensor:
#      x y z
#    x 1.702850 0.000000 0.000000 
#    y 0.000000 1.669470 0.000000 
#    z 0.000000 0.000000 1.720520 
# 
# From -- ./inp_files/4216.got.cif
#   From: 2010.03.12/outbox.cif.g09.slc.cpg/sg17_3_cif.got.tgz:4216.got - 2010.04.10 18:46:23.
