data_PCOD8155723
_publ_section_title
;
Structure prediction by ZEFSAII (Michael W. Deem and Ramdas Pophale) SiO2 
 PCOD8155723
Probable space group: P 2 2 21
;
_chemical_formula_sum "Si O2"
_cell_formula_units_Z 24
_cell_length_a 14.073044
_cell_length_b 9.939986
_cell_length_c 8.561519
_cell_angle_alpha 90.000000
_cell_angle_beta 90.000000
_cell_angle_gamma 90.000000
_cell_volume 1197.635451
_symmetry_space_group_name_H-M "P 2 2 21"
_symmetry_group_IT_number 17
_symmetry_cell_setting 'orthorhombic'
loop_
_space_group_symop_operation_xyz
x,y,z
-x,-y,1/2+z
x,-y,-z
-x,y,1/2-z
loop_
_atom_site_type_symbol
_atom_site_label
_atom_site_fract_x
_atom_site_fract_y
_atom_site_fract_z
Si Si1 0.896857 0.520664 0.184249
Si Si2 0.201774 0.729422 0.817951
Si Si3 0.203774 0.769264 0.184516
Si Si4 0.597071 0.349564 0.684032
Si Si5 0.104166 0.981302 0.683699
Si Si6 0.596348 0.347798 0.316748
O O1 0.825718 0.422492 0.275385
O O2 0.867309 0.672748 0.221723
O O3 0.000000 0.489396 0.250000
O O4 0.893683 0.500000 0.000000
O O5 0.137057 0.830108 0.719386
O O6 0.313045 0.744083 0.771064
O O7 0.186068 0.752263 0.000995
O O8 0.312404 0.739385 0.234342
O O9 0.179662 0.920777 0.233705
O O10 0.500000 0.283588 0.750000
O O11 0.588568 0.355329 0.500435
O O12 0.608767 0.500986 0.752191
O O13 0.000000 0.009317 0.750000
O O14 0.102737 0.000000 0.500000
O O15 0.500000 0.280950 0.250000
#
# Coordination Sequence:
#
# PCOD8155723 Si02
#       6
#     4   4   4   4   4   4
#     4  12  24  38  59  88 119 154 197 252 302 354
#     4  11  22  41  63  88 121 159 201 248 301 356
#     4  11  22  41  63  88 121 159 201 248 301 356
#     4   9  18  34  58  89 122 156 194 242 297 352
#     4  12  26  44  63  88 119 160 205 248 304 364
#     4   9  18  34  58  89 122 156 194 242 297 352
#
# _framework density 20.039487000000001
#
# number of rings (size 3 to 8) (size 9 to 14) (size 15 to 20)
#    0.000    1.333    1.667    5.000    0.000    2.667 
#    0.000    0.833    0.000    0.000    0.000    0.000 
#    0.000    0.000    0.000    0.000    0.000    0.000 
#
# Total GULP energy -297678.065458 kJ/mol
# GULP energy per Si atom -12403.252727 kJ/mol
# Density = 1.999388 g / cm^3
# Si number density = 20.039487 Si / 1000 Ang^3
#
#
#
# Elastic Constant Matrix: (Units=GPa)
#
#
# Indices 1 2 3 4 5 6 
#
# 1 145.1061 22.9084 41.4527 0.0000 0.0000 0.0000
# 2 22.9084 55.5119 9.0330 0.0000 0.0000 0.0000
# 3 41.4527 9.0330 84.3762 0.0000 0.0000 0.0000
# 4 0.0000 0.0000 0.0000 32.5613 0.0000 0.0000
# 5 0.0000 0.0000 0.0000 0.0000 27.2933 0.0000
# 6 0.0000 0.0000 0.0000 0.0000 0.0000 20.2370
#
#
#
# Elastic Compliance Matrix: (Units=1/GPa)
#
#
# Indices 1 2 3 4 5 6 
#
# 1 0.008440 -0.002858 -0.003840 0.000000 0.000000 0.000000
# 2 -0.002858 0.019301 -0.000662 0.000000 0.000000 0.000000
# 3 -0.003840 -0.000662 0.013809 0.000000 0.000000 0.000000
# 4 0.000000 0.000000 0.000000 0.030711 0.000000 0.000000
# 5 0.000000 0.000000 0.000000 0.000000 0.036639 0.000000
# 6 0.000000 0.000000 0.000000 0.000000 0.000000 0.049414
#
#
# Mechanical properties :
#
#
# Convention : Reuss Voigt Hill
#
# Bulk Modulus (GPa) = 37.27282 47.97583 42.62433
# Shear Modulus (GPa) = 27.47564 30.12500 28.80032
#
# Velocity S-wave (km/s) = 3.70682 3.88142 3.79513
# Velocity P-wave (km/s) = 6.07954 6.63927 6.36556
#
# Compressibility (1/GPa) = 0.02682920
#
# Stress axis : x y z
#
# Youngs Moduli (GPa) = 118.48627 51.80991 72.41493
#
# Poissons Ratio (x) = 0.14807 0.27810
# Poissons Ratio (y) = 0.33863 0.04796
# Poissons Ratio (z) = 0.45503 0.03431
#
# Static dielectric constant tensor:
#      x y z
#    x 3.907860 0.000000 0.000000 
#    y 0.000000 3.638550 0.000000 
#    z 0.000000 0.000000 3.586210 
# 
# 
# High freq. dielectric constant tensor:
#      x y z
#    x 1.800030 0.000000 0.000000 
#    y 0.000000 1.759260 0.000000 
#    z 0.000000 0.000000 1.785860 
# 
# From -- ./inp_files/5125.got.cif
#   From: 2010.03.12/outbox.cif.g09.slc.cpg/sg17_3_cif.got.tgz:5125.got - 2010.04.10 18:46:23.
