data_PCOD8155742
_publ_section_title
;
Structure prediction by ZEFSAII (Michael W. Deem and Ramdas Pophale) SiO2 
 PCOD8155742
Probable space group: P 2 2 21
;
_chemical_formula_sum "Si O2"
_cell_formula_units_Z 16
_cell_length_a 9.625340
_cell_length_b 8.969098
_cell_length_c 8.059610
_cell_angle_alpha 90.000000
_cell_angle_beta 90.000000
_cell_angle_gamma 90.000000
_cell_volume 695.791110
_symmetry_space_group_name_H-M "P 2 2 21"
_symmetry_group_IT_number 17
_symmetry_cell_setting 'orthorhombic'
loop_
_space_group_symop_operation_xyz
x,y,z
-x,-y,1/2+z
x,-y,-z
-x,y,1/2-z
loop_
_atom_site_type_symbol
_atom_site_label
_atom_site_fract_x
_atom_site_fract_y
_atom_site_fract_z
Si Si1 0.392958 0.122833 0.113674
Si Si2 0.848426 0.561127 0.818961
Si Si3 0.851749 0.086439 0.172999
Si Si4 0.386333 0.384847 0.878606
O O1 0.500000 0.188374 0.250000
O O2 0.267079 0.031600 0.200887
O O3 0.331481 0.251432 0.994851
O O4 0.471494 0.000000 0.000000
O O5 0.821695 0.737092 0.836798
O O6 0.742133 0.473542 0.700825
O O7 0.000000 0.526187 0.750000
O O8 0.830899 0.500000 0.000000
O O9 0.000000 0.047344 0.250000
O O10 0.836176 0.000000 0.000000
O O11 0.500000 0.323103 0.750000
O O12 0.466368 0.500000 0.000000
#
# Coordination Sequence:
#
# PCOD8155742 Si02
#       4
#     4   4   4   4
#     4  12  27  47  71 104 142 187 240 291 353 420
#     4  11  26  44  73 107 140 182 233 292 356 422
#     4  11  26  47  73 104 141 184 235 289 356 422
#     4  12  25  45  72 104 142 185 234 290 350 421
#
# _framework density 22.995408999999999
#
# number of rings (size 3 to 8) (size 9 to 14) (size 15 to 20)
#    0.000    0.500    2.500    4.500   10.500    1.000 
#    0.000    0.000    0.000    0.000    0.000    0.000 
#    0.000    0.000    0.000    0.000    0.000    0.000 
#
# Total GULP energy -198349.428394 kJ/mol
# GULP energy per Si atom -12396.839275 kJ/mol
# Density = 2.294307 g / cm^3
# Si number density = 22.995409 Si / 1000 Ang^3
#
#
#
# Elastic Constant Matrix: (Units=GPa)
#
#
# Indices 1 2 3 4 5 6 
#
# 1 133.4224 38.6440 67.8633 0.0000 0.0000 0.0000
# 2 38.6440 115.6852 79.4113 0.0000 0.0000 0.0000
# 3 67.8633 79.4113 176.3829 0.0000 0.0000 0.0000
# 4 0.0000 0.0000 0.0000 56.2406 0.0000 0.0000
# 5 0.0000 0.0000 0.0000 0.0000 31.7640 0.0000
# 6 0.0000 0.0000 0.0000 0.0000 0.0000 21.5233
#
#
#
# Elastic Compliance Matrix: (Units=1/GPa)
#
#
# Indices 1 2 3 4 5 6 
#
# 1 0.009390 -0.000950 -0.003185 0.000000 0.000000 0.000000
# 2 -0.000950 0.012607 -0.005310 0.000000 0.000000 0.000000
# 3 -0.003185 -0.005310 0.009286 0.000000 0.000000 0.000000
# 4 0.000000 0.000000 0.000000 0.017781 0.000000 0.000000
# 5 0.000000 0.000000 0.000000 0.000000 0.031482 0.000000
# 6 0.000000 0.000000 0.000000 0.000000 0.000000 0.046461
#
#
# Mechanical properties :
#
#
# Convention : Reuss Voigt Hill
#
# Bulk Modulus (GPa) = 80.70048 88.59197 84.64622
# Shear Modulus (GPa) = 33.32699 37.87704 35.60201
#
# Velocity S-wave (km/s) = 3.81108 4.06292 3.93901
# Velocity P-wave (km/s) = 7.38486 7.78584 7.58800
#
# Compressibility (1/GPa) = 0.01239150
#
# Stress axis : x y z
#
# Youngs Moduli (GPa) = 106.49313 79.32267 107.69318
#
# Poissons Ratio (x) = 0.07539 0.34300
# Poissons Ratio (y) = 0.10122 0.57186
# Poissons Ratio (z) = 0.33918 0.42121
#
# Static dielectric constant tensor:
#      x y z
#    x 4.003460 0.000000 0.000000 
#    y 0.000000 4.301520 0.000000 
#    z 0.000000 0.000000 4.384730 
# 
# 
# High freq. dielectric constant tensor:
#      x y z
#    x 1.906950 0.000000 0.000000 
#    y 0.000000 1.912380 0.000000 
#    z 0.000000 0.000000 1.937190 
# 
# From -- ./inp_files/3746.got.cif
#   From: 2010.03.12/outbox.cif.g09.slc.cpg/sg17_2_cif.got.tgz:3746.got - 2010.04.10 18:46:23.
