data_PCOD8155736
_publ_section_title
;
Structure prediction by ZEFSAII (Michael W. Deem and Ramdas Pophale) SiO2 
 PCOD8155736
Probable space group: P 2 2 21
;
_chemical_formula_sum "Si O2"
_cell_formula_units_Z 16
_cell_length_a 7.761730
_cell_length_b 8.063003
_cell_length_c 11.720611
_cell_angle_alpha 90.000000
_cell_angle_beta 90.000000
_cell_angle_gamma 90.000000
_cell_volume 733.509267
_symmetry_space_group_name_H-M "P 2 2 21"
_symmetry_group_IT_number 17
_symmetry_cell_setting 'orthorhombic'
loop_
_space_group_symop_operation_xyz
x,y,z
-x,-y,1/2+z
x,-y,-z
-x,y,1/2-z
loop_
_atom_site_type_symbol
_atom_site_label
_atom_site_fract_x
_atom_site_fract_y
_atom_site_fract_z
Si Si1 0.197765 0.744888 0.433780
Si Si2 0.666670 0.132420 0.306851
Si Si3 0.524751 0.000000 0.000000
Si Si4 0.829157 0.595488 0.824476
Si Si5 0.000000 0.924119 0.250000
O O1 0.252807 0.575000 0.370588
O O2 0.135791 0.713495 0.564533
O O3 0.036481 0.815243 0.362348
O O4 0.352904 0.877293 0.427113
O O5 0.500000 0.045169 0.250000
O O6 0.608198 0.125681 0.437734
O O7 0.688422 0.318624 0.257874
O O8 0.840161 0.037365 0.280941
O O9 0.000000 0.565926 0.750000
#
# Coordination Sequence:
#
# PCOD8155736 Si02
#       5
#     4   4   2   4   2
#     4  11  24  46  73 105 153 189 251 309 370 443
#     4  12  25  45  73 104 149 190 246 307 372 437
#     4  12  26  48  74 114 144 202 250 314 370 442
#     4  11  24  46  71 105 151 196 240 311 374 444
#     4  12  24  44  74 108 142 194 248 310 362 444
#
# _framework density 21.812947999999999
#
# number of rings (size 3 to 8) (size 9 to 14) (size 15 to 20)
#    0.000    0.500    7.500    0.000    3.500    0.000 
#    4.500    0.000    0.000    0.000    0.000    0.000 
#    0.000    0.000    0.000    0.000    0.000    0.000 
#
# Total GULP energy -198221.149273 kJ/mol
# GULP energy per Si atom -12388.821830 kJ/mol
# Density = 2.176330 g / cm^3
# Si number density = 21.812948 Si / 1000 Ang^3
#
#
#
# Elastic Constant Matrix: (Units=GPa)
#
#
# Indices 1 2 3 4 5 6 
#
# 1 140.2309 61.9164 59.0931 0.0000 0.0000 0.0000
# 2 61.9164 135.5531 63.6547 0.0000 0.0000 0.0000
# 3 59.0931 63.6547 118.8785 0.0000 0.0000 0.0000
# 4 0.0000 0.0000 0.0000 40.3321 0.0000 0.0000
# 5 0.0000 0.0000 0.0000 0.0000 49.2492 0.0000
# 6 0.0000 0.0000 0.0000 0.0000 0.0000 12.1026
#
#
#
# Elastic Compliance Matrix: (Units=1/GPa)
#
#
# Indices 1 2 3 4 5 6 
#
# 1 0.009821 -0.002930 -0.003313 0.000000 0.000000 0.000000
# 2 -0.002930 0.010730 -0.004289 0.000000 0.000000 0.000000
# 3 -0.003313 -0.004289 0.012355 0.000000 0.000000 0.000000
# 4 0.000000 0.000000 0.000000 0.024794 0.000000 0.000000
# 5 0.000000 0.000000 0.000000 0.000000 0.020305 0.000000
# 6 0.000000 0.000000 0.000000 0.000000 0.000000 0.082627
#
#
# Mechanical properties :
#
#
# Convention : Reuss Voigt Hill
#
# Bulk Modulus (GPa) = 84.44420 84.88789 84.66604
# Shear Modulus (GPa) = 26.93349 34.33667 30.63508
#
# Velocity S-wave (km/s) = 3.51771 3.97185 3.75166
# Velocity P-wave (km/s) = 7.43613 7.74822 7.59378
#
# Compressibility (1/GPa) = 0.01184214
#
# Stress axis : x y z
#
# Youngs Moduli (GPa) = 101.82376 93.20073 80.93798
#
# Poissons Ratio (x) = 0.27310 0.26813
# Poissons Ratio (y) = 0.29836 0.34712
# Poissons Ratio (z) = 0.33733 0.39971
#
# Static dielectric constant tensor:
#      x y z
#    x 3.934930 0.000000 0.000000 
#    y 0.000000 4.104820 0.000000 
#    z 0.000000 0.000000 4.441070 
# 
# 
# High freq. dielectric constant tensor:
#      x y z
#    x 1.847990 0.000000 0.000000 
#    y 0.000000 1.857960 0.000000 
#    z 0.000000 0.000000 1.870640 
# 
# From -- ./inp_files/6253.got.cif
#   From: 2010.03.12/outbox.cif.g09.slc.cpg/sg17_4_cif.got.tgz:6253.got - 2010.04.10 18:46:23.
