data_PCOD8155876
_publ_section_title
;
Structure prediction by ZEFSAII (Michael W. Deem and Ramdas Pophale) SiO2 
 PCOD8155876
Probable space group: P 21 21 2
;
_chemical_formula_sum "Si O2"
_cell_formula_units_Z 24
_cell_length_a 15.456319
_cell_length_b 15.870602
_cell_length_c 4.994269
_cell_angle_alpha 90.000000
_cell_angle_beta 90.000000
_cell_angle_gamma 90.000000
_cell_volume 1225.099616
_symmetry_space_group_name_H-M "P 21 21 2"
_symmetry_group_IT_number 18
_symmetry_cell_setting 'orthorhombic'
loop_
_space_group_symop_operation_xyz
x,y,z
-x,-y,z
1/2+x,1/2-y,-z
1/2-x,1/2+y,-z
loop_
_atom_site_type_symbol
_atom_site_label
_atom_site_fract_x
_atom_site_fract_y
_atom_site_fract_z
Si Si1 0.499978 0.098255 0.822787
Si Si2 0.410769 0.453977 0.709185
Si Si3 0.728977 0.977386 0.230738
Si Si4 0.868522 0.150560 0.791397
Si Si5 0.902983 0.341821 0.676867
Si Si6 0.312225 0.918136 0.730266
O O1 0.435892 0.147742 0.625577
O O2 0.598390 0.130916 0.786521
O O3 0.500000 0.000000 0.750517
O O4 0.470734 0.112896 0.126422
O O5 0.500000 0.500000 0.770037
O O6 0.333091 0.522208 0.738187
O O7 0.412325 0.414859 0.413601
O O8 0.397039 0.376993 0.913244
O O9 0.686706 0.045380 0.430736
O O10 0.691764 0.884339 0.290569
O O11 0.700967 0.003218 0.931802
O O12 0.900204 0.244089 0.742526
O O13 0.764650 0.149022 0.764944
#
# Coordination Sequence:
#
# PCOD8155876 Si02
#       6
#     4   4   4   4   4   4
#     4  12  21  35  63  86 117 154 195 229 286 359
#     4  10  21  41  66  81 111 160 205 231 276 353
#     4  10  19  35  60  82 110 154 188 231 285 345
#     4  10  23  40  58  85 122 149 189 250 294 321
#     4  12  22  37  56  89 123 145 188 250 292 331
#     4  10  20  37  58  82 111 156 190 220 287 355
#
# _framework density 19.590244999999999
#
# number of rings (size 3 to 8) (size 9 to 14) (size 15 to 20)
#    0.000    1.333    3.333    3.000    0.000    0.000 
#    6.000    0.000    0.000    0.000    0.000    0.000 
#    0.000    0.000    0.000    0.000    0.000    0.000 
#
# Total GULP energy -297719.135199 kJ/mol
# GULP energy per Si atom -12404.963967 kJ/mol
# Density = 1.954566 g / cm^3
# Si number density = 19.590245 Si / 1000 Ang^3
#
#
#
# Elastic Constant Matrix: (Units=GPa)
#
#
# Indices 1 2 3 4 5 6 
#
# 1 121.1951 41.3295 12.3550 0.0000 0.0000 0.0000
# 2 41.3295 61.4099 -2.5101 0.0000 0.0000 0.0000
# 3 12.3550 -2.5101 72.3202 0.0000 0.0000 0.0000
# 4 0.0000 0.0000 0.0000 18.2258 0.0000 0.0000
# 5 0.0000 0.0000 0.0000 0.0000 28.3212 0.0000
# 6 0.0000 0.0000 0.0000 0.0000 0.0000 21.6395
#
#
#
# Elastic Compliance Matrix: (Units=1/GPa)
#
#
# Indices 1 2 3 4 5 6 
#
# 1 0.011032 -0.007512 -0.002145 0.000000 0.000000 0.000000
# 2 -0.007512 0.021423 0.002027 0.000000 0.000000 0.000000
# 3 -0.002145 0.002027 0.014264 0.000000 0.000000 0.000000
# 4 0.000000 0.000000 0.000000 0.054867 0.000000 0.000000
# 5 0.000000 0.000000 0.000000 0.000000 0.035309 0.000000
# 6 0.000000 0.000000 0.000000 0.000000 0.000000 0.046212
#
#
# Mechanical properties :
#
#
# Convention : Reuss Voigt Hill
#
# Bulk Modulus (GPa) = 31.78908 39.69711 35.74310
# Shear Modulus (GPa) = 23.94022 27.22069 25.58045
#
# Velocity S-wave (km/s) = 3.49957 3.73165 3.61747
# Velocity P-wave (km/s) = 5.70890 6.23495 5.97772
#
# Compressibility (1/GPa) = 0.03145734
#
# Stress axis : x y z
#
# Youngs Moduli (GPa) = 90.64874 46.67977 70.10535
#
# Poissons Ratio (x) = 0.35066 0.15040
# Poissons Ratio (y) = 0.68096 -0.14209
# Poissons Ratio (z) = 0.19447 -0.09461
#
# Static dielectric constant tensor:
#      x y z
#    x 3.785580 0.000000 0.000000 
#    y 0.000000 3.168530 0.000000 
#    z 0.000000 0.000000 3.721630 
# 
# 
# High freq. dielectric constant tensor:
#      x y z
#    x 1.769910 0.000000 0.000000 
#    y 0.000000 1.726240 0.000000 
#    z 0.000000 0.000000 1.785300 
# 
# From -- ./inp_files/1522.got.cif
#   From: 2010.03.12/outbox.cif.g09.slc.cpg/sg18_1_cif.got.tgz:1522.got - 2010.04.10 18:53:55.
