data_PCOD8155840
_publ_section_title
;
Structure prediction by ZEFSAII (Michael W. Deem and Ramdas Pophale) SiO2 
 PCOD8155840
Probable space group: P 21 21 2
;
_chemical_formula_sum "Si O2"
_cell_formula_units_Z 32
_cell_length_a 17.881487
_cell_length_b 8.518993
_cell_length_c 11.599472
_cell_angle_alpha 90.000000
_cell_angle_beta 90.000000
_cell_angle_gamma 90.000000
_cell_volume 1766.973815
_symmetry_space_group_name_H-M "P 21 21 2"
_symmetry_group_IT_number 18
_symmetry_cell_setting 'orthorhombic'
loop_
_space_group_symop_operation_xyz
x,y,z
-x,-y,z
1/2+x,1/2-y,-z
1/2-x,1/2+y,-z
loop_
_atom_site_type_symbol
_atom_site_label
_atom_site_fract_x
_atom_site_fract_y
_atom_site_fract_z
Si Si1 0.340792 0.190754 0.428518
Si Si2 0.270377 0.414975 0.611983
Si Si3 0.997599 0.817233 0.192886
Si Si4 0.661253 0.392036 0.803925
Si Si5 0.695571 0.681430 0.193331
Si Si6 0.784134 0.373444 0.237268
Si Si7 0.632340 0.695109 0.947952
Si Si8 0.932242 0.383412 0.372365
O O1 0.301380 0.332536 0.497498
O O2 0.353217 0.251639 0.299355
O O3 0.419338 0.151915 0.492124
O O4 0.296547 0.026318 0.427914
O O5 0.331406 0.523924 0.678542
O O6 0.245184 0.276028 0.699594
O O7 0.909814 0.770844 0.193275
O O8 0.046195 0.755574 0.083229
O O9 0.041796 0.773642 0.308811
O O10 0.000000 0.000000 0.189780
O O11 0.733082 0.288923 0.831667
O O12 0.651989 0.521686 0.902584
O O13 0.721552 0.505261 0.220817
O O14 0.640867 0.692316 0.084774
O O15 0.812796 0.321964 0.110991
O O16 0.853261 0.438018 0.315860
O O17 0.000000 0.500000 0.350951
#
# Coordination Sequence:
#
# PCOD8155840 Si02
#       8
#     4   4   4   4   4   4   4   4
#     4  10  19  31  49  72 102 132 159 201 254 299
#     4   9  18  32  50  76  99 123 165 211 248 285
#     4   9  17  32  53  73  95 124 163 211 248 280
#     4   9  18  32  53  74  94 127 170 210 245 282
#     4  11  19  30  51  75 102 133 162 197 252 304
#     4   9  18  32  50  74  98 125 167 212 243 283
#     4   9  18  31  49  74 103 127 160 208 251 291
#     4  10  19  32  50  72  97 127 165 206 246 290
#
# _framework density 18.110059
#
# number of rings (size 3 to 8) (size 9 to 14) (size 15 to 20)
#    0.000    2.500    0.000    5.250    0.000    1.000 
#    0.000    1.250    0.000   20.250    0.000    0.000 
#    0.000    0.000    0.000    0.000    0.000    0.000 
#
# Total GULP energy -396483.665305 kJ/mol
# GULP energy per Si atom -12390.114541 kJ/mol
# Density = 1.806884 g / cm^3
# Si number density = 18.110059 Si / 1000 Ang^3
#
#
#
# Elastic Constant Matrix: (Units=GPa)
#
#
# Indices 1 2 3 4 5 6 
#
# 1 69.0933 21.4028 42.6542 0.0000 0.0000 0.0000
# 2 21.4028 57.2070 26.4864 0.0000 0.0000 0.0000
# 3 42.6542 26.4864 131.0012 0.0000 0.0000 0.0000
# 4 0.0000 0.0000 0.0000 20.7514 0.0000 0.0000
# 5 0.0000 0.0000 0.0000 0.0000 17.7593 0.0000
# 6 0.0000 0.0000 0.0000 0.0000 0.0000 20.4923
#
#
#
# Elastic Compliance Matrix: (Units=1/GPa)
#
#
# Indices 1 2 3 4 5 6 
#
# 1 0.019210 -0.004734 -0.005298 0.000000 0.000000 0.000000
# 2 -0.004734 0.020452 -0.002594 0.000000 0.000000 0.000000
# 3 -0.005298 -0.002594 0.009883 0.000000 0.000000 0.000000
# 4 0.000000 0.000000 0.000000 0.048189 0.000000 0.000000
# 5 0.000000 0.000000 0.000000 0.000000 0.056308 0.000000
# 6 0.000000 0.000000 0.000000 0.000000 0.000000 0.048799
#
#
# Mechanical properties :
#
#
# Convention : Reuss Voigt Hill
#
# Bulk Modulus (GPa) = 41.16209 48.70981 44.93595
# Shear Modulus (GPa) = 21.16925 22.91781 22.04353
#
# Velocity S-wave (km/s) = 3.42266 3.56121 3.49262
# Velocity P-wave (km/s) = 6.19658 6.62303 6.41335
#
# Compressibility (1/GPa) = 0.02429420
#
# Stress axis : x y z
#
# Youngs Moduli (GPa) = 52.05574 48.89384 101.18551
#
# Poissons Ratio (x) = 0.23148 0.53605
# Poissons Ratio (y) = 0.24645 0.26244
# Poissons Ratio (z) = 0.27577 0.12681
#
# Static dielectric constant tensor:
#      x y z
#    x 4.157770 0.000000 0.000000 
#    y 0.000000 3.468950 0.000000 
#    z 0.000000 0.000000 3.341740 
# 
# 
# High freq. dielectric constant tensor:
#      x y z
#    x 1.674250 0.000000 0.000000 
#    y 0.000000 1.706330 0.000000 
#    z 0.000000 0.000000 1.694250 
# 
# From -- ./inp_files/6222.got.cif
#   From: 2010.03.12/outbox.cif.g09.slc.cpg/sg18_4_cif.got.tgz:6222.got - 2010.04.10 18:53:55.
