data_PCOD8155107
_publ_section_title
;
Structure prediction by ZEFSAII (Michael W. Deem and Ramdas Pophale) SiO2 
 PCOD8155107
Probable space group: C 2/C
;
_chemical_formula_sum "Si O2"
_cell_formula_units_Z 36
_cell_length_a 13.436908
_cell_length_b 7.901038
_cell_length_c 22.490545
_cell_angle_alpha 90.000000
_cell_angle_beta 142.128936
_cell_angle_gamma 90.000000
_cell_volume 1465.789599
_symmetry_space_group_name_H-M "C 2/C"
_symmetry_group_IT_number 15
_symmetry_cell_setting 'monoclinic'
loop_
_space_group_symop_operation_xyz
x,y,z
-x,y,1/2-z
-x,-y,-z
x,-y,1/2+z
1/2+x,1/2+y,z
1/2-x,1/2+y,1/2-z
1/2-x,1/2-y,-z
1/2+x,1/2-y,1/2+z
loop_
_atom_site_type_symbol
_atom_site_label
_atom_site_fract_x
_atom_site_fract_y
_atom_site_fract_z
Si Si1 0.654454 0.826021 0.900447
Si Si2 0.566049 0.888534 0.165499
Si Si3 0.547375 0.688749 0.037512
Si Si4 0.000000 0.911277 0.250000
Si Si5 0.734753 0.143903 0.165989
O O1 0.765900 0.805005 0.894308
O O2 0.502300 0.705476 0.811070
O O3 0.597997 0.019192 0.887326
O O4 0.750000 0.750000 0.000000
O O5 0.526916 0.747509 0.096420
O O6 0.656263 0.802528 0.263335
O O7 0.684836 0.035413 0.199588
O O8 0.500000 0.500000 0.000000
O O9 0.432164 0.810043 0.944849
O O10 0.840637 0.028264 0.172255
#
# Coordination Sequence:
#
# PCOD8155107 Si02
#       5
#     8   8   8   4   8
#     4  12  27  49  76 104 149 198 244 307 379 438
#     4  12  26  48  76 106 151 196 248 308 376 446
#     4  12  28  48  74 109 149 193 250 310 368 451
#     4  12  28  46  76 110 150 194 246 308 372 446
#     4  12  26  48  72 109 147 194 249 309 371 444
#
# _framework density 24.560141000000002
#
# number of rings (size 3 to 8) (size 9 to 14) (size 15 to 20)
#    0.000    0.000    4.444    4.667    9.333    0.889 
#    0.000    0.000    0.000    0.000    0.000    0.000 
#    0.000    0.000    0.000    0.000    0.000    0.000 
#
# Total GULP energy -223168.050056 kJ/mol
# GULP energy per Si atom -12398.225003 kJ/mol
# Density = 2.450424 g / cm^3
# Si number density = 24.560141 Si / 1000 Ang^3
#
#
#
# Elastic Constant Matrix: (Units=GPa)
#
#
# Indices 1 2 3 4 5 6 
#
# 1 101.0190 40.7866 23.0569 0.0000 10.5693 0.0000
# 2 40.7866 128.9446 38.8973 0.0000 11.3866 0.0000
# 3 23.0569 38.8973 102.7243 0.0000 4.2151 0.0000
# 4 0.0000 0.0000 0.0000 53.1221 0.0000 0.1595
# 5 10.5693 11.3866 4.2151 0.0000 28.5615 0.0000
# 6 0.0000 0.0000 0.0000 0.1595 0.0000 57.5547
#
#
#
# Elastic Compliance Matrix: (Units=1/GPa)
#
#
# Indices 1 2 3 4 5 6 
#
# 1 0.011747 -0.003046 -0.001363 0.000000 -0.002932 0.000000
# 2 -0.003046 0.009812 -0.002935 0.000000 -0.002351 0.000000
# 3 -0.001363 -0.002935 0.011151 0.000000 0.000029 0.000000
# 4 0.000000 0.000000 0.000000 0.018825 0.000000 -0.000052
# 5 -0.002932 -0.002351 0.000029 0.000000 0.037030 0.000000
# 6 0.000000 0.000000 0.000000 -0.000052 0.000000 0.017375
#
#
# Mechanical properties :
#
#
# Convention : Reuss Voigt Hill
#
# Bulk Modulus (GPa) = 55.48869 59.79660 57.64265
# Shear Modulus (GPa) = 39.48390 43.17746 41.33068
#
# Velocity S-wave (km/s) = 4.01389 4.19744 4.10669
# Velocity P-wave (km/s) = 6.64257 6.92034 6.78288
#
# Compressibility (1/GPa) = 0.01802169
#
# Stress axis : x y z
#
# Youngs Moduli (GPa) = 85.13104 101.91950 89.67817
#
# Poissons Ratio (x) = 0.31040 0.12224
# Poissons Ratio (y) = 0.25927 0.26322
# Poissons Ratio (z) = 0.11604 0.29915
#
# Static dielectric constant tensor:
#      x y z
#    x 12.659170 0.000000 0.377070 
#    y 0.000000 4.918100 0.000000 
#    z 0.377070 0.000000 5.297330 
# 
# 
# High freq. dielectric constant tensor:
#      x y z
#    x 1.969010 0.000000 0.010060 
#    y 0.000000 1.996280 0.000000 
#    z 0.010060 0.000000 1.986860 
# 
# From -- ./inp_files/150554.got.cif
#   From: 2010.06.25/outbox.cif.g09.slc.cpg/sg15_76_cif.got.tgz:150554.got - 2010.06.28 07:06:18.
