data_PCOD8155401
_publ_section_title
;
Structure prediction by ZEFSAII (Michael W. Deem and Ramdas Pophale) SiO2 
 PCOD8155401
Probable space group: P 2 2 21
;
_chemical_formula_sum "Si O2"
_cell_formula_units_Z 20
_cell_length_a 5.541813
_cell_length_b 11.291306
_cell_length_c 14.693413
_cell_angle_alpha 90.000000
_cell_angle_beta 90.000000
_cell_angle_gamma 90.000000
_cell_volume 919.430127
_symmetry_space_group_name_H-M "P 2 2 21"
_symmetry_group_IT_number 17
_symmetry_cell_setting 'orthorhombic'
loop_
_space_group_symop_operation_xyz
x,y,z
-x,-y,1/2+z
x,-y,-z
-x,y,1/2-z
loop_
_atom_site_type_symbol
_atom_site_label
_atom_site_fract_x
_atom_site_fract_y
_atom_site_fract_z
Si Si1 0.665316 0.144380 0.119715
Si Si2 0.274444 0.320419 0.083379
Si Si3 0.397874 0.500000 0.500000
Si Si4 0.753176 0.099559 0.803199
Si Si5 0.000000 0.730097 0.750000
Si Si6 0.886922 0.723051 0.047488
O O1 0.395392 0.195490 0.111404
O O2 0.780173 0.190210 0.213990
O O3 0.673087 0.002325 0.125579
O O4 0.804424 0.187912 0.031259
O O5 0.452648 0.431715 0.078044
O O6 0.084569 0.350476 0.164008
O O7 0.162875 0.304687 0.981588
O O8 0.242589 0.403172 0.552923
O O9 0.500000 0.127891 0.750000
O O10 0.845222 0.216127 0.855933
O O11 0.000000 0.060638 0.750000
#
# Coordination Sequence:
#
# PCOD8155401 Si02
#       6
#     4   4   2   4   2   4
#     4  10  21  41  68  99 137 171 227 276 351 417
#     4  10  21  39  72  92 137 173 235 289 349 407
#     4  10  22  44  66  90 130 184 234 290 336 412
#     4  12  27  45  70 104 149 183 224 287 353 429
#     4  10  18  36  62 106 124 168 218 288 342 410
#     4  10  24  44  68  98 130 187 235 284 347 416
#
# _framework density 21.752604000000002
#
# number of rings (size 3 to 8) (size 9 to 14) (size 15 to 20)
#    0.000    1.600    1.000    3.000    8.400    0.000 
#    0.000    8.000    8.800    0.000    0.000    0.000 
#    0.000    0.000    0.000    0.000    0.000    0.000 
#
# Total GULP energy -247767.499831 kJ/mol
# GULP energy per Si atom -12388.374992 kJ/mol
# Density = 2.170309 g / cm^3
# Si number density = 21.752604 Si / 1000 Ang^3
#
#
#
# Elastic Constant Matrix: (Units=GPa)
#
#
# Indices 1 2 3 4 5 6 
#
# 1 130.3651 46.2785 34.7958 0.0000 0.0000 0.0000
# 2 46.2785 141.5261 38.9779 0.0000 0.0000 0.0000
# 3 34.7958 38.9779 57.4718 0.0000 0.0000 0.0000
# 4 0.0000 0.0000 0.0000 21.4789 0.0000 0.0000
# 5 0.0000 0.0000 0.0000 0.0000 29.9134 0.0000
# 6 0.0000 0.0000 0.0000 0.0000 0.0000 20.3877
#
#
#
# Elastic Compliance Matrix: (Units=1/GPa)
#
#
# Indices 1 2 3 4 5 6 
#
# 1 0.009539 -0.001880 -0.004501 0.000000 0.000000 0.000000
# 2 -0.001880 0.009059 -0.005006 0.000000 0.000000 0.000000
# 3 -0.004501 -0.005006 0.023520 0.000000 0.000000 0.000000
# 4 0.000000 0.000000 0.000000 0.046557 0.000000 0.000000
# 5 0.000000 0.000000 0.000000 0.000000 0.033430 0.000000
# 6 0.000000 0.000000 0.000000 0.000000 0.000000 0.049049
#
#
# Mechanical properties :
#
#
# Convention : Reuss Voigt Hill
#
# Bulk Modulus (GPa) = 51.69127 63.27416 57.48272
# Shear Modulus (GPa) = 24.95309 28.31004 26.63157
#
# Velocity S-wave (km/s) = 3.39061 3.61148 3.50279
# Velocity P-wave (km/s) = 6.25645 6.82214 6.54541
#
# Compressibility (1/GPa) = 0.01934562
#
# Stress axis : x y z
#
# Youngs Moduli (GPa) = 104.82904 110.38491 42.51746
#
# Poissons Ratio (x) = 0.20750 0.19135
# Poissons Ratio (y) = 0.19706 0.21284
# Poissons Ratio (z) = 0.47179 0.55258
#
# Static dielectric constant tensor:
#      x y z
#    x 4.306620 0.000000 0.000000 
#    y 0.000000 3.775910 0.000000 
#    z 0.000000 0.000000 3.777120 
# 
# 
# High freq. dielectric constant tensor:
#      x y z
#    x 1.868690 0.000000 0.000000 
#    y 0.000000 1.840180 0.000000 
#    z 0.000000 0.000000 1.841640 
# 
# From -- ./inp_files/7661.got.cif
#   From: 2010.03.12/outbox.cif.g09.slc.cpg/sg17_4_cif.got.tgz:7661.got - 2010.04.10 18:46:23.
