data_PCOD8155563
_publ_section_title
;
Structure prediction by ZEFSAII (Michael W. Deem and Ramdas Pophale) SiO2 
 PCOD8155563
Probable space group: P 2 2 21
;
_chemical_formula_sum "Si O2"
_cell_formula_units_Z 16
_cell_length_a 18.159961
_cell_length_b 5.009299
_cell_length_c 8.740935
_cell_angle_alpha 90.000000
_cell_angle_beta 90.000000
_cell_angle_gamma 90.000000
_cell_volume 795.151271
_symmetry_space_group_name_H-M "P 2 2 21"
_symmetry_group_IT_number 17
_symmetry_cell_setting 'orthorhombic'
loop_
_space_group_symop_operation_xyz
x,y,z
-x,-y,1/2+z
x,-y,-z
-x,y,1/2-z
loop_
_atom_site_type_symbol
_atom_site_label
_atom_site_fract_x
_atom_site_fract_y
_atom_site_fract_z
Si Si1 0.213904 0.255566 0.898010
Si Si2 0.422384 0.518098 0.680205
Si Si3 0.333445 0.975361 0.320235
Si Si4 0.950871 0.260596 0.602400
O O1 0.261344 0.156843 0.753653
O O2 0.132068 0.336120 0.841706
O O3 0.247840 0.500000 0.000000
O O4 0.206625 0.000000 0.000000
O O5 0.430676 0.500000 0.500000
O O6 0.500000 0.602410 0.750000
O O7 0.398966 0.222964 0.731280
O O8 0.359878 0.731733 0.735218
O O9 0.318140 0.000000 0.500000
O O10 0.983281 0.500000 0.500000
O O11 0.000000 0.214855 0.750000
O O12 0.952739 0.000000 0.500000
#
# Coordination Sequence:
#
# PCOD8155563 Si02
#       4
#     4   4   4   4
#     4  10  21  37  57  83 113 145 186 233 278 331
#     4  10  21  36  54  78 108 142 184 232 280 334
#     4  10  21  37  55  79 111 145 185 231 280 337
#     4  10  21  38  59  86 119 152 191 236 281 336
#
# _framework density 20.121957999999999
#
# number of rings (size 3 to 8) (size 9 to 14) (size 15 to 20)
#    0.000    2.000    0.000    3.000    0.000    4.000 
#    0.000    3.750    0.000    0.000    0.000    0.000 
#    0.000    0.000    0.000    0.000    0.000    0.000 
#
# Total GULP energy -198260.960318 kJ/mol
# GULP energy per Si atom -12391.310020 kJ/mol
# Density = 2.007616 g / cm^3
# Si number density = 20.121958 Si / 1000 Ang^3
#
#
#
# Elastic Constant Matrix: (Units=GPa)
#
#
# Indices 1 2 3 4 5 6 
#
# 1 99.9936 33.0461 61.2496 0.0000 0.0000 0.0000
# 2 33.0461 128.2519 46.0535 0.0000 0.0000 0.0000
# 3 61.2496 46.0535 76.7220 0.0000 0.0000 0.0000
# 4 0.0000 0.0000 0.0000 28.4564 0.0000 0.0000
# 5 0.0000 0.0000 0.0000 0.0000 39.6932 0.0000
# 6 0.0000 0.0000 0.0000 0.0000 0.0000 32.5644
#
#
#
# Elastic Compliance Matrix: (Units=1/GPa)
#
#
# Indices 1 2 3 4 5 6 
#
# 1 0.019624 0.000726 -0.016102 0.000000 0.000000 0.000000
# 2 0.000726 0.009966 -0.006562 0.000000 0.000000 0.000000
# 3 -0.016102 -0.006562 0.029827 0.000000 0.000000 0.000000
# 4 0.000000 0.000000 0.000000 0.035142 0.000000 0.000000
# 5 0.000000 0.000000 0.000000 0.000000 0.025193 0.000000
# 6 0.000000 0.000000 0.000000 0.000000 0.000000 0.030708
#
#
# Mechanical properties :
#
#
# Convention : Reuss Voigt Hill
#
# Bulk Modulus (GPa) = 64.34310 65.07396 64.70853
# Shear Modulus (GPa) = 25.06047 31.11734 28.08890
#
# Velocity S-wave (km/s) = 3.53289 3.93674 3.74027
# Velocity P-wave (km/s) = 6.97766 7.28518 7.13308
#
# Compressibility (1/GPa) = 0.01554168
#
# Stress axis : x y z
#
# Youngs Moduli (GPa) = 50.95854 100.33677 33.52614
#
# Poissons Ratio (x) = -0.07280 0.53983
# Poissons Ratio (y) = -0.03697 0.21999
# Poissons Ratio (z) = 0.82053 0.65838
#
# Static dielectric constant tensor:
#      x y z
#    x 3.809370 0.000000 0.000000 
#    y 0.000000 4.043280 0.000000 
#    z 0.000000 0.000000 3.988620 
# 
# 
# High freq. dielectric constant tensor:
#      x y z
#    x 1.777720 0.000000 0.000000 
#    y 0.000000 1.811940 0.000000 
#    z 0.000000 0.000000 1.769890 
# 
# From -- ./inp_files/5329.got.cif
#   From: 2010.03.12/outbox.cif.g09.slc.cpg/sg17_3_cif.got.tgz:5329.got - 2010.04.10 18:46:23.
