data_PCOD8155737
_publ_section_title
;
Structure prediction by ZEFSAII (Michael W. Deem and Ramdas Pophale) SiO2 
 PCOD8155737
Probable space group: P 2 2 21
;
_chemical_formula_sum "Si O2"
_cell_formula_units_Z 18
_cell_length_a 8.298999
_cell_length_b 7.414717
_cell_length_c 11.844558
_cell_angle_alpha 90.000000
_cell_angle_beta 90.000000
_cell_angle_gamma 90.000000
_cell_volume 728.851666
_symmetry_space_group_name_H-M "P 2 2 21"
_symmetry_group_IT_number 17
_symmetry_cell_setting 'orthorhombic'
loop_
_space_group_symop_operation_xyz
x,y,z
-x,-y,1/2+z
x,-y,-z
-x,y,1/2-z
loop_
_atom_site_type_symbol
_atom_site_label
_atom_site_fract_x
_atom_site_fract_y
_atom_site_fract_z
Si Si1 0.558259 0.000000 0.500000
Si Si2 0.274097 0.895857 0.651547
Si Si3 0.822703 0.594669 0.696913
Si Si4 0.977065 0.700929 0.996755
Si Si5 0.218129 0.202074 0.830232
O O1 0.445485 0.901804 0.591316
O O2 0.665643 0.862758 0.429512
O O3 0.290413 0.735731 0.740534
O O4 0.139638 0.849436 0.557237
O O5 0.225362 0.077972 0.718612
O O6 0.854666 0.672822 0.571716
O O7 0.729732 0.404480 0.703826
O O8 0.000000 0.582020 0.750000
O O9 0.034656 0.222191 0.880975
O O10 0.893288 0.500000 0.000000
#
# Coordination Sequence:
#
# PCOD8155737 Si02
#       5
#     2   4   4   4   4
#     4  12  28  44  64 100 144 188 224 268 334 400
#     4  11  25  46  69 102 139 177 227 276 334 403
#     4   9  21  42  72 103 130 170 226 285 339 394
#     4   9  21  44  74 103 131 171 225 287 344 393
#     4  11  24  47  70  99 139 179 226 277 337 401
#
# _framework density 24.696382
#
# number of rings (size 3 to 8) (size 9 to 14) (size 15 to 20)
#    0.000    1.778    0.000    2.000    0.000   16.000 
#    0.000   30.000    0.000    0.000    0.000    0.000 
#    0.000    0.000    0.000    0.000    0.000    0.000 
#
# Total GULP energy -223078.783054 kJ/mol
# GULP energy per Si atom -12393.265725 kJ/mol
# Density = 2.464017 g / cm^3
# Si number density = 24.696382 Si / 1000 Ang^3
#
#
#
# Elastic Constant Matrix: (Units=GPa)
#
#
# Indices 1 2 3 4 5 6 
#
# 1 63.0399 44.5651 0.6204 0.0000 0.0000 0.0000
# 2 44.5651 127.6615 4.7101 0.0000 0.0000 0.0000
# 3 0.6204 4.7101 29.9415 0.0000 0.0000 0.0000
# 4 0.0000 0.0000 0.0000 48.7107 0.0000 0.0000
# 5 0.0000 0.0000 0.0000 0.0000 45.3800 0.0000
# 6 0.0000 0.0000 0.0000 0.0000 0.0000 -18.2314
#
#
#
# Elastic Compliance Matrix: (Units=1/GPa)
#
#
# Indices 1 2 3 4 5 6 
#
# 1 0.021076 -0.007384 0.000725 0.000000 0.000000 0.000000
# 2 -0.007384 0.010466 -0.001493 0.000000 0.000000 0.000000
# 3 0.000725 -0.001493 0.033618 0.000000 0.000000 0.000000
# 4 0.000000 0.000000 0.000000 0.020529 0.000000 0.000000
# 5 0.000000 0.000000 0.000000 0.000000 0.022036 0.000000
# 6 0.000000 0.000000 0.000000 0.000000 0.000000 -0.054851
#
#
# Mechanical properties :
#
#
# Convention : Reuss Voigt Hill
#
# Bulk Modulus (GPa) = 20.46869 35.60380 28.03624
# Shear Modulus (GPa) = 58.50303 26.55502 42.52902
#
# Velocity S-wave (km/s) = 4.87241 3.28267 4.15429
# Velocity P-wave (km/s) = 6.32138 5.36804 5.86412
#
# Compressibility (1/GPa) = 0.04885510
#
# Stress axis : x y z
#
# Youngs Moduli (GPa) = 47.44748 95.54733 29.74560
#
# Poissons Ratio (x) = 0.70553 -0.02156
# Poissons Ratio (y) = 0.35036 0.04442
# Poissons Ratio (z) = -0.03439 0.14269
#
# Static dielectric constant tensor:
#      x y z
#    x 3.986860 0.000000 0.000000 
#    y 0.000000 4.659400 0.000000 
#    z 0.000000 0.000000 5.306160 
# 
# 
# High freq. dielectric constant tensor:
#      x y z
#    x 1.940210 0.000000 0.000000 
#    y 0.000000 1.997830 0.000000 
#    z 0.000000 0.000000 2.014480 
# 
# From -- ./inp_files/9242.got.cif
#   From: 2010.03.12/outbox.cif.g09.slc.cpg/sg17_5_cif.got.tgz:9242.got - 2010.04.10 18:46:23.
