data_PCOD8155000
_publ_section_title
;
Structure prediction by ZEFSAII (Michael W. Deem and Ramdas Pophale) SiO2 
 PCOD8155000
Probable space group: C 2/C
;
_chemical_formula_sum "Si O2"
_cell_formula_units_Z 36
_cell_length_a 14.669266
_cell_length_b 11.793328
_cell_length_c 14.765915
_cell_angle_alpha 90.000000
_cell_angle_beta 139.302766
_cell_angle_gamma 90.000000
_cell_volume 1665.688879
_symmetry_space_group_name_H-M "C 2/C"
_symmetry_group_IT_number 15
_symmetry_cell_setting 'monoclinic'
loop_
_space_group_symop_operation_xyz
x,y,z
-x,y,1/2-z
-x,-y,-z
x,-y,1/2+z
1/2+x,1/2+y,z
1/2-x,1/2+y,1/2-z
1/2-x,1/2-y,-z
1/2+x,1/2-y,1/2+z
loop_
_atom_site_type_symbol
_atom_site_label
_atom_site_fract_x
_atom_site_fract_y
_atom_site_fract_z
Si Si1 0.078963 0.455113 0.470242
Si Si2 0.069748 0.246200 0.100461
Si Si3 0.600271 0.541849 0.245478
Si Si4 0.000000 0.384068 0.750000
Si Si5 0.117429 0.213671 0.709416
O O1 0.240156 0.433275 0.611230
O O2 0.072126 0.539549 0.380471
O O3 0.000000 0.500000 0.500000
O O4 0.008031 0.334754 0.390851
O O5 0.059133 0.118041 0.127942
O O6 0.228261 0.289147 0.214455
O O7 0.996095 0.256409 0.947937
O O8 0.500000 0.582209 0.250000
O O9 0.571981 0.411070 0.204538
O O10 0.883754 0.301982 0.707599
#
# Coordination Sequence:
#
# PCOD8155000 Si02
#       5
#     8   8   8   4   8
#     4  12  25  49  71 105 148 191 234 295 367 424
#     4  12  26  48  72 102 150 190 235 290 368 421
#     4  12  27  45  71 109 142 184 247 297 350 423
#     4  12  26  44  78 106 144 186 240 294 360 426
#     4  12  25  46  74 104 142 190 239 293 349 432
#
# _framework density 21.612679
#
# number of rings (size 3 to 8) (size 9 to 14) (size 15 to 20)
#    0.000    0.000    7.778    0.667    4.667    4.444 
#    0.000    0.000    0.000    0.000    0.000    0.000 
#    0.000    0.000    0.000    0.000    0.000    0.000 
#
# Total GULP energy -223264.436216 kJ/mol
# GULP energy per Si atom -12403.579790 kJ/mol
# Density = 2.156349 g / cm^3
# Si number density = 21.612679 Si / 1000 Ang^3
#
#
#
# Elastic Constant Matrix: (Units=GPa)
#
#
# Indices 1 2 3 4 5 6 
#
# 1 115.1149 45.1014 49.1027 0.0000 3.6542 0.0000
# 2 45.1014 155.7393 48.8352 0.0000 -12.7454 0.0000
# 3 49.1027 48.8352 101.3773 0.0000 0.2833 0.0000
# 4 0.0000 0.0000 0.0000 40.2186 0.0000 -11.4772
# 5 3.6542 -12.7454 0.2833 0.0000 38.4474 0.0000
# 6 0.0000 0.0000 0.0000 -11.4772 0.0000 48.4915
#
#
#
# Elastic Compliance Matrix: (Units=1/GPa)
#
#
# Indices 1 2 3 4 5 6 
#
# 1 0.011493 -0.002033 -0.004583 0.000000 -0.001733 0.000000
# 2 -0.002033 0.008178 -0.002963 0.000000 0.002926 0.000000
# 3 -0.004583 -0.002963 0.013513 0.000000 -0.000646 0.000000
# 4 0.000000 0.000000 0.000000 0.026665 0.000000 0.006311
# 5 -0.001733 0.002926 -0.000646 0.000000 0.027149 0.000000
# 6 0.000000 0.000000 0.000000 0.006311 0.000000 0.022116
#
#
# Mechanical properties :
#
#
# Convention : Reuss Voigt Hill
#
# Bulk Modulus (GPa) = 71.29162 73.14558 72.21860
# Shear Modulus (GPa) = 37.60867 40.71097 39.15982
#
# Velocity S-wave (km/s) = 4.17600 4.34483 4.26125
# Velocity P-wave (km/s) = 7.50397 7.68683 7.59595
#
# Compressibility (1/GPa) = 0.01402689
#
# Stress axis : x y z
#
# Youngs Moduli (GPa) = 87.00728 122.27320 74.00348
#
# Poissons Ratio (x) = 0.24861 0.33912
# Poissons Ratio (y) = 0.17691 0.21928
# Poissons Ratio (z) = 0.39872 0.36230
#
# Static dielectric constant tensor:
#      x y z
#    x 3.903130 0.000000 -0.060050 
#    y 0.000000 4.331480 0.000000 
#    z -0.060050 0.000000 3.790530 
# 
# 
# High freq. dielectric constant tensor:
#      x y z
#    x 1.850280 0.000000 0.006460 
#    y 0.000000 1.876040 0.000000 
#    z 0.006460 0.000000 1.843570 
# 
# From -- ./inp_files/94444.got.cif
#   From: 2010.06.25/outbox.cif.g09.slc.cpg/sg15_48_cif.got.tgz:94444.got - 2010.06.28 07:06:18.
