data_PCOD8155248
_publ_section_title
;
Structure prediction by ZEFSAII (Michael W. Deem and Ramdas Pophale) SiO2 
 PCOD8155248
Probable space group: P 2 2 2
;
_chemical_formula_sum "Si O2"
_cell_formula_units_Z 32
_cell_length_a 9.139419
_cell_length_b 15.064916
_cell_length_c 11.665396
_cell_angle_alpha 90.000000
_cell_angle_beta 90.000000
_cell_angle_gamma 90.000000
_cell_volume 1606.145143
_symmetry_space_group_name_H-M "P 2 2 2"
_symmetry_group_IT_number 16
_symmetry_cell_setting 'orthorhombic'
loop_
_space_group_symop_operation_xyz
x,y,z
-x,-y,z
x,-y,-z
-x,y,-z
loop_
_atom_site_type_symbol
_atom_site_label
_atom_site_fract_x
_atom_site_fract_y
_atom_site_fract_z
Si Si1 0.173063 0.492986 0.371303
Si Si2 0.338209 0.914173 0.051786
Si Si3 0.169536 0.827652 0.393282
Si Si4 0.836567 0.671614 0.216688
Si Si5 0.674836 0.282290 0.007640
Si Si6 0.662312 0.019595 0.306752
Si Si7 0.848736 0.844870 0.347228
Si Si8 0.819122 0.336410 0.234668
O O1 0.239968 0.500000 0.500000
O O2 0.219768 0.402430 0.306648
O O3 0.232292 0.574320 0.296803
O O4 0.000000 0.500000 0.380819
O O5 0.337953 0.928319 0.186907
O O6 0.500000 0.914513 0.000000
O O7 0.266051 0.820007 0.017122
O O8 0.251856 0.000000 0.000000
O O9 0.280598 0.909385 0.396865
O O10 0.163850 0.802310 0.526254
O O11 0.220722 0.743001 0.321285
O O12 0.020864 0.865846 0.335830
O O13 0.751110 0.664873 0.096397
O O14 0.794900 0.768308 0.262981
O O15 0.010465 0.662050 0.198977
O O16 0.500000 0.285168 0.000000
O O17 0.720922 0.332153 0.122338
O O18 0.500000 0.000000 0.346319
O O19 0.758085 0.930904 0.311774
#
# Coordination Sequence:
#
# PCOD8155248 Si02
#       8
#     4   4   4   4   4   4   4   4
#     4   9  18  36  65  96 119 149 194 241 292 346
#     4  10  19  35  55  76 104 151 194 238 282 332
#     4  10  21  39  56  83 119 157 189 237 303 351
#     4  10  21  37  62  91 117 150 197 243 288 344
#     4  11  23  38  59  83 119 159 196 238 296 348
#     4  12  22  35  58  84 110 149 205 242 284 341
#     4  10  22  37  58  82 120 156 189 239 299 356
#     4  10  20  38  63  88 120 151 195 246 286 346
#
# _framework density 19.923477999999999
#
# number of rings (size 3 to 8) (size 9 to 14) (size 15 to 20)
#    0.000    1.750    2.500    2.625    1.750    5.500 
#    0.000    3.125    0.000    3.000    0.000    0.000 
#    0.000    0.000    0.000    0.000    0.000    0.000 
#
# Total GULP energy -396662.617586 kJ/mol
# GULP energy per Si atom -12395.706800 kJ/mol
# Density = 1.987813 g / cm^3
# Si number density = 19.923478 Si / 1000 Ang^3
#
#
#
# Elastic Constant Matrix: (Units=GPa)
#
#
# Indices 1 2 3 4 5 6 
#
# 1 58.1872 35.9910 30.1863 0.0000 0.0000 0.0000
# 2 35.9910 113.6789 45.9026 0.0000 0.0000 0.0000
# 3 30.1863 45.9026 120.7099 0.0000 0.0000 0.0000
# 4 0.0000 0.0000 0.0000 43.5392 0.0000 0.0000
# 5 0.0000 0.0000 0.0000 0.0000 20.7621 0.0000
# 6 0.0000 0.0000 0.0000 0.0000 0.0000 13.7689
#
#
#
# Elastic Compliance Matrix: (Units=1/GPa)
#
#
# Indices 1 2 3 4 5 6 
#
# 1 0.022525 -0.005738 -0.003451 0.000000 0.000000 0.000000
# 2 -0.005738 0.011854 -0.003073 0.000000 0.000000 0.000000
# 3 -0.003451 -0.003073 0.010316 0.000000 0.000000 0.000000
# 4 0.000000 0.000000 0.000000 0.022968 0.000000 0.000000
# 5 0.000000 0.000000 0.000000 0.000000 0.048165 0.000000
# 6 0.000000 0.000000 0.000000 0.000000 0.000000 0.072628
#
#
# Mechanical properties :
#
#
# Convention : Reuss Voigt Hill
#
# Bulk Modulus (GPa) = 49.57473 57.41510 53.49492
# Shear Modulus (GPa) = 22.75795 27.64709 25.20252
#
# Velocity S-wave (km/s) = 3.38341 3.72918 3.56049
# Velocity P-wave (km/s) = 6.34034 6.88642 6.61901
#
# Compressibility (1/GPa) = 0.02017157
#
# Stress axis : x y z
#
# Youngs Moduli (GPa) = 44.39425 84.35812 96.93822
#
# Poissons Ratio (x) = 0.48406 0.33453
# Poissons Ratio (y) = 0.25474 0.29788
# Poissons Ratio (z) = 0.15320 0.25922
#
# Static dielectric constant tensor:
#      x y z
#    x 3.313630 0.000000 0.000000 
#    y 0.000000 3.873710 0.000000 
#    z 0.000000 0.000000 3.631950 
# 
# 
# High freq. dielectric constant tensor:
#      x y z
#    x 1.742120 0.000000 0.000000 
#    y 0.000000 1.786040 0.000000 
#    z 0.000000 0.000000 1.791500 
# 
# From -- ./inp_files/6638.got.cif
#   From: 2010.03.12/outbox.cif.g09.slc.cpg/sg16_4_cif.got.tgz:6638.got - 2010.03.31 00:51:45.
