data_PCOD8155184
_publ_section_title
;
Structure prediction by ZEFSAII (Michael W. Deem and Ramdas Pophale) SiO2 
 PCOD8155184
Probable space group: C 2/C
;
_chemical_formula_sum "Si O2"
_cell_formula_units_Z 32
_cell_length_a 8.214980
_cell_length_b 11.478890
_cell_length_c 28.316647
_cell_angle_alpha 90.000000
_cell_angle_beta 150.401540
_cell_angle_gamma 90.000000
_cell_volume 1318.874651
_symmetry_space_group_name_H-M "C 2/C"
_symmetry_group_IT_number 15
_symmetry_cell_setting 'monoclinic'
loop_
_space_group_symop_operation_xyz
x,y,z
-x,y,1/2-z
-x,-y,-z
x,-y,1/2+z
1/2+x,1/2+y,z
1/2-x,1/2+y,1/2-z
1/2-x,1/2-y,-z
1/2+x,1/2-y,1/2+z
loop_
_atom_site_type_symbol
_atom_site_label
_atom_site_fract_x
_atom_site_fract_y
_atom_site_fract_z
Si Si1 0.812776 0.081010 0.156195
Si Si2 0.875856 0.923731 0.343295
Si Si3 0.015044 0.727031 0.501546
Si Si4 0.796323 0.069354 0.999972
O O1 0.000000 0.124725 0.250000
O O2 0.541521 0.986684 0.103692
O O3 0.618839 0.192289 0.084434
O O4 0.061292 0.019832 0.181803
O O5 0.500000 0.882582 0.250000
O O6 0.108261 0.811010 0.394142
O O7 0.961099 0.974703 0.416269
O O8 0.980389 0.865796 0.502680
O O9 0.776460 0.660036 0.476877
#
# Coordination Sequence:
#
# PCOD8155184 Si02
#       4
#     8   8   8   8
#     4   9  17  31  55  85 117 155 196 243 298 351
#     4   9  17  31  55  85 117 155 196 243 298 351
#     4   8  15  31  54  82 117 153 197 245 290 354
#     4   8  15  31  54  80 113 156 200 239 289 355
#
# _framework density 24.263107999999999
#
# number of rings (size 3 to 8) (size 9 to 14) (size 15 to 20)
#    0.000    3.500    0.000    3.000    0.000    0.000 
#    0.000   25.000    0.000    9.000    0.000   14.000 
#    0.000   16.000    0.000    2.000    0.000    0.000 
#
# Total GULP energy -198344.123149 kJ/mol
# GULP energy per Si atom -12396.507697 kJ/mol
# Density = 2.420788 g / cm^3
# Si number density = 24.263108 Si / 1000 Ang^3
#
#
#
# Elastic Constant Matrix: (Units=GPa)
#
#
# Indices 1 2 3 4 5 6 
#
# 1 92.5032 34.9981 54.6813 -0.0005 3.7056 -0.0002
# 2 34.9981 74.6262 31.8123 0.0005 4.2323 0.0001
# 3 54.6813 31.8123 163.4109 0.0046 3.8151 0.0017
# 4 -0.0005 0.0005 0.0046 12.4570 -0.0002 0.5585
# 5 3.7056 4.2323 3.8151 -0.0002 45.3932 0.0002
# 6 -0.0002 0.0001 0.0017 0.5585 0.0002 48.0141
#
#
#
# Elastic Compliance Matrix: (Units=1/GPa)
#
#
# Indices 1 2 3 4 5 6 
#
# 1 0.015265 -0.005412 -0.004045 0.000002 -0.000402 0.000000
# 2 -0.005412 0.016589 -0.001395 0.000000 -0.000988 0.000000
# 3 -0.004045 -0.001395 0.007749 -0.000003 -0.000191 0.000000
# 4 0.000002 0.000000 -0.000003 0.080318 0.000000 -0.000934
# 5 -0.000402 -0.000988 -0.000191 0.000000 0.022171 0.000000
# 6 0.000000 0.000000 0.000000 -0.000934 0.000000 0.020838
#
#
# Mechanical properties :
#
#
# Convention : Reuss Voigt Hill
#
# Bulk Modulus (GPa) = 55.87063 63.72486 59.79774
# Shear Modulus (GPa) = 26.23264 35.10941 30.67103
#
# Velocity S-wave (km/s) = 3.29169 3.80811 3.55928
# Velocity P-wave (km/s) = 6.12568 6.75698 6.44906
#
# Compressibility (1/GPa) = 0.01789849
#
# Stress axis : x y z
#
# Youngs Moduli (GPa) = 65.50788 60.28056 129.04398
#
# Poissons Ratio (x) = 0.32623 0.52201
# Poissons Ratio (y) = 0.35452 0.18008
# Poissons Ratio (z) = 0.26499 0.08412
#
# Static dielectric constant tensor:
#      x y z
#    x 4.643410 0.000000 -0.158980 
#    y 0.000000 4.545840 0.000000 
#    z -0.158980 0.000000 4.078310 
# 
# 
# High freq. dielectric constant tensor:
#      x y z
#    x 1.974170 0.000000 -0.001790 
#    y 0.000000 1.960950 0.000000 
#    z -0.001790 0.000000 1.945300 
# 
# From -- ./inp_files/125422.got.cif
#   From: 2010.06.25/outbox.cif.g09.slc.cpg/sg15_63_cif.got.tgz:125422.got - 2010.06.28 07:06:18.
