data_PCOD8155396
_publ_section_title
;
Structure prediction by ZEFSAII (Michael W. Deem and Ramdas Pophale) SiO2 
 PCOD8155396
Probable space group: P 2 2 21
;
_chemical_formula_sum "Si O2"
_cell_formula_units_Z 26
_cell_length_a 5.271679
_cell_length_b 15.877561
_cell_length_c 15.774537
_cell_angle_alpha 90.000000
_cell_angle_beta 90.000000
_cell_angle_gamma 90.000000
_cell_volume 1320.350908
_symmetry_space_group_name_H-M "P 2 2 21"
_symmetry_group_IT_number 17
_symmetry_cell_setting 'orthorhombic'
loop_
_space_group_symop_operation_xyz
x,y,z
-x,-y,1/2+z
x,-y,-z
-x,y,1/2-z
loop_
_atom_site_type_symbol
_atom_site_label
_atom_site_fract_x
_atom_site_fract_y
_atom_site_fract_z
Si Si1 0.802305 0.775514 0.104502
Si Si2 0.982490 0.439871 0.351016
Si Si3 0.465947 0.817816 0.554249
Si Si4 0.889774 0.626811 0.343703
Si Si5 0.500000 0.279151 0.750000
Si Si6 0.020896 0.098334 0.011686
Si Si7 0.486117 0.349473 0.350001
O O1 0.702603 0.781473 0.202044
O O2 0.964905 0.690173 0.093690
O O3 0.981654 0.855639 0.080221
O O4 0.568434 0.772976 0.037723
O O5 0.916841 0.534132 0.383527
O O6 0.752230 0.383375 0.387342
O O7 0.000000 0.437938 0.250000
O O8 0.249477 0.404226 0.386743
O O9 0.729141 0.867824 0.558670
O O10 0.456799 0.748004 0.627036
O O11 0.227429 0.881411 0.569466
O O12 0.604198 0.660805 0.326366
O O13 0.000000 0.627976 0.250000
O O14 0.053217 0.000000 0.000000
O O15 0.500000 0.358387 0.250000
#
# Coordination Sequence:
#
# PCOD8155396 Si02
#       7
#     4   4   4   4   2   4   4
#     4   9  21  34  60  83 119 149 193 233 300 347
#     4   9  19  31  54  82 110 152 201 235 276 327
#     4  10  21  38  62  83 116 147 195 235 294 348
#     4   9  18  31  53  82 116 152 190 238 278 336
#     4  10  18  34  60  86 116 158 192 238 296 342
#     4  10  21  39  64  85 109 149 194 233 293 368
#     4  10  20  36  58  83 114 156 199 241 278 336
#
# _framework density 19.691732999999999
#
# number of rings (size 3 to 8) (size 9 to 14) (size 15 to 20)
#    0.923    1.538    0.000    2.308    7.538    0.000 
#    0.000    0.769    1.692    1.846    0.000    0.000 
#    0.000    0.000    0.000    0.000    0.000    0.000 
#
# Total GULP energy -322095.416114 kJ/mol
# GULP energy per Si atom -12388.285235 kJ/mol
# Density = 1.964691 g / cm^3
# Si number density = 19.691733 Si / 1000 Ang^3
#
#
#
# Elastic Constant Matrix: (Units=GPa)
#
#
# Indices 1 2 3 4 5 6 
#
# 1 146.5678 52.2511 15.7533 0.0000 0.0000 0.0000
# 2 52.2511 131.0481 14.5639 0.0000 0.0000 0.0000
# 3 15.7533 14.5639 11.4064 0.0000 0.0000 0.0000
# 4 0.0000 0.0000 0.0000 26.6882 0.0000 0.0000
# 5 0.0000 0.0000 0.0000 0.0000 13.6563 0.0000
# 6 0.0000 0.0000 0.0000 0.0000 0.0000 31.2825
#
#
#
# Elastic Compliance Matrix: (Units=1/GPa)
#
#
# Indices 1 2 3 4 5 6 
#
# 1 0.008649 -0.002472 -0.008789 0.000000 0.000000 0.000000
# 2 -0.002472 0.009599 -0.008843 0.000000 0.000000 0.000000
# 3 -0.008789 -0.008843 0.111098 0.000000 0.000000 0.000000
# 4 0.000000 0.000000 0.000000 0.037470 0.000000 0.000000
# 5 0.000000 0.000000 0.000000 0.000000 0.073226 0.000000
# 6 0.000000 0.000000 0.000000 0.000000 0.000000 0.031967
#
#
# Mechanical properties :
#
#
# Convention : Reuss Voigt Hill
#
# Bulk Modulus (GPa) = 11.21829 50.46209 30.84019
# Shear Modulus (GPa) = 14.62299 28.08902 21.35601
#
# Velocity S-wave (km/s) = 2.72802 3.78092 3.29677
# Velocity P-wave (km/s) = 3.95374 6.68895 5.49428
#
# Compressibility (1/GPa) = 0.08914017
#
# Stress axis : x y z
#
# Youngs Moduli (GPa) = 115.62682 104.17795 9.00104
#
# Poissons Ratio (x) = 0.25749 0.07911
# Poissons Ratio (y) = 0.28578 0.07959
# Poissons Ratio (z) = 1.01620 0.92120
#
# Static dielectric constant tensor:
#      x y z
#    x 4.095450 0.000000 0.000000 
#    y 0.000000 3.451920 0.000000 
#    z 0.000000 0.000000 3.086550 
# 
# 
# High freq. dielectric constant tensor:
#      x y z
#    x 1.787640 0.000000 0.000000 
#    y 0.000000 1.751780 0.000000 
#    z 0.000000 0.000000 1.721400 
# 
# From -- ./inp_files/9092.got.cif
#   From: 2010.03.12/outbox.cif.g09.slc.cpg/sg17_5_cif.got.tgz:9092.got - 2010.04.10 18:46:23.
