data_PCOD8155246
_publ_section_title
;
Structure prediction by ZEFSAII (Michael W. Deem and Ramdas Pophale) SiO2 
 PCOD8155246
Probable space group: P 2 2 2
;
_chemical_formula_sum "Si O2"
_cell_formula_units_Z 32
_cell_length_a 8.630559
_cell_length_b 14.686769
_cell_length_c 12.703897
_cell_angle_alpha 90.000000
_cell_angle_beta 90.000000
_cell_angle_gamma 90.000000
_cell_volume 1610.282799
_symmetry_space_group_name_H-M "P 2 2 2"
_symmetry_group_IT_number 16
_symmetry_cell_setting 'orthorhombic'
loop_
_space_group_symop_operation_xyz
x,y,z
-x,-y,z
x,-y,-z
-x,y,-z
loop_
_atom_site_type_symbol
_atom_site_label
_atom_site_fract_x
_atom_site_fract_y
_atom_site_fract_z
Si Si1 0.668769 0.234578 0.518241
Si Si2 0.331583 0.038249 0.393046
Si Si3 0.182228 0.809356 0.119436
Si Si4 0.179458 0.005517 0.182306
Si Si5 0.821009 0.798766 0.119523
Si Si6 0.182950 0.489974 0.621847
Si Si7 0.684792 0.335740 0.709121
Si Si8 0.319887 0.302597 0.695370
O O1 0.500000 0.278546 0.500000
O O2 0.650292 0.144174 0.586606
O O3 0.761991 0.298937 0.599177
O O4 0.733458 0.231278 0.398663
O O5 0.500000 0.000000 0.363107
O O6 0.261766 0.000000 0.500000
O O7 0.208180 0.009397 0.306560
O O8 0.250482 0.912636 0.132984
O O9 0.270661 0.740288 0.194654
O O10 0.001455 0.805911 0.148090
O O11 0.210278 0.773527 0.001466
O O12 0.252111 0.099647 0.136859
O O13 0.000000 0.000000 0.155330
O O14 0.747202 0.719588 0.190267
O O15 0.240847 0.500000 0.500000
O O16 0.264469 0.559283 0.705036
O O17 0.226907 0.392991 0.668843
O O18 0.000000 0.500000 0.628136
O O19 0.500919 0.323700 0.705758
#
# Coordination Sequence:
#
# PCOD8155246 Si02
#       8
#     4   4   4   4   4   4   4   4
#     4  10  19  34  54  85 118 161 190 239 295 351
#     4  11  20  32  53  77 119 160 204 238 289 351
#     4  10  22  39  61  86 119 160 206 251 300 352
#     4  10  21  36  56  83 116 157 205 249 295 348
#     4  10  21  41  61  84 119 163 204 250 300 354
#     4  11  23  41  64  92 123 158 194 240 298 364
#     4  11  22  38  64  89 121 154 199 244 300 356
#     4  11  23  39  62  92 122 153 201 247 300 363
#
# _framework density 19.872285999999999
#
# number of rings (size 3 to 8) (size 9 to 14) (size 15 to 20)
#    0.000    1.500    3.750    2.250    1.750    2.750 
#    0.000    0.625    0.000    6.000    0.000    0.000 
#    0.000    0.000    0.000    0.000    0.000    0.000 
#
# Total GULP energy -396459.728260 kJ/mol
# GULP energy per Si atom -12389.366508 kJ/mol
# Density = 1.982706 g / cm^3
# Si number density = 19.872286 Si / 1000 Ang^3
#
#
#
# Elastic Constant Matrix: (Units=GPa)
#
#
# Indices 1 2 3 4 5 6 
#
# 1 51.1776 32.5402 33.4280 0.0000 0.0000 0.0000
# 2 32.5402 118.8590 48.9366 0.0000 0.0000 0.0000
# 3 33.4280 48.9366 121.4369 0.0000 0.0000 0.0000
# 4 0.0000 0.0000 0.0000 64.9275 0.0000 0.0000
# 5 0.0000 0.0000 0.0000 0.0000 8.9862 0.0000
# 6 0.0000 0.0000 0.0000 0.0000 0.0000 32.9527
#
#
#
# Elastic Compliance Matrix: (Units=1/GPa)
#
#
# Indices 1 2 3 4 5 6 
#
# 1 0.026104 -0.005021 -0.005162 0.000000 0.000000 0.000000
# 2 -0.005021 0.011053 -0.003072 0.000000 0.000000 0.000000
# 3 -0.005162 -0.003072 0.010894 0.000000 0.000000 0.000000
# 4 0.000000 0.000000 0.000000 0.015402 0.000000 0.000000
# 5 0.000000 0.000000 0.000000 0.000000 0.111281 0.000000
# 6 0.000000 0.000000 0.000000 0.000000 0.000000 0.030347
#
#
# Mechanical properties :
#
#
# Convention : Reuss Voigt Hill
#
# Bulk Modulus (GPa) = 46.42524 57.92036 52.17280
# Shear Modulus (GPa) = 20.94056 33.14453 27.04254
#
# Velocity S-wave (km/s) = 3.24968 4.08840 3.69293
# Velocity P-wave (km/s) = 6.12316 7.17609 6.67043
#
# Compressibility (1/GPa) = 0.02154001
#
# Stress axis : x y z
#
# Youngs Moduli (GPa) = 38.30781 90.47541 91.79658
#
# Poissons Ratio (x) = 0.45430 0.47388
# Poissons Ratio (y) = 0.19235 0.28198
# Poissons Ratio (z) = 0.19776 0.27793
#
# Static dielectric constant tensor:
#      x y z
#    x 3.254990 0.000000 0.000000 
#    y 0.000000 3.909910 0.000000 
#    z 0.000000 0.000000 3.733910 
# 
# 
# High freq. dielectric constant tensor:
#      x y z
#    x 1.751090 0.000000 0.000000 
#    y 0.000000 1.781250 0.000000 
#    z 0.000000 0.000000 1.778830 
# 
# From -- ./inp_files/4838.got.cif
#   From: 2010.03.12/outbox.cif.g09.slc.cpg/sg16_3_cif.got.tgz:4838.got - 2010.03.31 00:51:45.
