data_PCOD8155359
_publ_section_title
;
Structure prediction by ZEFSAII (Michael W. Deem and Ramdas Pophale) SiO2 
 PCOD8155359
Probable space group: P 2 2 21
;
_chemical_formula_sum "Si O2"
_cell_formula_units_Z 32
_cell_length_a 19.011812
_cell_length_b 5.167723
_cell_length_c 17.187165
_cell_angle_alpha 90.000000
_cell_angle_beta 90.000000
_cell_angle_gamma 90.000000
_cell_volume 1688.600774
_symmetry_space_group_name_H-M "P 2 2 21"
_symmetry_group_IT_number 17
_symmetry_cell_setting 'orthorhombic'
loop_
_space_group_symop_operation_xyz
x,y,z
-x,-y,1/2+z
x,-y,-z
-x,y,1/2-z
loop_
_atom_site_type_symbol
_atom_site_label
_atom_site_fract_x
_atom_site_fract_y
_atom_site_fract_z
Si Si1 0.724730 0.499588 0.407862
Si Si2 0.159085 0.464643 0.789593
Si Si3 0.359224 0.999625 0.092416
Si Si4 0.836167 0.959412 0.914299
Si Si5 0.241208 0.462456 0.635175
Si Si6 0.483245 0.999983 0.407625
Si Si7 0.600772 0.499899 0.907579
Si Si8 0.918128 0.961724 0.759322
O O1 0.734203 0.500000 0.500000
O O2 0.802849 0.506101 0.372337
O O3 0.680523 0.744958 0.377860
O O4 0.683625 0.247384 0.377804
O O5 0.218707 0.491872 0.724317
O O6 0.101337 0.688811 0.779470
O O7 0.121721 0.187891 0.786424
O O8 0.437962 0.005444 0.127496
O O9 0.363503 0.000000 0.000000
O O10 0.796262 0.685771 0.914925
O O11 0.898494 0.967240 0.850922
O O12 0.779250 0.182796 0.898173
O O13 0.869645 0.000000 0.000000
O O14 0.324300 0.495206 0.633499
O O15 0.443723 0.744823 0.378347
O O16 0.487945 0.000000 0.500000
O O17 0.440622 0.248324 0.378149
O O18 0.611586 0.500000 0.000000
O O19 0.000000 0.009668 0.750000
#
# Coordination Sequence:
#
# PCOD8155359 Si02
#       8
#     4   4   4   4   4   4   4   4
#     4  10  19  33  55  78  99 128 172 221 260 296
#     4  10  21  37  56  78 103 134 169 205 251 308
#     4   9  17  30  49  72  98 130 169 215 263 305
#     4  10  19  33  53  78 104 134 176 209 238 291
#     4  10  20  32  50  73 104 139 168 210 257 298
#     4   9  17  27  42  67  97 129 167 210 255 302
#     4  10  17  26  43  67  95 127 166 210 253 295
#     4  10  21  38  58  79 108 141 165 196 249 307
#
# _framework density 18.950602
#
# number of rings (size 3 to 8) (size 9 to 14) (size 15 to 20)
#    0.000    2.250    0.000    3.750    0.000    4.000 
#    0.000    1.250    0.000    4.500    0.000    0.000 
#    0.000    0.000    0.000    0.000    0.000    0.000 
#
# Total GULP energy -396892.436973 kJ/mol
# GULP energy per Si atom -12402.888655 kJ/mol
# Density = 1.890747 g / cm^3
# Si number density = 18.950602 Si / 1000 Ang^3
#
#
#
# Elastic Constant Matrix: (Units=GPa)
#
#
# Indices 1 2 3 4 5 6 
#
# 1 119.8840 31.3398 34.1240 0.0000 0.0000 0.0000
# 2 31.3398 126.7209 16.4588 0.0000 0.0000 0.0000
# 3 34.1240 16.4588 40.3244 0.0000 0.0000 0.0000
# 4 0.0000 0.0000 0.0000 12.2226 0.0000 0.0000
# 5 0.0000 0.0000 0.0000 0.0000 20.4388 0.0000
# 6 0.0000 0.0000 0.0000 0.0000 0.0000 26.5034
#
#
#
# Elastic Compliance Matrix: (Units=1/GPa)
#
#
# Indices 1 2 3 4 5 6 
#
# 1 0.011302 -0.001640 -0.008895 0.000000 0.000000 0.000000
# 2 -0.001640 0.008571 -0.002111 0.000000 0.000000 0.000000
# 3 -0.008895 -0.002111 0.033187 0.000000 0.000000 0.000000
# 4 0.000000 0.000000 0.000000 0.081816 0.000000 0.000000
# 5 0.000000 0.000000 0.000000 0.000000 0.048927 0.000000
# 6 0.000000 0.000000 0.000000 0.000000 0.000000 0.037731
#
#
# Mechanical properties :
#
#
# Convention : Reuss Voigt Hill
#
# Bulk Modulus (GPa) = 36.01026 50.08605 43.04815
# Shear Modulus (GPa) = 19.52509 25.50007 22.51258
#
# Velocity S-wave (km/s) = 3.21333 3.67223 3.45042
# Velocity P-wave (km/s) = 5.72807 6.66840 6.21604
#
# Compressibility (1/GPa) = 0.02776986
#
# Stress axis : x y z
#
# Youngs Moduli (GPa) = 88.48063 116.67182 30.13186
#
# Poissons Ratio (x) = 0.19132 0.26802
# Poissons Ratio (y) = 0.14509 0.06360
# Poissons Ratio (z) = 0.78702 0.24625
#
# Static dielectric constant tensor:
#      x y z
#    x 3.330430 0.000000 0.000000 
#    y 0.000000 3.802160 0.000000 
#    z 0.000000 0.000000 3.142510 
# 
# 
# High freq. dielectric constant tensor:
#      x y z
#    x 1.729060 0.000000 0.000000 
#    y 0.000000 1.760650 0.000000 
#    z 0.000000 0.000000 1.702900 
# 
# From -- ./inp_files/9741.got.cif
#   From: 2010.03.12/outbox.cif.g09.slc.cpg/sg17_5_cif.got.tgz:9741.got - 2010.04.10 18:46:23.
