data_PCOD8155910
_publ_section_title
;
Structure prediction by ZEFSAII (Michael W. Deem and Ramdas Pophale) SiO2 
 PCOD8155910
Probable space group: P 21 21 2
;
_chemical_formula_sum "Si O2"
_cell_formula_units_Z 32
_cell_length_a 27.667065
_cell_length_b 8.724810
_cell_length_c 6.178579
_cell_angle_alpha 90.000000
_cell_angle_beta 90.000000
_cell_angle_gamma 90.000000
_cell_volume 1491.446477
_symmetry_space_group_name_H-M "P 21 21 2"
_symmetry_group_IT_number 18
_symmetry_cell_setting 'orthorhombic'
loop_
_space_group_symop_operation_xyz
x,y,z
-x,-y,z
1/2+x,1/2-y,-z
1/2-x,1/2+y,-z
loop_
_atom_site_type_symbol
_atom_site_label
_atom_site_fract_x
_atom_site_fract_y
_atom_site_fract_z
Si Si1 0.219653 0.337576 0.730857
Si Si2 0.367141 0.461153 0.693651
Si Si3 0.410862 0.235514 0.005906
Si Si4 0.863456 0.461079 0.641331
Si Si5 0.709740 0.467455 0.000463
Si Si6 0.954296 0.397111 0.378360
Si Si7 0.450222 0.416099 0.388240
Si Si8 0.795738 0.182657 0.608840
O O1 0.163201 0.377479 0.689462
O O2 0.242635 0.303167 0.495388
O O3 0.224655 0.185197 0.874849
O O4 0.246912 0.484131 0.838267
O O5 0.415977 0.510600 0.560403
O O6 0.326554 0.444729 0.514376
O O7 0.377110 0.299511 0.813148
O O8 0.341489 0.569224 0.875059
O O9 0.385625 0.101273 0.136823
O O10 0.425609 0.382349 0.154491
O O11 0.454103 0.150665 0.875516
O O12 0.904697 0.481639 0.457511
O O13 0.821965 0.343584 0.570442
O O14 0.704957 0.620434 0.147364
O O15 0.962476 0.249609 0.523865
O O16 0.000000 0.500000 0.425279
O O17 0.500000 0.500000 0.347023
#
# Coordination Sequence:
#
# PCOD8155910 Si02
#       8
#     4   4   4   4   4   4   4   4
#     4  11  26  38  65  97 131 175 215 272 319 392
#     4  10  19  39  64  91 125 166 208 263 325 381
#     4  10  19  38  68  90 126 168 212 260 330 387
#     4  11  21  42  66  93 129 174 214 265 329 385
#     4  11  23  41  62  97 131 166 226 260 328 388
#     4  10  23  44  66  95 129 171 215 267 330 394
#     4  10  21  40  68  94 124 166 214 266 330 385
#     4  11  20  40  67  89 127 173 218 266 320 384
#
# _framework density 21.455680000000001
#
# number of rings (size 3 to 8) (size 9 to 14) (size 15 to 20)
#    0.000    1.500    5.000    1.500    1.750    6.000 
#    6.750    0.000    0.000    0.000    0.000    0.000 
#    0.000    0.000    0.000    0.000    0.000    0.000 
#
# Total GULP energy -396430.476933 kJ/mol
# GULP energy per Si atom -12388.452404 kJ/mol
# Density = 2.140685 g / cm^3
# Si number density = 21.455680 Si / 1000 Ang^3
#
#
#
# Elastic Constant Matrix: (Units=GPa)
#
#
# Indices 1 2 3 4 5 6 
#
# 1 122.4567 34.7780 45.7951 0.0000 0.0000 0.0000
# 2 34.7780 47.9672 8.8260 0.0000 0.0000 0.0000
# 3 45.7951 8.8260 98.7771 0.0000 0.0000 0.0000
# 4 0.0000 0.0000 0.0000 8.3721 0.0000 0.0000
# 5 0.0000 0.0000 0.0000 0.0000 21.4777 0.0000
# 6 0.0000 0.0000 0.0000 0.0000 0.0000 44.1534
#
#
#
# Elastic Compliance Matrix: (Units=1/GPa)
#
#
# Indices 1 2 3 4 5 6 
#
# 1 0.012305 -0.008004 -0.004990 0.000000 0.000000 0.000000
# 2 -0.008004 0.026402 0.001352 0.000000 0.000000 0.000000
# 3 -0.004990 0.001352 0.012316 0.000000 0.000000 0.000000
# 4 0.000000 0.000000 0.000000 0.119444 0.000000 0.000000
# 5 0.000000 0.000000 0.000000 0.000000 0.046560 0.000000
# 6 0.000000 0.000000 0.000000 0.000000 0.000000 0.022648
#
#
# Mechanical properties :
#
#
# Convention : Reuss Voigt Hill
#
# Bulk Modulus (GPa) = 36.04939 49.77770 42.91354
# Shear Modulus (GPa) = 18.36846 26.78744 22.57795
#
# Velocity S-wave (km/s) = 2.92911 3.53725 3.24745
# Velocity P-wave (km/s) = 5.31769 6.31929 5.84000
#
# Compressibility (1/GPa) = 0.02773972
#
# Stress axis : x y z
#
# Youngs Moduli (GPa) = 81.26623 37.87622 81.19238
#
# Poissons Ratio (x) = 0.30315 0.40514
# Poissons Ratio (y) = 0.65042 -0.10974
# Poissons Ratio (z) = 0.40550 -0.05119
#
# Static dielectric constant tensor:
#      x y z
#    x 3.952550 0.000000 0.000000 
#    y 0.000000 3.508150 0.000000 
#    z 0.000000 0.000000 4.284940 
# 
# 
# High freq. dielectric constant tensor:
#      x y z
#    x 1.839170 0.000000 0.000000 
#    y 0.000000 1.805100 0.000000 
#    z 0.000000 0.000000 1.860280 
# 
# From -- ./inp_files/2308.got.cif
#   From: 2010.03.12/outbox.cif.g09.slc.cpg/sg18_2_cif.got.tgz:2308.got - 2010.04.10 18:53:55.
