data_PCOD8155067
_publ_section_title
;
Structure prediction by ZEFSAII (Michael W. Deem and Ramdas Pophale) SiO2 
 PCOD8155067
Probable space group: C 2/C
;
_chemical_formula_sum "Si O2"
_cell_formula_units_Z 52
_cell_length_a 8.634307
_cell_length_b 18.041720
_cell_length_c 16.598962
_cell_angle_alpha 90.000000
_cell_angle_beta 56.762308
_cell_angle_gamma 90.000000
_cell_volume 2162.730546
_symmetry_space_group_name_H-M "C 2/C"
_symmetry_group_IT_number 15
_symmetry_cell_setting 'monoclinic'
loop_
_space_group_symop_operation_xyz
x,y,z
-x,y,1/2-z
-x,-y,-z
x,-y,1/2+z
1/2+x,1/2+y,z
1/2-x,1/2+y,1/2-z
1/2-x,1/2-y,-z
1/2+x,1/2-y,1/2+z
loop_
_atom_site_type_symbol
_atom_site_label
_atom_site_fract_x
_atom_site_fract_y
_atom_site_fract_z
Si Si1 0.431879 0.569838 0.871517
Si Si2 0.753814 0.834782 0.696983
Si Si3 0.647205 0.938291 0.589141
Si Si4 0.753147 0.573649 0.141405
Si Si5 0.148154 0.825871 0.523597
Si Si6 0.306782 0.087148 0.837337
Si Si7 0.500000 0.704703 0.750000
O O1 0.346802 0.506460 0.837416
O O2 0.655952 0.558433 0.814480
O O3 0.396870 0.651187 0.843278
O O4 0.338957 0.568553 0.986022
O O5 0.629959 0.880572 0.667803
O O6 0.813081 0.883665 0.758189
O O7 0.649809 0.758450 0.751160
O O8 0.932197 0.811378 0.595679
O O9 0.475138 0.929622 0.578489
O O10 0.624463 0.019322 0.630041
O O11 0.711930 0.616925 0.072392
O O12 0.250000 0.750000 0.500000
O O13 0.192722 0.854475 0.421978
O O14 0.500000 0.123062 0.750000
#
# Coordination Sequence:
#
# PCOD8155067 Si02
#       7
#     8   8   8   8   8   8   4
#     4  12  29  49  83 112 157 206 271 326 388 479
#     4  12  27  53  77 115 165 211 254 331 409 471
#     4  12  25  50  83 112 159 206 262 329 408 467
#     4  12  27  49  81 121 153 212 266 327 396 489
#     4  12  30  47  79 111 168 211 270 327 406 471
#     4  12  28  48  78 118 158 209 270 335 391 471
#     4  12  32  48  84 120 160 208 270 324 406 476
#
# _framework density 24.043679000000001
#
# number of rings (size 3 to 8) (size 9 to 14) (size 15 to 20)
#    0.000    0.000    4.615    3.231   12.923    0.615 
#    0.000    0.000    0.000    0.000    0.000    0.000 
#    0.000    0.000    0.000    0.000    0.000    0.000 
#
# Total GULP energy -322388.775411 kJ/mol
# GULP energy per Si atom -12399.568285 kJ/mol
# Density = 2.398895 g / cm^3
# Si number density = 24.043679 Si / 1000 Ang^3
#
#
#
# Elastic Constant Matrix: (Units=GPa)
#
#
# Indices 1 2 3 4 5 6 
#
# 1 116.2776 33.9522 41.4885 0.0000 -19.9574 0.0000
# 2 33.9522 148.9706 46.8665 0.0000 -6.6718 0.0000
# 3 41.4885 46.8665 132.4195 0.0000 -12.4144 0.0000
# 4 0.0000 0.0000 0.0000 34.7098 0.0000 -5.4292
# 5 -19.9574 -6.6718 -12.4144 0.0000 45.2237 0.0000
# 6 0.0000 0.0000 0.0000 -5.4292 0.0000 32.4896
#
#
#
# Elastic Compliance Matrix: (Units=1/GPa)
#
#
# Indices 1 2 3 4 5 6 
#
# 1 0.010543 -0.001470 -0.002430 0.000000 0.003769 0.000000
# 2 -0.001470 0.007765 -0.002301 0.000000 -0.000134 0.000000
# 3 -0.002430 -0.002301 0.009233 0.000000 0.001123 0.000000
# 4 0.000000 0.000000 0.000000 0.029584 0.000000 0.004944
# 5 0.003769 -0.000134 0.001123 0.000000 0.024064 0.000000
# 6 0.000000 0.000000 0.000000 0.004944 0.000000 0.031605
#
#
# Mechanical properties :
#
#
# Convention : Reuss Voigt Hill
#
# Bulk Modulus (GPa) = 66.04559 71.36469 68.70514
# Shear Modulus (GPa) = 38.39049 40.84198 39.61623
#
# Velocity S-wave (km/s) = 4.00020 4.12595 4.06356
# Velocity P-wave (km/s) = 6.99029 7.24180 7.11716
#
# Compressibility (1/GPa) = 0.01514106
#
# Stress axis : x y z
#
# Youngs Moduli (GPa) = 94.84892 128.77606 108.31298
#
# Poissons Ratio (x) = 0.18926 0.26318
# Poissons Ratio (y) = 0.13940 0.24918
# Poissons Ratio (z) = 0.23046 0.29625
#
# Static dielectric constant tensor:
#      x y z
#    x 4.381600 0.000000 -0.042280 
#    y 0.000000 4.187660 0.000000 
#    z -0.042280 0.000000 4.520940 
# 
# 
# High freq. dielectric constant tensor:
#      x y z
#    x 1.967350 0.000000 -0.009100 
#    y 0.000000 1.953220 0.000000 
#    z -0.009100 0.000000 1.968940 
# 
# From -- ./inp_files/190853.got.cif
#   From: 2010.06.25/outbox.cif.g09.slc.cpg/sg15_96_cif.got.tgz:190853.got - 2010.06.28 07:06:18.
