data_PCOD8155933
_publ_section_title
;
Structure prediction by ZEFSAII (Michael W. Deem and Ramdas Pophale) SiO2 
 PCOD8155933
Probable space group: P 21 21 2
;
_chemical_formula_sum "Si O2"
_cell_formula_units_Z 30
_cell_length_a 8.628123
_cell_length_b 18.534272
_cell_length_c 9.242605
_cell_angle_alpha 90.000000
_cell_angle_beta 90.000000
_cell_angle_gamma 90.000000
_cell_volume 1478.040223
_symmetry_space_group_name_H-M "P 21 21 2"
_symmetry_group_IT_number 18
_symmetry_cell_setting 'orthorhombic'
loop_
_space_group_symop_operation_xyz
x,y,z
-x,-y,z
1/2+x,1/2-y,-z
1/2-x,1/2+y,-z
loop_
_atom_site_type_symbol
_atom_site_label
_atom_site_fract_x
_atom_site_fract_y
_atom_site_fract_z
Si Si1 0.000000 0.500000 0.045367
Si Si2 0.953797 0.311657 0.437632
Si Si3 0.870697 0.554170 0.570435
Si Si4 0.798916 0.378429 0.180735
Si Si5 0.139098 0.045620 0.576051
Si Si6 0.643886 0.326426 0.610737
Si Si7 0.277964 0.452488 0.864839
Si Si8 0.398712 0.611964 0.906992
O O1 0.905032 0.446251 0.145239
O O2 0.881848 0.551145 0.955141
O O3 0.901838 0.319017 0.267618
O O4 0.816532 0.312754 0.554009
O O5 0.067541 0.376090 0.486084
O O6 0.036092 0.235406 0.454540
O O7 0.782110 0.506725 0.452406
O O8 0.758051 0.576544 0.702936
O O9 0.000000 0.500000 0.635738
O O10 0.672668 0.399428 0.297680
O O11 0.694725 0.353792 0.043718
O O12 0.087479 0.093816 0.438463
O O13 0.000000 0.000000 0.635933
O O14 0.634213 0.328281 0.784364
O O15 0.326129 0.535955 0.860214
O O16 0.415702 0.401941 0.931728
#
# Coordination Sequence:
#
# PCOD8155933 Si02
#       8
#     2   4   4   4   4   4   4   4
#     4  10  20  34  60  96 130 164 208 260 320 398
#     4  11  26  43  65  94 131 176 213 279 330 397
#     4  12  19  39  65  97 129 165 217 277 332 379
#     4  10  22  41  58  92 134 166 210 262 333 384
#     4  11  23  38  67  96 127 165 219 279 322 391
#     4  11  24  45  63  96 128 168 223 266 330 393
#     4  10  20  33  64 101 125 165 215 268 327 371
#     4  10  21  40  63  91 132 168 215 268 315 399
#
# _framework density 20.297149000000001
#
# number of rings (size 3 to 8) (size 9 to 14) (size 15 to 20)
#    0.000    1.333    4.667    1.600    9.333    0.000 
#    0.000    4.000    0.000    0.000    0.000    0.000 
#    0.000    0.000    0.000    0.000    0.000    0.000 
#
# Total GULP energy -371797.973817 kJ/mol
# GULP energy per Si atom -12393.265794 kJ/mol
# Density = 2.025095 g / cm^3
# Si number density = 20.297149 Si / 1000 Ang^3
#
#
#
# Elastic Constant Matrix: (Units=GPa)
#
#
# Indices 1 2 3 4 5 6 
#
# 1 83.5007 33.6171 35.3410 0.0000 0.0000 0.0000
# 2 33.6171 58.6628 6.6522 0.0000 0.0000 0.0000
# 3 35.3410 6.6522 91.3515 0.0000 0.0000 0.0000
# 4 0.0000 0.0000 0.0000 18.7030 0.0000 0.0000
# 5 0.0000 0.0000 0.0000 0.0000 23.7451 0.0000
# 6 0.0000 0.0000 0.0000 0.0000 0.0000 32.4326
#
#
#
# Elastic Compliance Matrix: (Units=1/GPa)
#
#
# Indices 1 2 3 4 5 6 
#
# 1 0.018774 -0.010018 -0.006534 0.000000 0.000000 0.000000
# 2 -0.010018 0.022534 0.002235 0.000000 0.000000 0.000000
# 3 -0.006534 0.002235 0.013312 0.000000 0.000000 0.000000
# 4 0.000000 0.000000 0.000000 0.053467 0.000000 0.000000
# 5 0.000000 0.000000 0.000000 0.000000 0.042114 0.000000
# 6 0.000000 0.000000 0.000000 0.000000 0.000000 0.030833
#
#
# Mechanical properties :
#
#
# Convention : Reuss Voigt Hill
#
# Bulk Modulus (GPa) = 38.48194 42.74841 40.61517
# Shear Modulus (GPa) = 22.90103 25.50312 24.20207
#
# Velocity S-wave (km/s) = 3.36264 3.54854 3.45684
# Velocity P-wave (km/s) = 5.83755 6.15602 5.99890
#
# Compressibility (1/GPa) = 0.02598622
#
# Stress axis : x y z
#
# Youngs Moduli (GPa) = 53.26379 44.37741 75.12193
#
# Poissons Ratio (x) = 0.44457 0.49083
# Poissons Ratio (y) = 0.53359 -0.16788
# Poissons Ratio (z) = 0.34801 -0.09917
#
# Static dielectric constant tensor:
#      x y z
#    x 3.940900 0.000000 0.000000 
#    y 0.000000 3.444620 0.000000 
#    z 0.000000 0.000000 3.815940 
# 
# 
# High freq. dielectric constant tensor:
#      x y z
#    x 1.807940 0.000000 0.000000 
#    y 0.000000 1.760480 0.000000 
#    z 0.000000 0.000000 1.794230 
# 
# From -- ./inp_files/3502.got.cif
#   From: 2010.03.12/outbox.cif.g09.slc.cpg/sg18_2_cif.got.tgz:3502.got - 2010.04.10 18:53:55.
