data_PCOD8155823
_publ_section_title
;
Structure prediction by ZEFSAII (Michael W. Deem and Ramdas Pophale) SiO2 
 PCOD8155823
Probable space group: P 21 21 2
;
_chemical_formula_sum "Si O2"
_cell_formula_units_Z 30
_cell_length_a 14.814431
_cell_length_b 9.448006
_cell_length_c 10.704928
_cell_angle_alpha 90.000000
_cell_angle_beta 90.000000
_cell_angle_gamma 90.000000
_cell_volume 1498.334869
_symmetry_space_group_name_H-M "P 21 21 2"
_symmetry_group_IT_number 18
_symmetry_cell_setting 'orthorhombic'
loop_
_space_group_symop_operation_xyz
x,y,z
-x,-y,z
1/2+x,1/2-y,-z
1/2-x,1/2+y,-z
loop_
_atom_site_type_symbol
_atom_site_label
_atom_site_fract_x
_atom_site_fract_y
_atom_site_fract_z
Si Si1 0.999007 0.835542 0.535835
Si Si2 0.186158 0.233977 0.629992
Si Si3 0.729940 0.508868 0.535577
Si Si4 0.000000 0.500000 0.828534
Si Si5 0.574310 0.400805 0.706663
Si Si6 0.685448 0.121539 0.106548
Si Si7 0.773321 0.816984 0.124510
Si Si8 0.135340 0.679672 0.680189
O O1 0.921642 0.757255 0.615880
O O2 0.980420 0.799106 0.389502
O O3 0.099753 0.787357 0.575093
O O4 0.000000 0.000000 0.565589
O O5 0.238510 0.327712 0.522639
O O6 0.220284 0.073495 0.597335
O O7 0.209479 0.290432 0.767679
O O8 0.637648 0.494940 0.614452
O O9 0.810604 0.448623 0.620582
O O10 0.920506 0.578619 0.908508
O O11 0.953486 0.381340 0.745178
O O12 0.500000 0.500000 0.774968
O O13 0.628769 0.313860 0.809141
O O14 0.745337 0.979526 0.098166
O O15 0.718050 0.225502 0.998627
O O16 0.699186 0.744718 0.216131
#
# Coordination Sequence:
#
# PCOD8155823 Si02
#       8
#     4   4   4   2   4   4   4   4
#     4  10  21  33  63  98 124 159 213 271 324 395
#     4  11  21  39  61  95 129 165 216 265 336 384
#     4  10  21  35  64  93 126 169 205 265 332 400
#     4  10  18  40  66  82 118 176 214 264 320 378
#     4   9  19  39  58  87 126 167 204 260 329 377
#     4  11  22  44  65  93 129 176 223 269 319 394
#     4  10  23  42  64  89 131 177 220 262 327 382
#     4  10  18  37  64  86 125 163 212 261 336 379
#
# _framework density 20.022226
#
# number of rings (size 3 to 8) (size 9 to 14) (size 15 to 20)
#    0.000    1.867    5.333    0.000    5.600    1.067 
#    9.600    0.667    0.000    0.000    0.000    0.000 
#    0.000    0.000    0.000    0.000    0.000    0.000 
#
# Total GULP energy -371689.801093 kJ/mol
# GULP energy per Si atom -12389.660036 kJ/mol
# Density = 1.997665 g / cm^3
# Si number density = 20.022226 Si / 1000 Ang^3
#
#
#
# Elastic Constant Matrix: (Units=GPa)
#
#
# Indices 1 2 3 4 5 6 
#
# 1 113.5739 38.7768 50.5287 0.0000 0.0000 0.0000
# 2 38.7768 61.0957 40.4348 0.0000 0.0000 0.0000
# 3 50.5287 40.4348 102.1109 0.0000 0.0000 0.0000
# 4 0.0000 0.0000 0.0000 -9.2299 0.0000 0.0000
# 5 0.0000 0.0000 0.0000 0.0000 31.9751 0.0000
# 6 0.0000 0.0000 0.0000 0.0000 0.0000 33.0093
#
#
#
# Elastic Compliance Matrix: (Units=1/GPa)
#
#
# Indices 1 2 3 4 5 6 
#
# 1 0.012383 -0.005155 -0.004086 0.000000 0.000000 0.000000
# 2 -0.005155 0.024327 -0.007082 0.000000 0.000000 0.000000
# 3 -0.004086 -0.007082 0.014620 0.000000 0.000000 0.000000
# 4 0.000000 0.000000 0.000000 -0.108343 0.000000 0.000000
# 5 0.000000 0.000000 0.000000 0.000000 0.031274 0.000000
# 6 0.000000 0.000000 0.000000 0.000000 0.000000 0.030294
#
#
# Mechanical properties :
#
#
# Convention : Reuss Voigt Hill
#
# Bulk Modulus (GPa) = 53.52575 59.58455 56.55515
# Shear Modulus (GPa) = 115.13019 20.95357 68.04188
#
# Velocity S-wave (km/s) = 7.59118 3.23850 5.83583
# Velocity P-wave (km/s) = 10.17968 6.61873 8.58585
#
# Compressibility (1/GPa) = 0.01868260
#
# Stress axis : x y z
#
# Youngs Moduli (GPa) = 80.75730 41.10699 68.40012
#
# Poissons Ratio (x) = 0.21190 0.27950
# Poissons Ratio (y) = 0.41629 0.48443
# Poissons Ratio (z) = 0.33000 0.29113
#
# Static dielectric constant tensor:
#      x y z
#    x 4.441620 0.000000 0.000000 
#    y 0.000000 3.460070 0.000000 
#    z 0.000000 0.000000 3.471970 
# 
# 
# High freq. dielectric constant tensor:
#      x y z
#    x 1.807680 0.000000 0.000000 
#    y 0.000000 1.765510 0.000000 
#    z 0.000000 0.000000 1.753880 
# 
# From -- ./inp_files/6089.got.cif
#   From: 2010.03.12/outbox.cif.g09.slc.cpg/sg18_4_cif.got.tgz:6089.got - 2010.04.10 18:53:55.
