data_PCOD8155138
_publ_section_title
;
Structure prediction by ZEFSAII (Michael W. Deem and Ramdas Pophale) SiO2 
 PCOD8155138
Probable space group: C 2/C
;
_chemical_formula_sum "Si O2"
_cell_formula_units_Z 48
_cell_length_a 14.039736
_cell_length_b 5.806238
_cell_length_c 28.594188
_cell_angle_alpha 90.000000
_cell_angle_beta 120.293358
_cell_angle_gamma 90.000000
_cell_volume 2012.661622
_symmetry_space_group_name_H-M "C 2/C"
_symmetry_group_IT_number 15
_symmetry_cell_setting 'monoclinic'
loop_
_space_group_symop_operation_xyz
x,y,z
-x,y,1/2-z
-x,-y,-z
x,-y,1/2+z
1/2+x,1/2+y,z
1/2-x,1/2+y,1/2-z
1/2-x,1/2-y,-z
1/2+x,1/2-y,1/2+z
loop_
_atom_site_type_symbol
_atom_site_label
_atom_site_fract_x
_atom_site_fract_y
_atom_site_fract_z
Si Si1 0.912158 0.034220 0.308904
Si Si2 0.803830 0.504810 0.499371
Si Si3 0.693313 0.839342 0.294625
Si Si4 0.007375 0.404475 0.112166
Si Si5 0.426737 0.184796 0.178541
Si Si6 0.729977 0.012526 0.615586
O O1 0.851520 0.221912 0.262694
O O2 0.995736 0.141231 0.369074
O O3 0.818398 0.906264 0.314900
O O4 0.984787 0.887346 0.290017
O O5 0.750000 0.250000 0.500000
O O6 0.925288 0.524281 0.550797
O O7 0.816171 0.534059 0.447140
O O8 0.750000 0.750000 0.500000
O O9 0.696451 0.691915 0.343490
O O10 0.603352 0.041694 0.282009
O O11 0.985524 0.556136 0.151411
O O12 0.131287 0.442088 0.126340
O O13 0.307544 0.265928 0.130668
#
# Coordination Sequence:
#
# PCOD8155138 Si02
#       6
#     8   8   8   8   8   8
#     4  12  28  51  77 114 157 205 267 333 406 490
#     4  12  27  50  81 123 163 219 275 337 412 490
#     4  12  28  51  77 114 157 205 267 333 406 490
#     4  12  26  50  79 115 155 208 265 334 402 484
#     4  12  26  50  76 104 156 201 260 321 408 480
#     4  12  26  50  79 115 155 208 265 334 402 484
#
# _framework density 23.849015999999999
#
# number of rings (size 3 to 8) (size 9 to 14) (size 15 to 20)
#    0.000    0.000    5.000    4.500    0.000    4.000 
#    0.000    2.500    0.000    0.000    0.000    0.000 
#    0.000    0.000    0.000    0.000    0.000    0.000 
#
# Total GULP energy -297363.216930 kJ/mol
# GULP energy per Si atom -12390.134039 kJ/mol
# Density = 2.379473 g / cm^3
# Si number density = 23.849016 Si / 1000 Ang^3
#
#
#
# Elastic Constant Matrix: (Units=GPa)
#
#
# Indices 1 2 3 4 5 6 
#
# 1 155.3242 45.5621 11.9650 0.0000 -6.4417 0.0000
# 2 45.5621 111.4899 16.8464 0.0000 -2.1861 0.0000
# 3 11.9650 16.8464 105.8337 0.0000 -13.0492 0.0000
# 4 0.0000 0.0000 0.0000 22.1492 0.0000 12.7918
# 5 -6.4417 -2.1861 -13.0492 0.0000 41.1933 0.0000
# 6 0.0000 0.0000 0.0000 12.7918 0.0000 41.2258
#
#
#
# Elastic Compliance Matrix: (Units=1/GPa)
#
#
# Indices 1 2 3 4 5 6 
#
# 1 0.007361 -0.002953 -0.000249 0.000000 0.000915 0.000000
# 2 -0.002953 0.010375 -0.001360 0.000000 -0.000342 0.000000
# 3 -0.000249 -0.001360 0.010073 0.000000 0.003080 0.000000
# 4 0.000000 0.000000 0.000000 0.055005 0.000000 -0.017067
# 5 0.000915 -0.000342 0.003080 0.000000 0.025376 0.000000
# 6 0.000000 0.000000 0.000000 -0.017067 0.000000 0.029552
#
#
# Mechanical properties :
#
#
# Convention : Reuss Voigt Hill
#
# Bulk Modulus (GPa) = 53.51683 57.93276 55.72479
# Shear Modulus (GPa) = 32.65927 40.79862 36.72894
#
# Velocity S-wave (km/s) = 3.70458 4.14055 3.92862
# Velocity P-wave (km/s) = 6.38648 6.87045 6.63288
#
# Compressibility (1/GPa) = 0.01868571
#
# Stress axis : x y z
#
# Youngs Moduli (GPa) = 135.84252 96.38670 99.27367
#
# Poissons Ratio (x) = 0.28461 0.02475
# Poissons Ratio (y) = 0.40111 0.13499
# Poissons Ratio (z) = 0.03387 0.13107
#
# Static dielectric constant tensor:
#      x y z
#    x 4.496320 0.000000 0.075270 
#    y 0.000000 4.956910 0.000000 
#    z 0.075270 0.000000 4.480360 
# 
# 
# High freq. dielectric constant tensor:
#      x y z
#    x 1.969570 0.000000 0.000570 
#    y 0.000000 1.956620 0.000000 
#    z 0.000570 0.000000 1.952950 
# 
# From -- ./inp_files/312446.got.cif
#   From: 2010.06.25/outbox.cif.g09.slc.cpg/sg15_157_cif.got.tgz:312446.got - 2010.06.28 07:06:18.
