data_PCOD8155518
_publ_section_title
;
Structure prediction by ZEFSAII (Michael W. Deem and Ramdas Pophale) SiO2 
 PCOD8155518
Probable space group: P 2 2 21
;
_chemical_formula_sum "Si O2"
_cell_formula_units_Z 26
_cell_length_a 16.369314
_cell_length_b 8.586902
_cell_length_c 9.126440
_cell_angle_alpha 90.000000
_cell_angle_beta 90.000000
_cell_angle_gamma 90.000000
_cell_volume 1282.827877
_symmetry_space_group_name_H-M "P 2 2 21"
_symmetry_group_IT_number 17
_symmetry_cell_setting 'orthorhombic'
loop_
_space_group_symop_operation_xyz
x,y,z
-x,-y,1/2+z
x,-y,-z
-x,y,1/2-z
loop_
_atom_site_type_symbol
_atom_site_label
_atom_site_fract_x
_atom_site_fract_y
_atom_site_fract_z
Si Si1 0.940893 0.367872 0.879085
Si Si2 0.390671 0.184279 0.706855
Si Si3 0.052144 0.748154 0.891675
Si Si4 0.500000 0.896680 0.750000
Si Si5 0.782476 0.747495 0.285680
Si Si6 0.175914 0.500000 0.000000
Si Si7 0.523931 0.682568 0.479421
Si Si8 0.155638 0.000000 0.000000
O O1 0.860597 0.282834 0.817253
O O2 0.000000 0.434887 0.750000
O O3 0.918483 0.500000 0.000000
O O4 0.994837 0.240314 0.964412
O O5 0.293750 0.204157 0.683169
O O6 0.409779 0.249201 0.868027
O O7 0.433058 0.292100 0.584704
O O8 0.425135 0.006793 0.693663
O O9 0.100495 0.908979 0.882351
O O10 0.000000 0.719372 0.750000
O O11 0.117488 0.609569 0.904232
O O12 0.534396 0.782368 0.626174
O O13 0.767365 0.592951 0.384477
O O14 0.790800 0.886473 0.401372
O O15 0.539648 0.500000 0.500000
#
# Coordination Sequence:
#
# PCOD8155518 Si02
#       8
#     4   4   4   2   4   2   4   2
#     4  12  21  39  64  89 120 167 217 266 315 372
#     4  10  22  39  63  93 127 163 203 245 318 369
#     4  11  22  38  63  85 116 165 214 262 322 369
#     4  10  20  42  70  90 128 162 202 240 314 380
#     4  11  24  39  61  91 126 164 210 260 313 371
#     4  10  20  38  58  88 114 158 212 258 302 368
#     4  10  21  41  67  97 120 161 204 254 296 370
#     4  10  24  38  58  86 128 156 214 264 312 384
#
# _framework density 20.267724000000001
#
# number of rings (size 3 to 8) (size 9 to 14) (size 15 to 20)
#    0.000    1.538    3.846    4.154    5.385    0.615 
#    0.000    3.077    0.000    0.000    0.000    0.000 
#    0.000    0.000    0.000    0.000    0.000    0.000 
#
# Total GULP energy -322240.124002 kJ/mol
# GULP energy per Si atom -12393.850923 kJ/mol
# Density = 2.022159 g / cm^3
# Si number density = 20.267724 Si / 1000 Ang^3
#
#
#
# Elastic Constant Matrix: (Units=GPa)
#
#
# Indices 1 2 3 4 5 6 
#
# 1 96.1949 13.7208 -0.3406 0.0000 0.0000 0.0000
# 2 13.7208 107.9541 9.8000 0.0000 0.0000 0.0000
# 3 -0.3406 9.8000 65.2924 0.0000 0.0000 0.0000
# 4 0.0000 0.0000 0.0000 -0.5860 0.0000 0.0000
# 5 0.0000 0.0000 0.0000 0.0000 24.4190 0.0000
# 6 0.0000 0.0000 0.0000 0.0000 0.0000 12.7455
#
#
#
# Elastic Compliance Matrix: (Units=1/GPa)
#
#
# Indices 1 2 3 4 5 6 
#
# 1 0.010592 -0.001370 0.000261 0.000000 0.000000 0.000000
# 2 -0.001370 0.009568 -0.001443 0.000000 0.000000 0.000000
# 3 0.000261 -0.001443 0.015534 0.000000 0.000000 0.000000
# 4 0.000000 0.000000 0.000000 -1.706452 0.000000 0.000000
# 5 0.000000 0.000000 0.000000 0.000000 0.040952 0.000000
# 6 0.000000 0.000000 0.000000 0.000000 0.000000 0.078459
#
#
# Mechanical properties :
#
#
# Convention : Reuss Voigt Hill
#
# Bulk Modulus (GPa) = 32.69117 35.08907 33.89012
# Shear Modulus (GPa) = -3.25511 23.73313 10.23901
#
# Velocity S-wave (km/s) = -1.26868 3.42567 2.25008
# Velocity P-wave (km/s) = 3.74415 5.74433 4.84850
#
# Compressibility (1/GPa) = 0.03058930
#
# Stress axis : x y z
#
# Youngs Moduli (GPa) = 94.41193 104.51148 64.37609
#
# Poissons Ratio (x) = 0.14317 -0.01679
# Poissons Ratio (y) = 0.12933 0.09291
# Poissons Ratio (z) = -0.02463 0.15084
#
# Static dielectric constant tensor:
#      x y z
#    x 3.539860 0.000000 0.000000 
#    y 0.000000 3.954850 0.000000 
#    z 0.000000 0.000000 3.314790 
# 
# 
# High freq. dielectric constant tensor:
#      x y z
#    x 1.771650 0.000000 0.000000 
#    y 0.000000 1.800250 0.000000 
#    z 0.000000 0.000000 1.791810 
# 
# From -- ./inp_files/5489.got.cif
#   From: 2010.03.12/outbox.cif.g09.slc.cpg/sg17_3_cif.got.tgz:5489.got - 2010.04.10 18:46:23.
