data_PCOD8155453
_publ_section_title
;
Structure prediction by ZEFSAII (Michael W. Deem and Ramdas Pophale) SiO2 
 PCOD8155453
Probable space group: P 2 2 21
;
_chemical_formula_sum "Si O2"
_cell_formula_units_Z 20
_cell_length_a 11.431616
_cell_length_b 9.707028
_cell_length_c 8.668752
_cell_angle_alpha 90.000000
_cell_angle_beta 90.000000
_cell_angle_gamma 90.000000
_cell_volume 961.945547
_symmetry_space_group_name_H-M "P 2 2 21"
_symmetry_group_IT_number 17
_symmetry_cell_setting 'orthorhombic'
loop_
_space_group_symop_operation_xyz
x,y,z
-x,-y,1/2+z
x,-y,-z
-x,y,1/2-z
loop_
_atom_site_type_symbol
_atom_site_label
_atom_site_fract_x
_atom_site_fract_y
_atom_site_fract_z
Si Si1 0.111453 0.041496 0.328765
Si Si2 0.431886 0.000000 0.000000
Si Si3 0.770072 0.177411 0.617385
Si Si4 0.500000 0.195331 0.250000
Si Si5 0.246101 0.728490 0.778690
Si Si6 0.875139 0.456389 0.675370
O O1 0.141023 0.914061 0.215861
O O2 0.000000 0.114548 0.250000
O O3 0.078308 0.000000 0.500000
O O4 0.212328 0.156817 0.347455
O O5 0.354552 0.097570 0.884265
O O6 0.514621 0.902396 0.899096
O O7 0.800980 0.200938 0.437176
O O8 0.781457 0.330785 0.690769
O O9 0.613583 0.291576 0.273245
O O10 0.185789 0.584260 0.737947
O O11 0.896820 0.500000 0.500000
O O12 0.000000 0.418139 0.750000
#
# Coordination Sequence:
#
# PCOD8155453 Si02
#       6
#     4   2   4   2   4   4
#     4  12  23  35  58  88 120 157 202 251 307 361
#     4  10  20  38  64  88 124 152 210 256 304 360
#     4  10  19  40  60  87 118 158 198 252 300 363
#     4  10  20  36  64  86 122 160 202 254 302 356
#     4  10  21  39  60  88 122 156 204 249 306 365
#     4  10  22  38  62  88 124 162 199 244 313 369
#
# _framework density 20.791195999999999
#
# number of rings (size 3 to 8) (size 9 to 14) (size 15 to 20)
#    0.000    1.600    4.000    2.400    1.400    4.800 
#    0.000    1.000    0.000    8.400    0.000    0.000 
#    0.000    0.000    0.000    0.000    0.000    0.000 
#
# Total GULP energy -247762.018335 kJ/mol
# GULP energy per Si atom -12388.100917 kJ/mol
# Density = 2.074387 g / cm^3
# Si number density = 20.791196 Si / 1000 Ang^3
#
#
#
# Elastic Constant Matrix: (Units=GPa)
#
#
# Indices 1 2 3 4 5 6 
#
# 1 89.5331 44.5863 39.8765 0.0000 0.0000 0.0000
# 2 44.5863 126.4981 25.3003 0.0000 0.0000 0.0000
# 3 39.8765 25.3003 59.1181 0.0000 0.0000 0.0000
# 4 0.0000 0.0000 0.0000 14.1403 0.0000 0.0000
# 5 0.0000 0.0000 0.0000 0.0000 28.6889 0.0000
# 6 0.0000 0.0000 0.0000 0.0000 0.0000 11.0122
#
#
#
# Elastic Compliance Matrix: (Units=1/GPa)
#
#
# Indices 1 2 3 4 5 6 
#
# 1 0.017829 -0.004242 -0.010211 0.000000 0.000000 0.000000
# 2 -0.004242 0.009655 -0.001270 0.000000 0.000000 0.000000
# 3 -0.010211 -0.001270 0.024346 0.000000 0.000000 0.000000
# 4 0.000000 0.000000 0.000000 0.070720 0.000000 0.000000
# 5 0.000000 0.000000 0.000000 0.000000 0.034857 0.000000
# 6 0.000000 0.000000 0.000000 0.000000 0.000000 0.090808
#
#
# Mechanical properties :
#
#
# Convention : Reuss Voigt Hill
#
# Bulk Modulus (GPa) = 49.05885 54.96394 52.01140
# Shear Modulus (GPa) = 17.45469 21.79403 19.62436
#
# Velocity S-wave (km/s) = 2.90060 3.24116 3.07559
# Velocity P-wave (km/s) = 5.90467 6.36399 6.13863
#
# Compressibility (1/GPa) = 0.02038368
#
# Stress axis : x y z
#
# Youngs Moduli (GPa) = 56.08772 103.57854 41.07382
#
# Poissons Ratio (x) = 0.43938 0.41940
# Poissons Ratio (y) = 0.23792 0.05218
# Poissons Ratio (z) = 0.57270 0.13159
#
# Static dielectric constant tensor:
#      x y z
#    x 3.524000 0.000000 0.000000 
#    y 0.000000 3.953200 0.000000 
#    z 0.000000 0.000000 3.699750 
# 
# 
# High freq. dielectric constant tensor:
#      x y z
#    x 1.800720 0.000000 0.000000 
#    y 0.000000 1.815890 0.000000 
#    z 0.000000 0.000000 1.800750 
# 
# From -- ./inp_files/4678.got.cif
#   From: 2010.03.12/outbox.cif.g09.slc.cpg/sg17_3_cif.got.tgz:4678.got - 2010.04.10 18:46:23.
