data_PCOD8155450
_publ_section_title
;
Structure prediction by ZEFSAII (Michael W. Deem and Ramdas Pophale) SiO2 
 PCOD8155450
Probable space group: P 2 2 21
;
_chemical_formula_sum "Si O2"
_cell_formula_units_Z 20
_cell_length_a 8.788926
_cell_length_b 11.539058
_cell_length_c 9.818503
_cell_angle_alpha 90.000000
_cell_angle_beta 90.000000
_cell_angle_gamma 90.000000
_cell_volume 995.752582
_symmetry_space_group_name_H-M "P 2 2 21"
_symmetry_group_IT_number 17
_symmetry_cell_setting 'orthorhombic'
loop_
_space_group_symop_operation_xyz
x,y,z
-x,-y,1/2+z
x,-y,-z
-x,y,1/2-z
loop_
_atom_site_type_symbol
_atom_site_label
_atom_site_fract_x
_atom_site_fract_y
_atom_site_fract_z
Si Si1 0.152688 0.485598 0.664469
Si Si2 0.679249 0.258893 0.745252
Si Si3 0.800434 0.133987 0.494862
Si Si4 0.159275 0.871343 0.472472
Si Si5 0.179148 0.735736 0.730192
O O1 0.121224 0.500000 0.500000
O O2 0.269144 0.383655 0.698836
O O3 0.230575 0.601672 0.725542
O O4 0.000000 0.458191 0.750000
O O5 0.500000 0.250968 0.750000
O O6 0.720151 0.226586 0.591857
O O7 0.766470 0.161164 0.830262
O O8 0.751253 0.185816 0.349066
O O9 0.977931 0.139129 0.530882
O O10 0.743278 0.000000 0.500000
O O11 0.230215 0.789916 0.587750
O O12 0.212722 0.000000 0.500000
O O13 0.000000 0.739514 0.750000
#
# Coordination Sequence:
#
# PCOD8155450 Si02
#       5
#     4   4   4   4   4
#     4  11  23  42  68  93 121 160 218 271 314 365
#     4  12  26  41  59  91 136 173 203 250 318 388
#     4  10  21  40  67  96 121 157 216 266 313 368
#     4  10  19  38  67  93 120 159 209 268 310 361
#     4   9  19  35  61  93 118 149 205 269 319 356
#
# _framework density 20.085311000000001
#
# number of rings (size 3 to 8) (size 9 to 14) (size 15 to 20)
#    0.000    1.600    2.000    3.000    5.600    4.000 
#    3.600    1.000    0.000    0.000    0.000    0.000 
#    0.000    0.000    0.000    0.000    0.000    0.000 
#
# Total GULP energy -247877.011733 kJ/mol
# GULP energy per Si atom -12393.850587 kJ/mol
# Density = 2.003960 g / cm^3
# Si number density = 20.085311 Si / 1000 Ang^3
#
#
#
# Elastic Constant Matrix: (Units=GPa)
#
#
# Indices 1 2 3 4 5 6 
#
# 1 33.6843 12.8140 3.4742 0.0000 0.0000 0.0000
# 2 12.8140 129.9940 20.9167 0.0000 0.0000 0.0000
# 3 3.4742 20.9167 78.8200 0.0000 0.0000 0.0000
# 4 0.0000 0.0000 0.0000 44.0481 0.0000 0.0000
# 5 0.0000 0.0000 0.0000 0.0000 6.2373 0.0000
# 6 0.0000 0.0000 0.0000 0.0000 0.0000 7.9120
#
#
#
# Elastic Compliance Matrix: (Units=1/GPa)
#
#
# Indices 1 2 3 4 5 6 
#
# 1 0.030869 -0.002950 -0.000578 0.000000 0.000000 0.000000
# 2 -0.002950 0.008318 -0.002077 0.000000 0.000000 0.000000
# 3 -0.000578 -0.002077 0.013264 0.000000 0.000000 0.000000
# 4 0.000000 0.000000 0.000000 0.022702 0.000000 0.000000
# 5 0.000000 0.000000 0.000000 0.000000 0.160326 0.000000
# 6 0.000000 0.000000 0.000000 0.000000 0.000000 0.126390
#
#
# Mechanical properties :
#
#
# Convention : Reuss Voigt Hill
#
# Bulk Modulus (GPa) = 24.24788 35.21203 29.72995
# Shear Modulus (GPa) = 12.92570 25.32572 19.12571
#
# Velocity S-wave (km/s) = 2.53956 3.55478 3.08916
# Velocity P-wave (km/s) = 4.54949 5.86668 5.24956
#
# Compressibility (1/GPa) = 0.04124072
#
# Stress axis : x y z
#
# Youngs Moduli (GPa) = 32.39478 120.22564 75.39287
#
# Poissons Ratio (x) = 0.35466 0.04356
# Poissons Ratio (y) = 0.09556 0.15661
# Poissons Ratio (z) = 0.01872 0.24974
#
# Static dielectric constant tensor:
#      x y z
#    x 3.240260 0.000000 0.000000 
#    y 0.000000 3.969910 0.000000 
#    z 0.000000 0.000000 3.934410 
# 
# 
# High freq. dielectric constant tensor:
#      x y z
#    x 1.734950 0.000000 0.000000 
#    y 0.000000 1.807140 0.000000 
#    z 0.000000 0.000000 1.802440 
# 
# From -- ./inp_files/3996.got.cif
#   From: 2010.03.12/outbox.cif.g09.slc.cpg/sg17_2_cif.got.tgz:3996.got - 2010.04.10 18:46:23.
