data_PCOD8155598
_publ_section_title
;
Structure prediction by ZEFSAII (Michael W. Deem and Ramdas Pophale) SiO2 
 PCOD8155598
Probable space group: P 2 2 21
;
_chemical_formula_sum "Si O2"
_cell_formula_units_Z 32
_cell_length_a 11.407849
_cell_length_b 9.656147
_cell_length_c 13.758699
_cell_angle_alpha 90.000000
_cell_angle_beta 90.000000
_cell_angle_gamma 90.000000
_cell_volume 1515.601416
_symmetry_space_group_name_H-M "P 2 2 21"
_symmetry_group_IT_number 17
_symmetry_cell_setting 'orthorhombic'
loop_
_space_group_symop_operation_xyz
x,y,z
-x,-y,1/2+z
x,-y,-z
-x,y,1/2-z
loop_
_atom_site_type_symbol
_atom_site_label
_atom_site_fract_x
_atom_site_fract_y
_atom_site_fract_z
Si Si1 0.416044 0.536467 0.888951
Si Si2 0.188890 0.048737 0.783275
Si Si3 0.957486 0.088574 0.902487
Si Si4 0.627169 0.726312 0.254788
Si Si5 0.324671 0.522463 0.390941
Si Si6 0.229473 0.763585 0.855257
Si Si7 0.033219 0.663863 0.983677
Si Si8 0.106135 0.393998 0.303392
O O1 0.376364 0.411943 0.820029
O O2 0.555484 0.565749 0.876285
O O3 0.348290 0.675183 0.858489
O O4 0.387359 0.500000 0.000000
O O5 0.151352 0.056184 0.669419
O O6 0.274632 0.177478 0.801247
O O7 0.076355 0.045953 0.850763
O O8 0.264318 0.918629 0.823299
O O9 0.973322 0.253940 0.926149
O O10 0.939136 0.000000 0.000000
O O11 0.500000 0.800956 0.250000
O O12 0.652128 0.681273 0.141888
O O13 0.278934 0.500000 0.500000
O O14 0.221222 0.483230 0.318123
O O15 0.155773 0.740225 0.955477
O O16 0.137875 0.725706 0.771308
O O17 0.935235 0.678709 0.901279
O O18 0.056938 0.500000 0.000000
O O19 0.000000 0.480832 0.250000
#
# Coordination Sequence:
#
# PCOD8155598 Si02
#       8
#     4   4   4   4   4   4   4   4
#     4  10  22  40  70  96 124 172 225 273 334 387
#     4  11  26  41  66  94 128 178 220 259 325 416
#     4  11  24  45  66  90 135 178 210 261 348 391
#     4  10  23  45  64  92 135 169 215 282 326 383
#     4  10  21  41  66  96 132 170 211 273 340 387
#     4  11  22  41  62  92 129 168 222 267 320 386
#     4  11  24  37  63  97 126 166 216 278 322 386
#     4  10  22  36  62  92 132 163 212 266 324 383
#
# _framework density 21.11373
#
# number of rings (size 3 to 8) (size 9 to 14) (size 15 to 20)
#    0.000    1.500    2.500    1.500   10.500    0.000 
#    4.500    0.000    0.000    0.750    0.000    0.000 
#    0.000    0.000    0.000    0.000    0.000    0.000 
#
# Total GULP energy -396449.824191 kJ/mol
# GULP energy per Si atom -12389.057006 kJ/mol
# Density = 2.106567 g / cm^3
# Si number density = 21.113730 Si / 1000 Ang^3
#
#
#
# Elastic Constant Matrix: (Units=GPa)
#
#
# Indices 1 2 3 4 5 6 
#
# 1 96.4992 36.6421 26.0184 0.0000 0.0000 0.0000
# 2 36.6421 110.2067 38.7340 0.0000 0.0000 0.0000
# 3 26.0184 38.7340 98.0667 0.0000 0.0000 0.0000
# 4 0.0000 0.0000 0.0000 30.4549 0.0000 0.0000
# 5 0.0000 0.0000 0.0000 0.0000 27.8800 0.0000
# 6 0.0000 0.0000 0.0000 0.0000 0.0000 22.9219
#
#
#
# Elastic Compliance Matrix: (Units=1/GPa)
#
#
# Indices 1 2 3 4 5 6 
#
# 1 0.012155 -0.003377 -0.001891 0.000000 0.000000 0.000000
# 2 -0.003377 0.011475 -0.003636 0.000000 0.000000 0.000000
# 3 -0.001891 -0.003636 0.012135 0.000000 0.000000 0.000000
# 4 0.000000 0.000000 0.000000 0.032835 0.000000 0.000000
# 5 0.000000 0.000000 0.000000 0.000000 0.035868 0.000000
# 6 0.000000 0.000000 0.000000 0.000000 0.000000 0.043626
#
#
# Mechanical properties :
#
#
# Convention : Reuss Voigt Hill
#
# Bulk Modulus (GPa) = 55.69057 56.39574 56.04315
# Shear Modulus (GPa) = 29.08872 29.80991 29.44932
#
# Velocity S-wave (km/s) = 3.71579 3.76157 3.73875
# Velocity P-wave (km/s) = 6.69650 6.75532 6.72597
#
# Compressibility (1/GPa) = 0.01795636
#
# Stress axis : x y z
#
# Youngs Moduli (GPa) = 82.27179 87.14910 82.40519
#
# Poissons Ratio (x) = 0.29427 0.15584
# Poissons Ratio (y) = 0.27780 0.29965
# Poissons Ratio (z) = 0.15559 0.31690
#
# Static dielectric constant tensor:
#      x y z
#    x 3.930530 0.000000 0.000000 
#    y 0.000000 3.640370 0.000000 
#    z 0.000000 0.000000 4.151560 
# 
# 
# High freq. dielectric constant tensor:
#      x y z
#    x 1.831690 0.000000 0.000000 
#    y 0.000000 1.798270 0.000000 
#    z 0.000000 0.000000 1.840640 
# 
# From -- ./inp_files/8571.got.cif
#   From: 2010.03.12/outbox.cif.g09.slc.cpg/sg17_5_cif.got.tgz:8571.got - 2010.04.10 18:46:23.
