data_PCOD8155953
_publ_section_title
;
Structure prediction by ZEFSAII (Michael W. Deem and Ramdas Pophale) SiO2 
 PCOD8155953
Probable space group: P 21 21 2
;
_chemical_formula_sum "Si O2"
_cell_formula_units_Z 24
_cell_length_a 15.451498
_cell_length_b 8.449582
_cell_length_c 9.218981
_cell_angle_alpha 90.000000
_cell_angle_beta 90.000000
_cell_angle_gamma 90.000000
_cell_volume 1203.618169
_symmetry_space_group_name_H-M "P 21 21 2"
_symmetry_group_IT_number 18
_symmetry_cell_setting 'orthorhombic'
loop_
_space_group_symop_operation_xyz
x,y,z
-x,-y,z
1/2+x,1/2-y,-z
1/2-x,1/2+y,-z
loop_
_atom_site_type_symbol
_atom_site_label
_atom_site_fract_x
_atom_site_fract_y
_atom_site_fract_z
Si Si1 0.409451 0.422907 0.619523
Si Si2 0.909451 0.577093 0.619523
Si Si3 0.750000 0.533833 0.808509
Si Si4 0.250000 0.600892 0.118923
Si Si5 0.408673 0.555082 0.309272
Si Si6 0.908673 0.444918 0.309272
O O1 0.500000 0.500000 0.666326
O O2 0.334877 0.504589 0.714616
O O3 0.388578 0.450525 0.450854
O O4 0.413300 0.236577 0.643731
O O5 0.834876 0.495411 0.714615
O O6 0.913300 0.763423 0.643731
O O7 0.888578 0.549476 0.450854
O O8 0.000000 0.500000 0.666327
O O9 0.750000 0.713841 0.857115
O O10 0.750000 0.422728 0.947816
O O11 0.334870 0.522645 0.190698
O O12 0.165130 0.522645 0.190698
O O13 0.500000 0.500000 0.240407
O O14 0.000000 0.500000 0.240407
#
# Coordination Sequence:
#
# PCOD8155953 Si02
#       6
#     4   4   4   4   4   4
#     4  10  20  36  57  82 107 138 178 221 265 314
#     4  10  20  36  57  82 107 138 178 221 265 314
#     4  10  23  38  54  78 110 144 179 216 264 318
#     4  10  23  38  54  78 110 144 179 216 264 318
#     4  10  20  36  57  82 107 138 178 221 265 314
#     4  10  20  36  57  82 107 138 178 221 265 314
#
# _framework density 19.939879999999999
#
# number of rings (size 3 to 8) (size 9 to 14) (size 15 to 20)
#    0.000    2.000    0.000    5.000    0.000    6.667 
#    0.000    6.667    0.000    0.000    0.000    0.000 
#    0.000    0.000    0.000    0.000    0.000    0.000 
#
# Total GULP energy -297681.576608 kJ/mol
# GULP energy per Si atom -12403.399025 kJ/mol
# Density = 1.989450 g / cm^3
# Si number density = 19.939880 Si / 1000 Ang^3
#
#
#
# Elastic Constant Matrix: (Units=GPa)
#
#
# Indices 1 2 3 4 5 6 
#
# 1 139.4176 7.7368 49.8224 0.0000 0.0000 0.0000
# 2 7.7368 31.1034 -10.4630 0.0000 0.0000 0.0000
# 3 49.8224 -10.4630 60.4951 0.0000 0.0000 0.0000
# 4 0.0000 0.0000 0.0000 22.7670 0.0000 0.0000
# 5 0.0000 0.0000 0.0000 0.0000 20.0481 0.0000
# 6 0.0000 0.0000 0.0000 0.0000 0.0000 31.5517
#
#
#
# Elastic Compliance Matrix: (Units=1/GPa)
#
#
# Indices 1 2 3 4 5 6 
#
# 1 0.011204 -0.006255 -0.010309 0.000000 0.000000 0.000000
# 2 -0.006255 0.037629 0.011659 0.000000 0.000000 0.000000
# 3 -0.010309 0.011659 0.027037 0.000000 0.000000 0.000000
# 4 0.000000 0.000000 0.000000 0.043923 0.000000 0.000000
# 5 0.000000 0.000000 0.000000 0.000000 0.049880 0.000000
# 6 0.000000 0.000000 0.000000 0.000000 0.000000 0.031694
#
#
# Mechanical properties :
#
#
# Convention : Reuss Voigt Hill
#
# Bulk Modulus (GPa) = 15.13755 36.13429 25.63592
# Shear Modulus (GPa) = 21.44118 27.13469 24.28794
#
# Velocity S-wave (km/s) = 3.28272 3.69294 3.49386
# Velocity P-wave (km/s) = 4.68790 6.02866 5.40005
#
# Compressibility (1/GPa) = 0.06606089
#
# Stress axis : x y z
#
# Youngs Moduli (GPa) = 89.25512 26.57543 36.98619
#
# Poissons Ratio (x) = 0.16622 0.38129
# Poissons Ratio (y) = 0.55827 -0.43124
# Poissons Ratio (z) = 0.92013 -0.30985
#
# Static dielectric constant tensor:
#      x y z
#    x 4.065020 0.000000 0.000000 
#    y 0.000000 3.515620 0.000000 
#    z 0.000000 0.000000 3.594930 
# 
# 
# High freq. dielectric constant tensor:
#      x y z
#    x 1.796680 0.000000 0.000000 
#    y 0.000000 1.779810 0.000000 
#    z 0.000000 0.000000 1.765920 
# 
# From -- ./inp_files/4171.got.cif
#   From: 2010.03.12/outbox.cif.g09.slc.cpg/sg18_3_cif.got.tgz:4171.got - 2010.04.10 18:53:55.
