data_PCOD8155824
_publ_section_title
;
Structure prediction by ZEFSAII (Michael W. Deem and Ramdas Pophale) SiO2 
 PCOD8155824
Probable space group: P 21 21 2
;
_chemical_formula_sum "Si O2"
_cell_formula_units_Z 26
_cell_length_a 17.686450
_cell_length_b 8.650036
_cell_length_c 9.106406
_cell_angle_alpha 90.000000
_cell_angle_beta 90.000000
_cell_angle_gamma 90.000000
_cell_volume 1393.174750
_symmetry_space_group_name_H-M "P 21 21 2"
_symmetry_group_IT_number 18
_symmetry_cell_setting 'orthorhombic'
loop_
_space_group_symop_operation_xyz
x,y,z
-x,-y,z
1/2+x,1/2-y,-z
1/2-x,1/2+y,-z
loop_
_atom_site_type_symbol
_atom_site_label
_atom_site_fract_x
_atom_site_fract_y
_atom_site_fract_z
Si Si1 0.665863 0.607100 0.373130
Si Si2 0.739086 0.215682 0.168573
Si Si3 0.665156 0.506880 0.042684
Si Si4 0.885955 0.551036 0.638881
Si Si5 0.720585 0.873457 0.549977
Si Si6 0.000000 0.000000 0.911475
Si Si7 0.522967 0.755872 0.321510
O O1 0.669866 0.596040 0.197649
O O2 0.721617 0.744280 0.423768
O O3 0.695639 0.450671 0.449525
O O4 0.578429 0.643996 0.419470
O O5 0.701378 0.337310 0.057297
O O6 0.674275 0.119403 0.249117
O O7 0.792728 0.301026 0.288650
O O8 0.791112 0.098966 0.080835
O O9 0.576875 0.498058 0.993118
O O10 0.845254 0.497583 0.487556
O O11 0.925694 0.405403 0.720890
O O12 0.948270 0.681633 0.594980
O O13 0.995181 0.842091 0.817092
#
# Coordination Sequence:
#
# PCOD8155824 Si02
#       7
#     4   4   4   4   4   2   4
#     4   9  19  34  56  87 113 152 195 241 296 343
#     4  11  22  37  58  91 119 156 197 246 300 358
#     4  10  23  35  59  87 121 155 203 244 294 363
#     4  10  19  36  58  86 117 150 199 248 294 344
#     4  10  19  34  58  84 117 152 190 245 296 349
#     4  10  18  38  56  86 124 154 200 244 306 346
#     4   9  19  32  57  88 112 147 196 251 284 344
#
# _framework density 18.662410000000001
#
# number of rings (size 3 to 8) (size 9 to 14) (size 15 to 20)
#    0.000    2.154    3.077    0.000    6.462    0.000 
#    0.000    0.000    0.000   28.615    0.000    0.000 
#    0.000    0.000    0.000    0.000    0.000    0.000 
#
# Total GULP energy -322092.829346 kJ/mol
# GULP energy per Si atom -12388.185744 kJ/mol
# Density = 1.861993 g / cm^3
# Si number density = 18.662410 Si / 1000 Ang^3
#
#
#
# Elastic Constant Matrix: (Units=GPa)
#
#
# Indices 1 2 3 4 5 6 
#
# 1 145.9328 65.5447 61.0436 0.0000 0.0000 0.0000
# 2 65.5447 82.8284 42.9911 0.0000 0.0000 0.0000
# 3 61.0436 42.9911 56.0591 0.0000 0.0000 0.0000
# 4 0.0000 0.0000 0.0000 38.0397 0.0000 0.0000
# 5 0.0000 0.0000 0.0000 0.0000 27.7037 0.0000
# 6 0.0000 0.0000 0.0000 0.0000 0.0000 38.4426
#
#
#
# Elastic Compliance Matrix: (Units=1/GPa)
#
#
# Indices 1 2 3 4 5 6 
#
# 1 0.013807 -0.005187 -0.011057 0.000000 0.000000 0.000000
# 2 -0.005187 0.022005 -0.011227 0.000000 0.000000 0.000000
# 3 -0.011057 -0.011227 0.038489 0.000000 0.000000 0.000000
# 4 0.000000 0.000000 0.000000 0.026288 0.000000 0.000000
# 5 0.000000 0.000000 0.000000 0.000000 0.036096 0.000000
# 6 0.000000 0.000000 0.000000 0.000000 0.000000 0.026013
#
#
# Mechanical properties :
#
#
# Convention : Reuss Voigt Hill
#
# Bulk Modulus (GPa) = 51.65746 69.33102 60.49424
# Shear Modulus (GPa) = 22.31203 28.51993 25.41598
#
# Velocity S-wave (km/s) = 3.46144 3.91346 3.69437
# Velocity P-wave (km/s) = 6.61177 7.59283 7.11922
#
# Compressibility (1/GPa) = 0.01935829
#
# Stress axis : x y z
#
# Youngs Moduli (GPa) = 72.42463 45.44367 25.98178
#
# Poissons Ratio (x) = 0.23573 0.28728
# Poissons Ratio (y) = 0.37568 0.29170
# Poissons Ratio (z) = 0.80081 0.51020
#
# Static dielectric constant tensor:
#      x y z
#    x 3.836250 0.000000 0.000000 
#    y 0.000000 3.855680 0.000000 
#    z 0.000000 0.000000 3.005520 
# 
# 
# High freq. dielectric constant tensor:
#      x y z
#    x 1.736360 0.000000 0.000000 
#    y 0.000000 1.750970 0.000000 
#    z 0.000000 0.000000 1.664120 
# 
# From -- ./inp_files/3319.got.cif
#   From: 2010.03.12/outbox.cif.g09.slc.cpg/sg18_2_cif.got.tgz:3319.got - 2010.04.10 18:53:55.
