data_PCOD8155428
_publ_section_title
;
Structure prediction by ZEFSAII (Michael W. Deem and Ramdas Pophale) SiO2 
 PCOD8155428
Probable space group: P 2 2 21
;
_chemical_formula_sum "Si O2"
_cell_formula_units_Z 24
_cell_length_a 8.894241
_cell_length_b 9.317055
_cell_length_c 15.266047
_cell_angle_alpha 90.000000
_cell_angle_beta 90.000000
_cell_angle_gamma 90.000000
_cell_volume 1265.068807
_symmetry_space_group_name_H-M "P 2 2 21"
_symmetry_group_IT_number 17
_symmetry_cell_setting 'orthorhombic'
loop_
_space_group_symop_operation_xyz
x,y,z
-x,-y,1/2+z
x,-y,-z
-x,y,1/2-z
loop_
_atom_site_type_symbol
_atom_site_label
_atom_site_fract_x
_atom_site_fract_y
_atom_site_fract_z
Si Si1 0.938213 0.335817 0.502611
Si Si2 0.124382 0.908861 0.414724
Si Si3 0.075292 0.849556 0.836300
Si Si4 0.420114 0.847792 0.839260
Si Si5 0.407101 0.336662 0.990979
Si Si6 0.556490 0.853313 0.152951
O O1 0.993311 0.500000 0.500000
O O2 0.946821 0.276409 0.405078
O O3 0.767147 0.322736 0.537021
O O4 0.047996 0.243148 0.563073
O O5 0.263450 0.872053 0.351467
O O6 0.177118 0.000000 0.500000
O O7 0.000568 0.001214 0.363909
O O8 0.248280 0.880516 0.817355
O O9 0.000000 0.786833 0.750000
O O10 0.500000 0.794579 0.750000
O O11 0.441618 0.731497 0.914694
O O12 0.487798 0.995139 0.875424
O O13 0.457572 0.500000 0.000000
O O14 0.506992 0.266858 0.915548
O O15 0.500000 0.809856 0.250000
#
# Coordination Sequence:
#
# PCOD8155428 Si02
#       6
#     4   4   4   4   4   4
#     4   9  20  38  56  78 108 146 184 219 274 330
#     4  10  20  35  57  81 108 143 183 227 273 326
#     4  10  19  34  56  81 108 138 178 228 273 320
#     4  10  20  35  58  83 108 142 183 225 274 328
#     4  10  21  38  57  78 113 151 181 224 276 329
#     4  11  22  36  55  83 112 142 184 229 273 325
#
# _framework density 18.971302000000001
#
# number of rings (size 3 to 8) (size 9 to 14) (size 15 to 20)
#    0.000    2.000    0.000    4.500    0.000    5.333 
#    0.000    5.833    0.000    0.000    0.000    0.000 
#    0.000    0.000    0.000    0.000    0.000    0.000 
#
# Total GULP energy -297638.425723 kJ/mol
# GULP energy per Si atom -12401.601072 kJ/mol
# Density = 1.892812 g / cm^3
# Si number density = 18.971302 Si / 1000 Ang^3
#
#
#
# Elastic Constant Matrix: (Units=GPa)
#
#
# Indices 1 2 3 4 5 6 
#
# 1 134.4764 60.9310 65.5028 0.0000 0.0000 0.0000
# 2 60.9310 144.3051 53.2578 0.0000 0.0000 0.0000
# 3 65.5028 53.2578 107.6654 0.0000 0.0000 0.0000
# 4 0.0000 0.0000 0.0000 16.9345 0.0000 0.0000
# 5 0.0000 0.0000 0.0000 0.0000 38.2578 0.0000
# 6 0.0000 0.0000 0.0000 0.0000 0.0000 13.7337
#
#
#
# Elastic Compliance Matrix: (Units=1/GPa)
#
#
# Indices 1 2 3 4 5 6 
#
# 1 0.011399 -0.002757 -0.005571 0.000000 0.000000 0.000000
# 2 -0.002757 0.009144 -0.002846 0.000000 0.000000 0.000000
# 3 -0.005571 -0.002846 0.014085 0.000000 0.000000 0.000000
# 4 0.000000 0.000000 0.000000 0.059051 0.000000 0.000000
# 5 0.000000 0.000000 0.000000 0.000000 0.026138 0.000000
# 6 0.000000 0.000000 0.000000 0.000000 0.000000 0.072814
#
#
# Mechanical properties :
#
#
# Convention : Reuss Voigt Hill
#
# Bulk Modulus (GPa) = 81.43228 82.87001 82.15115
# Shear Modulus (GPa) = 22.82332 27.56888 25.19610
#
# Velocity S-wave (km/s) = 3.47226 3.81621 3.64829
# Velocity P-wave (km/s) = 7.68717 7.94950 7.81943
#
# Compressibility (1/GPa) = 0.01228014
#
# Stress axis : x y z
#
# Youngs Moduli (GPa) = 87.72508 109.35892 70.99527
#
# Poissons Ratio (x) = 0.30150 0.39555
# Poissons Ratio (y) = 0.24186 0.20205
# Poissons Ratio (z) = 0.48876 0.31123
#
# Static dielectric constant tensor:
#      x y z
#    x 3.618430 0.000000 0.000000 
#    y 0.000000 3.382500 0.000000 
#    z 0.000000 0.000000 3.511210 
# 
# 
# High freq. dielectric constant tensor:
#      x y z
#    x 1.747290 0.000000 0.000000 
#    y 0.000000 1.730880 0.000000 
#    z 0.000000 0.000000 1.738860 
# 
# From -- ./inp_files/8080.got.cif
#   From: 2010.03.12/outbox.cif.g09.slc.cpg/sg17_5_cif.got.tgz:8080.got - 2010.04.10 18:46:23.
