data_PCOD8155901
_publ_section_title
;
Structure prediction by ZEFSAII (Michael W. Deem and Ramdas Pophale) SiO2 
 PCOD8155901
Probable space group: P 21 21 2
;
_chemical_formula_sum "Si O2"
_cell_formula_units_Z 22
_cell_length_a 8.559635
_cell_length_b 15.800388
_cell_length_c 8.511887
_cell_angle_alpha 90.000000
_cell_angle_beta 90.000000
_cell_angle_gamma 90.000000
_cell_volume 1151.194874
_symmetry_space_group_name_H-M "P 21 21 2"
_symmetry_group_IT_number 18
_symmetry_cell_setting 'orthorhombic'
loop_
_space_group_symop_operation_xyz
x,y,z
-x,-y,z
1/2+x,1/2-y,-z
1/2-x,1/2+y,-z
loop_
_atom_site_type_symbol
_atom_site_label
_atom_site_fract_x
_atom_site_fract_y
_atom_site_fract_z
Si Si1 0.605667 0.159411 0.472988
Si Si2 0.186187 0.619684 0.124933
Si Si3 0.587163 0.412330 0.867695
Si Si4 0.500000 0.000000 0.662904
Si Si5 0.403982 0.276038 0.681342
Si Si6 0.074653 0.591508 0.802458
O O1 0.544186 0.235171 0.582051
O O2 0.787224 0.175328 0.435862
O O3 0.508080 0.158521 0.311121
O O4 0.587039 0.069322 0.557339
O O5 0.137113 0.541103 0.233544
O O6 0.192141 0.704868 0.225273
O O7 0.357781 0.603915 0.048734
O O8 0.059135 0.625632 0.982083
O O9 0.500000 0.500000 0.855973
O O10 0.472776 0.339067 0.810461
O O11 0.741447 0.415743 0.756955
O O12 0.000000 0.500000 0.784882
#
# Coordination Sequence:
#
# PCOD8155901 Si02
#       6
#     4   4   4   2   4   4
#     4  11  23  40  64  94 129 169 210 258 330 377
#     4   9  22  39  64  90 123 160 220 252 318 369
#     4  10  22  40  63  94 122 164 214 261 312 377
#     4  10  20  42  64  92 120 174 206 258 318 390
#     4  11  24  42  62  94 130 168 209 270 315 384
#     4  10  19  37  66  90 120 169 206 260 310 382
#
# _framework density 19.110578
#
# number of rings (size 3 to 8) (size 9 to 14) (size 15 to 20)
#    1.091    0.727    1.818    2.182    2.545    0.000 
#    6.545    0.000    0.000    0.000    0.000    0.000 
#    0.000    0.000    0.000    0.000    0.000    0.000 
#
# Total GULP energy -272719.068488 kJ/mol
# GULP energy per Si atom -12396.321295 kJ/mol
# Density = 1.906708 g / cm^3
# Si number density = 19.110578 Si / 1000 Ang^3
#
#
#
# Elastic Constant Matrix: (Units=GPa)
#
#
# Indices 1 2 3 4 5 6 
#
# 1 97.3437 48.1163 29.5302 0.0000 0.0000 0.0000
# 2 48.1163 115.1215 43.8633 0.0000 0.0000 0.0000
# 3 29.5302 43.8633 97.1401 0.0000 0.0000 0.0000
# 4 0.0000 0.0000 0.0000 6.1407 0.0000 0.0000
# 5 0.0000 0.0000 0.0000 0.0000 43.5556 0.0000
# 6 0.0000 0.0000 0.0000 0.0000 0.0000 25.6187
#
#
#
# Elastic Compliance Matrix: (Units=1/GPa)
#
#
# Indices 1 2 3 4 5 6 
#
# 1 0.013215 -0.004822 -0.001840 0.000000 0.000000 0.000000
# 2 -0.004822 0.012251 -0.004066 0.000000 0.000000 0.000000
# 3 -0.001840 -0.004066 0.012690 0.000000 0.000000 0.000000
# 4 0.000000 0.000000 0.000000 0.162847 0.000000 0.000000
# 5 0.000000 0.000000 0.000000 0.000000 0.022959 0.000000
# 6 0.000000 0.000000 0.000000 0.000000 0.000000 0.039034
#
#
# Mechanical properties :
#
#
# Convention : Reuss Voigt Hill
#
# Bulk Modulus (GPa) = 59.88210 61.40277 60.64243
# Shear Modulus (GPa) = 17.24029 27.60271 22.42150
#
# Velocity S-wave (km/s) = 3.00681 3.80461 3.42899
# Velocity P-wave (km/s) = 6.59220 7.17635 6.89047
#
# Compressibility (1/GPa) = 0.01669948
#
# Stress axis : x y z
#
# Youngs Moduli (GPa) = 75.67410 81.62464 78.80410
#
# Poissons Ratio (x) = 0.39361 0.14498
# Poissons Ratio (y) = 0.36492 0.32042
# Poissons Ratio (z) = 0.13922 0.33189
#
# Static dielectric constant tensor:
#      x y z
#    x 3.335820 0.000000 0.000000 
#    y 0.000000 3.385600 0.000000 
#    z 0.000000 0.000000 3.611080 
# 
# 
# High freq. dielectric constant tensor:
#      x y z
#    x 1.728340 0.000000 0.000000 
#    y 0.000000 1.746590 0.000000 
#    z 0.000000 0.000000 1.746990 
# 
# From -- ./inp_files/3092.got.cif
#   From: 2010.03.12/outbox.cif.g09.slc.cpg/sg18_2_cif.got.tgz:3092.got - 2010.04.10 18:53:55.
