data_PCOD8155608
_publ_section_title
;
Structure prediction by ZEFSAII (Michael W. Deem and Ramdas Pophale) SiO2 
 PCOD8155608
Probable space group: P 2 2 21
;
_chemical_formula_sum "Si O2"
_cell_formula_units_Z 26
_cell_length_a 12.084999
_cell_length_b 8.822969
_cell_length_c 11.457160
_cell_angle_alpha 90.000000
_cell_angle_beta 90.000000
_cell_angle_gamma 90.000000
_cell_volume 1221.626233
_symmetry_space_group_name_H-M "P 2 2 21"
_symmetry_group_IT_number 17
_symmetry_cell_setting 'orthorhombic'
loop_
_space_group_symop_operation_xyz
x,y,z
-x,-y,1/2+z
x,-y,-z
-x,y,1/2-z
loop_
_atom_site_type_symbol
_atom_site_label
_atom_site_fract_x
_atom_site_fract_y
_atom_site_fract_z
Si Si1 0.470414 0.663800 0.528403
Si Si2 0.854159 0.158656 0.059210
Si Si3 0.220681 0.105318 0.836889
Si Si4 0.689644 0.193359 0.434276
Si Si5 0.000000 0.954542 0.750000
Si Si6 0.256484 0.323053 0.630283
Si Si7 0.702392 0.651230 0.792249
O O1 0.523174 0.500000 0.500000
O O2 0.564878 0.791495 0.514683
O O3 0.368013 0.698531 0.443306
O O4 0.423317 0.656739 0.660871
O O5 0.764473 0.202358 0.156047
O O6 0.967437 0.146110 0.135578
O O7 0.849737 0.279868 0.952326
O O8 0.822254 0.000000 0.000000
O O9 0.272167 0.214299 0.740269
O O10 0.299951 0.960879 0.859173
O O11 0.220060 0.195586 0.961044
O O12 0.098371 0.061085 0.795150
O O13 0.707052 0.336211 0.347912
O O14 0.237472 0.495675 0.669576
#
# Coordination Sequence:
#
# PCOD8155608 Si02
#       7
#     4   4   4   4   2   4   4
#     4   9  21  40  66  96 134 185 215 263 340 411
#     4  11  21  40  71  96 126 176 226 280 333 409
#     4  11  26  43  64  97 131 181 226 294 336 401
#     4  11  23  42  61 103 139 168 229 273 339 399
#     4  12  24  44  70  92 130 180 228 282 372 392
#     4  10  22  44  68  98 135 178 233 267 338 420
#     4  10  21  42  70  97 135 181 222 274 338 406
#
# _framework density 21.283104999999999
#
# number of rings (size 3 to 8) (size 9 to 14) (size 15 to 20)
#    0.000    1.538    3.077    1.846    4.308    0.615 
#   22.154    0.769    0.000    1.846    0.000    0.000 
#    0.000    0.000    0.000    0.000    0.000    0.000 
#
# Total GULP energy -322138.486732 kJ/mol
# GULP energy per Si atom -12389.941797 kJ/mol
# Density = 2.123466 g / cm^3
# Si number density = 21.283105 Si / 1000 Ang^3
#
#
#
# Elastic Constant Matrix: (Units=GPa)
#
#
# Indices 1 2 3 4 5 6 
#
# 1 90.1022 61.8247 46.9098 0.0000 0.0000 0.0000
# 2 61.8247 98.0370 66.9674 0.0000 0.0000 0.0000
# 3 46.9098 66.9674 166.2529 0.0000 0.0000 0.0000
# 4 0.0000 0.0000 0.0000 45.6232 0.0000 0.0000
# 5 0.0000 0.0000 0.0000 0.0000 32.2147 0.0000
# 6 0.0000 0.0000 0.0000 0.0000 0.0000 20.5717
#
#
#
# Elastic Compliance Matrix: (Units=1/GPa)
#
#
# Indices 1 2 3 4 5 6 
#
# 1 0.019634 -0.011861 -0.000762 0.000000 0.000000 0.000000
# 2 -0.011861 0.021238 -0.005208 0.000000 0.000000 0.000000
# 3 -0.000762 -0.005208 0.008328 0.000000 0.000000 0.000000
# 4 0.000000 0.000000 0.000000 0.021919 0.000000 0.000000
# 5 0.000000 0.000000 0.000000 0.000000 0.031042 0.000000
# 6 0.000000 0.000000 0.000000 0.000000 0.000000 0.048611
#
#
# Mechanical properties :
#
#
# Convention : Reuss Voigt Hill
#
# Bulk Modulus (GPa) = 73.87174 78.42178 76.14676
# Shear Modulus (GPa) = 26.18559 31.59459 28.89009
#
# Velocity S-wave (km/s) = 3.51143 3.85709 3.68831
# Velocity P-wave (km/s) = 7.15714 7.53413 7.34805
#
# Compressibility (1/GPa) = 0.01353698
#
# Stress axis : x y z
#
# Youngs Moduli (GPa) = 50.93222 47.08650 120.08038
#
# Poissons Ratio (x) = 0.55849 0.09153
# Poissons Ratio (y) = 0.60411 0.62536
# Poissons Ratio (z) = 0.03882 0.24522
#
# Static dielectric constant tensor:
#      x y z
#    x 3.594880 0.000000 0.000000 
#    y 0.000000 3.879240 0.000000 
#    z 0.000000 0.000000 4.435960 
# 
# 
# High freq. dielectric constant tensor:
#      x y z
#    x 1.801500 0.000000 0.000000 
#    y 0.000000 1.826430 0.000000 
#    z 0.000000 0.000000 1.863450 
# 
# From -- ./inp_files/6976.got.cif
#   From: 2010.03.12/outbox.cif.g09.slc.cpg/sg17_4_cif.got.tgz:6976.got - 2010.04.10 18:46:23.
