data_PCOD8155424
_publ_section_title
;
Structure prediction by ZEFSAII (Michael W. Deem and Ramdas Pophale) SiO2 
 PCOD8155424
Probable space group: P 2 2 21
;
_chemical_formula_sum "Si O2"
_cell_formula_units_Z 32
_cell_length_a 19.611444
_cell_length_b 5.129310
_cell_length_c 16.669178
_cell_angle_alpha 90.000000
_cell_angle_beta 90.000000
_cell_angle_gamma 90.000000
_cell_volume 1676.805553
_symmetry_space_group_name_H-M "P 2 2 21"
_symmetry_group_IT_number 17
_symmetry_cell_setting 'orthorhombic'
loop_
_space_group_symop_operation_xyz
x,y,z
-x,-y,1/2+z
x,-y,-z
-x,y,1/2-z
loop_
_atom_site_type_symbol
_atom_site_label
_atom_site_fract_x
_atom_site_fract_y
_atom_site_fract_z
Si Si1 0.560789 0.530563 0.187416
Si Si2 0.051601 0.036676 0.413582
Si Si3 0.320302 0.498405 0.189226
Si Si4 0.475764 0.971605 0.593375
Si Si5 0.789788 0.015169 0.089029
Si Si6 0.950583 0.546342 0.180046
Si Si7 0.636028 0.999018 0.594122
Si Si8 0.791994 0.471438 0.811056
O O1 0.500000 0.518017 0.250000
O O2 0.630657 0.487703 0.234025
O O3 0.551209 0.308376 0.120830
O O4 0.563521 0.807453 0.142981
O O5 0.130488 0.961870 0.420750
O O6 0.021950 0.826288 0.350757
O O7 0.016152 0.000000 0.500000
O O8 0.040133 0.333592 0.389370
O O9 0.329264 0.251677 0.132398
O O10 0.244041 0.496596 0.224906
O O11 0.331726 0.748858 0.134501
O O12 0.555730 0.997697 0.611273
O O13 0.459454 0.000000 0.500000
O O14 0.761486 0.784536 0.145387
O O15 0.774314 0.289947 0.130115
O O16 0.755983 0.000000 0.000000
O O17 0.872200 0.550332 0.208805
O O18 0.000000 0.454473 0.250000
O O19 0.651811 0.000000 0.500000
#
# Coordination Sequence:
#
# PCOD8155424 Si02
#       8
#     4   4   4   4   4   4   4   4
#     4  12  21  37  57  82 108 139 176 221 273 311
#     4   9  17  30  52  79 105 133 178 221 257 309
#     4  12  23  37  58  82 110 140 176 224 268 321
#     4  11  22  38  57  82 111 141 180 223 264 318
#     4   9  17  33  54  76 105 143 178 214 252 311
#     4  10  19  33  55  78 107 141 178 220 268 311
#     4  11  22  38  60  82 102 139 185 226 265 309
#     4  10  21  35  52  82 109 141 180 217 264 317
#
# _framework density 19.083905000000001
#
# number of rings (size 3 to 8) (size 9 to 14) (size 15 to 20)
#    0.000    1.500    2.500    3.750    0.000    5.000 
#    0.000    3.750    0.000    4.500    0.000    0.000 
#    0.000    0.000    0.000    0.000    0.000    0.000 
#
# Total GULP energy -396878.143628 kJ/mol
# GULP energy per Si atom -12402.441988 kJ/mol
# Density = 1.904047 g / cm^3
# Si number density = 19.083905 Si / 1000 Ang^3
#
#
#
# Elastic Constant Matrix: (Units=GPa)
#
#
# Indices 1 2 3 4 5 6 
#
# 1 56.9395 21.9678 43.4715 0.0000 0.0000 0.0000
# 2 21.9678 115.3613 38.1020 0.0000 0.0000 0.0000
# 3 43.4715 38.1020 112.8992 0.0000 0.0000 0.0000
# 4 0.0000 0.0000 0.0000 38.5109 0.0000 0.0000
# 5 0.0000 0.0000 0.0000 0.0000 22.9002 0.0000
# 6 0.0000 0.0000 0.0000 0.0000 0.0000 311.3678
#
#
#
# Elastic Compliance Matrix: (Units=1/GPa)
#
#
# Indices 1 2 3 4 5 6 
#
# 1 0.025201 -0.001794 -0.009098 0.000000 0.000000 0.000000
# 2 -0.001794 0.009884 -0.002645 0.000000 0.000000 0.000000
# 3 -0.009098 -0.002645 0.013253 0.000000 0.000000 0.000000
# 4 0.000000 0.000000 0.000000 0.025967 0.000000 0.000000
# 5 0.000000 0.000000 0.000000 0.000000 0.043668 0.000000
# 6 0.000000 0.000000 0.000000 0.000000 0.000000 0.003212
#
#
# Mechanical properties :
#
#
# Convention : Reuss Voigt Hill
#
# Bulk Modulus (GPa) = 47.02806 54.69806 50.86306
# Shear Modulus (GPa) = 32.18646 86.66638 59.42642
#
# Velocity S-wave (km/s) = 4.11125 6.74625 5.58634
# Velocity P-wave (km/s) = 6.87261 9.45551 8.26557
#
# Compressibility (1/GPa) = 0.02126390
#
# Stress axis : x y z
#
# Youngs Moduli (GPa) = 39.68155 101.17798 75.45350
#
# Poissons Ratio (x) = 0.18151 0.68647
# Poissons Ratio (y) = 0.07119 0.19956
# Poissons Ratio (z) = 0.36102 0.26760
#
# Static dielectric constant tensor:
#      x y z
#    x 3.231570 0.000000 0.000000 
#    y 0.000000 3.645830 0.000000 
#    z 0.000000 0.000000 3.601070 
# 
# 
# High freq. dielectric constant tensor:
#      x y z
#    x 1.702920 0.000000 0.000000 
#    y 0.000000 1.764660 0.000000 
#    z 0.000000 0.000000 1.750050 
# 
# From -- ./inp_files/8685.got.cif
#   From: 2010.03.12/outbox.cif.g09.slc.cpg/sg17_5_cif.got.tgz:8685.got - 2010.04.10 18:46:23.
