data_PCOD8155646
_publ_section_title
;
Structure prediction by ZEFSAII (Michael W. Deem and Ramdas Pophale) SiO2 
 PCOD8155646
Probable space group: P 2 2 21
;
_chemical_formula_sum "Si O2"
_cell_formula_units_Z 16
_cell_length_a 8.420856
_cell_length_b 9.591428
_cell_length_c 8.813515
_cell_angle_alpha 90.000000
_cell_angle_beta 90.000000
_cell_angle_gamma 90.000000
_cell_volume 711.850279
_symmetry_space_group_name_H-M "P 2 2 21"
_symmetry_group_IT_number 17
_symmetry_cell_setting 'orthorhombic'
loop_
_space_group_symop_operation_xyz
x,y,z
-x,-y,1/2+z
x,-y,-z
-x,y,1/2-z
loop_
_atom_site_type_symbol
_atom_site_label
_atom_site_fract_x
_atom_site_fract_y
_atom_site_fract_z
Si Si1 0.782575 0.128437 0.806422
Si Si2 0.000000 0.107170 0.250000
Si Si3 0.729661 0.201466 0.458988
Si Si4 0.791332 0.500000 0.500000
Si Si5 0.479146 0.000000 0.500000
Si Si6 0.000000 0.366435 0.750000
O O1 0.881262 0.267868 0.851071
O O2 0.883924 0.991057 0.848597
O O3 0.587725 0.895912 0.606263
O O4 0.618585 0.109432 0.896647
O O5 0.108037 0.199302 0.138028
O O6 0.680844 0.365091 0.465742
O O7 0.757016 0.136840 0.625612
O O8 0.901936 0.466115 0.641950
#
# Coordination Sequence:
#
# PCOD8155646 Si02
#       6
#     4   2   4   2   2   2
#     4  10  23  39  66 101 132 174 224 293 341 383
#     4  11  21  38  70  98 124 172 232 286 324 400
#     4  11  23  42  66 100 137 177 231 281 341 409
#     4  10  22  42  64  96 136 182 228 278 336 412
#     4  12  24  40  68 100 138 180 220 286 352 398
#     4   9  21  42  68  98 132 178 234 282 332 406
#
# _framework density 22.476638000000001
#
# number of rings (size 3 to 8) (size 9 to 14) (size 15 to 20)
#    0.000    1.500    2.500    1.500   10.500    0.000 
#    0.000    1.250   16.500    0.000    0.000    0.000 
#    0.000    0.000    0.000    0.000    0.000    0.000 
#
# Total GULP energy -198246.232559 kJ/mol
# GULP energy per Si atom -12390.389535 kJ/mol
# Density = 2.242548 g / cm^3
# Si number density = 22.476638 Si / 1000 Ang^3
#
#
#
# Elastic Constant Matrix: (Units=GPa)
#
#
# Indices 1 2 3 4 5 6 
#
# 1 117.0379 64.8742 34.7722 0.0000 0.0000 0.0000
# 2 64.8742 168.1336 28.0251 0.0000 0.0000 0.0000
# 3 34.7722 28.0251 67.5497 0.0000 0.0000 0.0000
# 4 0.0000 0.0000 0.0000 23.8740 0.0000 0.0000
# 5 0.0000 0.0000 0.0000 0.0000 37.6435 0.0000
# 6 0.0000 0.0000 0.0000 0.0000 0.0000 6.0680
#
#
#
# Elastic Compliance Matrix: (Units=1/GPa)
#
#
# Indices 1 2 3 4 5 6 
#
# 1 0.012066 -0.003889 -0.004598 0.000000 0.000000 0.000000
# 2 -0.003889 0.007643 -0.001169 0.000000 0.000000 0.000000
# 3 -0.004598 -0.001169 0.017656 0.000000 0.000000 0.000000
# 4 0.000000 0.000000 0.000000 0.041887 0.000000 0.000000
# 5 0.000000 0.000000 0.000000 0.000000 0.026565 0.000000
# 6 0.000000 0.000000 0.000000 0.000000 0.000000 0.164800
#
#
# Mechanical properties :
#
#
# Convention : Reuss Voigt Hill
#
# Bulk Modulus (GPa) = 55.39204 67.56269 61.47737
# Shear Modulus (GPa) = 16.89501 28.52041 22.70771
#
# Velocity S-wave (km/s) = 2.74463 3.56601 3.18194
# Velocity P-wave (km/s) = 5.89422 6.86146 6.39615
#
# Compressibility (1/GPa) = 0.01805313
#
# Stress axis : x y z
#
# Youngs Moduli (GPa) = 82.87716 130.83551 56.63944
#
# Poissons Ratio (x) = 0.50886 0.26040
# Poissons Ratio (y) = 0.32234 0.06621
# Poissons Ratio (z) = 0.38103 0.15294
#
# Static dielectric constant tensor:
#      x y z
#    x 4.424160 0.000000 0.000000 
#    y 0.000000 4.217990 0.000000 
#    z 0.000000 0.000000 3.716830 
# 
# 
# High freq. dielectric constant tensor:
#      x y z
#    x 1.879680 0.000000 0.000000 
#    y 0.000000 1.887820 0.000000 
#    z 0.000000 0.000000 1.870090 
# 
# From -- ./inp_files/6191.got.cif
#   From: 2010.03.12/outbox.cif.g09.slc.cpg/sg17_4_cif.got.tgz:6191.got - 2010.04.10 18:46:23.
