data_PCOD8155266
_publ_section_title
;
Structure prediction by ZEFSAII (Michael W. Deem and Ramdas Pophale) SiO2 
 PCOD8155266
Probable space group: P 2 2 2
;
_chemical_formula_sum "Si O2"
_cell_formula_units_Z 32
_cell_length_a 8.590898
_cell_length_b 12.247481
_cell_length_c 15.542914
_cell_angle_alpha 90.000000
_cell_angle_beta 90.000000
_cell_angle_gamma 90.000000
_cell_volume 1635.376607
_symmetry_space_group_name_H-M "P 2 2 2"
_symmetry_group_IT_number 16
_symmetry_cell_setting 'orthorhombic'
loop_
_space_group_symop_operation_xyz
x,y,z
-x,-y,z
x,-y,-z
-x,y,-z
loop_
_atom_site_type_symbol
_atom_site_label
_atom_site_fract_x
_atom_site_fract_y
_atom_site_fract_z
Si Si1 0.183190 0.730915 0.846827
Si Si2 0.315995 0.125458 1.000000
Si Si3 0.316185 1.000000 0.593503
Si Si4 0.684490 0.230559 0.661925
Si Si5 0.315510 0.769441 0.338075
Si Si6 0.684712 0.375311 0.500000
Si Si7 0.816810 0.730915 0.846827
Si Si8 0.184925 0.500000 0.095308
O O1 0.258501 0.816181 0.913018
O O2 0.224063 0.750238 0.748758
O O3 0.249968 0.609327 0.861346
O O4 0.000000 0.737463 0.862445
O O5 0.500000 0.128715 0.000000
O O6 0.258501 0.183819 0.913018
O O7 0.256109 0.000000 0.000000
O O8 0.262207 0.891829 0.641406
O O9 0.500000 0.000000 0.583453
O O10 0.237753 0.000000 0.500000
O O11 0.262207 0.108171 0.641406
O O12 0.500000 0.241675 0.675796
O O13 0.741933 0.312385 0.586064
O O14 0.258067 0.687615 0.413936
O O15 0.224063 0.750238 0.251242
O O16 0.749160 0.500000 0.500000
O O17 0.500000 0.375038 0.500000
O O18 0.750032 0.609327 0.861346
O O19 0.000000 0.500000 0.097748
O O20 0.250923 0.500000 0.000000
#
# Coordination Sequence:
#
# PCOD8155266 Si02
#       8
#     4   4   4   4   4   4   4   4
#     4  11  23  40  62  87 118 155 193 235 291 351
#     4  11  25  44  63  86 118 153 192 239 288 343
#     4   9  16  32  57  80 105 146 195 237 282 338
#     4  10  20  35  57  84 114 151 195 242 291 340
#     4  10  20  35  57  84 114 151 195 242 291 340
#     4   9  18  33  54  82 117 153 196 249 294 338
#     4  11  23  40  62  87 118 155 193 235 291 351
#     4   9  18  38  62  81 110 153 193 232 280 342
#
# _framework density 19.567356
#
# number of rings (size 3 to 8) (size 9 to 14) (size 15 to 20)
#    0.000    2.000    2.500    1.125    3.500    1.000 
#    0.000    3.125    0.000    1.500    0.000    0.000 
#    0.000    0.000    0.000    0.000    0.000    0.000 
#
# Total GULP energy -396634.283788 kJ/mol
# GULP energy per Si atom -12394.821368 kJ/mol
# Density = 1.952282 g / cm^3
# Si number density = 19.567356 Si / 1000 Ang^3
#
#
#
# Elastic Constant Matrix: (Units=GPa)
#
#
# Indices 1 2 3 4 5 6 
#
# 1 32.8175 29.0714 18.1812 0.0000 0.0000 0.0000
# 2 29.0714 209.9110 93.4935 0.0000 0.0000 0.0000
# 3 18.1812 93.4935 163.9817 0.0000 0.0000 0.0000
# 4 0.0000 0.0000 0.0000 14.9753 0.0000 0.0000
# 5 0.0000 0.0000 0.0000 0.0000 17.7219 0.0000
# 6 0.0000 0.0000 0.0000 0.0000 0.0000 14.8273
#
#
#
# Elastic Compliance Matrix: (Units=1/GPa)
#
#
# Indices 1 2 3 4 5 6 
#
# 1 0.035005 -0.004181 -0.001497 0.000000 0.000000 0.000000
# 2 -0.004181 0.006885 -0.003462 0.000000 0.000000 0.000000
# 3 -0.001497 -0.003462 0.008238 0.000000 0.000000 0.000000
# 4 0.000000 0.000000 0.000000 0.066776 0.000000 0.000000
# 5 0.000000 0.000000 0.000000 0.000000 0.056427 0.000000
# 6 0.000000 0.000000 0.000000 0.000000 0.000000 0.067443
#
#
# Mechanical properties :
#
#
# Convention : Reuss Voigt Hill
#
# Bulk Modulus (GPa) = 31.39976 76.46693 53.93334
# Shear Modulus (GPa) = 18.54114 27.23585 22.88850
#
# Velocity S-wave (km/s) = 3.08158 3.73487 3.42384
# Velocity P-wave (km/s) = 5.36128 7.60017 6.57670
#
# Compressibility (1/GPa) = 0.03184738
#
# Stress axis : x y z
#
# Youngs Moduli (GPa) = 28.56746 145.24647 121.38893
#
# Poissons Ratio (x) = 0.60729 0.18175
# Poissons Ratio (y) = 0.11944 0.42022
# Poissons Ratio (z) = 0.04277 0.50281
#
# Static dielectric constant tensor:
#      x y z
#    x 3.142550 0.000000 0.000000 
#    y 0.000000 4.221920 0.000000 
#    z 0.000000 0.000000 3.635510 
# 
# 
# High freq. dielectric constant tensor:
#      x y z
#    x 1.723960 0.000000 0.000000 
#    y 0.000000 1.784130 0.000000 
#    z 0.000000 0.000000 1.776610 
# 
# From -- ./inp_files/7986.got.cif
#   From: 2010.03.12/outbox.cif.g09.slc.cpg/sg16_4_cif.got.tgz:7986.got - 2010.03.31 00:51:45.
