data_PCOD8155879
_publ_section_title
;
Structure prediction by ZEFSAII (Michael W. Deem and Ramdas Pophale) SiO2 
 PCOD8155879
Probable space group: P 21 21 2
;
_chemical_formula_sum "Si O2"
_cell_formula_units_Z 30
_cell_length_a 9.133366
_cell_length_b 24.953152
_cell_length_c 6.372774
_cell_angle_alpha 90.000000
_cell_angle_beta 90.000000
_cell_angle_gamma 90.000000
_cell_volume 1452.395152
_symmetry_space_group_name_H-M "P 21 21 2"
_symmetry_group_IT_number 18
_symmetry_cell_setting 'orthorhombic'
loop_
_space_group_symop_operation_xyz
x,y,z
-x,-y,z
1/2+x,1/2-y,-z
1/2-x,1/2+y,-z
loop_
_atom_site_type_symbol
_atom_site_label
_atom_site_fract_x
_atom_site_fract_y
_atom_site_fract_z
Si Si1 0.118621 0.580231 0.143319
Si Si2 0.183598 0.133571 0.551539
Si Si3 0.766560 0.252727 0.282509
Si Si4 0.549235 0.738599 0.100812
Si Si5 0.896544 0.348533 0.770708
Si Si6 0.643110 0.658128 0.421288
Si Si7 0.000000 0.500000 0.826966
Si Si8 0.899205 0.586444 0.511972
O O1 0.273419 0.589481 0.268291
O O2 0.992422 0.569021 0.311260
O O3 0.083356 0.634023 0.012601
O O4 0.116271 0.531759 0.974555
O O5 0.263880 0.189618 0.608146
O O6 0.259927 0.118585 0.330155
O O7 0.014252 0.138514 0.496279
O O8 0.623878 0.251137 0.131865
O O9 0.776770 0.204498 0.447733
O O10 0.912378 0.244062 0.143265
O O11 0.630660 0.785080 0.232435
O O12 0.607593 0.681523 0.188766
O O13 0.038301 0.361635 0.630737
O O14 0.740375 0.604169 0.424142
O O15 0.898863 0.537876 0.680260
#
# Coordination Sequence:
#
# PCOD8155879 Si02
#       8
#     4   4   4   4   4   4   2   4
#     4  10  21  39  66  90 117 152 209 264 306 375
#     4  10  22  36  57  87 128 169 202 249 307 370
#     4  11  23  35  52  85 129 176 215 246 290 368
#     4  11  23  33  55  83 125 180 216 243 297 361
#     4  10  19  36  58  83 121 166 210 248 299 358
#     4  11  24  37  57  90 137 165 207 252 307 375
#     4  10  22  42  72  92 112 152 216 276 328 360
#     4  10  22  40  65  93 117 160 211 267 318 368
#
# _framework density 20.655536000000001
#
# number of rings (size 3 to 8) (size 9 to 14) (size 15 to 20)
#    0.000    1.600    4.000    0.400    3.733    0.000 
#    0.000    0.000    0.000   19.200    0.000    0.000 
#    0.000    0.000    0.000    0.000    0.000    0.000 
#
# Total GULP energy -371663.574263 kJ/mol
# GULP energy per Si atom -12388.785809 kJ/mol
# Density = 2.060852 g / cm^3
# Si number density = 20.655536 Si / 1000 Ang^3
#
#
#
# Elastic Constant Matrix: (Units=GPa)
#
#
# Indices 1 2 3 4 5 6 
#
# 1 89.8865 27.9090 22.7185 0.0000 0.0000 0.0000
# 2 27.9090 86.1738 22.7677 0.0000 0.0000 0.0000
# 3 22.7185 22.7677 76.1271 0.0000 0.0000 0.0000
# 4 0.0000 0.0000 0.0000 26.1237 0.0000 0.0000
# 5 0.0000 0.0000 0.0000 0.0000 24.7702 0.0000
# 6 0.0000 0.0000 0.0000 0.0000 0.0000 20.9975
#
#
#
# Elastic Compliance Matrix: (Units=1/GPa)
#
#
# Indices 1 2 3 4 5 6 
#
# 1 0.012905 -0.003433 -0.002824 0.000000 0.000000 0.000000
# 2 -0.003433 0.013513 -0.003017 0.000000 0.000000 0.000000
# 3 -0.002824 -0.003017 0.014881 0.000000 0.000000 0.000000
# 4 0.000000 0.000000 0.000000 0.038279 0.000000 0.000000
# 5 0.000000 0.000000 0.000000 0.000000 0.040371 0.000000
# 6 0.000000 0.000000 0.000000 0.000000 0.000000 0.047625
#
#
# Mechanical properties :
#
#
# Convention : Reuss Voigt Hill
#
# Bulk Modulus (GPa) = 43.95548 44.33086 44.14317
# Shear Modulus (GPa) = 25.81209 26.29775 26.05492
#
# Velocity S-wave (km/s) = 3.53887 3.57200 3.55547
# Velocity P-wave (km/s) = 6.16640 6.20652 6.18649
#
# Compressibility (1/GPa) = 0.02275029
#
# Stress axis : x y z
#
# Youngs Moduli (GPa) = 77.48929 74.00014 67.19927
#
# Poissons Ratio (x) = 0.25406 0.18980
# Poissons Ratio (y) = 0.26604 0.20274
# Poissons Ratio (z) = 0.21886 0.22326
#
# Static dielectric constant tensor:
#      x y z
#    x 3.555810 0.000000 0.000000 
#    y 0.000000 3.634850 0.000000 
#    z 0.000000 0.000000 3.851290 
# 
# 
# High freq. dielectric constant tensor:
#      x y z
#    x 1.783610 0.000000 0.000000 
#    y 0.000000 1.789750 0.000000 
#    z 0.000000 0.000000 1.820470 
# 
# From -- ./inp_files/761.got.cif
#   From: 2010.03.12/outbox.cif.g09.slc.cpg/sg18_1_cif.got.tgz:761.got - 2010.04.10 18:53:55.
