data_PCOD8155962
_publ_section_title
;
Structure prediction by ZEFSAII (Michael W. Deem and Ramdas Pophale) SiO2 
 PCOD8155962
Probable space group: P 21 21 2
;
_chemical_formula_sum "Si O2"
_cell_formula_units_Z 20
_cell_length_a 8.192835
_cell_length_b 9.362434
_cell_length_c 12.050753
_cell_angle_alpha 90.000000
_cell_angle_beta 90.000000
_cell_angle_gamma 90.000000
_cell_volume 924.351526
_symmetry_space_group_name_H-M "P 21 21 2"
_symmetry_group_IT_number 18
_symmetry_cell_setting 'orthorhombic'
loop_
_space_group_symop_operation_xyz
x,y,z
-x,-y,z
1/2+x,1/2-y,-z
1/2-x,1/2+y,-z
loop_
_atom_site_type_symbol
_atom_site_label
_atom_site_fract_x
_atom_site_fract_y
_atom_site_fract_z
Si Si1 0.259366 0.402948 0.409364
Si Si2 0.120878 0.215785 0.598375
Si Si3 0.693117 0.265319 0.161162
Si Si4 0.828206 0.561118 0.173889
Si Si5 0.920319 0.154268 0.988290
O O1 0.152712 0.336143 0.507009
O O2 0.433363 0.327840 0.403832
O O3 0.270827 0.574291 0.425671
O O4 0.161887 0.366627 0.295125
O O5 0.162096 0.296005 0.715611
O O6 0.695888 0.434551 0.182846
O O7 0.543652 0.238277 0.075295
O O8 0.866463 0.211598 0.110173
O O9 0.749453 0.663032 0.081301
O O10 0.000000 0.500000 0.132479
O O11 0.000000 0.000000 0.007857
#
# Coordination Sequence:
#
# PCOD8155962 Si02
#       5
#     4   4   4   4   4
#     4  10  22  40  64  89 123 161 206 258 309 371
#     4  10  22  41  61  92 124 161 206 258 310 370
#     4  10  20  38  60  85 125 159 201 257 308 368
#     4  10  20  36  62  88 116 163 208 245 313 372
#     4  10  20  38  62  89 124 160 207 258 308 371
#
# _framework density 21.636792
#
# number of rings (size 3 to 8) (size 9 to 14) (size 15 to 20)
#    0.000    2.000    2.000    1.200    5.600    0.000 
#    3.600    2.000    8.800    0.000    0.000    0.000 
#    0.000    0.000    0.000    0.000    0.000    0.000 
#
# Total GULP energy -247876.504101 kJ/mol
# GULP energy per Si atom -12393.825205 kJ/mol
# Density = 2.158755 g / cm^3
# Si number density = 21.636792 Si / 1000 Ang^3
#
#
#
# Elastic Constant Matrix: (Units=GPa)
#
#
# Indices 1 2 3 4 5 6 
#
# 1 80.5023 17.8825 42.4787 0.0000 0.0000 0.0000
# 2 17.8825 48.6145 45.0217 0.0000 0.0000 0.0000
# 3 42.4787 45.0217 151.4511 0.0000 0.0000 0.0000
# 4 0.0000 0.0000 0.0000 34.1601 0.0000 0.0000
# 5 0.0000 0.0000 0.0000 0.0000 36.7720 0.0000
# 6 0.0000 0.0000 0.0000 0.0000 0.0000 32.1562
#
#
#
# Elastic Compliance Matrix: (Units=1/GPa)
#
#
# Indices 1 2 3 4 5 6 
#
# 1 0.014748 -0.002200 -0.003483 0.000000 0.000000 0.000000
# 2 -0.002200 0.028712 -0.007918 0.000000 0.000000 0.000000
# 3 -0.003483 -0.007918 0.009933 0.000000 0.000000 0.000000
# 4 0.000000 0.000000 0.000000 0.029274 0.000000 0.000000
# 5 0.000000 0.000000 0.000000 0.000000 0.027195 0.000000
# 6 0.000000 0.000000 0.000000 0.000000 0.000000 0.031098
#
#
# Mechanical properties :
#
#
# Convention : Reuss Voigt Hill
#
# Bulk Modulus (GPa) = 38.17869 54.59261 46.38565
# Shear Modulus (GPa) = 28.26566 32.29665 30.28115
#
# Velocity S-wave (km/s) = 3.61830 3.86770 3.74508
# Velocity P-wave (km/s) = 5.92787 6.72545 6.33922
#
# Compressibility (1/GPa) = 0.02619262
#
# Stress axis : x y z
#
# Youngs Moduli (GPa) = 67.80417 34.82837 100.66998
#
# Poissons Ratio (x) = 0.07662 0.35060
# Poissons Ratio (y) = 0.14916 0.79713
# Poissons Ratio (z) = 0.23614 0.27578
#
# Static dielectric constant tensor:
#      x y z
#    x 3.785840 0.000000 0.000000 
#    y 0.000000 3.632580 0.000000 
#    z 0.000000 0.000000 4.073310 
# 
# 
# High freq. dielectric constant tensor:
#      x y z
#    x 1.859710 0.000000 0.000000 
#    y 0.000000 1.808600 0.000000 
#    z 0.000000 0.000000 1.861020 
# 
# From -- ./inp_files/2937.got.cif
#   From: 2010.03.12/outbox.cif.g09.slc.cpg/sg18_2_cif.got.tgz:2937.got - 2010.04.10 18:53:55.
