data_PCOD8155854
_publ_section_title
;
Structure prediction by ZEFSAII (Michael W. Deem and Ramdas Pophale) SiO2 
 PCOD8155854
Probable space group: P 21 21 2
;
_chemical_formula_sum "Si O2"
_cell_formula_units_Z 32
_cell_length_a 15.624530
_cell_length_b 9.507835
_cell_length_c 11.621651
_cell_angle_alpha 90.000000
_cell_angle_beta 90.000000
_cell_angle_gamma 90.000000
_cell_volume 1726.459631
_symmetry_space_group_name_H-M "P 21 21 2"
_symmetry_group_IT_number 18
_symmetry_cell_setting 'orthorhombic'
loop_
_space_group_symop_operation_xyz
x,y,z
-x,-y,z
1/2+x,1/2-y,-z
1/2-x,1/2+y,-z
loop_
_atom_site_type_symbol
_atom_site_label
_atom_site_fract_x
_atom_site_fract_y
_atom_site_fract_z
Si Si1 0.922775 0.911920 0.492369
Si Si2 0.233019 0.635078 0.747325
Si Si3 0.070843 0.116303 0.234395
Si Si4 0.335396 0.727314 0.312224
Si Si5 0.732513 0.049302 0.711644
Si Si6 0.251179 0.951482 0.454910
Si Si7 0.918144 0.593129 0.124050
Si Si8 0.597200 0.050926 0.136313
O O1 0.943375 0.843383 0.368432
O O2 0.903832 0.792112 0.585459
O O3 0.847821 0.026456 0.481871
O O4 0.000000 0.000000 0.543383
O O5 0.328244 0.575661 0.781877
O O6 0.211906 0.584990 0.616666
O O7 0.162283 0.574919 0.833893
O O8 0.225515 0.803354 0.751269
O O9 0.053206 0.250254 0.156193
O O10 0.000000 0.000000 0.197275
O O11 0.298570 0.578779 0.267147
O O12 0.259357 0.815411 0.372708
O O13 0.382313 0.810720 0.211096
O O14 0.701452 0.060509 0.578355
O O15 0.650733 0.024438 0.790921
O O16 0.000000 0.500000 0.135300
O O17 0.883594 0.593523 0.994240
O O18 0.500000 0.000000 0.157021
#
# Coordination Sequence:
#
# PCOD8155854 Si02
#       8
#     4   4   4   4   4   4   4   4
#     4   9  18  32  54  83 113 135 164 214 267 320
#     4   9  19  36  56  77 112 148 173 215 275 324
#     4   9  18  36  59  83 109 140 174 213 269 331
#     4  10  20  35  56  80 105 142 185 217 261 328
#     4  10  19  33  56  83 107 135 179 225 265 322
#     4   9  17  33  53  79 113 141 167 210 270 328
#     4  10  22  38  54  77 108 138 180 233 270 309
#     4  10  23  41  53  70 107 149 185 227 276 316
#
# _framework density 18.535041
#
# number of rings (size 3 to 8) (size 9 to 14) (size 15 to 20)
#    0.000    2.500    0.000    3.000    0.000    8.000 
#    0.000   11.250    0.000    0.000    0.000    0.000 
#    0.000    0.000    0.000    0.000    0.000    0.000 
#
# Total GULP energy -396616.333176 kJ/mol
# GULP energy per Si atom -12394.260412 kJ/mol
# Density = 1.849285 g / cm^3
# Si number density = 18.535041 Si / 1000 Ang^3
#
#
#
# Elastic Constant Matrix: (Units=GPa)
#
#
# Indices 1 2 3 4 5 6 
#
# 1 77.5272 46.8305 64.5757 0.0000 0.0000 0.0000
# 2 46.8305 110.5958 64.1492 0.0000 0.0000 0.0000
# 3 64.5757 64.1492 130.0094 0.0000 0.0000 0.0000
# 4 0.0000 0.0000 0.0000 54.3799 0.0000 0.0000
# 5 0.0000 0.0000 0.0000 0.0000 20.9841 0.0000
# 6 0.0000 0.0000 0.0000 0.0000 0.0000 24.7019
#
#
#
# Elastic Compliance Matrix: (Units=1/GPa)
#
#
# Indices 1 2 3 4 5 6 
#
# 1 0.023466 -0.004449 -0.009460 0.000000 0.000000 0.000000
# 2 -0.004449 0.013511 -0.004457 0.000000 0.000000 0.000000
# 3 -0.009460 -0.004457 0.014590 0.000000 0.000000 0.000000
# 4 0.000000 0.000000 0.000000 0.018389 0.000000 0.000000
# 5 0.000000 0.000000 0.000000 0.000000 0.047655 0.000000
# 6 0.000000 0.000000 0.000000 0.000000 0.000000 0.040483
#
#
# Mechanical properties :
#
#
# Convention : Reuss Voigt Hill
#
# Bulk Modulus (GPa) = 67.41067 74.36037 70.88552
# Shear Modulus (GPa) = 25.02871 29.51833 27.27352
#
# Velocity S-wave (km/s) = 3.67869 3.99503 3.84012
# Velocity P-wave (km/s) = 7.38187 7.84132 7.61506
#
# Compressibility (1/GPa) = 0.01483445
#
# Stress axis : x y z
#
# Youngs Moduli (GPa) = 42.61463 74.01439 68.54155
#
# Poissons Ratio (x) = 0.32930 0.64843
# Poissons Ratio (y) = 0.18960 0.30547
# Poissons Ratio (z) = 0.40315 0.32986
#
# Static dielectric constant tensor:
#      x y z
#    x 3.347130 0.000000 0.000000 
#    y 0.000000 3.683720 0.000000 
#    z 0.000000 0.000000 3.629850 
# 
# 
# High freq. dielectric constant tensor:
#      x y z
#    x 1.709200 0.000000 0.000000 
#    y 0.000000 1.718910 0.000000 
#    z 0.000000 0.000000 1.718650 
# 
# From -- ./inp_files/6154.got.cif
#   From: 2010.03.12/outbox.cif.g09.slc.cpg/sg18_4_cif.got.tgz:6154.got - 2010.04.10 18:53:55.
