data_PCOD8155914
_publ_section_title
;
Structure prediction by ZEFSAII (Michael W. Deem and Ramdas Pophale) SiO2 
 PCOD8155914
Probable space group: P 21 21 2
;
_chemical_formula_sum "Si O2"
_cell_formula_units_Z 24
_cell_length_a 15.006547
_cell_length_b 14.035898
_cell_length_c 5.331168
_cell_angle_alpha 90.000000
_cell_angle_beta 90.000000
_cell_angle_gamma 90.000000
_cell_volume 1122.905851
_symmetry_space_group_name_H-M "P 21 21 2"
_symmetry_group_IT_number 18
_symmetry_cell_setting 'orthorhombic'
loop_
_space_group_symop_operation_xyz
x,y,z
-x,-y,z
1/2+x,1/2-y,-z
1/2-x,1/2+y,-z
loop_
_atom_site_type_symbol
_atom_site_label
_atom_site_fract_x
_atom_site_fract_y
_atom_site_fract_z
Si Si1 0.110544 0.285546 0.500003
Si Si2 0.163802 0.321923 0.000003
Si Si3 0.712676 0.837931 0.500004
Si Si4 0.431363 0.318032 0.500006
Si Si5 0.781441 0.892975 0.000004
Si Si6 0.640507 0.590961 0.000006
O O1 0.107856 0.351467 0.249014
O O2 0.208383 0.238773 0.500006
O O3 0.035857 0.204566 0.500003
O O4 0.107855 0.351466 0.750993
O O5 0.166458 0.206512 0.000005
O O6 0.261356 0.365198 0.000002
O O7 0.619553 0.782534 0.500001
O O8 0.719377 0.902339 0.248764
O O9 0.719376 0.902338 0.751246
O O10 0.410530 0.377530 0.250207
O O11 0.410534 0.377524 0.749816
O O12 0.854190 0.976795 0.000002
#
# Coordination Sequence:
#
# PCOD8155914 Si02
#       6
#     4   4   4   4   4   4
#     4  10  20  35  61  82 115 156 183 237 285 337
#     4  10  19  40  54  82 120 151 186 236 292 332
#     4  10  19  40  54  82 120 151 186 236 292 332
#     4  12  21  37  62  89 111 155 197 229 283 348
#     4  10  20  35  61  82 115 156 183 237 285 337
#     4  12  21  37  62  89 111 155 197 229 283 348
#
# _framework density 21.37312
#
# number of rings (size 3 to 8) (size 9 to 14) (size 15 to 20)
#    0.000    1.333    6.667    2.000    0.000    0.000 
#    0.000   20.000    0.000    6.000    0.000    0.000 
#    0.000    0.000    0.000    0.000    0.000    0.000 
#
# Total GULP energy -297473.560331 kJ/mol
# GULP energy per Si atom -12394.731680 kJ/mol
# Density = 2.132447 g / cm^3
# Si number density = 21.373120 Si / 1000 Ang^3
#
#
#
# Elastic Constant Matrix: (Units=GPa)
#
#
# Indices 1 2 3 4 5 6 
#
# 1 35.7931 6.0435 8.0751 0.0000 0.0000 0.0000
# 2 6.0435 9.6455 2.5085 0.0000 0.0000 0.0000
# 3 8.0751 2.5085 228.1446 0.0000 0.0000 0.0000
# 4 0.0000 0.0000 0.0000 15.2813 0.0000 0.0000
# 5 0.0000 0.0000 0.0000 0.0000 19.0548 0.0000
# 6 0.0000 0.0000 0.0000 0.0000 0.0000 4.5553
#
#
#
# Elastic Compliance Matrix: (Units=1/GPa)
#
#
# Indices 1 2 3 4 5 6 
#
# 1 0.031426 -0.019457 -0.000898 0.000000 0.000000 0.000000
# 2 -0.019457 0.116019 -0.000587 0.000000 0.000000 0.000000
# 3 -0.000898 -0.000587 0.004421 0.000000 0.000000 0.000000
# 4 0.000000 0.000000 0.000000 0.065439 0.000000 0.000000
# 5 0.000000 0.000000 0.000000 0.000000 0.052480 0.000000
# 6 0.000000 0.000000 0.000000 0.000000 0.000000 0.219523
#
#
# Mechanical properties :
#
#
# Convention : Reuss Voigt Hill
#
# Bulk Modulus (GPa) = 9.09235 34.09302 21.59269
# Shear Modulus (GPa) = 8.80508 24.90871 16.85689
#
# Velocity S-wave (km/s) = 2.03191 3.41753 2.81142
# Velocity P-wave (km/s) = 3.12541 5.61771 4.54571
#
# Compressibility (1/GPa) = 0.10998252
#
# Stress axis : x y z
#
# Youngs Moduli (GPa) = 31.82063 8.61927 226.17083
#
# Poissons Ratio (x) = 0.16770 0.20319
# Poissons Ratio (y) = 0.61912 0.13276
# Poissons Ratio (z) = 0.02859 0.00506
#
# Static dielectric constant tensor:
#      x y z
#    x 3.504760 0.000000 0.000000 
#    y 0.000000 3.473240 0.000000 
#    z 0.000000 0.000000 6.433400 
# 
# 
# High freq. dielectric constant tensor:
#      x y z
#    x 1.808280 0.000000 0.000000 
#    y 0.000000 1.791170 0.000000 
#    z 0.000000 0.000000 1.888550 
# 
# From -- ./inp_files/1495.got.cif
#   From: 2010.03.12/outbox.cif.g09.slc.cpg/sg18_1_cif.got.tgz:1495.got - 2010.04.10 18:53:55.
