data_PCOD8155629
_publ_section_title
;
Structure prediction by ZEFSAII (Michael W. Deem and Ramdas Pophale) SiO2 
 PCOD8155629
Probable space group: P 2 2 21
;
_chemical_formula_sum "Si O2"
_cell_formula_units_Z 20
_cell_length_a 5.405321
_cell_length_b 18.844888
_cell_length_c 9.035683
_cell_angle_alpha 90.000000
_cell_angle_beta 90.000000
_cell_angle_gamma 90.000000
_cell_volume 920.398785
_symmetry_space_group_name_H-M "P 2 2 21"
_symmetry_group_IT_number 17
_symmetry_cell_setting 'orthorhombic'
loop_
_space_group_symop_operation_xyz
x,y,z
-x,-y,1/2+z
x,-y,-z
-x,y,1/2-z
loop_
_atom_site_type_symbol
_atom_site_label
_atom_site_fract_x
_atom_site_fract_y
_atom_site_fract_z
Si Si1 0.500000 0.847422 0.250000
Si Si2 0.181754 0.798102 0.504676
Si Si3 0.006273 0.345528 0.924757
Si Si4 0.500000 0.847022 0.750000
Si Si5 0.494927 0.424241 0.574685
Si Si6 0.804468 0.082076 0.504314
O O1 0.360926 0.793947 0.361873
O O2 0.678883 0.899212 0.340116
O O3 0.988361 0.733534 0.494465
O O4 0.323189 0.793386 0.660573
O O5 0.057688 0.875025 0.504127
O O6 0.755554 0.384833 0.979027
O O7 0.000000 0.340062 0.750000
O O8 0.257606 0.383219 0.979635
O O9 0.364142 0.898418 0.864915
O O10 0.498217 0.500000 0.500000
O O11 0.500000 0.433906 0.750000
O O12 0.873901 0.000000 0.500000
#
# Coordination Sequence:
#
# PCOD8155629 Si02
#       6
#     2   4   4   2   4   4
#     4  10  23  38  64  90 119 162 230 266 329 396
#     4  11  24  41  64  92 126 169 221 273 330 393
#     4  10  22  39  70  96 132 174 222 270 323 392
#     4  10  25  42  60  88 133 164 218 272 343 390
#     4  10  22  42  67  99 133 172 215 266 326 394
#     4  11  23  41  62  89 126 168 217 273 334 395
#
# _framework density 21.729711999999999
#
# number of rings (size 3 to 8) (size 9 to 14) (size 15 to 20)
#    0.000    1.600    0.000    3.600    9.800    6.400 
#    1.800    0.000    0.000    0.000    0.000    0.000 
#    0.000    0.000    0.000    0.000    0.000    0.000 
#
# Total GULP energy -248052.130796 kJ/mol
# GULP energy per Si atom -12402.606540 kJ/mol
# Density = 2.168025 g / cm^3
# Si number density = 21.729712 Si / 1000 Ang^3
#
#
#
# Elastic Constant Matrix: (Units=GPa)
#
#
# Indices 1 2 3 4 5 6 
#
# 1 144.7731 59.9994 33.0636 0.0000 0.0000 0.0000
# 2 59.9994 149.6669 28.1301 0.0000 0.0000 0.0000
# 3 33.0636 28.1301 87.2041 0.0000 0.0000 0.0000
# 4 0.0000 0.0000 0.0000 16.7610 0.0000 0.0000
# 5 0.0000 0.0000 0.0000 0.0000 6.2997 0.0000
# 6 0.0000 0.0000 0.0000 0.0000 0.0000 45.7333
#
#
#
# Elastic Compliance Matrix: (Units=1/GPa)
#
#
# Indices 1 2 3 4 5 6 
#
# 1 0.008701 -0.003053 -0.002314 0.000000 0.000000 0.000000
# 2 -0.003053 0.008184 -0.001482 0.000000 0.000000 0.000000
# 3 -0.002314 -0.001482 0.012823 0.000000 0.000000 0.000000
# 4 0.000000 0.000000 0.000000 0.059662 0.000000 0.000000
# 5 0.000000 0.000000 0.000000 0.000000 0.158738 0.000000
# 6 0.000000 0.000000 0.000000 0.000000 0.000000 0.021866
#
#
# Mechanical properties :
#
#
# Convention : Reuss Voigt Hill
#
# Bulk Modulus (GPa) = 62.46600 69.33673 65.90136
# Shear Modulus (GPa) = 17.30042 31.12220 24.21131
#
# Velocity S-wave (km/s) = 2.82470 3.78860 3.34159
# Velocity P-wave (km/s) = 6.28075 7.14955 6.72918
#
# Compressibility (1/GPa) = 0.01600871
#
# Stress axis : x y z
#
# Youngs Moduli (GPa) = 114.92578 122.18776 77.98514
#
# Poissons Ratio (x) = 0.37307 0.18047
# Poissons Ratio (y) = 0.35090 0.11560
# Poissons Ratio (z) = 0.26596 0.18113
#
# Static dielectric constant tensor:
#      x y z
#    x 4.299510 0.000000 0.000000 
#    y 0.000000 3.716100 0.000000 
#    z 0.000000 0.000000 3.931470 
# 
# 
# High freq. dielectric constant tensor:
#      x y z
#    x 1.867800 0.000000 0.000000 
#    y 0.000000 1.846930 0.000000 
#    z 0.000000 0.000000 1.852730 
# 
# From -- ./inp_files/3490.got.cif
#   From: 2010.03.12/outbox.cif.g09.slc.cpg/sg17_2_cif.got.tgz:3490.got - 2010.04.10 18:46:23.
