data_PCOD8155732
_publ_section_title
;
Structure prediction by ZEFSAII (Michael W. Deem and Ramdas Pophale) SiO2 
 PCOD8155732
Probable space group: P 2 2 21
;
_chemical_formula_sum "Si O2"
_cell_formula_units_Z 16
_cell_length_a 12.404885
_cell_length_b 11.595986
_cell_length_c 4.944434
_cell_angle_alpha 90.000000
_cell_angle_beta 90.000000
_cell_angle_gamma 90.000000
_cell_volume 711.241369
_symmetry_space_group_name_H-M "P 2 2 21"
_symmetry_group_IT_number 17
_symmetry_cell_setting 'orthorhombic'
loop_
_space_group_symop_operation_xyz
x,y,z
-x,-y,1/2+z
x,-y,-z
-x,y,1/2-z
loop_
_atom_site_type_symbol
_atom_site_label
_atom_site_fract_x
_atom_site_fract_y
_atom_site_fract_z
Si Si1 0.500000 0.430461 0.250000
Si Si2 0.674359 0.253035 0.089943
Si Si3 0.500000 0.072985 0.250000
Si Si4 0.000000 0.418216 0.750000
Si Si5 0.070186 0.000000 0.000000
Si Si6 0.182963 0.237782 0.912235
O O1 0.550618 0.500000 0.500000
O O2 0.598619 0.362458 0.120025
O O3 0.603937 0.141986 0.154184
O O4 0.778335 0.261218 0.282928
O O5 0.713765 0.246426 0.782318
O O6 0.543614 0.000000 0.500000
O O7 0.901907 0.335765 0.666732
O O8 0.033762 0.500000 0.500000
O O9 0.137919 0.108094 0.889545
O O10 0.000000 0.952875 0.750000
#
# Coordination Sequence:
#
# PCOD8155732 Si02
#       6
#     2   4   2   2   2   4
#     4  11  24  45  72  98 138 185 234 293 342 404
#     4  11  26  43  68 104 135 177 236 280 341 416
#     4  11  24  43  64  98 142 179 218 279 342 410
#     4  12  28  48  70 100 142 184 232 294 350 416
#     4  12  26  46  74 100 146 190 230 296 348 422
#     4  12  26  46  71 104 139 184 234 286 354 422
#
# _framework density 22.495881000000001
#
# number of rings (size 3 to 8) (size 9 to 14) (size 15 to 20)
#    0.000    0.500    1.250    6.000    7.000   10.000 
#    0.000    0.000    0.000    0.000    0.000    0.000 
#    0.000    0.000    0.000    0.000    0.000    0.000 
#
# Total GULP energy -198493.578625 kJ/mol
# GULP energy per Si atom -12405.848664 kJ/mol
# Density = 2.244468 g / cm^3
# Si number density = 22.495881 Si / 1000 Ang^3
#
#
#
# Elastic Constant Matrix: (Units=GPa)
#
#
# Indices 1 2 3 4 5 6 
#
# 1 85.6714 38.2172 5.7376 0.0000 0.0000 0.0000
# 2 38.2172 138.4704 29.9610 0.0000 0.0000 0.0000
# 3 5.7376 29.9610 101.7789 0.0000 0.0000 0.0000
# 4 0.0000 0.0000 0.0000 33.5159 0.0000 0.0000
# 5 0.0000 0.0000 0.0000 0.0000 55.0739 0.0000
# 6 0.0000 0.0000 0.0000 0.0000 0.0000 -7.8361
#
#
#
# Elastic Compliance Matrix: (Units=1/GPa)
#
#
# Indices 1 2 3 4 5 6 
#
# 1 0.013323 -0.003754 0.000354 0.000000 0.000000 0.000000
# 2 -0.003754 0.008771 -0.002370 0.000000 0.000000 0.000000
# 3 0.000354 -0.002370 0.010503 0.000000 0.000000 0.000000
# 4 0.000000 0.000000 0.000000 0.029837 0.000000 0.000000
# 5 0.000000 0.000000 0.000000 0.000000 0.018157 0.000000
# 6 0.000000 0.000000 0.000000 0.000000 0.000000 -0.127614
#
#
# Mechanical properties :
#
#
# Convention : Reuss Voigt Hill
#
# Bulk Modulus (GPa) = 47.49050 52.63914 50.06482
# Shear Modulus (GPa) = -175.65742 32.95108 -71.35317
#
# Velocity S-wave (km/s) = -8.84612 3.83137 -5.63801
# Velocity P-wave (km/s) = 9.12040 6.55918 4.48101
#
# Compressibility (1/GPa) = 0.02105684
#
# Stress axis : x y z
#
# Youngs Moduli (GPa) = 75.05636 114.01694 95.21090
#
# Poissons Ratio (x) = 0.42799 -0.03370
# Poissons Ratio (y) = 0.28174 0.22567
# Poissons Ratio (z) = -0.02656 0.27025
#
# Static dielectric constant tensor:
#      x y z
#    x 3.922540 0.000000 0.000000 
#    y 0.000000 4.200190 0.000000 
#    z 0.000000 0.000000 4.334670 
# 
# 
# High freq. dielectric constant tensor:
#      x y z
#    x 1.889420 0.000000 0.000000 
#    y 0.000000 1.899660 0.000000 
#    z 0.000000 0.000000 1.908580 
# 
# From -- ./inp_files/1251.got.cif
#   From: 2010.03.12/outbox.cif.g09.slc.cpg/sg17_1_cif.got.tgz:1251.got - 2010.04.10 18:46:23.
