data_PCOD8155394
_publ_section_title
;
Structure prediction by ZEFSAII (Michael W. Deem and Ramdas Pophale) SiO2 
 PCOD8155394
Probable space group: P 2 2 21
;
_chemical_formula_sum "Si O2"
_cell_formula_units_Z 30
_cell_length_a 12.066447
_cell_length_b 8.928133
_cell_length_c 14.917146
_cell_angle_alpha 90.000000
_cell_angle_beta 90.000000
_cell_angle_gamma 90.000000
_cell_volume 1607.036723
_symmetry_space_group_name_H-M "P 2 2 21"
_symmetry_group_IT_number 17
_symmetry_cell_setting 'orthorhombic'
loop_
_space_group_symop_operation_xyz
x,y,z
-x,-y,1/2+z
x,-y,-z
-x,y,1/2-z
loop_
_atom_site_type_symbol
_atom_site_label
_atom_site_fract_x
_atom_site_fract_y
_atom_site_fract_z
Si Si1 0.282935 0.665131 0.817439
Si Si2 0.055873 0.599284 0.412031
Si Si3 0.807009 0.396099 0.586840
Si Si4 0.186466 0.823841 0.515422
Si Si5 0.570668 0.148472 0.057921
Si Si6 0.100335 0.311734 0.313287
Si Si7 0.665383 0.822586 0.508902
Si Si8 0.500000 0.219779 0.250000
O O1 0.241741 0.495802 0.832902
O O2 0.211338 0.734202 0.737782
O O3 0.266620 0.772381 0.903340
O O4 0.409045 0.665409 0.786051
O O5 0.052474 0.500000 0.500000
O O6 0.142394 0.736736 0.426451
O O7 0.095139 0.490819 0.331881
O O8 0.931586 0.659698 0.391375
O O9 0.804460 0.500000 0.500000
O O10 0.725562 0.253536 0.575932
O O11 0.311607 0.767124 0.541677
O O12 0.100597 0.783263 0.594939
O O13 0.182196 0.000000 0.500000
O O14 0.462907 0.234731 0.017358
O O15 0.546351 0.120293 0.165355
O O16 0.582302 0.000000 0.000000
O O17 0.000000 0.261312 0.250000
O O18 0.669691 0.000000 0.500000
#
# Coordination Sequence:
#
# PCOD8155394 Si02
#       8
#     4   4   4   4   4   4   4   2
#     4  10  19  34  56  80 108 144 189 236 282 334
#     4   9  19  34  54  75 105 145 183 220 276 344
#     4   9  17  33  52  76 106 141 180 226 273 338
#     4  10  21  38  58  84 111 145 193 236 282 338
#     4   9  18  35  58  82 116 154 188 233 294 353
#     4  11  20  37  58  78 108 153 187 224 286 345
#     4   9  19  34  55  81 109 146 183 223 289 345
#     4  10  18  34  58  86 112 148 200 244 284 348
#
# _framework density 18.667899999999999
#
# number of rings (size 3 to 8) (size 9 to 14) (size 15 to 20)
#    0.000    2.400    2.667    0.000    1.867    0.533 
#    2.400    4.000    2.933    0.800    0.000    0.000 
#    0.000    0.000    0.000    0.000    0.000    0.000 
#
# Total GULP energy -371673.005455 kJ/mol
# GULP energy per Si atom -12389.100182 kJ/mol
# Density = 1.862541 g / cm^3
# Si number density = 18.667900 Si / 1000 Ang^3
#
#
#
# Elastic Constant Matrix: (Units=GPa)
#
#
# Indices 1 2 3 4 5 6 
#
# 1 122.8926 48.7077 41.8072 0.0000 0.0000 0.0000
# 2 48.7077 77.0887 23.3766 0.0000 0.0000 0.0000
# 3 41.8072 23.3766 67.1492 0.0000 0.0000 0.0000
# 4 0.0000 0.0000 0.0000 26.7365 0.0000 0.0000
# 5 0.0000 0.0000 0.0000 0.0000 30.8931 0.0000
# 6 0.0000 0.0000 0.0000 0.0000 0.0000 27.0130
#
#
#
# Elastic Compliance Matrix: (Units=1/GPa)
#
#
# Indices 1 2 3 4 5 6 
#
# 1 0.012508 -0.006196 -0.005631 0.000000 0.000000 0.000000
# 2 -0.006196 0.017572 -0.002260 0.000000 0.000000 0.000000
# 3 -0.005631 -0.002260 0.019185 0.000000 0.000000 0.000000
# 4 0.000000 0.000000 0.000000 0.037402 0.000000 0.000000
# 5 0.000000 0.000000 0.000000 0.000000 0.032370 0.000000
# 6 0.000000 0.000000 0.000000 0.000000 0.000000 0.037019
#
#
# Mechanical properties :
#
#
# Convention : Reuss Voigt Hill
#
# Bulk Modulus (GPa) = 47.41073 54.99039 51.20056
# Shear Modulus (GPa) = 26.14245 27.14447 26.64346
#
# Velocity S-wave (km/s) = 3.74625 3.81737 3.78197
# Velocity P-wave (km/s) = 6.64564 6.99649 6.82332
#
# Compressibility (1/GPa) = 0.02109227
#
# Stress axis : x y z
#
# Youngs Moduli (GPa) = 79.94604 56.90831 52.12492
#
# Poissons Ratio (x) = 0.35259 0.29351
# Poissons Ratio (y) = 0.49533 0.11779
# Poissons Ratio (z) = 0.45016 0.12860
#
# Static dielectric constant tensor:
#      x y z
#    x 3.967220 0.000000 0.000000 
#    y 0.000000 3.175860 0.000000 
#    z 0.000000 0.000000 3.569870 
# 
# 
# High freq. dielectric constant tensor:
#      x y z
#    x 1.742500 0.000000 0.000000 
#    y 0.000000 1.682480 0.000000 
#    z 0.000000 0.000000 1.720750 
# 
# From -- ./inp_files/8511.got.cif
#   From: 2010.03.12/outbox.cif.g09.slc.cpg/sg17_5_cif.got.tgz:8511.got - 2010.04.10 18:46:23.
