data_PCOD8155609
_publ_section_title
;
Structure prediction by ZEFSAII (Michael W. Deem and Ramdas Pophale) SiO2 
 PCOD8155609
Probable space group: P 2 2 21
;
_chemical_formula_sum "Si O2"
_cell_formula_units_Z 20
_cell_length_a 11.177725
_cell_length_b 5.231993
_cell_length_c 16.290979
_cell_angle_alpha 90.000000
_cell_angle_beta 90.000000
_cell_angle_gamma 90.000000
_cell_volume 952.725433
_symmetry_space_group_name_H-M "P 2 2 21"
_symmetry_group_IT_number 17
_symmetry_cell_setting 'orthorhombic'
loop_
_space_group_symop_operation_xyz
x,y,z
-x,-y,1/2+z
x,-y,-z
-x,y,1/2-z
loop_
_atom_site_type_symbol
_atom_site_label
_atom_site_fract_x
_atom_site_fract_y
_atom_site_fract_z
Si Si1 0.125880 0.000000 0.000000
Si Si2 0.895983 0.242976 0.045935
Si Si3 0.695226 0.863744 0.847168
Si Si4 0.322179 0.696350 0.070348
Si Si5 0.634154 0.636362 0.246733
Si Si6 0.461980 0.000000 0.500000
O O1 0.040573 0.209465 0.046057
O O2 0.213750 0.899371 0.071041
O O3 0.831943 0.231571 0.134713
O O4 0.858631 0.500000 0.000000
O O5 0.836883 0.000000 0.000000
O O6 0.636815 0.642228 0.793211
O O7 0.704195 0.138415 0.801703
O O8 0.618971 0.865160 0.931330
O O9 0.319130 0.585020 0.161433
O O10 0.284483 0.500000 0.000000
O O11 0.453436 0.802021 0.048490
O O12 0.500000 0.740606 0.250000
#
# Coordination Sequence:
#
# PCOD8155609 Si02
#       6
#     2   4   4   4   4   2
#     4   9  23  42  76  90 133 179 242 282 332 405
#     4  10  21  42  71  96 129 173 233 284 328 397
#     4  12  25  42  70 103 139 182 219 287 341 405
#     4  11  24  43  70  98 134 190 230 275 343 423
#     4  12  26  43  65 105 150 170 224 285 345 404
#     4  11  23  40  68 100 135 187 230 258 346 423
#
# _framework density 20.992408000000001
#
# number of rings (size 3 to 8) (size 9 to 14) (size 15 to 20)
#    0.600    0.400    3.000    3.600    5.600    0.000 
#    0.000    1.000    0.000    0.000    0.000    0.000 
#    0.000    0.000    0.000    0.000    0.000    0.000 
#
# Total GULP energy -247823.978681 kJ/mol
# GULP energy per Si atom -12391.198934 kJ/mol
# Density = 2.094463 g / cm^3
# Si number density = 20.992408 Si / 1000 Ang^3
#
#
#
# Elastic Constant Matrix: (Units=GPa)
#
#
# Indices 1 2 3 4 5 6 
#
# 1 103.7947 17.3593 50.4433 0.0000 0.0000 0.0000
# 2 17.3593 125.4141 53.5691 0.0000 0.0000 0.0000
# 3 50.4433 53.5691 149.7881 0.0000 0.0000 0.0000
# 4 0.0000 0.0000 0.0000 47.5457 0.0000 0.0000
# 5 0.0000 0.0000 0.0000 0.0000 13.9594 0.0000
# 6 0.0000 0.0000 0.0000 0.0000 0.0000 -1.8697
#
#
#
# Elastic Compliance Matrix: (Units=1/GPa)
#
#
# Indices 1 2 3 4 5 6 
#
# 1 0.011520 0.000074 -0.003906 0.000000 0.000000 0.000000
# 2 0.000074 0.009412 -0.003391 0.000000 0.000000 0.000000
# 3 -0.003906 -0.003391 0.009204 0.000000 0.000000 0.000000
# 4 0.000000 0.000000 0.000000 0.021032 0.000000 0.000000
# 5 0.000000 0.000000 0.000000 0.000000 0.071636 0.000000
# 6 0.000000 0.000000 0.000000 0.000000 0.000000 -0.534839
#
#
# Mechanical properties :
#
#
# Convention : Reuss Voigt Hill
#
# Bulk Modulus (GPa) = 63.73408 69.08226 66.40817
# Shear Modulus (GPa) = -12.74348 29.10209 8.17931
#
# Velocity S-wave (km/s) = -2.46651 3.72736 1.97605
# Velocity P-wave (km/s) = 4.72386 7.17663 6.07531
#
# Compressibility (1/GPa) = 0.01569019
#
# Stress axis : x y z
#
# Youngs Moduli (GPa) = 86.80285 106.25068 108.64637
#
# Poissons Ratio (x) = -0.00784 0.42438
# Poissons Ratio (y) = -0.00641 0.36840
# Poissons Ratio (z) = 0.33906 0.36027
#
# Static dielectric constant tensor:
#      x y z
#    x 3.773780 0.000000 0.000000 
#    y 0.000000 3.780730 0.000000 
#    z 0.000000 0.000000 3.706930 
# 
# 
# High freq. dielectric constant tensor:
#      x y z
#    x 1.824160 0.000000 0.000000 
#    y 0.000000 1.827620 0.000000 
#    z 0.000000 0.000000 1.809240 
# 
# From -- ./inp_files/8405.got.cif
#   From: 2010.03.12/outbox.cif.g09.slc.cpg/sg17_5_cif.got.tgz:8405.got - 2010.04.10 18:46:23.
