data_PCOD8155074
_publ_section_title
;
Structure prediction by ZEFSAII (Michael W. Deem and Ramdas Pophale) SiO2 
 PCOD8155074
Probable space group: C 2/C
;
_chemical_formula_sum "Si O2"
_cell_formula_units_Z 60
_cell_length_a 8.462705
_cell_length_b 20.300172
_cell_length_c 20.999134
_cell_angle_alpha 90.000000
_cell_angle_beta 49.197657
_cell_angle_gamma 90.000000
_cell_volume 2730.788198
_symmetry_space_group_name_H-M "C 2/C"
_symmetry_group_IT_number 15
_symmetry_cell_setting 'monoclinic'
loop_
_space_group_symop_operation_xyz
x,y,z
-x,y,1/2-z
-x,-y,-z
x,-y,1/2+z
1/2+x,1/2+y,z
1/2-x,1/2+y,1/2-z
1/2-x,1/2-y,-z
1/2+x,1/2-y,1/2+z
loop_
_atom_site_type_symbol
_atom_site_label
_atom_site_fract_x
_atom_site_fract_y
_atom_site_fract_z
Si Si1 0.829270 0.533086 0.348558
Si Si2 0.071624 0.548086 0.038085
Si Si3 0.179320 0.665204 0.429585
Si Si4 0.209756 0.811114 0.399355
Si Si5 0.070476 0.162145 0.405995
Si Si6 0.000000 0.896490 0.250000
Si Si7 0.969906 0.072970 0.622017
Si Si8 0.101604 0.691688 0.875359
O O1 0.920039 0.513996 0.394522
O O2 0.752409 0.608377 0.364383
O O3 0.632688 0.485849 0.390107
O O4 0.000000 0.518441 0.250000
O O5 0.905012 0.606603 0.091965
O O6 0.293932 0.579648 0.963447
O O7 0.000000 0.500000 0.000000
O O8 0.168103 0.734279 0.394226
O O9 0.414532 0.646711 0.388417
O O10 0.034542 0.669365 0.529250
O O11 0.151405 0.857356 0.355247
O O12 0.454440 0.817921 0.352209
O O13 0.064024 0.836074 0.494697
O O14 0.174695 0.232841 0.364912
O O15 0.042105 0.942933 0.299585
O O16 0.196009 0.851817 0.182219
#
# Coordination Sequence:
#
# PCOD8155074 Si02
#       8
#     8   8   8   8   8   4   8   8
#     4  12  29  45  65  96 135 179 221 285 339 397
#     4  12  26  44  72  97 129 180 230 276 332 407
#     4   9  19  41  69 101 127 169 222 274 325 400
#     4   9  20  40  71  95 128 174 217 270 336 400
#     4   9  19  43  68  97 131 170 216 265 335 407
#     4  12  26  40  64 102 134 170 222 284 326 384
#     4  12  27  43  67  94 134 178 227 273 333 406
#     4   9  20  38  68  99 135 166 211 276 332 393
#
# _framework density 21.971679000000002
#
# number of rings (size 3 to 8) (size 9 to 14) (size 15 to 20)
#    0.000    1.600    2.667    2.800    8.400    1.600 
#    0.000    0.000    0.000    0.000    0.000    0.000 
#    0.000    0.000    0.000    0.000    0.000    0.000 
#
# Total GULP energy -371997.559370 kJ/mol
# GULP energy per Si atom -12399.918646 kJ/mol
# Density = 2.192167 g / cm^3
# Si number density = 21.971679 Si / 1000 Ang^3
#
#
#
# Elastic Constant Matrix: (Units=GPa)
#
#
# Indices 1 2 3 4 5 6 
#
# 1 109.6551 46.8017 26.9129 0.0000 21.3698 0.0000
# 2 46.8017 87.7533 4.6916 0.0000 10.1155 0.0000
# 3 26.9129 4.6916 50.0645 0.0000 17.0993 0.0000
# 4 0.0000 0.0000 0.0000 19.9515 0.0000 4.2215
# 5 21.3698 10.1155 17.0993 0.0000 39.9250 0.0000
# 6 0.0000 0.0000 0.0000 4.2215 0.0000 36.9979
#
#
#
# Elastic Compliance Matrix: (Units=1/GPa)
#
#
# Indices 1 2 3 4 5 6 
#
# 1 0.014110 -0.006830 -0.005806 0.000000 -0.003335 0.000000
# 2 -0.006830 0.015045 0.002712 0.000000 -0.001317 0.000000
# 3 -0.005806 0.002712 0.025786 0.000000 -0.008624 0.000000
# 4 0.000000 0.000000 0.000000 0.051362 0.000000 -0.005860
# 5 -0.003335 -0.001317 -0.008624 0.000000 0.030859 0.000000
# 6 0.000000 0.000000 0.000000 -0.005860 0.000000 0.027697
#
#
# Mechanical properties :
#
#
# Convention : Reuss Voigt Hill
#
# Bulk Modulus (GPa) = 28.49577 44.92059 36.70818
# Shear Modulus (GPa) = 25.45758 30.64598 28.05178
#
# Velocity S-wave (km/s) = 3.40759 3.73875 3.57700
# Velocity P-wave (km/s) = 5.33664 6.25514 5.81406
#
# Compressibility (1/GPa) = 0.03509293
#
# Stress axis : x y z
#
# Youngs Moduli (GPa) = 70.87394 66.46609 38.78020
#
# Poissons Ratio (x) = 0.45398 0.22514
# Poissons Ratio (y) = 0.48409 -0.10516
# Poissons Ratio (z) = 0.41147 -0.18024
#
# Static dielectric constant tensor:
#      x y z
#    x 4.578950 0.000000 -0.120560 
#    y 0.000000 4.043220 0.000000 
#    z -0.120560 0.000000 3.809930 
# 
# 
# High freq. dielectric constant tensor:
#      x y z
#    x 1.875710 0.000000 -0.003830 
#    y 0.000000 1.864290 0.000000 
#    z -0.003830 0.000000 1.841070 
# 
# From -- ./inp_files/234064.got.cif
#   From: 2010.06.25/outbox.cif.g09.slc.cpg/sg15_118_cif.got.tgz:234064.got - 2010.06.28 07:06:18.
