data_PCOD8155273
_publ_section_title
;
Structure prediction by ZEFSAII (Michael W. Deem and Ramdas Pophale) SiO2 
 PCOD8155273
Probable space group: P 2 2 2
;
_chemical_formula_sum "Si O2"
_cell_formula_units_Z 32
_cell_length_a 14.016987
_cell_length_b 12.705313
_cell_length_c 9.597872
_cell_angle_alpha 90.000000
_cell_angle_beta 90.000000
_cell_angle_gamma 90.000000
_cell_volume 1709.287013
_symmetry_space_group_name_H-M "P 2 2 2"
_symmetry_group_IT_number 16
_symmetry_cell_setting 'orthorhombic'
loop_
_space_group_symop_operation_xyz
x,y,z
-x,-y,z
x,-y,-z
-x,y,-z
loop_
_atom_site_type_symbol
_atom_site_label
_atom_site_fract_x
_atom_site_fract_y
_atom_site_fract_z
Si Si1 0.385848 0.798567 0.168705
Si Si2 0.106997 0.294457 0.362117
Si Si3 0.265332 0.377168 0.159184
Si Si4 0.071029 0.398147 0.651449
Si Si5 0.106225 0.953724 0.642495
Si Si6 0.745999 0.388963 0.158752
Si Si7 0.598219 0.198704 0.838323
Si Si8 0.724189 0.996920 0.165066
O O1 0.328031 0.695741 0.222201
O O2 0.493007 0.802379 0.230625
O O3 0.326776 0.898487 0.221459
O O4 0.401611 0.802846 0.004389
O O5 0.176215 0.349567 0.253724
O O6 0.117447 0.365367 0.502789
O O7 0.119398 0.170712 0.379293
O O8 0.999137 0.303545 0.304137
O O9 0.302291 0.496717 0.171860
O O10 0.352973 0.306406 0.210785
O O11 0.233534 0.354743 0.000131
O O12 0.153307 0.401456 0.764930
O O13 0.000000 0.500000 0.644705
O O14 0.170456 0.990098 0.771470
O O15 0.148085 0.000000 0.500000
O O16 0.000000 0.000000 0.668247
O O17 0.658852 0.099739 0.783700
O O18 0.736850 0.000000 0.000000
#
# Coordination Sequence:
#
# PCOD8155273 Si02
#       8
#     4   4   4   4   4   4   4   4
#     4   9  19  32  59  85 116 149 188 239 289 353
#     4  11  22  38  58  79 110 155 196 235 278 349
#     4  10  20  37  56  85 120 148 184 239 293 332
#     4  11  22  37  57  82 109 151 199 230 277 343
#     4  11  24  40  56  84 116 156 192 237 293 348
#     4  10  22  35  55  89 119 144 188 240 288 338
#     4   9  17  36  56  85 114 152 191 232 295 349
#     4  10  20  36  60  87 115 148 194 243 290 348
#
# _framework density 18.721257000000001
#
# number of rings (size 3 to 8) (size 9 to 14) (size 15 to 20)
#    0.000    1.875    2.500    2.625    3.500    2.750 
#    0.000    3.750    0.000    3.750    0.000    1.750 
#    0.000    0.000    0.000    0.000    0.000    0.000 
#
# Total GULP energy -396501.406029 kJ/mol
# GULP energy per Si atom -12390.668938 kJ/mol
# Density = 1.867865 g / cm^3
# Si number density = 18.721257 Si / 1000 Ang^3
#
#
#
# Elastic Constant Matrix: (Units=GPa)
#
#
# Indices 1 2 3 4 5 6 
#
# 1 122.8388 59.8160 52.5568 0.0000 0.0000 0.0000
# 2 59.8160 140.2872 46.8064 0.0000 0.0000 0.0000
# 3 52.5568 46.8064 52.9697 0.0000 0.0000 0.0000
# 4 0.0000 0.0000 0.0000 21.3476 0.0000 0.0000
# 5 0.0000 0.0000 0.0000 0.0000 2.3066 0.0000
# 6 0.0000 0.0000 0.0000 0.0000 0.0000 30.2528
#
#
#
# Elastic Compliance Matrix: (Units=1/GPa)
#
#
# Indices 1 2 3 4 5 6 
#
# 1 0.014517 -0.001963 -0.012670 0.000000 0.000000 0.000000
# 2 -0.001963 0.010374 -0.007219 0.000000 0.000000 0.000000
# 3 -0.012670 -0.007219 0.037829 0.000000 0.000000 0.000000
# 4 0.000000 0.000000 0.000000 0.046844 0.000000 0.000000
# 5 0.000000 0.000000 0.000000 0.000000 0.433534 0.000000
# 6 0.000000 0.000000 0.000000 0.000000 0.000000 0.033055
#
#
# Mechanical properties :
#
#
# Convention : Reuss Voigt Hill
#
# Bulk Modulus (GPa) = 52.58595 70.49488 61.54041
# Shear Modulus (GPa) = 7.98473 21.24251 14.61362
#
# Velocity S-wave (km/s) = 2.06744 3.37215 2.79693
# Velocity P-wave (km/s) = 5.81799 7.27314 6.58588
#
# Compressibility (1/GPa) = 0.01901649
#
# Stress axis : x y z
#
# Youngs Moduli (GPa) = 68.88359 96.39661 26.43468
#
# Poissons Ratio (x) = 0.18919 0.33492
# Poissons Ratio (y) = 0.13520 0.19084
# Poissons Ratio (z) = 0.87274 0.69592
#
# Static dielectric constant tensor:
#      x y z
#    x 3.610880 0.000000 0.000000 
#    y 0.000000 3.877310 0.000000 
#    z 0.000000 0.000000 3.172550 
# 
# 
# High freq. dielectric constant tensor:
#      x y z
#    x 1.726500 0.000000 0.000000 
#    y 0.000000 1.750760 0.000000 
#    z 0.000000 0.000000 1.691320 
# 
# From -- ./inp_files/5242.got.cif
#   From: 2010.03.12/outbox.cif.g09.slc.cpg/sg16_3_cif.got.tgz:5242.got - 2010.03.31 00:51:45.
