data_PCOD8155257
_publ_section_title
;
Structure prediction by ZEFSAII (Michael W. Deem and Ramdas Pophale) SiO2 
 PCOD8155257
Probable space group: P 2 2 2
;
_chemical_formula_sum "Si O2"
_cell_formula_units_Z 32
_cell_length_a 11.773269
_cell_length_b 21.250349
_cell_length_c 7.813013
_cell_angle_alpha 90.000000
_cell_angle_beta 90.000000
_cell_angle_gamma 90.000000
_cell_volume 1954.707057
_symmetry_space_group_name_H-M "P 2 2 2"
_symmetry_group_IT_number 16
_symmetry_cell_setting 'orthorhombic'
loop_
_space_group_symop_operation_xyz
x,y,z
-x,-y,z
x,-y,-z
-x,y,-z
loop_
_atom_site_type_symbol
_atom_site_label
_atom_site_fract_x
_atom_site_fract_y
_atom_site_fract_z
Si Si1 0.365003 0.633559 0.311685
Si Si2 1.000000 0.925435 0.808328
Si Si3 0.364651 0.716113 0.000000
Si Si4 0.634997 0.366441 0.688315
Si Si5 0.365466 0.858805 1.000000
Si Si6 0.635123 0.500000 0.193190
Si Si7 0.757120 0.926018 0.692743
Si Si8 0.242880 0.926018 0.692743
O O1 0.326821 0.657079 0.500000
O O2 0.500000 0.632098 0.296474
O O3 0.317726 0.562786 0.284458
O O4 0.316119 0.680968 0.168591
O O5 0.113012 0.902078 0.711755
O O6 0.886988 0.902078 0.711755
O O7 0.000000 0.000000 0.813748
O O8 0.000000 0.897656 0.000000
O O9 0.316119 0.680968 0.831409
O O10 0.500000 0.714374 0.000000
O O11 0.320341 0.787356 0.000000
O O12 0.682274 0.437214 0.715542
O O13 0.322767 0.891803 0.172034
O O14 0.500000 0.862276 0.000000
O O15 0.322767 0.891803 0.827966
O O16 0.500000 0.500000 0.198824
O O17 0.679627 0.500000 0.000000
O O18 0.715867 0.910376 0.500000
O O19 0.749293 0.000000 0.730313
#
# Coordination Sequence:
#
# PCOD8155257 Si02
#       8
#     4   4   4   4   4   4   4   4
#     4   9  15  23  36  52  70  95 131 178 228 266
#     4   9  15  29  55  80  97 111 132 175 239 297
#     4   9  18  30  39  50  72 109 153 190 214 245
#     4   9  15  23  36  52  70  95 131 178 228 266
#     4  11  23  35  46  62  91 130 169 197 220 260
#     4   9  13  19  33  52  73  91 118 171 231 273
#     4  10  20  34  53  75  95 115 144 189 242 288
#     4  10  20  34  53  75  95 115 144 189 242 288
#
# _framework density 16.370739
#
# number of rings (size 3 to 8) (size 9 to 14) (size 15 to 20)
#    0.000    2.500    2.500    1.125    0.000    5.500 
#    0.000    3.750    0.000    0.000    0.000    0.000 
#    0.000    0.000    0.000    0.000    0.000   10.000 
#
# Total GULP energy -396630.915897 kJ/mol
# GULP energy per Si atom -12394.716122 kJ/mol
# Density = 1.633348 g / cm^3
# Si number density = 16.370739 Si / 1000 Ang^3
#
#
#
# Elastic Constant Matrix: (Units=GPa)
#
#
# Indices 1 2 3 4 5 6 
#
# 1 43.4022 27.1421 27.9898 0.0000 0.0000 0.0000
# 2 27.1421 97.8983 70.8894 0.0000 0.0000 0.0000
# 3 27.9898 70.8894 158.0246 0.0000 0.0000 0.0000
# 4 0.0000 0.0000 0.0000 14.3037 0.0000 0.0000
# 5 0.0000 0.0000 0.0000 0.0000 13.9170 0.0000
# 6 0.0000 0.0000 0.0000 0.0000 0.0000 -0.4044
#
#
#
# Elastic Compliance Matrix: (Units=1/GPa)
#
#
# Indices 1 2 3 4 5 6 
#
# 1 0.028388 -0.006265 -0.002218 0.000000 0.000000 0.000000
# 2 -0.006265 0.016512 -0.006297 0.000000 0.000000 0.000000
# 3 -0.002218 -0.006297 0.009546 0.000000 0.000000 0.000000
# 4 0.000000 0.000000 0.000000 0.069912 0.000000 0.000000
# 5 0.000000 0.000000 0.000000 0.000000 0.071855 0.000000
# 6 0.000000 0.000000 0.000000 0.000000 0.000000 -2.473076
#
#
# Mechanical properties :
#
#
# Convention : Reuss Voigt Hill
#
# Bulk Modulus (GPa) = 40.18336 61.26310 50.72323
# Shear Modulus (GPa) = -2.23313 17.11686 7.44186
#
# Velocity S-wave (km/s) = -1.16921 3.23705 2.13441
# Velocity P-wave (km/s) = 4.77246 7.17460 6.09308
#
# Compressibility (1/GPa) = 0.02488592
#
# Stress axis : x y z
#
# Youngs Moduli (GPa) = 35.22588 60.56362 104.75586
#
# Poissons Ratio (x) = 0.37940 0.23235
# Poissons Ratio (y) = 0.22067 0.65970
# Poissons Ratio (z) = 0.07813 0.38140
#
# Static dielectric constant tensor:
#      x y z
#    x 2.592810 0.000000 0.000000 
#    y 0.000000 3.102560 0.000000 
#    z 0.000000 0.000000 3.344380 
# 
# 
# High freq. dielectric constant tensor:
#      x y z
#    x 1.557290 0.000000 0.000000 
#    y 0.000000 1.615760 0.000000 
#    z 0.000000 0.000000 1.653550 
# 
# From -- ./inp_files/4914.got.cif
#   From: 2010.03.12/outbox.cif.g09.slc.cpg/sg16_3_cif.got.tgz:4914.got - 2010.03.31 00:51:45.
