data_PCOD8155039
_publ_section_title
;
Structure prediction by ZEFSAII (Michael W. Deem and Ramdas Pophale) SiO2 
 PCOD8155039
Probable space group: C 2/C
;
_chemical_formula_sum "Si O2"
_cell_formula_units_Z 44
_cell_length_a 24.166706
_cell_length_b 5.260275
_cell_length_c 14.330443
_cell_angle_alpha 90.000000
_cell_angle_beta 79.660495
_cell_angle_gamma 90.000000
_cell_volume 1792.154122
_symmetry_space_group_name_H-M "C 2/C"
_symmetry_group_IT_number 15
_symmetry_cell_setting 'monoclinic'
loop_
_space_group_symop_operation_xyz
x,y,z
-x,y,1/2-z
-x,-y,-z
x,-y,1/2+z
1/2+x,1/2+y,z
1/2-x,1/2+y,1/2-z
1/2-x,1/2-y,-z
1/2+x,1/2-y,1/2+z
loop_
_atom_site_type_symbol
_atom_site_label
_atom_site_fract_x
_atom_site_fract_y
_atom_site_fract_z
Si Si1 0.903998 0.738963 0.261792
Si Si2 0.379116 0.780686 0.968562
Si Si3 0.285363 0.337558 0.227056
Si Si4 0.687673 0.295857 0.483828
Si Si5 0.462265 0.886745 0.092690
Si Si6 0.000000 0.878646 0.750000
O O1 0.913624 0.634675 0.364479
O O2 0.837782 0.796787 0.279360
O O3 0.923602 0.562502 0.170922
O O4 0.942004 0.985851 0.244541
O O5 0.344167 0.524618 0.952471
O O6 0.419261 0.711985 0.045331
O O7 0.342370 0.024716 0.005983
O O8 0.249608 0.576901 0.273192
O O9 0.310063 0.410112 0.120037
O O10 0.750000 0.250000 0.500000
O O11 0.507796 0.767876 0.149922
O O12 0.500000 0.000000 0.000000
#
# Coordination Sequence:
#
# PCOD8155039 Si02
#       6
#     8   8   8   8   8   4
#     4  12  28  49  76 118 155 209 269 332 399 482
#     4  12  27  47  79 111 158 204 257 327 389 471
#     4  12  26  47  78 115 159 209 261 323 394 474
#     4  12  25  48  74 114 156 204 262 319 389 468
#     4  12  28  51  77 115 157 205 270 328 412 474
#     4  12  28  48  82 108 156 206 264 330 406 464
#
# _framework density 24.551458
#
# number of rings (size 3 to 8) (size 9 to 14) (size 15 to 20)
#    0.000    0.000    1.818    7.636    7.636    1.455 
#    0.000    0.000    0.000    0.000    0.000    0.000 
#    0.000    0.000    0.000    0.000    0.000    0.000 
#
# Total GULP energy -272540.209055 kJ/mol
# GULP energy per Si atom -12388.191321 kJ/mol
# Density = 2.449558 g / cm^3
# Si number density = 24.551458 Si / 1000 Ang^3
#
#
#
# Elastic Constant Matrix: (Units=GPa)
#
#
# Indices 1 2 3 4 5 6 
#
# 1 85.6470 40.3321 19.7241 0.0000 10.8143 0.0000
# 2 40.3321 104.5851 8.0434 0.0000 1.2882 0.0000
# 3 19.7241 8.0434 164.5718 0.0000 15.6055 0.0000
# 4 0.0000 0.0000 0.0000 147.7429 0.0000 51.3897
# 5 10.8143 1.2882 15.6055 0.0000 39.9310 0.0000
# 6 0.0000 0.0000 0.0000 51.3897 0.0000 63.9969
#
#
#
# Elastic Compliance Matrix: (Units=1/GPa)
#
#
# Indices 1 2 3 4 5 6 
#
# 1 0.015056 -0.005671 -0.001203 0.000000 -0.003425 0.000000
# 2 -0.005671 0.011735 -0.000004 0.000000 0.001159 0.000000
# 3 -0.001203 -0.000004 0.006428 0.000000 -0.002186 0.000000
# 4 0.000000 0.000000 0.000000 0.009392 0.000000 -0.007542
# 5 -0.003425 0.001159 -0.002186 0.000000 0.026788 0.000000
# 6 0.000000 0.000000 0.000000 -0.007542 0.000000 0.021682
#
#
# Mechanical properties :
#
#
# Convention : Reuss Voigt Hill
#
# Bulk Modulus (GPa) = 51.37888 54.55590 52.96739
# Shear Modulus (GPa) = 44.91434 69.44779 57.18107
#
# Velocity S-wave (km/s) = 4.28178 5.32429 4.83124
# Velocity P-wave (km/s) = 6.73924 7.75027 7.26237
#
# Compressibility (1/GPa) = 0.01946325
#
# Stress axis : x y z
#
# Youngs Moduli (GPa) = 66.41896 85.21695 155.56938
#
# Poissons Ratio (x) = 0.48331 0.18708
# Poissons Ratio (y) = 0.37669 0.00057
# Poissons Ratio (z) = 0.07987 0.00031
#
# Static dielectric constant tensor:
#      x y z
#    x 4.420700 0.000000 -0.181510 
#    y 0.000000 5.038830 0.000000 
#    z -0.181510 0.000000 6.039710 
# 
# 
# High freq. dielectric constant tensor:
#      x y z
#    x 1.994900 0.000000 0.006270 
#    y 0.000000 1.963170 0.000000 
#    z 0.006270 0.000000 2.010150 
# 
# From -- ./inp_files/170802.got.cif
#   From: 2010.06.25/outbox.cif.g09.slc.cpg/sg15_86_cif.got.tgz:170802.got - 2010.06.28 07:06:18.
