data_PCOD8155084
_publ_section_title
;
Structure prediction by ZEFSAII (Michael W. Deem and Ramdas Pophale) SiO2 
 PCOD8155084
Probable space group: C 2/C
;
_chemical_formula_sum "Si O2"
_cell_formula_units_Z 44
_cell_length_a 25.822747
_cell_length_b 7.795832
_cell_length_c 24.673240
_cell_angle_alpha 90.000000
_cell_angle_beta 23.193621
_cell_angle_gamma 90.000000
_cell_volume 1956.187366
_symmetry_space_group_name_H-M "C 2/C"
_symmetry_group_IT_number 15
_symmetry_cell_setting 'monoclinic'
loop_
_space_group_symop_operation_xyz
x,y,z
-x,y,1/2-z
-x,-y,-z
x,-y,1/2+z
1/2+x,1/2+y,z
1/2-x,1/2+y,1/2-z
1/2-x,1/2-y,-z
1/2+x,1/2-y,1/2+z
loop_
_atom_site_type_symbol
_atom_site_label
_atom_site_fract_x
_atom_site_fract_y
_atom_site_fract_z
Si Si1 0.500000 0.127260 0.750000
Si Si2 0.611005 0.385673 0.731017
Si Si3 0.769318 0.818044 0.163456
Si Si4 0.972847 0.698003 0.528880
Si Si5 0.196661 0.633382 0.004673
Si Si6 0.904099 0.112322 0.988856
O O1 0.572082 0.245165 0.724260
O O2 0.399694 0.010176 0.879537
O O3 0.725014 0.306095 0.658230
O O4 0.671934 0.550514 0.644457
O O5 0.488353 0.455335 0.883138
O O6 0.673044 0.785083 0.306337
O O7 0.772954 0.016581 0.138618
O O8 0.918911 0.781006 0.036583
O O9 0.980158 0.790416 0.463831
O O10 0.000000 0.500000 0.500000
O O11 0.250000 0.750000 0.000000
O O12 0.127257 0.746606 0.025734
#
# Coordination Sequence:
#
# PCOD8155084 Si02
#       6
#     4   8   8   8   8   8
#     4  12  26  50  72 108 146 190 248 306 374 440
#     4  12  26  46  77 106 145 194 244 303 370 436
#     4  12  26  49  72 111 149 196 243 302 368 436
#     4  12  28  45  76 107 153 194 245 302 365 440
#     4  12  26  46  74 106 147 190 246 307 370 438
#     4  12  27  46  75 110 146 193 249 302 365 441
#
# _framework density 22.492733000000001
#
# number of rings (size 3 to 8) (size 9 to 14) (size 15 to 20)
#    0.000    0.000    1.818    7.636   10.182    0.000 
#    0.000    0.000    0.000    0.000    0.000    0.000 
#    0.000    0.000    0.000    0.000    0.000    0.000 
#
# Total GULP energy -272855.315154 kJ/mol
# GULP energy per Si atom -12402.514325 kJ/mol
# Density = 2.244154 g / cm^3
# Si number density = 22.492733 Si / 1000 Ang^3
#
#
#
# Elastic Constant Matrix: (Units=GPa)
#
#
# Indices 1 2 3 4 5 6 
#
# 1 178.8846 87.4355 50.7433 -0.0148 -2.7641 0.0405
# 2 87.4355 144.4506 41.4741 -0.1189 -1.1690 0.3861
# 3 50.7433 41.4741 98.8823 -0.0760 -2.1537 0.1672
# 4 -0.0148 -0.1189 -0.0760 57.5113 0.0234 8.8655
# 5 -2.7641 -1.1690 -2.1537 0.0234 29.6421 -0.0310
# 6 0.0405 0.3861 0.1672 8.8655 -0.0310 59.5070
#
#
#
# Elastic Compliance Matrix: (Units=1/GPa)
#
#
# Indices 1 2 3 4 5 6 
#
# 1 0.008451 -0.004400 -0.002482 -0.000015 0.000434 0.000032
# 2 -0.004400 0.010161 -0.002007 0.000027 -0.000155 -0.000061
# 3 -0.002482 -0.002007 0.012242 0.000014 0.000579 -0.000022
# 4 -0.000015 0.000027 0.000014 0.017797 -0.000016 -0.002652
# 5 0.000434 -0.000155 0.000579 -0.000016 0.033812 0.000019
# 6 0.000032 -0.000061 -0.000022 -0.002652 0.000019 0.017200
#
#
# Mechanical properties :
#
#
# Convention : Reuss Voigt Hill
#
# Bulk Modulus (GPa) = 76.47893 86.83593 81.65743
# Shear Modulus (GPa) = 41.05080 45.50305 43.27692
#
# Velocity S-wave (km/s) = 4.27672 4.50267 4.39115
# Velocity P-wave (km/s) = 7.64608 8.10691 7.87987
#
# Compressibility (1/GPa) = 0.01307550
#
# Stress axis : x y z
#
# Youngs Moduli (GPa) = 118.32291 98.41473 81.68921
#
# Poissons Ratio (x) = 0.43298 0.20278
# Poissons Ratio (y) = 0.52056 0.16399
# Poissons Ratio (z) = 0.29372 0.19756
#
# Static dielectric constant tensor:
#      x y z
#    x 4.301900 -0.000320 0.255340 
#    y -0.000320 4.532310 0.001340 
#    z 0.255340 0.001340 3.740060 
# 
# 
# High freq. dielectric constant tensor:
#      x y z
#    x 1.905420 -0.000010 0.009730 
#    y -0.000010 1.910980 0.000010 
#    z 0.009730 0.000010 1.894450 
# 
# From -- ./inp_files/303163.got.cif
#   From: 2010.06.25/outbox.cif.g09.slc.cpg/sg15_152_cif.got.tgz:303163.got - 2010.06.28 07:06:18.
