data_PCOD8155032
_publ_section_title
;
Structure prediction by ZEFSAII (Michael W. Deem and Ramdas Pophale) SiO2 
 PCOD8155032
Probable space group: C 2/C
;
_chemical_formula_sum "Si O2"
_cell_formula_units_Z 40
_cell_length_a 11.019215
_cell_length_b 16.091146
_cell_length_c 17.428500
_cell_angle_alpha 90.000000
_cell_angle_beta 148.673425
_cell_angle_gamma 90.000000
_cell_volume 1606.683380
_symmetry_space_group_name_H-M "C 2/C"
_symmetry_group_IT_number 15
_symmetry_cell_setting 'monoclinic'
loop_
_space_group_symop_operation_xyz
x,y,z
-x,y,1/2-z
-x,-y,-z
x,-y,1/2+z
1/2+x,1/2+y,z
1/2-x,1/2+y,1/2-z
1/2-x,1/2-y,-z
1/2+x,1/2-y,1/2+z
loop_
_atom_site_type_symbol
_atom_site_label
_atom_site_fract_x
_atom_site_fract_y
_atom_site_fract_z
Si Si1 0.332440 0.433986 0.478866
Si Si2 0.524376 0.921537 0.458749
Si Si3 0.828521 0.166919 0.823245
Si Si4 0.681742 0.884966 0.910358
Si Si5 0.225737 0.354090 0.704802
O O1 0.267259 0.374732 0.372521
O O2 0.319683 0.532682 0.451090
O O3 0.579011 0.410487 0.649834
O O4 0.129023 0.431441 0.431217
O O5 0.267773 0.885394 0.301372
O O6 0.704810 0.861555 0.601374
O O7 0.500000 0.000000 0.500000
O O8 0.717566 0.257820 0.751069
O O9 0.107153 0.179316 0.963904
O O10 0.500000 0.849858 0.750000
O O11 0.527298 0.890922 0.903699
#
# Coordination Sequence:
#
# PCOD8155032 Si02
#       5
#     8   8   8   8   8
#     4  12  26  49  79 108 151 208 256 309 386 474
#     4  12  26  47  74 112 153 198 257 322 387 455
#     4  12  27  47  78 113 155 199 256 322 391 461
#     4  12  25  47  79 107 152 206 264 307 382 468
#     4  12  27  48  75 115 154 200 258 324 385 454
#
# _framework density 24.896006
#
# number of rings (size 3 to 8) (size 9 to 14) (size 15 to 20)
#    0.000    0.000    4.000    6.000    0.000    5.600 
#    0.000    0.000    0.000    0.000    0.000    0.000 
#    0.000    0.000    0.000    0.000    0.000    0.000 
#
# Total GULP energy -247883.382502 kJ/mol
# GULP energy per Si atom -12394.169125 kJ/mol
# Density = 2.483934 g / cm^3
# Si number density = 24.896006 Si / 1000 Ang^3
#
#
#
# Elastic Constant Matrix: (Units=GPa)
#
#
# Indices 1 2 3 4 5 6 
#
# 1 66.4395 26.6523 30.4412 -0.0021 -4.3386 -0.0009
# 2 26.6523 101.5175 48.7884 0.0012 -0.4959 0.0002
# 3 30.4412 48.7884 193.6990 0.0040 -18.2511 0.0003
# 4 -0.0021 0.0012 0.0040 36.4507 0.0013 -1.3713
# 5 -4.3386 -0.4959 -18.2511 0.0013 39.9967 -0.0006
# 6 -0.0009 0.0002 0.0003 -1.3713 -0.0006 35.0135
#
#
#
# Elastic Compliance Matrix: (Units=1/GPa)
#
#
# Indices 1 2 3 4 5 6 
#
# 1 0.017400 -0.003751 -0.001689 0.000001 0.001070 0.000001
# 2 -0.003751 0.012071 -0.002586 0.000000 -0.001437 0.000000
# 3 -0.001689 -0.002586 0.006331 -0.000001 0.002674 0.000000
# 4 0.000001 0.000000 -0.000001 0.027475 -0.000001 0.001076
# 5 0.001070 -0.001437 0.002674 -0.000001 0.026320 0.000000
# 6 0.000001 0.000000 0.000000 0.001076 0.000000 0.028603
#
#
# Mechanical properties :
#
#
# Convention : Reuss Voigt Hill
#
# Bulk Modulus (GPa) = 50.63381 63.71331 57.17356
# Shear Modulus (GPa) = 35.50213 39.34378 37.42296
#
# Velocity S-wave (km/s) = 3.78036 3.97964 3.88128
# Velocity P-wave (km/s) = 6.27990 6.83843 6.56510
#
# Compressibility (1/GPa) = 0.01974965
#
# Stress axis : x y z
#
# Youngs Moduli (GPa) = 57.47197 82.84074 157.94154
#
# Poissons Ratio (x) = 0.31076 0.26673
# Poissons Ratio (y) = 0.21559 0.40850
# Poissons Ratio (z) = 0.09706 0.21426
#
# Static dielectric constant tensor:
#      x y z
#    x 5.209710 -0.000010 -0.542370 
#    y -0.000010 4.469810 0.000000 
#    z -0.542370 0.000000 4.930490 
# 
# 
# High freq. dielectric constant tensor:
#      x y z
#    x 1.998750 0.000000 -0.006200 
#    y 0.000000 1.984920 0.000000 
#    z -0.006200 0.000000 2.010770 
# 
# From -- ./inp_files/199729.got.cif
#   From: 2010.06.25/outbox.cif.g09.slc.cpg/sg15_100_cif.got.tgz:199729.got - 2010.06.28 07:06:18.
