data_PCOD8155341
_publ_section_title
;
Structure prediction by ZEFSAII (Michael W. Deem and Ramdas Pophale) SiO2 
 PCOD8155341
Probable space group: P 2 2 2
;
_chemical_formula_sum "Si O2"
_cell_formula_units_Z 20
_cell_length_a 4.848398
_cell_length_b 16.235828
_cell_length_c 11.821015
_cell_angle_alpha 90.000000
_cell_angle_beta 90.000000
_cell_angle_gamma 90.000000
_cell_volume 930.523774
_symmetry_space_group_name_H-M "P 2 2 2"
_symmetry_group_IT_number 16
_symmetry_cell_setting 'orthorhombic'
loop_
_space_group_symop_operation_xyz
x,y,z
-x,-y,z
x,-y,-z
-x,y,-z
loop_
_atom_site_type_symbol
_atom_site_label
_atom_site_fract_x
_atom_site_fract_y
_atom_site_fract_z
Si Si1 0.914669 0.088930 0.237607
Si Si2 0.573651 0.137005 0.625952
Si Si3 0.574846 0.687198 0.710205
Si Si4 0.751958 0.771567 0.926918
Si Si5 0.932963 0.409997 0.632131
O O1 0.610446 0.082686 0.289501
O O2 0.911790 0.154798 0.136866
O O3 0.111428 0.119407 0.340135
O O4 0.000000 0.000000 0.189115
O O5 0.500000 0.108547 0.500000
O O6 0.508498 0.233432 0.638319
O O7 0.594312 0.707098 0.844054
O O8 0.377988 0.612243 0.670600
O O9 0.885630 0.662113 0.683973
O O10 0.500000 0.808426 0.000000
O O11 0.000000 0.729241 0.000000
O O12 0.000000 0.500000 0.683260
O O13 0.000000 0.411456 0.500000
#
# Coordination Sequence:
#
# PCOD8155341 Si02
#       5
#     4   4   4   4   4
#     4  11  24  40  58  88 122 153 201 255 303 360
#     4  11  22  37  60  88 122 164 199 235 294 365
#     4  11  22  39  61  88 122 157 203 249 287 354
#     4  11  23  42  65  87 113 157 211 260 308 347
#     4  11  22  37  62  96 130 160 188 230 295 361
#
# _framework density 21.493271
#
# number of rings (size 3 to 8) (size 9 to 14) (size 15 to 20)
#    0.000    1.000    0.000    9.600    0.000    4.400 
#    0.000    3.000    0.000    9.000    0.000    0.000 
#    0.000    0.000    0.000    0.000    0.000    0.000 
#
# Total GULP energy -247952.032916 kJ/mol
# GULP energy per Si atom -12397.601646 kJ/mol
# Density = 2.144435 g / cm^3
# Si number density = 21.493271 Si / 1000 Ang^3
#
#
#
# Elastic Constant Matrix: (Units=GPa)
#
#
# Indices 1 2 3 4 5 6 
#
# 1 90.3567 16.7518 29.6662 0.0000 0.0000 0.0000
# 2 16.7518 93.2734 21.5844 0.0000 0.0000 0.0000
# 3 29.6662 21.5844 104.4152 0.0000 0.0000 0.0000
# 4 0.0000 0.0000 0.0000 10.5403 0.0000 0.0000
# 5 0.0000 0.0000 0.0000 0.0000 50.6058 0.0000
# 6 0.0000 0.0000 0.0000 0.0000 0.0000 24.2530
#
#
#
# Elastic Compliance Matrix: (Units=1/GPa)
#
#
# Indices 1 2 3 4 5 6 
#
# 1 0.012398 -0.001482 -0.003216 0.000000 0.000000 0.000000
# 2 -0.001482 0.011437 -0.001943 0.000000 0.000000 0.000000
# 3 -0.003216 -0.001943 0.010893 0.000000 0.000000 0.000000
# 4 0.000000 0.000000 0.000000 0.094874 0.000000 0.000000
# 5 0.000000 0.000000 0.000000 0.000000 0.019761 0.000000
# 6 0.000000 0.000000 0.000000 0.000000 0.000000 0.041232
#
#
# Mechanical properties :
#
#
# Convention : Reuss Voigt Hill
#
# Bulk Modulus (GPa) = 46.63194 47.11668 46.87431
# Shear Modulus (GPa) = 23.69378 31.74933 27.72156
#
# Velocity S-wave (km/s) = 3.32381 3.84757 3.59524
# Velocity P-wave (km/s) = 6.03933 6.45814 6.25224
#
# Compressibility (1/GPa) = 0.02144453
#
# Stress axis : x y z
#
# Youngs Moduli (GPa) = 80.65827 87.43512 91.80591
#
# Poissons Ratio (x) = 0.12962 0.29525
# Poissons Ratio (y) = 0.11957 0.17838
# Poissons Ratio (z) = 0.25940 0.16989
#
# Static dielectric constant tensor:
#      x y z
#    x 4.073040 0.000000 0.000000 
#    y 0.000000 3.867770 0.000000 
#    z 0.000000 0.000000 3.956680 
# 
# 
# High freq. dielectric constant tensor:
#      x y z
#    x 1.867200 0.000000 0.000000 
#    y 0.000000 1.830060 0.000000 
#    z 0.000000 0.000000 1.834280 
# 
# From -- ./inp_files/1901.got.cif
#   From: 2010.03.12/outbox.cif.g09.slc.cpg/sg16_1_cif.got.tgz:1901.got - 2010.03.31 00:51:45.
