data_PCOD8155710
_publ_section_title
;
Structure prediction by ZEFSAII (Michael W. Deem and Ramdas Pophale) SiO2 
 PCOD8155710
Probable space group: P 2 2 21
;
_chemical_formula_sum "Si O2"
_cell_formula_units_Z 20
_cell_length_a 8.706437
_cell_length_b 12.242790
_cell_length_c 8.315022
_cell_angle_alpha 90.000000
_cell_angle_beta 90.000000
_cell_angle_gamma 90.000000
_cell_volume 886.307174
_symmetry_space_group_name_H-M "P 2 2 21"
_symmetry_group_IT_number 17
_symmetry_cell_setting 'orthorhombic'
loop_
_space_group_symop_operation_xyz
x,y,z
-x,-y,1/2+z
x,-y,-z
-x,y,1/2-z
loop_
_atom_site_type_symbol
_atom_site_label
_atom_site_fract_x
_atom_site_fract_y
_atom_site_fract_z
Si Si1 0.726900 0.873343 0.055219
Si Si2 0.046956 0.115979 0.067188
Si Si3 0.740408 0.251652 0.618328
Si Si4 0.783310 0.500000 0.000000
Si Si5 0.454229 0.686808 0.569569
Si Si6 0.000000 0.593004 0.250000
O O1 0.693565 0.835823 0.240466
O O2 0.612942 0.809285 0.936413
O O3 0.902304 0.835719 0.030430
O O4 0.708609 0.000000 0.000000
O O5 0.000000 0.106551 0.250000
O O6 0.198062 0.188055 0.039342
O O7 0.094003 0.000000 0.000000
O O8 0.594367 0.321143 0.557451
O O9 0.877264 0.332824 0.659110
O O10 0.677616 0.393413 0.007948
O O11 0.898187 0.509820 0.147798
O O12 0.500000 0.655112 0.750000
#
# Coordination Sequence:
#
# PCOD8155710 Si02
#       6
#     4   4   4   2   4   2
#     4  11  23  45  71 108 155 202 255 306 376 460
#     4  11  21  38  68 105 151 203 257 307 363 450
#     4  12  24  47  75 109 152 204 250 319 384 451
#     4  12  30  52  78 112 144 200 262 322 390 458
#     4  12  29  46  73 111 156 197 254 318 388 460
#     4  12  28  50  82 106 146 198 258 326 376 458
#
# _framework density 22.565539000000001
#
# number of rings (size 3 to 8) (size 9 to 14) (size 15 to 20)
#    0.000    0.400    4.000    4.200    5.600    2.400 
#    1.800    0.000    0.000    0.000    0.000    0.000 
#    0.000    0.000    0.000    0.000    0.000    0.000 
#
# Total GULP energy -247893.937879 kJ/mol
# GULP energy per Si atom -12394.696894 kJ/mol
# Density = 2.251418 g / cm^3
# Si number density = 22.565539 Si / 1000 Ang^3
#
#
#
# Elastic Constant Matrix: (Units=GPa)
#
#
# Indices 1 2 3 4 5 6 
#
# 1 151.3281 71.0833 49.6532 0.0000 0.0000 0.0000
# 2 71.0833 85.7773 49.9502 0.0000 0.0000 0.0000
# 3 49.6532 49.9502 134.9028 0.0000 0.0000 0.0000
# 4 0.0000 0.0000 0.0000 26.2002 0.0000 0.0000
# 5 0.0000 0.0000 0.0000 0.0000 40.0342 0.0000
# 6 0.0000 0.0000 0.0000 0.0000 0.0000 34.9642
#
#
#
# Elastic Compliance Matrix: (Units=1/GPa)
#
#
# Indices 1 2 3 4 5 6 
#
# 1 0.010896 -0.008534 -0.000851 0.000000 0.000000 0.000000
# 2 -0.008534 0.021547 -0.004837 0.000000 0.000000 0.000000
# 3 -0.000851 -0.004837 0.009517 0.000000 0.000000 0.000000
# 4 0.000000 0.000000 0.000000 0.038168 0.000000 0.000000
# 5 0.000000 0.000000 0.000000 0.000000 0.024979 0.000000
# 6 0.000000 0.000000 0.000000 0.000000 0.000000 0.028601
#
#
# Mechanical properties :
#
#
# Convention : Reuss Voigt Hill
#
# Bulk Modulus (GPa) = 73.98437 79.26461 76.62449
# Shear Modulus (GPa) = 30.00196 33.66115 31.83155
#
# Velocity S-wave (km/s) = 3.65025 3.86645 3.75991
# Velocity P-wave (km/s) = 7.11501 7.42531 7.27182
#
# Compressibility (1/GPa) = 0.01351637
#
# Stress axis : x y z
#
# Youngs Moduli (GPa) = 91.77683 46.41001 105.07745
#
# Poissons Ratio (x) = 0.39607 0.08937
# Poissons Ratio (y) = 0.78324 0.50826
# Poissons Ratio (z) = 0.07806 0.22449
#
# Static dielectric constant tensor:
#      x y z
#    x 4.412800 0.000000 0.000000 
#    y 0.000000 4.172900 0.000000 
#    z 0.000000 0.000000 4.107070 
# 
# 
# High freq. dielectric constant tensor:
#      x y z
#    x 1.909210 0.000000 0.000000 
#    y 0.000000 1.885600 0.000000 
#    z 0.000000 0.000000 1.892970 
# 
# From -- ./inp_files/4073.got.cif
#   From: 2010.03.12/outbox.cif.g09.slc.cpg/sg17_3_cif.got.tgz:4073.got - 2010.04.10 18:46:23.
