data_PCOD8155365
_publ_section_title
;
Structure prediction by ZEFSAII (Michael W. Deem and Ramdas Pophale) SiO2 
 PCOD8155365
Probable space group: P 2 2 21
;
_chemical_formula_sum "Si O2"
_cell_formula_units_Z 20
_cell_length_a 8.648942
_cell_length_b 5.047458
_cell_length_c 24.549061
_cell_angle_alpha 90.000000
_cell_angle_beta 90.000000
_cell_angle_gamma 90.000000
_cell_volume 1071.693468
_symmetry_space_group_name_H-M "P 2 2 21"
_symmetry_group_IT_number 17
_symmetry_cell_setting 'orthorhombic'
loop_
_space_group_symop_operation_xyz
x,y,z
-x,-y,1/2+z
x,-y,-z
-x,y,1/2-z
loop_
_atom_site_type_symbol
_atom_site_label
_atom_site_fract_x
_atom_site_fract_y
_atom_site_fract_z
Si Si1 0.516350 0.500000 0.500000
Si Si2 0.829959 0.980777 0.769056
Si Si3 0.302369 0.000000 0.500000
Si Si4 0.305312 0.964326 0.382351
Si Si5 0.665963 0.481920 0.726109
Si Si6 0.520829 0.464315 0.383405
O O1 0.408643 0.250663 0.497734
O O2 0.608341 0.500432 0.442424
O O3 0.792573 0.685888 0.748541
O O4 0.000000 0.060710 0.750000
O O5 0.819963 0.993681 0.834765
O O6 0.709068 0.184799 0.742815
O O7 0.213621 0.012156 0.558737
O O8 0.383617 0.677210 0.375522
O O9 0.443171 0.176916 0.377554
O O10 0.500000 0.560322 0.750000
O O11 0.655980 0.500198 0.660695
#
# Coordination Sequence:
#
# PCOD8155365 Si02
#       6
#     2   4   2   4   4   4
#     4   8  16  28  44  78 102 126 158 226 266 288
#     4  12  24  36  52  79 115 142 172 218 272 313
#     4   8  16  26  48  70  98 130 170 212 258 292
#     4  10  17  32  49  76 102 133 172 219 254 311
#     4  12  21  36  57  80 103 143 177 218 259 317
#     4  10  18  30  54  76 104 129 177 217 259 305
#
# _framework density 18.662053
#
# number of rings (size 3 to 8) (size 9 to 14) (size 15 to 20)
#    0.000    1.600    4.000    2.400    0.000    0.000 
#    0.000    0.000    0.000    2.400    0.000    0.000 
#    0.000    0.000    0.000    0.000    0.000    0.000 
#
# Total GULP energy -247808.137086 kJ/mol
# GULP energy per Si atom -12390.406854 kJ/mol
# Density = 1.861958 g / cm^3
# Si number density = 18.662053 Si / 1000 Ang^3
#
#
#
# Elastic Constant Matrix: (Units=GPa)
#
#
# Indices 1 2 3 4 5 6 
#
# 1 41.1638 2.3502 39.8144 0.0000 0.0000 0.0000
# 2 2.3502 85.8544 7.6311 0.0000 0.0000 0.0000
# 3 39.8144 7.6311 204.5675 0.0000 0.0000 0.0000
# 4 0.0000 0.0000 0.0000 25.5864 0.0000 0.0000
# 5 0.0000 0.0000 0.0000 0.0000 16.2499 0.0000
# 6 0.0000 0.0000 0.0000 0.0000 0.0000 17.7042
#
#
#
# Elastic Compliance Matrix: (Units=1/GPa)
#
#
# Indices 1 2 3 4 5 6 
#
# 1 0.029935 -0.000303 -0.005815 0.000000 0.000000 0.000000
# 2 -0.000303 0.011689 -0.000377 0.000000 0.000000 0.000000
# 3 -0.005815 -0.000377 0.006034 0.000000 0.000000 0.000000
# 4 0.000000 0.000000 0.000000 0.039083 0.000000 0.000000
# 5 0.000000 0.000000 0.000000 0.000000 0.061539 0.000000
# 6 0.000000 0.000000 0.000000 0.000000 0.000000 0.056484
#
#
# Mechanical properties :
#
#
# Convention : Reuss Voigt Hill
#
# Bulk Modulus (GPa) = 28.84410 47.90855 38.37632
# Shear Modulus (GPa) = 21.80459 30.69411 26.24935
#
# Velocity S-wave (km/s) = 3.42188 4.05993 3.75449
# Velocity P-wave (km/s) = 5.57691 6.90686 6.27721
#
# Compressibility (1/GPa) = 0.03466913
#
# Stress axis : x y z
#
# Youngs Moduli (GPa) = 33.40608 85.54737 165.72339
#
# Poissons Ratio (x) = 0.02589 0.96365
# Poissons Ratio (y) = 0.01011 0.06251
# Poissons Ratio (z) = 0.19425 0.03227
#
# Static dielectric constant tensor:
#      x y z
#    x 2.707500 0.000000 0.000000 
#    y 0.000000 3.600850 0.000000 
#    z 0.000000 0.000000 4.593500 
# 
# 
# High freq. dielectric constant tensor:
#      x y z
#    x 1.635290 0.000000 0.000000 
#    y 0.000000 1.753720 0.000000 
#    z 0.000000 0.000000 1.761880 
# 
# From -- ./inp_files/10381.got.cif
#   From: 2010.03.12/outbox.cif.g09.slc.cpg/sg17_6_cif.got.tgz:10381.got - 2010.04.10 18:46:23.
