data_PCOD8155923
_publ_section_title
;
Structure prediction by ZEFSAII (Michael W. Deem and Ramdas Pophale) SiO2 
 PCOD8155923
Probable space group: P 21 21 2
;
_chemical_formula_sum "Si O2"
_cell_formula_units_Z 32
_cell_length_a 8.852402
_cell_length_b 12.377071
_cell_length_c 13.709292
_cell_angle_alpha 90.000000
_cell_angle_beta 90.000000
_cell_angle_gamma 90.000000
_cell_volume 1502.083365
_symmetry_space_group_name_H-M "P 21 21 2"
_symmetry_group_IT_number 18
_symmetry_cell_setting 'orthorhombic'
loop_
_space_group_symop_operation_xyz
x,y,z
-x,-y,z
1/2+x,1/2-y,-z
1/2-x,1/2+y,-z
loop_
_atom_site_type_symbol
_atom_site_label
_atom_site_fract_x
_atom_site_fract_y
_atom_site_fract_z
Si Si1 0.592216 0.890673 0.118278
Si Si2 0.533010 0.198995 0.740066
Si Si3 0.518325 0.264059 0.275503
Si Si4 0.128949 0.588634 0.102069
Si Si5 0.306397 0.450498 0.239389
Si Si6 0.138552 0.072645 0.254415
Si Si7 0.866608 0.414130 0.591768
Si Si8 0.220104 0.625387 0.379422
O O1 0.487638 0.799849 0.171647
O O2 0.758146 0.902674 0.161827
O O3 0.500000 0.000000 0.128187
O O4 0.633629 0.864046 0.006550
O O5 0.414042 0.190369 0.830133
O O6 0.690624 0.147877 0.771177
O O7 0.560167 0.319729 0.706511
O O8 0.455464 0.139035 0.648958
O O9 0.466829 0.388485 0.249633
O O10 0.416941 0.194505 0.350808
O O11 0.679874 0.278229 0.329249
O O12 0.283025 0.532287 0.145827
O O13 0.000000 0.500000 0.114076
O O14 0.277617 0.510189 0.341443
O O15 0.243290 0.023888 0.340772
O O16 0.000000 0.000000 0.221137
O O17 0.777574 0.374819 0.496117
O O18 0.000000 0.500000 0.571032
#
# Coordination Sequence:
#
# PCOD8155923 Si02
#       8
#     4   4   4   4   4   4   4   4
#     4  10  21  44  64  89 130 175 212 263 329 401
#     4  10  20  41  63  88 123 167 207 266 326 388
#     4  11  23  40  64  96 129 166 217 272 324 383
#     4   8  18  38  67  89 120 168 212 256 328 388
#     4  10  19  43  63  90 126 162 212 265 323 382
#     4  11  24  40  61  95 129 166 214 275 318 387
#     4  11  25  44  65  91 129 179 218 266 337 400
#     4  11  25  38  65  93 125 168 213 272 325 393
#
# _framework density 21.303744999999999
#
# number of rings (size 3 to 8) (size 9 to 14) (size 15 to 20)
#    0.000    1.750    2.500    3.750    5.250    2.000 
#    6.750    0.000    0.000    0.000    0.000    0.000 
#    0.000    0.000    0.000    0.000    0.000    0.000 
#
# Total GULP energy -396489.503129 kJ/mol
# GULP energy per Si atom -12390.296973 kJ/mol
# Density = 2.125526 g / cm^3
# Si number density = 21.303745 Si / 1000 Ang^3
#
#
#
# Elastic Constant Matrix: (Units=GPa)
#
#
# Indices 1 2 3 4 5 6 
#
# 1 77.2358 9.1512 17.5092 0.0000 0.0000 0.0000
# 2 9.1512 60.6329 21.2408 0.0000 0.0000 0.0000
# 3 17.5092 21.2408 133.6520 0.0000 0.0000 0.0000
# 4 0.0000 0.0000 0.0000 27.4959 0.0000 0.0000
# 5 0.0000 0.0000 0.0000 0.0000 20.2245 0.0000
# 6 0.0000 0.0000 0.0000 0.0000 0.0000 39.1259
#
#
#
# Elastic Compliance Matrix: (Units=1/GPa)
#
#
# Indices 1 2 3 4 5 6 
#
# 1 0.013471 -0.001498 -0.001527 0.000000 0.000000 0.000000
# 2 -0.001498 0.017632 -0.002606 0.000000 0.000000 0.000000
# 3 -0.001527 -0.002606 0.008096 0.000000 0.000000 0.000000
# 4 0.000000 0.000000 0.000000 0.036369 0.000000 0.000000
# 5 0.000000 0.000000 0.000000 0.000000 0.049445 0.000000
# 6 0.000000 0.000000 0.000000 0.000000 0.000000 0.025558
#
#
# Mechanical properties :
#
#
# Convention : Reuss Voigt Hill
#
# Bulk Modulus (GPa) = 35.79448 40.81368 38.30408
# Shear Modulus (GPa) = 29.21488 32.27723 30.74606
#
# Velocity S-wave (km/s) = 3.70719 3.89665 3.80310
# Velocity P-wave (km/s) = 5.92982 6.28050 6.10768
#
# Compressibility (1/GPa) = 0.02793727
#
# Stress axis : x y z
#
# Youngs Moduli (GPa) = 74.23360 56.71601 123.51392
#
# Poissons Ratio (x) = 0.08498 0.18856
# Poissons Ratio (y) = 0.11123 0.32186
# Poissons Ratio (z) = 0.11333 0.14779
#
# Static dielectric constant tensor:
#      x y z
#    x 4.019810 0.000000 0.000000 
#    y 0.000000 3.816500 0.000000 
#    z 0.000000 0.000000 3.874010 
# 
# 
# High freq. dielectric constant tensor:
#      x y z
#    x 1.839170 0.000000 0.000000 
#    y 0.000000 1.830390 0.000000 
#    z 0.000000 0.000000 1.826220 
# 
# From -- ./inp_files/6801.got.cif
#   From: 2010.03.12/outbox.cif.g09.slc.cpg/sg18_4_cif.got.tgz:6801.got - 2010.04.10 18:53:55.
