data_PCOD8155934
_publ_section_title
;
Structure prediction by ZEFSAII (Michael W. Deem and Ramdas Pophale) SiO2 
 PCOD8155934
Probable space group: P 21 21 2
;
_chemical_formula_sum "Si O2"
_cell_formula_units_Z 32
_cell_length_a 9.072949
_cell_length_b 28.244992
_cell_length_c 6.930185
_cell_angle_alpha 90.000000
_cell_angle_beta 90.000000
_cell_angle_gamma 90.000000
_cell_volume 1775.966437
_symmetry_space_group_name_H-M "P 21 21 2"
_symmetry_group_IT_number 18
_symmetry_cell_setting 'orthorhombic'
loop_
_space_group_symop_operation_xyz
x,y,z
-x,-y,z
1/2+x,1/2-y,-z
1/2-x,1/2+y,-z
loop_
_atom_site_type_symbol
_atom_site_label
_atom_site_fract_x
_atom_site_fract_y
_atom_site_fract_z
Si Si1 0.674163 0.999999 0.682355
Si Si2 0.671131 0.243324 0.299177
Si Si3 0.171139 0.743325 0.700818
Si Si4 0.670889 0.571563 0.048668
Si Si5 0.167771 0.000000 0.284343
Si Si6 0.170790 0.821551 0.013643
Si Si7 0.170888 0.071564 0.951333
Si Si8 0.329219 0.678450 0.986353
O O1 0.719660 0.999999 0.459771
O O2 0.500000 0.000000 0.698514
O O3 0.735820 0.047106 0.783248
O O4 0.735818 0.952892 0.783249
O O5 0.749998 0.249999 0.499996
O O6 0.499996 0.234636 0.335100
O O7 0.735823 0.197325 0.193433
O O8 0.701600 0.290161 0.174438
O O9 0.201608 0.790162 0.825557
O O10 0.235837 0.697327 0.806559
O O11 0.698354 0.546456 0.843887
O O12 0.500000 0.567637 0.108057
O O13 0.723462 0.625544 0.032912
O O14 0.198353 0.046457 0.156114
O O15 0.000000 0.000000 0.361660
O O16 0.000005 0.820208 0.073790
O O17 0.223457 0.125546 0.967092
#
# Coordination Sequence:
#
# PCOD8155934 Si02
#       8
#     4   4   4   4   4   4   4   4
#     4  11  22  34  51  77 109 137 163 205 258 310
#     4  10  20  34  53  77 107 139 171 212 259 309
#     4  10  20  34  53  77 107 139 171 212 259 309
#     4   9  19  37  58  76  98 134 178 217 252 299
#     4   9  18  34  55  75  97 129 169 211 252 298
#     4   9  19  36  56  77 101 133 175 218 257 300
#     4   9  19  37  58  76  98 134 178 217 252 299
#     4   9  19  36  56  77 101 133 175 218 257 300
#
# _framework density 18.018357999999999
#
# number of rings (size 3 to 8) (size 9 to 14) (size 15 to 20)
#    0.000    2.500    0.000    2.625    0.000    6.000 
#    0.000   10.000    0.000    0.000    0.000    0.000 
#    0.000    0.000    0.000    0.000    0.000    0.000 
#
# Total GULP energy -396918.145892 kJ/mol
# GULP energy per Si atom -12403.692059 kJ/mol
# Density = 1.797735 g / cm^3
# Si number density = 18.018358 Si / 1000 Ang^3
#
#
#
# Elastic Constant Matrix: (Units=GPa)
#
#
# Indices 1 2 3 4 5 6 
#
# 1 94.1757 45.3216 61.4809 0.0000 0.0000 0.0000
# 2 45.3216 139.2072 43.5328 0.0000 0.0000 0.0000
# 3 61.4809 43.5328 111.1749 0.0000 0.0000 0.0000
# 4 0.0000 0.0000 0.0000 12.2793 0.0000 0.0000
# 5 0.0000 0.0000 0.0000 0.0000 31.2427 0.0000
# 6 0.0000 0.0000 0.0000 0.0000 0.0000 27.3880
#
#
#
# Elastic Compliance Matrix: (Units=1/GPa)
#
#
# Indices 1 2 3 4 5 6 
#
# 1 0.017705 -0.003079 -0.008585 0.000000 0.000000 0.000000
# 2 -0.003079 0.008722 -0.001712 0.000000 0.000000 0.000000
# 3 -0.008585 -0.001712 0.014413 0.000000 0.000000 0.000000
# 4 0.000000 0.000000 0.000000 0.081438 0.000000 0.000000
# 5 0.000000 0.000000 0.000000 0.000000 0.032007 0.000000
# 6 0.000000 0.000000 0.000000 0.000000 0.000000 0.036512
#
#
# Mechanical properties :
#
#
# Convention : Reuss Voigt Hill
#
# Bulk Modulus (GPa) = 70.99285 71.69205 71.34245
# Shear Modulus (GPa) = 22.49750 27.13016 24.81383
#
# Velocity S-wave (km/s) = 3.53737 3.88454 3.71501
# Velocity P-wave (km/s) = 7.49465 7.74559 7.62116
#
# Compressibility (1/GPa) = 0.01408593
#
# Stress axis : x y z
#
# Youngs Moduli (GPa) = 56.48049 114.65885 69.38161
#
# Poissons Ratio (x) = 0.35309 0.59567
# Poissons Ratio (y) = 0.17393 0.11879
# Poissons Ratio (z) = 0.48491 0.19631
#
# Static dielectric constant tensor:
#      x y z
#    x 3.311880 0.000000 0.000000 
#    y 0.000000 3.541650 0.000000 
#    z 0.000000 0.000000 3.233370 
# 
# 
# High freq. dielectric constant tensor:
#      x y z
#    x 1.696110 0.000000 0.000000 
#    y 0.000000 1.702430 0.000000 
#    z 0.000000 0.000000 1.697150 
# 
# From -- ./inp_files/774.got.cif
#   From: 2010.03.12/outbox.cif.g09.slc.cpg/sg18_1_cif.got.tgz:774.got - 2010.04.10 18:53:55.
