data_PCOD8155099
_publ_section_title
;
Structure prediction by ZEFSAII (Michael W. Deem and Ramdas Pophale) SiO2 
 PCOD8155099
Probable space group: C 2/C
;
_chemical_formula_sum "Si O2"
_cell_formula_units_Z 32
_cell_length_a 22.164540
_cell_length_b 7.736744
_cell_length_c 7.333869
_cell_angle_alpha 90.000000
_cell_angle_beta 78.908421
_cell_angle_gamma 90.000000
_cell_volume 1234.130733
_symmetry_space_group_name_H-M "C 2/C"
_symmetry_group_IT_number 15
_symmetry_cell_setting 'monoclinic'
loop_
_space_group_symop_operation_xyz
x,y,z
-x,y,1/2-z
-x,-y,-z
x,-y,1/2+z
1/2+x,1/2+y,z
1/2-x,1/2+y,1/2-z
1/2-x,1/2-y,-z
1/2+x,1/2-y,1/2+z
loop_
_atom_site_type_symbol
_atom_site_label
_atom_site_fract_x
_atom_site_fract_y
_atom_site_fract_z
Si Si1 0.933480 0.800552 0.864762
Si Si2 0.226065 0.292330 0.815567
Si Si3 0.610452 0.672574 0.727111
Si Si4 0.843647 0.346667 0.137304
O O1 0.883342 0.679674 0.796868
O O2 0.000000 0.755849 0.750000
O O3 0.916532 0.000226 0.844612
O O4 0.933628 0.762339 0.082138
O O5 0.321508 0.643430 0.725178
O O6 0.187406 0.467347 0.826844
O O7 0.287100 0.291004 0.653866
O O8 0.250000 0.250000 0.000000
O O9 0.613827 0.817493 0.565224
#
# Coordination Sequence:
#
# PCOD8155099 Si02
#       4
#     8   8   8   8
#     4  12  27  50  78 112 148 203 263 310 375 453
#     4  12  26  49  78 114 156 197 250 314 385 455
#     4  12  26  47  78 111 150 200 253 315 378 445
#     4  12  27  48  76 113 156 200 248 316 381 450
#
# _framework density 25.929183999999999
#
# number of rings (size 3 to 8) (size 9 to 14) (size 15 to 20)
#    0.000    0.000    5.000    4.500    0.000    0.000 
#    4.500    2.500    0.000    0.000    0.000    0.000 
#    0.000    0.000    0.000    0.000    0.000    0.000 
#
# Total GULP energy -198364.778249 kJ/mol
# GULP energy per Si atom -12397.798641 kJ/mol
# Density = 2.587017 g / cm^3
# Si number density = 25.929184 Si / 1000 Ang^3
#
#
#
# Elastic Constant Matrix: (Units=GPa)
#
#
# Indices 1 2 3 4 5 6 
#
# 1 80.6922 34.0262 0.6797 0.0000 -38.6500 0.0000
# 2 34.0262 96.8942 25.7495 0.0000 -15.5977 0.0000
# 3 0.6797 25.7495 155.7284 0.0000 -34.3329 0.0000
# 4 0.0000 0.0000 0.0000 29.1671 0.0000 4.6625
# 5 -38.6500 -15.5977 -34.3329 0.0000 47.8326 0.0000
# 6 0.0000 0.0000 0.0000 4.6625 0.0000 36.5063
#
#
#
# Elastic Compliance Matrix: (Units=1/GPa)
#
#
# Indices 1 2 3 4 5 6 
#
# 1 0.026839 -0.007269 0.006348 0.000000 0.023873 0.000000
# 2 -0.007269 0.013056 -0.002950 0.000000 -0.003734 0.000000
# 3 0.006348 -0.002950 0.009267 0.000000 0.010819 0.000000
# 4 0.000000 0.000000 0.000000 0.035000 0.000000 -0.004470
# 5 0.023873 -0.003734 0.010819 0.000000 0.046744 0.000000
# 6 0.000000 0.000000 0.000000 -0.004470 0.000000 0.027963
#
#
# Mechanical properties :
#
#
# Convention : Reuss Voigt Hill
#
# Bulk Modulus (GPa) = 24.14343 50.46951 37.30647
# Shear Modulus (GPa) = 27.71343 40.89182 34.30263
#
# Velocity S-wave (km/s) = 3.27282 3.97553 3.64116
# Velocity P-wave (km/s) = 4.85935 6.37022 5.66538
#
# Compressibility (1/GPa) = 0.04141913
#
# Stress axis : x y z
#
# Youngs Moduli (GPa) = 37.25921 76.59213 107.91330
#
# Poissons Ratio (x) = 0.55675 -0.68502
# Poissons Ratio (y) = 0.27084 0.31837
# Poissons Ratio (z) = -0.23652 0.22597
#
# Static dielectric constant tensor:
#      x y z
#    x 5.065080 0.000000 -0.209950 
#    y 0.000000 4.569060 0.000000 
#    z -0.209950 0.000000 5.204960 
# 
# 
# High freq. dielectric constant tensor:
#      x y z
#    x 2.034710 0.000000 0.000200 
#    y 0.000000 2.019780 0.000000 
#    z 0.000200 0.000000 2.065500 
# 
# From -- ./inp_files/64380.got.cif
#   From: 2010.06.25/outbox.cif.g09.slc.cpg/sg15_33_cif.got.tgz:64380.got - 2010.06.28 07:06:18.
