data_PCOD8155536
_publ_section_title
;
Structure prediction by ZEFSAII (Michael W. Deem and Ramdas Pophale) SiO2 
 PCOD8155536
Probable space group: P 2 2 21
;
_chemical_formula_sum "Si O2"
_cell_formula_units_Z 32
_cell_length_a 9.191495
_cell_length_b 11.703342
_cell_length_c 13.806070
_cell_angle_alpha 90.000000
_cell_angle_beta 90.000000
_cell_angle_gamma 90.000000
_cell_volume 1485.135648
_symmetry_space_group_name_H-M "P 2 2 21"
_symmetry_group_IT_number 17
_symmetry_cell_setting 'orthorhombic'
loop_
_space_group_symop_operation_xyz
x,y,z
-x,-y,1/2+z
x,-y,-z
-x,y,1/2-z
loop_
_atom_site_type_symbol
_atom_site_label
_atom_site_fract_x
_atom_site_fract_y
_atom_site_fract_z
Si Si1 0.977693 0.862793 0.980459
Si Si2 0.241689 0.237788 0.621896
Si Si3 0.827249 0.048919 0.738572
Si Si4 0.663504 0.628715 0.291077
Si Si5 0.231570 0.813336 0.689747
Si Si6 0.269093 0.175250 0.940656
Si Si7 0.639654 0.625636 0.684447
Si Si8 0.527994 0.771339 0.959744
O O1 0.910590 0.822429 0.878178
O O2 0.143000 0.818394 0.977836
O O3 0.906233 0.785666 0.064693
O O4 0.953712 0.000000 0.000000
O O5 0.268139 0.121982 0.684666
O O6 0.229367 0.339812 0.700601
O O7 0.367983 0.272061 0.546131
O O8 0.788007 0.077860 0.629421
O O9 0.000000 0.066201 0.750000
O O10 0.774362 0.920057 0.740285
O O11 0.500000 0.646456 0.250000
O O12 0.697591 0.707664 0.383118
O O13 0.702423 0.501623 0.327244
O O14 0.239712 0.702044 0.758599
O O15 0.377181 0.825433 0.625244
O O16 0.418103 0.136035 0.993577
O O17 0.500000 0.615797 0.750000
O O18 0.583088 0.673555 0.580914
#
# Coordination Sequence:
#
# PCOD8155536 Si02
#       8
#     4   4   4   4   4   4   4   4
#     4  11  21  41  63  92 132 174 217 267 327 403
#     4  10  20  39  65  98 120 167 222 272 324 391
#     4  11  21  40  66  91 132 179 214 264 339 400
#     4  10  20  40  68  95 128 164 222 279 341 384
#     4  10  22  43  64  91 131 176 219 260 333 403
#     4  11  23  39  65  99 124 168 222 271 338 391
#     4   9  21  43  63  93 129 176 214 270 343 391
#     4  10  22  41  61  98 130 160 218 282 321 389
#
# _framework density 21.546852000000001
#
# number of rings (size 3 to 8) (size 9 to 14) (size 15 to 20)
#    0.000    1.750    3.750    0.000    0.000    2.500 
#   13.500    1.875   11.000    0.000    0.000    0.000 
#    0.000    0.000    0.000    0.000    0.000    0.000 
#
# Total GULP energy -396445.909121 kJ/mol
# GULP energy per Si atom -12388.934660 kJ/mol
# Density = 2.149781 g / cm^3
# Si number density = 21.546852 Si / 1000 Ang^3
#
#
#
# Elastic Constant Matrix: (Units=GPa)
#
#
# Indices 1 2 3 4 5 6 
#
# 1 99.0098 45.6300 48.8408 0.0000 0.0000 0.0000
# 2 45.6300 125.0561 43.3148 0.0000 0.0000 0.0000
# 3 48.8408 43.3148 82.6658 0.0000 0.0000 0.0000
# 4 0.0000 0.0000 0.0000 11.8276 0.0000 0.0000
# 5 0.0000 0.0000 0.0000 0.0000 29.2207 0.0000
# 6 0.0000 0.0000 0.0000 0.0000 0.0000 24.7905
#
#
#
# Elastic Compliance Matrix: (Units=1/GPa)
#
#
# Indices 1 2 3 4 5 6 
#
# 1 0.015099 -0.002956 -0.007372 0.000000 0.000000 0.000000
# 2 -0.002956 0.010348 -0.003676 0.000000 0.000000 0.000000
# 3 -0.007372 -0.003676 0.018378 0.000000 0.000000 0.000000
# 4 0.000000 0.000000 0.000000 0.084548 0.000000 0.000000
# 5 0.000000 0.000000 0.000000 0.000000 0.034222 0.000000
# 6 0.000000 0.000000 0.000000 0.000000 0.000000 0.040338
#
#
# Mechanical properties :
#
#
# Convention : Reuss Voigt Hill
#
# Bulk Modulus (GPa) = 63.21818 64.70034 63.95926
# Shear Modulus (GPa) = 21.16733 24.43084 22.79908
#
# Velocity S-wave (km/s) = 3.13770 3.37092 3.25640
# Velocity P-wave (km/s) = 6.52154 6.72635 6.62473
#
# Compressibility (1/GPa) = 0.01581823
#
# Stress axis : x y z
#
# Youngs Moduli (GPa) = 66.23070 96.63643 54.41175
#
# Poissons Ratio (x) = 0.28564 0.40112
# Poissons Ratio (y) = 0.19577 0.20000
# Poissons Ratio (z) = 0.48825 0.35521
#
# Static dielectric constant tensor:
#      x y z
#    x 3.967820 0.000000 0.000000 
#    y 0.000000 3.927130 0.000000 
#    z 0.000000 0.000000 4.227220 
# 
# 
# High freq. dielectric constant tensor:
#      x y z
#    x 1.838630 0.000000 0.000000 
#    y 0.000000 1.815030 0.000000 
#    z 0.000000 0.000000 1.871320 
# 
# From -- ./inp_files/8312.got.cif
#   From: 2010.03.12/outbox.cif.g09.slc.cpg/sg17_5_cif.got.tgz:8312.got - 2010.04.10 18:46:23.
