data_PCOD8155527
_publ_section_title
;
Structure prediction by ZEFSAII (Michael W. Deem and Ramdas Pophale) SiO2 
 PCOD8155527
Probable space group: P 2 2 21
;
_chemical_formula_sum "Si O2"
_cell_formula_units_Z 18
_cell_length_a 5.305205
_cell_length_b 7.458913
_cell_length_c 23.614932
_cell_angle_alpha 90.000000
_cell_angle_beta 90.000000
_cell_angle_gamma 90.000000
_cell_volume 934.467951
_symmetry_space_group_name_H-M "P 2 2 21"
_symmetry_group_IT_number 17
_symmetry_cell_setting 'orthorhombic'
loop_
_space_group_symop_operation_xyz
x,y,z
-x,-y,1/2+z
x,-y,-z
-x,y,1/2-z
loop_
_atom_site_type_symbol
_atom_site_label
_atom_site_fract_x
_atom_site_fract_y
_atom_site_fract_z
Si Si1 0.500000 0.251506 0.250000
Si Si2 0.122902 0.486229 0.190344
Si Si3 0.628101 0.939881 0.064024
Si Si4 0.117898 0.169541 0.884396
Si Si5 0.846582 0.152004 0.157458
O O1 0.380175 0.379442 0.202010
O O2 0.705132 0.127313 0.218097
O O3 0.000000 0.540654 0.250000
O O4 0.943989 0.355462 0.153635
O O5 0.176634 0.663066 0.155137
O O6 0.357861 0.849483 0.074492
O O7 0.657212 0.113967 0.104966
O O8 0.861699 0.803995 0.078217
O O9 0.648084 0.000000 0.000000
O O10 0.077719 0.991796 0.845204
#
# Coordination Sequence:
#
# PCOD8155527 Si02
#       5
#     2   4   4   4   4
#     4  10  20  38  64  90 134 160 204 252 320 372
#     4  10  22  38  60  94 129 162 200 255 308 380
#     4  10  22  43  68  87 122 166 214 259 306 365
#     4  10  23  40  66  90 123 162 207 253 313 362
#     4   9  22  39  63  89 127 165 201 258 308 373
#
# _framework density 19.262298000000001
#
# number of rings (size 3 to 8) (size 9 to 14) (size 15 to 20)
#    1.333    0.889    0.000    2.000    6.222    4.444 
#    0.000    2.222    0.000    0.000    0.000    0.000 
#    0.000    0.000    0.000    0.000    0.000    0.000 
#
# Total GULP energy -223034.238956 kJ/mol
# GULP energy per Si atom -12390.791053 kJ/mol
# Density = 1.921846 g / cm^3
# Si number density = 19.262298 Si / 1000 Ang^3
#
#
#
# Elastic Constant Matrix: (Units=GPa)
#
#
# Indices 1 2 3 4 5 6 
#
# 1 116.5676 13.4631 33.3104 0.0000 0.0000 0.0000
# 2 13.4631 68.0644 48.5462 0.0000 0.0000 0.0000
# 3 33.3104 48.5462 96.7275 0.0000 0.0000 0.0000
# 4 0.0000 0.0000 0.0000 20.5514 0.0000 0.0000
# 5 0.0000 0.0000 0.0000 0.0000 30.5580 0.0000
# 6 0.0000 0.0000 0.0000 0.0000 0.0000 8.2781
#
#
#
# Elastic Compliance Matrix: (Units=1/GPa)
#
#
# Indices 1 2 3 4 5 6 
#
# 1 0.009537 0.000710 -0.003641 0.000000 0.000000 0.000000
# 2 0.000710 0.022936 -0.011756 0.000000 0.000000 0.000000
# 3 -0.003641 -0.011756 0.017492 0.000000 0.000000 0.000000
# 4 0.000000 0.000000 0.000000 0.048658 0.000000 0.000000
# 5 0.000000 0.000000 0.000000 0.000000 0.032725 0.000000
# 6 0.000000 0.000000 0.000000 0.000000 0.000000 0.120801
#
#
# Mechanical properties :
#
#
# Convention : Reuss Voigt Hill
#
# Bulk Modulus (GPa) = 48.56095 52.44430 50.50263
# Shear Modulus (GPa) = 17.33780 24.28016 20.80898
#
# Velocity S-wave (km/s) = 3.00340 3.55421 3.29035
# Velocity P-wave (km/s) = 6.10675 6.64294 6.38048
#
# Compressibility (1/GPa) = 0.02059268
#
# Stress axis : x y z
#
# Youngs Moduli (GPa) = 104.85394 43.59891 57.16789
#
# Poissons Ratio (x) = -0.03097 0.20814
# Poissons Ratio (y) = -0.07448 0.67207
# Poissons Ratio (z) = 0.38176 0.51255
#
# Static dielectric constant tensor:
#      x y z
#    x 3.699990 0.000000 0.000000 
#    y 0.000000 3.203260 0.000000 
#    z 0.000000 0.000000 3.357560 
# 
# 
# High freq. dielectric constant tensor:
#      x y z
#    x 1.765480 0.000000 0.000000 
#    y 0.000000 1.721770 0.000000 
#    z 0.000000 0.000000 1.734490 
# 
# From -- ./inp_files/9990.got.cif
#   From: 2010.03.12/outbox.cif.g09.slc.cpg/sg17_5_cif.got.tgz:9990.got - 2010.04.10 18:46:23.
