data_PCOD8155872
_publ_section_title
;
Structure prediction by ZEFSAII (Michael W. Deem and Ramdas Pophale) SiO2 
 PCOD8155872
Probable space group: P 21 21 2
;
_chemical_formula_sum "Si O2"
_cell_formula_units_Z 30
_cell_length_a 15.190448
_cell_length_b 8.003750
_cell_length_c 11.169343
_cell_angle_alpha 90.000000
_cell_angle_beta 90.000000
_cell_angle_gamma 90.000000
_cell_volume 1357.974845
_symmetry_space_group_name_H-M "P 21 21 2"
_symmetry_group_IT_number 18
_symmetry_cell_setting 'orthorhombic'
loop_
_space_group_symop_operation_xyz
x,y,z
-x,-y,z
1/2+x,1/2-y,-z
1/2-x,1/2+y,-z
loop_
_atom_site_type_symbol
_atom_site_label
_atom_site_fract_x
_atom_site_fract_y
_atom_site_fract_z
Si Si1 0.114776 0.337526 0.408836
Si Si2 0.685385 0.383361 0.022546
Si Si3 0.694948 0.039318 0.159673
Si Si4 0.064785 0.706995 0.480552
Si Si5 0.500000 0.500000 0.088617
Si Si6 0.079348 0.729142 0.750621
Si Si7 0.251361 0.939214 0.755184
Si Si8 0.253757 0.272772 0.609317
O O1 0.088306 0.519275 0.451655
O O2 0.156634 0.342965 0.274320
O O3 0.187239 0.268578 0.499375
O O4 0.023615 0.231264 0.409846
O O5 0.680787 0.193148 0.068296
O O6 0.587639 0.464479 0.010882
O O7 0.747506 0.490476 0.111144
O O8 0.735495 0.403701 0.895950
O O9 0.731737 0.092776 0.288523
O O10 0.601031 0.947805 0.183324
O O11 0.037469 0.711720 0.620239
O O12 0.148322 0.818309 0.439980
O O13 0.511926 0.663703 0.170344
O O14 0.171391 0.818606 0.729834
O O15 0.246103 0.088613 0.660997
#
# Coordination Sequence:
#
# PCOD8155872 Si02
#       8
#     4   4   4   4   2   4   4   4
#     4  10  19  35  57  92 127 165 212 263 321 395
#     4  10  22  42  64  92 123 171 218 276 323 389
#     4  11  23  42  69  89 126 176 221 261 341 393
#     4  10  21  33  61  93 130 166 211 264 329 392
#     4  10  24  38  62  96 128 156 220 282 314 384
#     4  11  21  37  61  93 127 166 209 272 327 393
#     4   9  20  36  57  83 127 165 211 263 323 378
#     4  10  20  38  60  94 127 171 216 270 325 401
#
# _framework density 22.091721
#
# number of rings (size 3 to 8) (size 9 to 14) (size 15 to 20)
#    0.000    1.867    2.667    1.600    5.600    0.533 
#    0.000    2.667    0.000    8.000    0.000    0.000 
#    0.000    0.000    0.000    0.000    0.000    0.000 
#
# Total GULP energy -371811.856952 kJ/mol
# GULP energy per Si atom -12393.728565 kJ/mol
# Density = 2.204144 g / cm^3
# Si number density = 22.091721 Si / 1000 Ang^3
#
#
#
# Elastic Constant Matrix: (Units=GPa)
#
#
# Indices 1 2 3 4 5 6 
#
# 1 119.8281 8.8802 23.7272 0.0000 0.0000 0.0000
# 2 8.8802 46.4476 13.1953 0.0000 0.0000 0.0000
# 3 23.7272 13.1953 48.1306 0.0000 0.0000 0.0000
# 4 0.0000 0.0000 0.0000 23.8098 0.0000 0.0000
# 5 0.0000 0.0000 0.0000 0.0000 29.8907 0.0000
# 6 0.0000 0.0000 0.0000 0.0000 0.0000 29.9393
#
#
#
# Elastic Compliance Matrix: (Units=1/GPa)
#
#
# Indices 1 2 3 4 5 6 
#
# 1 0.009259 -0.000513 -0.004424 0.000000 0.000000 0.000000
# 2 -0.000513 0.023377 -0.006156 0.000000 0.000000 0.000000
# 3 -0.004424 -0.006156 0.024645 0.000000 0.000000 0.000000
# 4 0.000000 0.000000 0.000000 0.041999 0.000000 0.000000
# 5 0.000000 0.000000 0.000000 0.000000 0.033455 0.000000
# 6 0.000000 0.000000 0.000000 0.000000 0.000000 0.033401
#
#
# Mechanical properties :
#
#
# Convention : Reuss Voigt Hill
#
# Bulk Modulus (GPa) = 28.49400 34.00131 31.24765
# Shear Modulus (GPa) = 24.99735 27.96821 26.48278
#
# Velocity S-wave (km/s) = 3.36747 3.56196 3.46607
# Velocity P-wave (km/s) = 5.29583 5.68692 5.49486
#
# Compressibility (1/GPa) = 0.03509511
#
# Stress axis : x y z
#
# Youngs Moduli (GPa) = 107.99944 42.77783 40.57569
#
# Poissons Ratio (x) = 0.02197 0.17950
# Poissons Ratio (y) = 0.05546 0.24977
# Poissons Ratio (z) = 0.47777 0.26333
#
# Static dielectric constant tensor:
#      x y z
#    x 4.749490 0.000000 0.000000 
#    y 0.000000 4.068060 0.000000 
#    z 0.000000 0.000000 3.961580 
# 
# 
# High freq. dielectric constant tensor:
#      x y z
#    x 1.872520 0.000000 0.000000 
#    y 0.000000 1.870110 0.000000 
#    z 0.000000 0.000000 1.855340 
# 
# From -- ./inp_files/6087.got.cif
#   From: 2010.03.12/outbox.cif.g09.slc.cpg/sg18_4_cif.got.tgz:6087.got - 2010.04.10 18:53:55.
