data_PCOD8155145
_publ_section_title
;
Structure prediction by ZEFSAII (Michael W. Deem and Ramdas Pophale) SiO2 
 PCOD8155145
Probable space group: C 2/C
;
_chemical_formula_sum "Si O2"
_cell_formula_units_Z 36
_cell_length_a 7.656131
_cell_length_b 17.372694
_cell_length_c 9.965935
_cell_angle_alpha 90.000000
_cell_angle_beta 69.733737
_cell_angle_gamma 90.000000
_cell_volume 1243.484846
_symmetry_space_group_name_H-M "C 2/C"
_symmetry_group_IT_number 15
_symmetry_cell_setting 'monoclinic'
loop_
_space_group_symop_operation_xyz
x,y,z
-x,y,1/2-z
-x,-y,-z
x,-y,1/2+z
1/2+x,1/2+y,z
1/2-x,1/2+y,1/2-z
1/2-x,1/2-y,-z
1/2+x,1/2-y,1/2+z
loop_
_atom_site_type_symbol
_atom_site_label
_atom_site_fract_x
_atom_site_fract_y
_atom_site_fract_z
Si Si1 0.053801 0.818602 0.424635
Si Si2 0.000000 0.406737 0.750000
Si Si3 0.746550 0.057526 0.956249
Si Si4 0.197940 0.113770 0.137239
Si Si5 0.377097 0.803315 0.155116
O O1 0.937262 0.896949 0.434122
O O2 0.839985 0.793308 0.240021
O O3 0.917680 0.753313 0.519604
O O4 0.216538 0.841554 0.490412
O O5 0.864697 0.459882 0.876547
O O6 0.862333 0.355278 0.691769
O O7 0.606365 0.108802 0.901912
O O8 0.790898 0.978188 0.872653
O O9 0.000000 0.138812 0.250000
O O10 0.500000 0.784242 0.250000
#
# Coordination Sequence:
#
# PCOD8155145 Si02
#       5
#     8   4   8   8   8
#     4  12  27  52  80 116 164 217 269 336 406 485
#     4  12  28  46  80 116 164 206 268 326 416 472
#     4  12  28  47  82 116 166 206 276 338 408 480
#     4  12  26  51  82 116 161 214 269 340 405 483
#     4  12  28  47  79 116 162 214 274 328 407 487
#
# _framework density 28.950894999999999
#
# number of rings (size 3 to 8) (size 9 to 14) (size 15 to 20)
#    0.000    0.000    2.222    6.667    7.778    0.000 
#    0.000    0.000    0.000    0.000    0.000    0.000 
#    0.000    0.000    0.000    0.000    0.000    0.000 
#
# Total GULP energy -223224.947965 kJ/mol
# GULP energy per Si atom -12401.385998 kJ/mol
# Density = 2.888500 g / cm^3
# Si number density = 28.950895 Si / 1000 Ang^3
#
#
#
# Elastic Constant Matrix: (Units=GPa)
#
#
# Indices 1 2 3 4 5 6 
#
# 1 137.4639 9.0557 22.5504 0.0000 -7.7464 0.0000
# 2 9.0557 150.1718 41.5325 0.0000 -17.8589 0.0000
# 3 22.5504 41.5325 122.5900 0.0000 -56.8547 0.0000
# 4 0.0000 0.0000 0.0000 50.7225 0.0000 25.0283
# 5 -7.7464 -17.8589 -56.8547 0.0000 61.5657 0.0000
# 6 0.0000 0.0000 0.0000 25.0283 0.0000 87.5015
#
#
#
# Elastic Compliance Matrix: (Units=1/GPa)
#
#
# Indices 1 2 3 4 5 6 
#
# 1 0.007513 -0.000072 -0.001625 0.000000 -0.000576 0.000000
# 2 -0.000072 0.007351 -0.002611 0.000000 -0.000287 0.000000
# 3 -0.001625 -0.002611 0.015558 0.000000 0.013406 0.000000
# 4 0.000000 0.000000 0.000000 0.022955 0.000000 -0.006566
# 5 -0.000576 -0.000287 0.013406 0.000000 0.028467 0.000000
# 6 0.000000 0.000000 0.000000 -0.006566 0.000000 0.013306
#
#
# Mechanical properties :
#
#
# Convention : Reuss Voigt Hill
#
# Bulk Modulus (GPa) = 45.85603 61.83365 53.84484
# Shear Modulus (GPa) = 45.03088 62.43043 53.73065
#
# Velocity S-wave (km/s) = 3.94816 4.64877 4.31272
# Velocity P-wave (km/s) = 6.05455 7.08655 6.59078
#
# Compressibility (1/GPa) = 0.02180738
#
# Stress axis : x y z
#
# Youngs Moduli (GPa) = 133.09420 136.03215 64.27625
#
# Poissons Ratio (x) = 0.00982 0.10444
# Poissons Ratio (y) = 0.00961 0.16780
# Poissons Ratio (z) = 0.21625 0.35512
#
# Static dielectric constant tensor:
#      x y z
#    x 5.724130 0.000000 0.009840 
#    y 0.000000 4.777790 0.000000 
#    z 0.009840 0.000000 5.907150 
# 
# 
# High freq. dielectric constant tensor:
#      x y z
#    x 2.197860 0.000000 -0.006690 
#    y 0.000000 2.160530 0.000000 
#    z -0.006690 0.000000 2.197110 
# 
# From -- ./inp_files/77341.got.cif
#   From: 2010.06.25/outbox.cif.g09.slc.cpg/sg15_39_cif.got.tgz:77341.got - 2010.06.28 07:06:18.
