data_PCOD8155752
_publ_section_title
;
Structure prediction by ZEFSAII (Michael W. Deem and Ramdas Pophale) SiO2 
 PCOD8155752
Probable space group: P 2 2 21
;
_chemical_formula_sum "Si O2"
_cell_formula_units_Z 10
_cell_length_a 8.526424
_cell_length_b 11.139055
_cell_length_c 4.617849
_cell_angle_alpha 90.000000
_cell_angle_beta 90.000000
_cell_angle_gamma 90.000000
_cell_volume 438.586239
_symmetry_space_group_name_H-M "P 2 2 21"
_symmetry_group_IT_number 17
_symmetry_cell_setting 'orthorhombic'
loop_
_space_group_symop_operation_xyz
x,y,z
-x,-y,1/2+z
x,-y,-z
-x,y,1/2-z
loop_
_atom_site_type_symbol
_atom_site_label
_atom_site_fract_x
_atom_site_fract_y
_atom_site_fract_z
Si Si1 0.845572 0.366702 0.099532
Si Si2 0.343799 0.714193 0.089447
Si Si3 0.500000 0.919139 0.750000
O O1 0.706130 0.377106 0.335921
O O2 0.000000 0.309458 0.250000
O O3 0.886700 0.500000 0.000000
O O4 0.793626 0.281466 0.831658
O O5 0.500000 0.668144 0.250000
O O6 0.371003 0.841086 0.924926
O O7 0.416719 0.000000 0.500000
#
# Coordination Sequence:
#
# PCOD8155752 Si02
#       3
#     4   4   2
#     4  12  25  44  65  98 147 191 219 262 341 415
#     4  12  23  44  67 107 128 180 234 287 327 397
#     4  12  22  44  72 102 132 174 228 296 362 392
#
# _framework density 22.800533000000001
#
# number of rings (size 3 to 8) (size 9 to 14) (size 15 to 20)
#    0.000    0.000    6.000    4.800    0.000    3.200 
#    3.600    0.000    0.000    7.200   10.400    0.000 
#    0.000    0.000    0.000    0.000    0.000    0.000 
#
# Total GULP energy -123889.764426 kJ/mol
# GULP energy per Si atom -12388.976443 kJ/mol
# Density = 2.274864 g / cm^3
# Si number density = 22.800533 Si / 1000 Ang^3
#
#
#
# Elastic Constant Matrix: (Units=GPa)
#
#
# Indices 1 2 3 4 5 6 
#
# 1 91.1880 55.2054 77.5153 0.0000 0.0000 0.0000
# 2 55.2054 71.2259 65.5748 0.0000 0.0000 0.0000
# 3 77.5153 65.5748 213.4043 0.0000 0.0000 0.0000
# 4 0.0000 0.0000 0.0000 66.6077 0.0000 0.0000
# 5 0.0000 0.0000 0.0000 0.0000 74.0121 0.0000
# 6 0.0000 0.0000 0.0000 0.0000 0.0000 10.6834
#
#
#
# Elastic Compliance Matrix: (Units=1/GPa)
#
#
# Indices 1 2 3 4 5 6 
#
# 1 0.022860 -0.014048 -0.003987 0.000000 0.000000 0.000000
# 2 -0.014048 0.028211 -0.003566 0.000000 0.000000 0.000000
# 3 -0.003987 -0.003566 0.007230 0.000000 0.000000 0.000000
# 4 0.000000 0.000000 0.000000 0.015013 0.000000 0.000000
# 5 0.000000 0.000000 0.000000 0.000000 0.013511 0.000000
# 6 0.000000 0.000000 0.000000 0.000000 0.000000 0.093603
#
#
# Mechanical properties :
#
#
# Convention : Reuss Voigt Hill
#
# Bulk Modulus (GPa) = 66.22711 85.82327 76.02519
# Shear Modulus (GPa) = 21.86628 42.09549 31.98089
#
# Velocity S-wave (km/s) = 3.10017 4.30146 3.74924
# Velocity P-wave (km/s) = 6.47488 7.89891 7.22208
#
# Compressibility (1/GPa) = 0.01509956
#
# Stress axis : x y z
#
# Youngs Moduli (GPa) = 43.74474 35.44725 138.31416
#
# Poissons Ratio (x) = 0.49795 0.55145
# Poissons Ratio (y) = 0.61451 0.49325
# Poissons Ratio (z) = 0.17441 0.12641
#
# Static dielectric constant tensor:
#      x y z
#    x 4.083810 0.000000 0.000000 
#    y 0.000000 3.868310 0.000000 
#    z 0.000000 0.000000 5.065460 
# 
# 
# High freq. dielectric constant tensor:
#      x y z
#    x 1.874800 0.000000 0.000000 
#    y 0.000000 1.854240 0.000000 
#    z 0.000000 0.000000 1.959160 
# 
# From -- ./inp_files/446.got.cif
#   From: 2010.03.12/outbox.cif.g09.slc.cpg/sg17_1_cif.got.tgz:446.got - 2010.04.10 18:46:23.
