data_PCOD8155222
_publ_section_title
;
Structure prediction by ZEFSAII (Michael W. Deem and Ramdas Pophale) SiO2 
 PCOD8155222
Probable space group: P 2 2 2
;
_chemical_formula_sum "Si O2"
_cell_formula_units_Z 32
_cell_length_a 14.141900
_cell_length_b 14.792147
_cell_length_c 8.539504
_cell_angle_alpha 90.000000
_cell_angle_beta 90.000000
_cell_angle_gamma 90.000000
_cell_volume 1786.370846
_symmetry_space_group_name_H-M "P 2 2 2"
_symmetry_group_IT_number 16
_symmetry_cell_setting 'orthorhombic'
loop_
_space_group_symop_operation_xyz
x,y,z
-x,-y,z
x,-y,-z
-x,y,-z
loop_
_atom_site_type_symbol
_atom_site_label
_atom_site_fract_x
_atom_site_fract_y
_atom_site_fract_z
Si Si1 0.844145 0.236551 0.192805
Si Si2 0.701483 0.333065 0.689775
Si Si3 0.317343 0.670864 0.319716
Si Si4 0.872854 0.259183 0.828143
Si Si5 0.022347 0.382402 0.680650
Si Si6 0.808646 0.493308 0.315102
Si Si7 0.009037 0.098589 0.816892
Si Si8 0.506048 0.396273 0.815228
O O1 0.733010 0.241026 0.239957
O O2 0.896634 0.306510 0.307340
O O3 0.886614 0.136990 0.225183
O O4 0.866345 0.263446 0.014502
O O5 0.685656 0.323338 0.506173
O O6 0.766984 0.250998 0.753938
O O7 0.765639 0.415670 0.753524
O O8 0.600590 0.343196 0.769955
O O9 0.259592 0.585580 0.252115
O O10 0.424309 0.663579 0.262550
O O11 0.929723 0.350956 0.776500
O O12 0.929077 0.170958 0.764513
O O13 0.079682 0.476149 0.732309
O O14 0.000000 0.392821 0.500000
O O15 0.799557 0.500000 0.500000
O O16 0.000000 0.000000 0.733987
O O17 0.000000 0.084560 0.000000
O O18 0.500000 0.500000 0.750805
O O19 0.500000 0.396621 0.000000
#
# Coordination Sequence:
#
# PCOD8155222 Si02
#       8
#     4   4   4   4   4   4   4   4
#     4   9  18  32  50  72 100 126 162 210 252 289
#     4  11  21  33  51  69  93 133 171 207 248 299
#     4  10  19  34  51  70  95 130 173 208 247 299
#     4  10  19  31  48  73 101 127 162 209 251 292
#     4  10  18  30  46  63  91 130 170 202 240 290
#     4   9  18  29  44  64  86 124 171 206 232 280
#     4   8  15  30  53  77 102 134 165 196 241 301
#     4  11  22  35  52  73  98 126 167 223 265 286
#
# _framework density 17.913414
#
# number of rings (size 3 to 8) (size 9 to 14) (size 15 to 20)
#    0.000    2.250    1.250    4.500    0.000    2.250 
#    0.000    0.000    0.000   28.500    0.000    0.875 
#    0.000    7.000    0.000    0.000    0.000    0.000 
#
# Total GULP energy -396469.622049 kJ/mol
# GULP energy per Si atom -12389.675689 kJ/mol
# Density = 1.787264 g / cm^3
# Si number density = 17.913414 Si / 1000 Ang^3
#
#
#
# Elastic Constant Matrix: (Units=GPa)
#
#
# Indices 1 2 3 4 5 6 
#
# 1 162.8972 60.5195 33.4694 0.0000 0.0000 0.0000
# 2 60.5195 78.7953 34.4791 0.0000 0.0000 0.0000
# 3 33.4694 34.4791 55.5442 0.0000 0.0000 0.0000
# 4 0.0000 0.0000 0.0000 9.6132 0.0000 0.0000
# 5 0.0000 0.0000 0.0000 0.0000 30.1349 0.0000
# 6 0.0000 0.0000 0.0000 0.0000 0.0000 13.1636
#
#
#
# Elastic Compliance Matrix: (Units=1/GPa)
#
#
# Indices 1 2 3 4 5 6 
#
# 1 0.008680 -0.006011 -0.001499 0.000000 0.000000 0.000000
# 2 -0.006011 0.021586 -0.009778 0.000000 0.000000 0.000000
# 3 -0.001499 -0.009778 0.024977 0.000000 0.000000 0.000000
# 4 0.000000 0.000000 0.000000 0.104024 0.000000 0.000000
# 5 0.000000 0.000000 0.000000 0.000000 0.033184 0.000000
# 6 0.000000 0.000000 0.000000 0.000000 0.000000 0.075967
#
#
# Mechanical properties :
#
#
# Convention : Reuss Voigt Hill
#
# Bulk Modulus (GPa) = 48.38516 61.57474 54.97995
# Shear Modulus (GPa) = 16.13517 21.83360 18.98438
#
# Velocity S-wave (km/s) = 3.00447 3.49498 3.25897
# Velocity P-wave (km/s) = 6.25340 7.12283 6.70223
#
# Compressibility (1/GPa) = 0.02066749
#
# Stress axis : x y z
#
# Youngs Moduli (GPa) = 115.20786 46.32577 40.03754
#
# Poissons Ratio (x) = 0.27845 0.06002
# Poissons Ratio (y) = 0.69248 0.39148
# Poissons Ratio (z) = 0.17271 0.45296
#
# Static dielectric constant tensor:
#      x y z
#    x 3.646390 0.000000 0.000000 
#    y 0.000000 3.430980 0.000000 
#    z 0.000000 0.000000 3.156580 
# 
# 
# High freq. dielectric constant tensor:
#      x y z
#    x 1.704000 0.000000 0.000000 
#    y 0.000000 1.650270 0.000000 
#    z 0.000000 0.000000 1.682220 
# 
# From -- ./inp_files/5257.got.cif
#   From: 2010.03.12/outbox.cif.g09.slc.cpg/sg16_3_cif.got.tgz:5257.got - 2010.03.31 00:51:45.
