data_PCOD8155690
_publ_section_title
;
Structure prediction by ZEFSAII (Michael W. Deem and Ramdas Pophale) SiO2 
 PCOD8155690
Probable space group: P 2 2 21
;
_chemical_formula_sum "Si O2"
_cell_formula_units_Z 20
_cell_length_a 5.206900
_cell_length_b 8.835988
_cell_length_c 15.978587
_cell_angle_alpha 90.000000
_cell_angle_beta 90.000000
_cell_angle_gamma 90.000000
_cell_volume 735.144523
_symmetry_space_group_name_H-M "P 2 2 21"
_symmetry_group_IT_number 17
_symmetry_cell_setting 'orthorhombic'
loop_
_space_group_symop_operation_xyz
x,y,z
-x,-y,1/2+z
x,-y,-z
-x,y,1/2-z
loop_
_atom_site_type_symbol
_atom_site_label
_atom_site_fract_x
_atom_site_fract_y
_atom_site_fract_z
Si Si1 0.200101 0.263272 0.390669
Si Si2 0.799899 0.236728 0.609331
Si Si3 0.000000 0.905810 0.750000
Si Si4 0.500000 0.896632 0.250000
Si Si5 0.074307 0.500000 0.000000
Si Si6 0.500000 0.603368 0.750000
Si Si7 0.000000 0.594190 0.250000
Si Si8 0.074307 0.000000 0.500000
O O1 0.969281 0.203433 0.330598
O O2 0.109481 0.420185 0.431817
O O3 0.450586 0.293236 0.332686
O O4 0.255120 0.130761 0.459229
O O5 0.549414 0.206764 0.667314
O O6 0.744880 0.369239 0.540771
O O7 0.030719 0.296567 0.669402
O O8 0.890520 0.079815 0.568183
O O9 0.749397 0.004092 0.766520
O O10 0.250603 0.504092 0.766520
#
# Coordination Sequence:
#
# PCOD8155690 Si02
#       8
#     4   4   2   2   2   2   2   2
#     4  11  24  51  87 124 179 225 293 353 442 511
#     4  11  24  51  87 124 179 225 293 353 442 511
#     4  12  26  50  84 124 164 232 282 352 418 542
#     4  12  26  50  88 122 168 232 286 348 422 544
#     4  10  24  50  90 130 180 218 292 374 440 498
#     4  12  26  50  88 122 168 232 286 348 422 544
#     4  12  26  50  84 124 164 232 282 352 418 542
#     4  10  24  50  90 130 180 218 292 374 440 498
#
# _framework density 27.205532999999999
#
# number of rings (size 3 to 8) (size 9 to 14) (size 15 to 20)
#    0.000    0.800    4.000    2.400    0.000    0.000 
#    0.000    6.000    0.000    0.000    0.000    0.000 
#    0.000    0.000    0.000    0.000    0.000    0.000 
#
# Total GULP energy -247913.464567 kJ/mol
# GULP energy per Si atom -12395.673228 kJ/mol
# Density = 2.714361 g / cm^3
# Si number density = 27.205533 Si / 1000 Ang^3
#
#
#
# Elastic Constant Matrix: (Units=GPa)
#
#
# Indices 1 2 3 4 5 6 
#
# 1 149.7318 86.2965 63.7928 0.0000 0.0000 0.0000
# 2 86.2965 193.9008 87.4076 0.0000 0.0000 0.0000
# 3 63.7928 87.4076 172.1903 0.0000 0.0000 0.0000
# 4 0.0000 0.0000 0.0000 80.9086 0.0000 0.0000
# 5 0.0000 0.0000 0.0000 0.0000 52.8804 0.0000
# 6 0.0000 0.0000 0.0000 0.0000 0.0000 38.9817
#
#
#
# Elastic Compliance Matrix: (Units=1/GPa)
#
#
# Indices 1 2 3 4 5 6 
#
# 1 0.009376 -0.003380 -0.001758 0.000000 0.000000 0.000000
# 2 -0.003380 0.007906 -0.002761 0.000000 0.000000 0.000000
# 3 -0.001758 -0.002761 0.007860 0.000000 0.000000 0.000000
# 4 0.000000 0.000000 0.000000 0.012360 0.000000 0.000000
# 5 0.000000 0.000000 0.000000 0.000000 0.018911 0.000000
# 6 0.000000 0.000000 0.000000 0.000000 0.000000 0.025653
#
#
# Mechanical properties :
#
#
# Convention : Reuss Voigt Hill
#
# Bulk Modulus (GPa) = 107.01751 110.09074 108.55413
# Shear Modulus (GPa) = 49.51552 53.10919 51.31235
#
# Velocity S-wave (km/s) = 4.27084 4.42310 4.34764
# Velocity P-wave (km/s) = 7.98387 8.16329 8.07408
#
# Compressibility (1/GPa) = 0.00934427
#
# Stress axis : x y z
#
# Youngs Moduli (GPa) = 106.65911 126.47959 127.22262
#
# Poissons Ratio (x) = 0.42756 0.22359
# Poissons Ratio (y) = 0.36055 0.35127
# Poissons Ratio (z) = 0.18745 0.34922
#
# Static dielectric constant tensor:
#      x y z
#    x 5.772220 0.000000 0.000000 
#    y 0.000000 5.655290 0.000000 
#    z 0.000000 0.000000 5.712170 
# 
# 
# High freq. dielectric constant tensor:
#      x y z
#    x 2.051010 0.000000 0.000000 
#    y 0.000000 2.132470 0.000000 
#    z 0.000000 0.000000 2.116220 
# 
# From -- ./inp_files/9004.got.cif
#   From: 2010.03.12/outbox.cif.g09.slc.cpg/sg17_5_cif.got.tgz:9004.got - 2010.04.10 18:46:23.
