data_PCOD8155942
_publ_section_title
;
Structure prediction by ZEFSAII (Michael W. Deem and Ramdas Pophale) SiO2 
 PCOD8155942
Probable space group: P 21 21 2
;
_chemical_formula_sum "Si O2"
_cell_formula_units_Z 32
_cell_length_a 8.540533
_cell_length_b 19.146901
_cell_length_c 9.895738
_cell_angle_alpha 90.000000
_cell_angle_beta 90.000000
_cell_angle_gamma 90.000000
_cell_volume 1618.197982
_symmetry_space_group_name_H-M "P 21 21 2"
_symmetry_group_IT_number 18
_symmetry_cell_setting 'orthorhombic'
loop_
_space_group_symop_operation_xyz
x,y,z
-x,-y,z
1/2+x,1/2-y,-z
1/2-x,1/2+y,-z
loop_
_atom_site_type_symbol
_atom_site_label
_atom_site_fract_x
_atom_site_fract_y
_atom_site_fract_z
Si Si1 0.566962 0.426214 0.032583
Si Si2 0.433994 0.785582 0.395568
Si Si3 0.433322 0.073433 0.971605
Si Si4 0.066887 0.074134 0.282671
Si Si5 0.068886 0.784381 0.350597
Si Si6 0.432974 0.073861 0.287078
Si Si7 0.928776 0.713185 0.098937
Si Si8 0.565364 0.710848 0.147395
O O1 0.500000 0.500000 0.081135
O O2 0.750644 0.421797 0.060939
O O3 0.530203 0.414122 0.875261
O O4 0.476797 0.369366 0.121459
O O5 0.251038 0.776916 0.375238
O O6 0.473814 0.765240 0.548380
O O7 0.483270 0.865311 0.370286
O O8 0.526195 0.731577 0.300200
O O9 0.470231 0.083885 0.129366
O O10 0.500000 0.000000 0.920241
O O11 0.524477 0.132258 0.887278
O O12 0.249432 0.076639 0.314728
O O13 0.982167 0.134908 0.367175
O O14 0.000000 0.000000 0.331604
O O15 0.030676 0.759563 0.199840
O O16 0.500000 0.000000 0.338407
O O17 0.747397 0.725182 0.126067
O O18 0.964765 0.738894 0.948255
#
# Coordination Sequence:
#
# PCOD8155942 Si02
#       8
#     4   4   4   4   4   4   4   4
#     4  10  20  35  58  89 124 159 200 250 304 359
#     4  12  25  42  63  89 124 163 205 252 305 362
#     4  10  20  35  58  89 124 159 200 250 304 359
#     4  10  20  36  60  89 122 158 202 248 300 360
#     4  12  25  42  63  89 124 163 205 252 305 362
#     4  10  20  36  60  89 122 158 202 248 300 360
#     4  12  23  38  61  90 122 158 201 249 302 357
#     4  12  23  38  61  90 122 158 201 249 302 357
#
# _framework density 19.775082000000001
#
# number of rings (size 3 to 8) (size 9 to 14) (size 15 to 20)
#    0.000    1.000    2.500    6.000    0.000    2.000 
#    0.000    1.250    0.000    0.000    0.000    0.000 
#    0.000    0.000    0.000    0.000    0.000    0.000 
#
# Total GULP energy -397035.669479 kJ/mol
# GULP energy per Si atom -12407.364671 kJ/mol
# Density = 1.973007 g / cm^3
# Si number density = 19.775082 Si / 1000 Ang^3
#
#
#
# Elastic Constant Matrix: (Units=GPa)
#
#
# Indices 1 2 3 4 5 6 
#
# 1 116.0451 36.3666 7.9080 0.0000 0.0000 0.0000
# 2 36.3666 143.5118 19.0912 0.0000 0.0000 0.0000
# 3 7.9080 19.0912 35.1182 0.0000 0.0000 0.0000
# 4 0.0000 0.0000 0.0000 16.9537 0.0000 0.0000
# 5 0.0000 0.0000 0.0000 0.0000 26.9490 0.0000
# 6 0.0000 0.0000 0.0000 0.0000 0.0000 -2.5163
#
#
#
# Elastic Compliance Matrix: (Units=1/GPa)
#
#
# Indices 1 2 3 4 5 6 
#
# 1 0.009386 -0.002261 -0.000885 0.000000 0.000000 0.000000
# 2 -0.002261 0.008056 -0.003870 0.000000 0.000000 0.000000
# 3 -0.000885 -0.003870 0.030778 0.000000 0.000000 0.000000
# 4 0.000000 0.000000 0.000000 0.058984 0.000000 0.000000
# 5 0.000000 0.000000 0.000000 0.000000 0.037107 0.000000
# 6 0.000000 0.000000 0.000000 0.000000 0.000000 -0.397404
#
#
# Mechanical properties :
#
#
# Convention : Reuss Voigt Hill
#
# Bulk Modulus (GPa) = 29.24907 46.82297 38.03602
# Shear Modulus (GPa) = -21.96215 23.69789 0.86787
#
# Velocity S-wave (km/s) = -3.33618 3.46551 0.66319
# Velocity P-wave (km/s) = 0.13088 6.30414 4.45674
#
# Compressibility (1/GPa) = 0.03418913
#
# Stress axis : x y z
#
# Youngs Moduli (GPa) = 106.54025 124.13373 32.49023
#
# Poissons Ratio (x) = 0.28064 0.02874
# Poissons Ratio (y) = 0.24087 0.12575
# Poissons Ratio (z) = 0.09424 0.48043
#
# Static dielectric constant tensor:
#      x y z
#    x 3.713720 0.000000 0.000000 
#    y 0.000000 3.852680 0.000000 
#    z 0.000000 0.000000 4.231170 
# 
# 
# High freq. dielectric constant tensor:
#      x y z
#    x 1.789550 0.000000 0.000000 
#    y 0.000000 1.790370 0.000000 
#    z 0.000000 0.000000 1.735380 
# 
# From -- ./inp_files/5744.got.cif
#   From: 2010.03.12/outbox.cif.g09.slc.cpg/sg18_3_cif.got.tgz:5744.got - 2010.04.10 18:53:55.
