data_PCOD8155159
_publ_section_title
;
Structure prediction by ZEFSAII (Michael W. Deem and Ramdas Pophale) SiO2 
 PCOD8155159
Probable space group: C 2/C
;
_chemical_formula_sum "Si O2"
_cell_formula_units_Z 24
_cell_length_a 13.126730
_cell_length_b 7.042900
_cell_length_c 16.514491
_cell_angle_alpha 90.000000
_cell_angle_beta 35.269502
_cell_angle_gamma 90.000000
_cell_volume 881.591586
_symmetry_space_group_name_H-M "C 2/C"
_symmetry_group_IT_number 15
_symmetry_cell_setting 'monoclinic'
loop_
_space_group_symop_operation_xyz
x,y,z
-x,y,1/2-z
-x,-y,-z
x,-y,1/2+z
1/2+x,1/2+y,z
1/2-x,1/2+y,1/2-z
1/2-x,1/2-y,-z
1/2+x,1/2-y,1/2+z
loop_
_atom_site_type_symbol
_atom_site_label
_atom_site_fract_x
_atom_site_fract_y
_atom_site_fract_z
Si Si1 0.183650 0.793231 0.172948
Si Si2 0.729333 0.595767 0.816441
Si Si3 0.629538 0.136991 0.517161
O O1 0.297634 0.605315 0.120852
O O2 0.146556 0.910026 0.280192
O O3 0.000000 0.738707 0.250000
O O4 0.300273 0.921594 0.036968
O O5 0.630910 0.762329 0.928810
O O6 0.936688 0.635633 0.678892
O O7 0.750000 0.250000 0.500000
#
# Coordination Sequence:
#
# PCOD8155159 Si02
#       3
#     8   8   8
#     4  12  27  49  78 116 155 205 260 321 391 461
#     4  12  28  51  79 116 159 206 262 324 391 465
#     4  12  27  52  81 117 160 205 263 325 390 466
#
# _framework density 27.223492
#
# number of rings (size 3 to 8) (size 9 to 14) (size 15 to 20)
#    0.000    0.000    3.333    6.000    0.000    9.333 
#    0.000    0.000    0.000    0.000    0.000    0.000 
#    0.000    0.000    0.000    0.000    0.000    0.000 
#
# Total GULP energy -148912.757130 kJ/mol
# GULP energy per Si atom -12409.396428 kJ/mol
# Density = 2.716153 g / cm^3
# Si number density = 27.223492 Si / 1000 Ang^3
#
#
#
# Elastic Constant Matrix: (Units=GPa)
#
#
# Indices 1 2 3 4 5 6 
#
# 1 98.1739 -26.5096 -49.5966 -0.0001 3.0685 0.0000
# 2 -26.5096 129.7784 -10.1347 -0.0001 4.9804 0.0000
# 3 -49.5966 -10.1347 63.8673 -0.0001 6.4874 0.0000
# 4 -0.0001 -0.0001 -0.0001 52.7619 0.0000 16.6305
# 5 3.0685 4.9804 6.4874 0.0000 25.8898 0.0000
# 6 0.0000 0.0000 0.0000 16.6305 0.0000 58.7159
#
#
#
# Elastic Compliance Matrix: (Units=1/GPa)
#
#
# Indices 1 2 3 4 5 6 
#
# 1 0.021435 0.006141 0.018468 0.000000 -0.008350 0.000000
# 2 0.006141 0.009650 0.006734 0.000000 -0.004272 0.000000
# 3 0.018468 0.006734 0.032243 0.000000 -0.011564 0.000000
# 4 0.000000 0.000000 0.000000 0.020811 0.000000 -0.005894
# 5 -0.008350 -0.004272 -0.011564 0.000000 0.043334 0.000000
# 6 0.000000 0.000000 0.000000 -0.005894 0.000000 0.018701
#
#
# Mechanical properties :
#
#
# Convention : Reuss Voigt Hill
#
# Bulk Modulus (GPa) = 7.93553 13.25974 10.59764
# Shear Modulus (GPa) = 39.84355 52.67754 46.26054
#
# Velocity S-wave (km/s) = 3.82982 4.40364 4.12671
# Velocity P-wave (km/s) = 4.74109 5.54412 5.15826
#
# Compressibility (1/GPa) = 0.12601548
#
# Stress axis : x y z
#
# Youngs Moduli (GPa) = 46.65176 103.62997 31.01496
#
# Poissons Ratio (x) = -0.63642 -0.57280
# Poissons Ratio (y) = -0.28650 -0.20886
# Poissons Ratio (z) = -0.86159 -0.69786
#
# Static dielectric constant tensor:
#      x y z
#    x 5.195680 0.000000 0.176030 
#    y 0.000000 5.398430 0.000000 
#    z 0.176030 0.000000 5.017940 
# 
# 
# High freq. dielectric constant tensor:
#      x y z
#    x 2.110260 0.000000 0.002260 
#    y 0.000000 2.112320 0.000000 
#    z 0.002260 0.000000 2.097260 
# 
# From -- ./inp_files/36068.got.cif
#   From: 2010.06.25/outbox.cif.g09.slc.cpg/sg15_19_cif.got.tgz:36068.got - 2010.06.28 07:06:18.
