data_PCOD8155105
_publ_section_title
;
Structure prediction by ZEFSAII (Michael W. Deem and Ramdas Pophale) SiO2 
 PCOD8155105
Probable space group: C 2/C
;
_chemical_formula_sum "Si O2"
_cell_formula_units_Z 28
_cell_length_a 8.911059
_cell_length_b 23.723147
_cell_length_c 9.805464
_cell_angle_alpha 90.000000
_cell_angle_beta 149.174851
_cell_angle_gamma 90.000000
_cell_volume 1062.174097
_symmetry_space_group_name_H-M "C 2/C"
_symmetry_group_IT_number 15
_symmetry_cell_setting 'monoclinic'
loop_
_space_group_symop_operation_xyz
x,y,z
-x,y,1/2-z
-x,-y,-z
x,-y,1/2+z
1/2+x,1/2+y,z
1/2-x,1/2+y,1/2-z
1/2-x,1/2-y,-z
1/2+x,1/2-y,1/2+z
loop_
_atom_site_type_symbol
_atom_site_label
_atom_site_fract_x
_atom_site_fract_y
_atom_site_fract_z
Si Si1 0.158197 0.604014 0.504169
Si Si2 0.080606 0.710441 0.061032
Si Si3 0.000000 0.867777 0.750000
Si Si4 0.258814 0.454368 0.353216
O O1 0.500000 0.602303 0.750000
O O2 0.088101 0.568162 0.585879
O O3 0.049411 0.668338 0.427661
O O4 0.000000 0.575623 0.250000
O O5 0.329443 0.749371 0.314810
O O6 0.216264 0.671874 0.047196
O O7 0.939520 0.904244 0.567164
O O8 0.500000 0.500000 0.500000
O O9 0.000000 0.477659 0.250000
#
# Coordination Sequence:
#
# PCOD8155105 Si02
#       4
#     8   8   4   8
#     4  12  28  54  84 123 179 225 282 353 426 516
#     4  12  26  47  85 126 171 227 280 348 426 506
#     4  12  26  52  82 126 172 218 294 348 432 518
#     4  12  30  56  89 122 169 229 295 361 436 509
#
# _framework density 26.361024
#
# number of rings (size 3 to 8) (size 9 to 14) (size 15 to 20)
#    0.000    0.000    2.857    6.000    2.000    8.000 
#    0.000    1.429    0.000    0.000    0.000    0.000 
#    0.000    0.000    0.000    0.000    0.000    0.000 
#
# Total GULP energy -173652.178881 kJ/mol
# GULP energy per Si atom -12403.727063 kJ/mol
# Density = 2.630102 g / cm^3
# Si number density = 26.361024 Si / 1000 Ang^3
#
#
#
# Elastic Constant Matrix: (Units=GPa)
#
#
# Indices 1 2 3 4 5 6 
#
# 1 176.9134 68.3393 86.5546 0.0000 1.9087 0.0000
# 2 68.3393 154.8594 85.9431 0.0000 -1.8558 0.0000
# 3 86.5546 85.9431 228.6751 0.0000 -9.9615 0.0000
# 4 0.0000 0.0000 0.0000 81.7097 0.0000 -7.2866
# 5 1.9087 -1.8558 -9.9615 0.0000 63.6825 0.0000
# 6 0.0000 0.0000 0.0000 -7.2866 0.0000 152.3183
#
#
#
# Elastic Compliance Matrix: (Units=1/GPa)
#
#
# Indices 1 2 3 4 5 6 
#
# 1 0.007503 -0.002183 -0.002046 0.000000 -0.000609 0.000000
# 2 -0.002183 0.008798 -0.002483 0.000000 -0.000067 0.000000
# 3 -0.002046 -0.002483 0.006122 0.000000 0.000947 0.000000
# 4 0.000000 0.000000 0.000000 0.012291 0.000000 0.000588
# 5 -0.000609 -0.000067 0.000947 0.000000 0.015867 0.000000
# 6 0.000000 0.000000 0.000000 0.000588 0.000000 0.006593
#
#
# Mechanical properties :
#
#
# Convention : Reuss Voigt Hill
#
# Bulk Modulus (GPa) = 111.12584 115.79132 113.45858
# Shear Modulus (GPa) = 67.93536 80.84947 74.39241
#
# Velocity S-wave (km/s) = 5.08204 5.54407 5.31807
# Velocity P-wave (km/s) = 8.75688 9.21969 8.99127
#
# Compressibility (1/GPa) = 0.00899881
#
# Stress axis : x y z
#
# Youngs Moduli (GPa) = 133.27338 113.66016 163.34492
#
# Poissons Ratio (x) = 0.24812 0.33423
# Poissons Ratio (y) = 0.29093 0.40563
# Poissons Ratio (z) = 0.27270 0.28225
#
# Static dielectric constant tensor:
#      x y z
#    x 5.036790 0.000000 0.166770 
#    y 0.000000 5.118780 0.000000 
#    z 0.166770 0.000000 4.524670 
# 
# 
# High freq. dielectric constant tensor:
#      x y z
#    x 2.074700 0.000000 0.014070 
#    y 0.000000 2.076580 0.000000 
#    z 0.014070 0.000000 2.067090 
# 
# From -- ./inp_files/25931.got.cif
#   From: 2010.06.25/outbox.cif.g09.slc.cpg/sg15_13_cif.got.tgz:25931.got - 2010.06.28 07:06:18.
