data_PCOD8155969
_publ_section_title
;
Structure prediction by ZEFSAII (Michael W. Deem and Ramdas Pophale) SiO2 
 PCOD8155969
Probable space group: P 21 21 2
;
_chemical_formula_sum "Si O2"
_cell_formula_units_Z 20
_cell_length_a 12.019251
_cell_length_b 12.408757
_cell_length_c 5.356123
_cell_angle_alpha 90.000000
_cell_angle_beta 90.000000
_cell_angle_gamma 90.000000
_cell_volume 798.833421
_symmetry_space_group_name_H-M "P 21 21 2"
_symmetry_group_IT_number 18
_symmetry_cell_setting 'orthorhombic'
loop_
_space_group_symop_operation_xyz
x,y,z
-x,-y,z
1/2+x,1/2-y,-z
1/2-x,1/2+y,-z
loop_
_atom_site_type_symbol
_atom_site_label
_atom_site_fract_x
_atom_site_fract_y
_atom_site_fract_z
Si Si1 0.369633 0.005015 0.416115
Si Si2 0.213209 0.262113 0.588612
Si Si3 0.316137 0.299773 0.091507
Si Si4 0.956094 0.888942 0.772163
Si Si5 0.265413 0.032865 0.921033
O O1 0.316448 0.887110 0.398100
O O2 0.500000 0.000000 0.464901
O O3 0.312490 0.069280 0.647192
O O4 0.344653 0.067109 0.153201
O O5 0.290439 0.237280 0.350101
O O6 0.100024 0.191231 0.570055
O O7 0.281444 0.229202 0.847134
O O8 0.446846 0.327685 0.079283
O O9 0.237807 0.403778 0.086140
O O10 0.859763 0.922943 0.967876
O O11 0.000000 0.000000 0.640229
#
# Coordination Sequence:
#
# PCOD8155969 Si02
#       5
#     4   4   4   4   4
#     4  10  20  37  58  85 120 158 195 242 301 361
#     4  10  22  38  58  86 118 152 196 245 301 364
#     4   9  21  40  57  82 117 151 194 249 301 351
#     4  10  22  41  65  92 124 164 209 260 310 369
#     4   9  20  36  57  83 114 153 201 244 291 357
#
# _framework density 25.036507
#
# number of rings (size 3 to 8) (size 9 to 14) (size 15 to 20)
#    0.000    2.400    0.000    0.600    0.000    8.000 
#    0.000   13.000    0.000    0.000    0.000    0.000 
#    0.000    0.000    0.000    0.000    0.000    0.000 
#
# Total GULP energy -247937.230975 kJ/mol
# GULP energy per Si atom -12396.861549 kJ/mol
# Density = 2.497952 g / cm^3
# Si number density = 25.036507 Si / 1000 Ang^3
#
#
#
# Elastic Constant Matrix: (Units=GPa)
#
#
# Indices 1 2 3 4 5 6 
#
# 1 163.4399 19.0535 94.8751 0.0000 0.0000 0.0000
# 2 19.0535 55.0831 65.3702 0.0000 0.0000 0.0000
# 3 94.8751 65.3702 209.9708 0.0000 0.0000 0.0000
# 4 0.0000 0.0000 0.0000 37.7590 0.0000 0.0000
# 5 0.0000 0.0000 0.0000 0.0000 25.4462 0.0000
# 6 0.0000 0.0000 0.0000 0.0000 0.0000 51.5677
#
#
#
# Elastic Compliance Matrix: (Units=1/GPa)
#
#
# Indices 1 2 3 4 5 6 
#
# 1 0.008517 0.002571 -0.004649 0.000000 0.000000 0.000000
# 2 0.002571 0.029568 -0.010367 0.000000 0.000000 0.000000
# 3 -0.004649 -0.010367 0.010091 0.000000 0.000000 0.000000
# 4 0.000000 0.000000 0.000000 0.026484 0.000000 0.000000
# 5 0.000000 0.000000 0.000000 0.000000 0.039299 0.000000
# 6 0.000000 0.000000 0.000000 0.000000 0.000000 0.019392
#
#
# Mechanical properties :
#
#
# Convention : Reuss Voigt Hill
#
# Bulk Modulus (GPa) = 42.94378 87.45462 65.19920
# Shear Modulus (GPa) = 30.11979 39.56758 34.84369
#
# Velocity S-wave (km/s) = 3.47224 3.97973 3.73462
# Velocity P-wave (km/s) = 5.76758 7.49162 6.68541
#
# Compressibility (1/GPa) = 0.02328626
#
# Stress axis : x y z
#
# Youngs Moduli (GPa) = 117.40603 33.81979 99.09935
#
# Poissons Ratio (x) = -0.08695 0.46072
# Poissons Ratio (y) = -0.30186 1.02739
# Poissons Ratio (z) = 0.54583 0.35062
#
# Static dielectric constant tensor:
#      x y z
#    x 4.305830 0.000000 0.000000 
#    y 0.000000 4.845390 0.000000 
#    z 0.000000 0.000000 4.718120 
# 
# 
# High freq. dielectric constant tensor:
#      x y z
#    x 1.981690 0.000000 0.000000 
#    y 0.000000 2.044630 0.000000 
#    z 0.000000 0.000000 1.983490 
# 
# From -- ./inp_files/970.got.cif
#   From: 2010.03.12/outbox.cif.g09.slc.cpg/sg18_1_cif.got.tgz:970.got - 2010.04.10 18:53:55.
