data_PCOD8155683
_publ_section_title
;
Structure prediction by ZEFSAII (Michael W. Deem and Ramdas Pophale) SiO2 
 PCOD8155683
Probable space group: P 2 2 21
;
_chemical_formula_sum "Si O2"
_cell_formula_units_Z 18
_cell_length_a 8.148061
_cell_length_b 13.227858
_cell_length_c 7.985036
_cell_angle_alpha 90.000000
_cell_angle_beta 90.000000
_cell_angle_gamma 90.000000
_cell_volume 860.638310
_symmetry_space_group_name_H-M "P 2 2 21"
_symmetry_group_IT_number 17
_symmetry_cell_setting 'orthorhombic'
loop_
_space_group_symop_operation_xyz
x,y,z
-x,-y,1/2+z
x,-y,-z
-x,y,1/2-z
loop_
_atom_site_type_symbol
_atom_site_label
_atom_site_fract_x
_atom_site_fract_y
_atom_site_fract_z
Si Si1 0.680531 0.959010 0.815966
Si Si2 0.171035 0.773386 0.824531
Si Si3 0.587584 0.608261 0.570900
Si Si4 0.828053 0.145700 0.676946
Si Si5 0.500000 0.729337 0.250000
O O1 0.500000 0.975496 0.750000
O O2 0.725946 0.839447 0.810632
O O3 0.808837 0.026835 0.712656
O O4 0.689120 0.000000 0.000000
O O5 0.250395 0.670425 0.887736
O O6 0.000000 0.739008 0.750000
O O7 0.154759 0.848802 0.978944
O O8 0.640771 0.500000 0.500000
O O9 0.500000 0.597342 0.750000
O O10 0.485098 0.663343 0.421807
O O11 0.666822 0.204812 0.745989
O O12 0.000000 0.188836 0.750000
#
# Coordination Sequence:
#
# PCOD8155683 Si02
#       5
#     4   4   4   4   2
#     4  12  24  39  64  99 141 186 231 278 339 420
#     4  11  25  43  65 100 139 179 230 287 353 420
#     4  11  24  45  74  98 133 177 241 296 364 416
#     4  11  23  41  67  97 143 183 230 276 344 416
#     4  10  24  44  66 106 136 184 230 292 346 436
#
# _framework density 20.914711
#
# number of rings (size 3 to 8) (size 9 to 14) (size 15 to 20)
#    0.000    0.889    2.222    4.667    9.333    0.000 
#    0.000    5.556    0.000    0.000    0.000    0.000 
#    0.000    0.000    0.000    0.000    0.000    0.000 
#
# Total GULP energy -223108.987682 kJ/mol
# GULP energy per Si atom -12394.943760 kJ/mol
# Density = 2.086711 g / cm^3
# Si number density = 20.914711 Si / 1000 Ang^3
#
#
#
# Elastic Constant Matrix: (Units=GPa)
#
#
# Indices 1 2 3 4 5 6 
#
# 1 139.5393 49.2433 52.4615 0.0000 0.0000 0.0000
# 2 49.2433 120.5661 50.2904 0.0000 0.0000 0.0000
# 3 52.4615 50.2904 122.0443 0.0000 0.0000 0.0000
# 4 0.0000 0.0000 0.0000 39.2154 0.0000 0.0000
# 5 0.0000 0.0000 0.0000 0.0000 36.3661 0.0000
# 6 0.0000 0.0000 0.0000 0.0000 0.0000 22.5927
#
#
#
# Elastic Compliance Matrix: (Units=1/GPa)
#
#
# Indices 1 2 3 4 5 6 
#
# 1 0.009145 -0.002530 -0.002888 0.000000 0.000000 0.000000
# 2 -0.002530 0.010716 -0.003328 0.000000 0.000000 0.000000
# 3 -0.002888 -0.003328 0.010807 0.000000 0.000000 0.000000
# 4 0.000000 0.000000 0.000000 0.025500 0.000000 0.000000
# 5 0.000000 0.000000 0.000000 0.000000 0.027498 0.000000
# 6 0.000000 0.000000 0.000000 0.000000 0.000000 0.044262
#
#
# Mechanical properties :
#
#
# Convention : Reuss Voigt Hill
#
# Bulk Modulus (GPa) = 75.90567 76.23779 76.07173
# Shear Modulus (GPa) = 33.37484 34.97847 34.17665
#
# Velocity S-wave (km/s) = 3.99903 4.09398 4.04678
# Velocity P-wave (km/s) = 7.59570 7.67323 7.63456
#
# Compressibility (1/GPa) = 0.01317425
#
# Stress axis : x y z
#
# Youngs Moduli (GPa) = 109.34456 93.31957 92.53511
#
# Poissons Ratio (x) = 0.23614 0.26729
# Poissons Ratio (y) = 0.27669 0.30795
# Poissons Ratio (z) = 0.31584 0.31056
#
# Static dielectric constant tensor:
#      x y z
#    x 3.785780 0.000000 0.000000 
#    y 0.000000 3.830290 0.000000 
#    z 0.000000 0.000000 4.198270 
# 
# 
# High freq. dielectric constant tensor:
#      x y z
#    x 1.813110 0.000000 0.000000 
#    y 0.000000 1.812810 0.000000 
#    z 0.000000 0.000000 1.845420 
# 
# From -- ./inp_files/3928.got.cif
#   From: 2010.03.12/outbox.cif.g09.slc.cpg/sg17_2_cif.got.tgz:3928.got - 2010.04.10 18:46:23.
