data_PCOD8155058
_publ_section_title
;
Structure prediction by ZEFSAII (Michael W. Deem and Ramdas Pophale) SiO2 
 PCOD8155058
Probable space group: C 2/C
;
_chemical_formula_sum "Si O2"
_cell_formula_units_Z 36
_cell_length_a 16.095180
_cell_length_b 10.643837
_cell_length_c 15.187527
_cell_angle_alpha 90.000000
_cell_angle_beta 141.667312
_cell_angle_gamma 90.000000
_cell_volume 1613.732492
_symmetry_space_group_name_H-M "C 2/C"
_symmetry_group_IT_number 15
_symmetry_cell_setting 'monoclinic'
loop_
_space_group_symop_operation_xyz
x,y,z
-x,y,1/2-z
-x,-y,-z
x,-y,1/2+z
1/2+x,1/2+y,z
1/2-x,1/2+y,1/2-z
1/2-x,1/2-y,-z
1/2+x,1/2-y,1/2+z
loop_
_atom_site_type_symbol
_atom_site_label
_atom_site_fract_x
_atom_site_fract_y
_atom_site_fract_z
Si Si1 0.722931 0.635119 0.912053
Si Si2 0.500000 0.448402 0.750000
Si Si3 0.499581 0.020293 0.147517
Si Si4 0.445339 0.740142 0.359792
Si Si5 0.147445 0.270484 0.679577
O O1 0.629221 0.532708 0.880748
O O2 0.645059 0.678671 0.760607
O O3 0.750000 0.750000 0.000000
O O4 0.858429 0.568070 0.991979
O O5 0.519216 0.365814 0.679981
O O6 0.500000 0.058421 0.250000
O O7 0.615559 0.089227 0.188338
O O8 0.517499 0.873005 0.151738
O O9 0.288804 0.728137 0.248767
O O10 0.531999 0.719095 0.519452
#
# Coordination Sequence:
#
# PCOD8155058 Si02
#       5
#     8   4   8   8   8
#     4  12  26  49  76 110 149 198 248 302 374 446
#     4  12  30  48  76 110 150 196 252 304 370 450
#     4  12  25  49  77 104 156 197 242 308 380 438
#     4  12  29  49  75 113 151 195 247 313 376 429
#     4  12  27  47  77 111 147 196 254 304 366 446
#
# _framework density 22.308530000000001
#
# number of rings (size 3 to 8) (size 9 to 14) (size 15 to 20)
#    0.000    0.000    5.556    3.333    6.222    2.667 
#    0.000    0.000    0.000    0.000    0.000    0.000 
#    0.000    0.000    0.000    0.000    0.000    0.000 
#
# Total GULP energy -223333.298542 kJ/mol
# GULP energy per Si atom -12407.405475 kJ/mol
# Density = 2.225776 g / cm^3
# Si number density = 22.308530 Si / 1000 Ang^3
#
#
#
# Elastic Constant Matrix: (Units=GPa)
#
#
# Indices 1 2 3 4 5 6 
#
# 1 104.9054 59.0358 23.4919 0.0000 8.7906 0.0000
# 2 59.0358 152.3200 38.7124 0.0000 13.0564 0.0000
# 3 23.4919 38.7124 98.8991 0.0000 -0.8579 0.0000
# 4 0.0000 0.0000 0.0000 28.1757 0.0000 3.0294
# 5 8.7906 13.0564 -0.8579 0.0000 48.6460 0.0000
# 6 0.0000 0.0000 0.0000 3.0294 0.0000 51.9477
#
#
#
# Elastic Compliance Matrix: (Units=1/GPa)
#
#
# Indices 1 2 3 4 5 6 
#
# 1 0.012368 -0.004389 -0.001229 0.000000 -0.001079 0.000000
# 2 -0.004389 0.009049 -0.002514 0.000000 -0.001680 0.000000
# 3 -0.001229 -0.002514 0.011397 0.000000 0.001098 0.000000
# 4 0.000000 0.000000 0.000000 0.035715 0.000000 -0.002083
# 5 -0.001079 -0.001680 0.001098 0.000000 0.021222 0.000000
# 6 0.000000 0.000000 0.000000 -0.002083 0.000000 0.019372
#
#
# Mechanical properties :
#
#
# Convention : Reuss Voigt Hill
#
# Bulk Modulus (GPa) = 60.42443 66.51163 63.46803
# Shear Modulus (GPa) = 38.19608 41.41284 39.80446
#
# Velocity S-wave (km/s) = 4.14233 4.31323 4.22865
# Velocity P-wave (km/s) = 7.07270 7.39489 7.23559
#
# Compressibility (1/GPa) = 0.01654960
#
# Stress axis : x y z
#
# Youngs Moduli (GPa) = 80.85547 110.50895 87.74241
#
# Poissons Ratio (x) = 0.48498 0.10786
# Poissons Ratio (y) = 0.35484 0.22060
# Poissons Ratio (z) = 0.09940 0.27785
#
# Static dielectric constant tensor:
#      x y z
#    x 4.081040 0.000000 0.041540 
#    y 0.000000 4.124920 0.000000 
#    z 0.041540 0.000000 4.189900 
# 
# 
# High freq. dielectric constant tensor:
#      x y z
#    x 1.896450 0.000000 0.000390 
#    y 0.000000 1.889050 0.000000 
#    z 0.000390 0.000000 1.889570 
# 
# From -- ./inp_files/94429.got.cif
#   From: 2010.06.25/outbox.cif.g09.slc.cpg/sg15_48_cif.got.tgz:94429.got - 2010.06.28 07:06:18.
