data_PCOD8155202
_publ_section_title
;
Structure prediction by ZEFSAII (Michael W. Deem and Ramdas Pophale) SiO2 
 PCOD8155202
Probable space group: C 2/C
;
_chemical_formula_sum "Si O2"
_cell_formula_units_Z 48
_cell_length_a 24.904584
_cell_length_b 9.822205
_cell_length_c 10.027900
_cell_angle_alpha 90.000000
_cell_angle_beta 81.584568
_cell_angle_gamma 90.000000
_cell_volume 2426.592520
_symmetry_space_group_name_H-M "C 2/C"
_symmetry_group_IT_number 15
_symmetry_cell_setting 'monoclinic'
loop_
_space_group_symop_operation_xyz
x,y,z
-x,y,1/2-z
-x,-y,-z
x,-y,1/2+z
1/2+x,1/2+y,z
1/2-x,1/2+y,1/2-z
1/2-x,1/2-y,-z
1/2+x,1/2-y,1/2+z
loop_
_atom_site_type_symbol
_atom_site_label
_atom_site_fract_x
_atom_site_fract_y
_atom_site_fract_z
Si Si1 0.909628 0.857287 0.608863
Si Si2 0.406224 0.415073 0.311817
Si Si3 0.720249 0.414449 0.137678
Si Si4 0.058209 0.566891 0.954044
Si Si5 0.562657 0.877179 0.735535
Si Si6 0.717579 0.356067 0.839961
O O1 0.920981 0.930989 0.462547
O O2 0.944717 0.718532 0.608319
O O3 0.846145 0.823004 0.646180
O O4 0.928666 0.955543 0.721918
O O5 0.342898 0.392976 0.311451
O O6 0.433763 0.282421 0.236682
O O7 0.738519 0.548836 0.211586
O O8 0.751334 0.285441 0.186052
O O9 0.731706 0.429814 0.975596
O O10 0.090797 0.466087 0.842471
O O11 0.090295 0.583588 0.083144
O O12 0.000000 0.500000 0.000000
O O13 0.500000 0.920443 0.750000
#
# Coordination Sequence:
#
# PCOD8155202 Si02
#       6
#     8   8   8   8   8   8
#     4   9  18  33  51  71  97 127 161 198 237 283
#     4   9  18  33  50  70  97 126 159 198 239 282
#     4   9  18  32  49  70  98 128 159 198 238 281
#     4   9  18  33  50  69  95 125 157 196 239 284
#     4   9  18  33  49  69  95 124 158 197 239 285
#     4   9  18  32  49  71  98 128 160 197 239 281
#
# _framework density 19.780823000000002
#
# number of rings (size 3 to 8) (size 9 to 14) (size 15 to 20)
#    0.000    3.000    0.000    0.000    0.000    3.333 
#    0.000   10.000    0.000    0.000    0.000    0.000 
#    0.000    0.000    0.000    0.000    0.000    0.000 
#
# Total GULP energy -297444.078146 kJ/mol
# GULP energy per Si atom -12393.503256 kJ/mol
# Density = 1.973580 g / cm^3
# Si number density = 19.780823 Si / 1000 Ang^3
#
#
#
# Elastic Constant Matrix: (Units=GPa)
#
#
# Indices 1 2 3 4 5 6 
#
# 1 23.2325 26.2613 13.6495 0.0000 2.8708 0.0000
# 2 26.2613 125.4274 64.7668 0.0000 -3.1602 0.0000
# 3 13.6495 64.7668 86.7966 0.0000 -2.3790 0.0000
# 4 0.0000 0.0000 0.0000 49.6842 0.0000 0.7474
# 5 2.8708 -3.1602 -2.3790 0.0000 7.6424 0.0000
# 6 0.0000 0.0000 0.0000 0.7474 0.0000 32.8137
#
#
#
# Elastic Compliance Matrix: (Units=1/GPa)
#
#
# Indices 1 2 3 4 5 6 
#
# 1 0.062187 -0.013490 -0.000511 0.000000 -0.029097 0.000000
# 2 -0.013490 0.015939 -0.009534 0.000000 0.008690 0.000000
# 3 -0.000511 -0.009534 0.018773 0.000000 0.002093 0.000000
# 4 0.000000 0.000000 0.000000 0.020134 0.000000 -0.000459
# 5 -0.029097 0.008690 0.002093 0.000000 0.146024 0.000000
# 6 0.000000 0.000000 0.000000 -0.000459 0.000000 0.030486
#
#
# Mechanical properties :
#
#
# Convention : Reuss Voigt Hill
#
# Bulk Modulus (GPa) = 20.06833 49.42352 34.74593
# Shear Modulus (GPa) = 13.99688 26.74665 20.37176
#
# Velocity S-wave (km/s) = 2.66296 3.68115 3.21265
# Velocity P-wave (km/s) = 4.42973 6.56564 5.60045
#
# Compressibility (1/GPa) = 0.04982974
#
# Stress axis : x y z
#
# Youngs Moduli (GPa) = 16.08052 62.73841 53.26731
#
# Poissons Ratio (x) = 0.84631 0.02723
# Poissons Ratio (y) = 0.21692 0.50786
# Poissons Ratio (z) = 0.00822 0.59816
#
# Static dielectric constant tensor:
#      x y z
#    x 3.301960 0.000000 0.229080 
#    y 0.000000 3.632350 0.000000 
#    z 0.229080 0.000000 4.390090 
# 
# 
# High freq. dielectric constant tensor:
#      x y z
#    x 1.736400 0.000000 0.005410 
#    y 0.000000 1.770070 0.000000 
#    z 0.005410 0.000000 1.782770 
# 
# From -- ./inp_files/116440.got.cif
#   From: 2010.06.25/outbox.cif.g09.slc.cpg/sg15_59_cif.got.tgz:116440.got - 2010.06.28 07:06:18.
