data_PCOD8155975
_publ_section_title
;
Structure prediction by ZEFSAII (Michael W. Deem and Ramdas Pophale) SiO2 
 PCOD8155975
Probable space group: P 21 21 2
;
_chemical_formula_sum "Si O2"
_cell_formula_units_Z 16
_cell_length_a 4.965799
_cell_length_b 8.186045
_cell_length_c 19.049643
_cell_angle_alpha 90.000000
_cell_angle_beta 90.000000
_cell_angle_gamma 90.000000
_cell_volume 774.372828
_symmetry_space_group_name_H-M "P 21 21 2"
_symmetry_group_IT_number 18
_symmetry_cell_setting 'orthorhombic'
loop_
_space_group_symop_operation_xyz
x,y,z
-x,-y,z
1/2+x,1/2-y,-z
1/2-x,1/2+y,-z
loop_
_atom_site_type_symbol
_atom_site_label
_atom_site_fract_x
_atom_site_fract_y
_atom_site_fract_z
Si Si1 0.097990 0.815120 0.962624
Si Si2 0.906351 0.313894 0.537164
Si Si3 0.244351 0.113623 0.165945
Si Si4 0.254168 0.610631 0.680269
O O1 0.211122 0.763675 0.886629
O O2 0.345566 0.799691 0.017080
O O3 0.000000 0.000000 0.960649
O O4 0.655280 0.299489 0.484397
O O5 0.811934 0.263568 0.616557
O O6 0.000000 0.500000 0.536295
O O7 0.178411 0.191016 0.243620
O O8 0.500000 0.000000 0.168307
O O9 0.000000 0.000000 0.139368
O O10 0.500000 0.500000 0.653349
O O11 0.000000 0.500000 0.694969
#
# Coordination Sequence:
#
# PCOD8155975 Si02
#       4
#     4   4   4   4
#     4  12  24  39  59  86 118 152 189 235 284 339
#     4  11  21  36  57  84 115 151 192 236 285 340
#     4  10  20  37  61  84 109 147 194 237 281 336
#     4   9  18  34  57  82 110 148 191 232 280 343
#
# _framework density 20.661881000000001
#
# number of rings (size 3 to 8) (size 9 to 14) (size 15 to 20)
#    0.000    1.500    0.000    8.250    0.000    0.000 
#    0.000    2.500    0.000    0.000    0.000    0.000 
#    0.000    0.000    0.000    0.000    0.000    0.000 
#
# Total GULP energy -198321.041917 kJ/mol
# GULP energy per Si atom -12395.065120 kJ/mol
# Density = 2.061485 g / cm^3
# Si number density = 20.661881 Si / 1000 Ang^3
#
#
#
# Elastic Constant Matrix: (Units=GPa)
#
#
# Indices 1 2 3 4 5 6 
#
# 1 143.7130 32.8593 49.5864 0.0000 0.0000 0.0000
# 2 32.8593 70.7080 65.2791 0.0000 0.0000 0.0000
# 3 49.5864 65.2791 164.7189 0.0000 0.0000 0.0000
# 4 0.0000 0.0000 0.0000 28.9140 0.0000 0.0000
# 5 0.0000 0.0000 0.0000 0.0000 31.1138 0.0000
# 6 0.0000 0.0000 0.0000 0.0000 0.0000 35.3923
#
#
#
# Elastic Compliance Matrix: (Units=1/GPa)
#
#
# Indices 1 2 3 4 5 6 
#
# 1 0.008007 -0.002359 -0.001476 0.000000 0.000000 0.000000
# 2 -0.002359 0.022998 -0.008404 0.000000 0.000000 0.000000
# 3 -0.001476 -0.008404 0.009846 0.000000 0.000000 0.000000
# 4 0.000000 0.000000 0.000000 0.034585 0.000000 0.000000
# 5 0.000000 0.000000 0.000000 0.000000 0.032140 0.000000
# 6 0.000000 0.000000 0.000000 0.000000 0.000000 0.028255
#
#
# Mechanical properties :
#
#
# Convention : Reuss Voigt Hill
#
# Bulk Modulus (GPa) = 61.07406 74.95437 68.01422
# Shear Modulus (GPa) = 30.16330 34.51170 32.33750
#
# Velocity S-wave (km/s) = 3.82495 4.09137 3.96040
# Velocity P-wave (km/s) = 7.00927 7.65993 7.34181
#
# Compressibility (1/GPa) = 0.01637356
#
# Stress axis : x y z
#
# Youngs Moduli (GPa) = 124.89504 43.48294 101.56684
#
# Poissons Ratio (x) = 0.10256 0.14987
# Poissons Ratio (y) = 0.29457 0.85357
# Poissons Ratio (z) = 0.18430 0.36543
#
# Static dielectric constant tensor:
#      x y z
#    x 4.041060 0.000000 0.000000 
#    y 0.000000 3.165840 0.000000 
#    z 0.000000 0.000000 4.574010 
# 
# 
# High freq. dielectric constant tensor:
#      x y z
#    x 1.840110 0.000000 0.000000 
#    y 0.000000 1.747190 0.000000 
#    z 0.000000 0.000000 1.832820 
# 
# From -- ./inp_files/7056.got.cif
#   From: 2010.03.12/outbox.cif.g09.slc.cpg/sg18_4_cif.got.tgz:7056.got - 2010.04.10 18:53:55.
