data_PCOD8155515
_publ_section_title
;
Structure prediction by ZEFSAII (Michael W. Deem and Ramdas Pophale) SiO2 
 PCOD8155515
Probable space group: P 2 2 21
;
_chemical_formula_sum "Si O2"
_cell_formula_units_Z 24
_cell_length_a 14.075181
_cell_length_b 9.364163
_cell_length_c 9.667777
_cell_angle_alpha 90.000000
_cell_angle_beta 90.000000
_cell_angle_gamma 90.000000
_cell_volume 1274.235139
_symmetry_space_group_name_H-M "P 2 2 21"
_symmetry_group_IT_number 17
_symmetry_cell_setting 'orthorhombic'
loop_
_space_group_symop_operation_xyz
x,y,z
-x,-y,1/2+z
x,-y,-z
-x,y,1/2-z
loop_
_atom_site_type_symbol
_atom_site_label
_atom_site_fract_x
_atom_site_fract_y
_atom_site_fract_z
Si Si1 0.895806 0.639609 0.407646
Si Si2 0.726448 0.839583 0.021348
Si Si3 0.609041 0.182037 0.248056
Si Si4 0.701181 0.670814 0.512176
Si Si5 0.104167 0.642970 0.413265
Si Si6 0.393268 0.854641 0.212686
O O1 0.902372 0.500000 0.500000
O O2 0.806911 0.727657 0.470459
O O3 0.872592 0.606636 0.246737
O O4 0.998711 0.716277 0.421337
O O5 0.646541 0.806980 0.907683
O O6 0.820815 0.745770 0.013412
O O7 0.678171 0.808521 0.167369
O O8 0.762188 0.000000 0.000000
O O9 0.500000 0.233918 0.250000
O O10 0.676825 0.289447 0.331147
O O11 0.617002 0.024009 0.314641
O O12 0.691894 0.500000 0.500000
O O13 0.626896 0.758481 0.420281
O O14 0.106744 0.500000 0.500000
O O15 0.500000 0.816752 0.250000
#
# Coordination Sequence:
#
# PCOD8155515 Si02
#       6
#     4   4   4   4   4   4
#     4   9  20  37  58  86 114 145 188 228 281 343
#     4  10  21  36  57  85 113 144 190 239 281 326
#     4  10  22  39  59  81 113 154 195 227 273 342
#     4  11  22  36  57  87 117 143 184 241 284 325
#     4  10  20  37  63  82 111 152 188 227 283 343
#     4  10  20  39  61  80 109 155 193 227 280 344
#
# _framework density 18.834827000000001
#
# number of rings (size 3 to 8) (size 9 to 14) (size 15 to 20)
#    0.000    2.000    1.667    1.500    4.667    3.333 
#    0.000    3.333    0.000    0.000    0.000    0.000 
#    0.000    0.000    0.000    0.000    0.000    0.000 
#
# Total GULP energy -297469.875130 kJ/mol
# GULP energy per Si atom -12394.578130 kJ/mol
# Density = 1.879196 g / cm^3
# Si number density = 18.834827 Si / 1000 Ang^3
#
#
#
# Elastic Constant Matrix: (Units=GPa)
#
#
# Indices 1 2 3 4 5 6 
#
# 1 141.1706 40.8732 26.3959 0.0000 0.0000 0.0000
# 2 40.8732 54.6538 21.0689 0.0000 0.0000 0.0000
# 3 26.3959 21.0689 66.0446 0.0000 0.0000 0.0000
# 4 0.0000 0.0000 0.0000 31.1735 0.0000 0.0000
# 5 0.0000 0.0000 0.0000 0.0000 28.7008 0.0000
# 6 0.0000 0.0000 0.0000 0.0000 0.0000 8.1682
#
#
#
# Elastic Compliance Matrix: (Units=1/GPa)
#
#
# Indices 1 2 3 4 5 6 
#
# 1 0.009204 -0.006231 -0.001691 0.000000 0.000000 0.000000
# 2 -0.006231 0.025082 -0.005511 0.000000 0.000000 0.000000
# 3 -0.001691 -0.005511 0.017575 0.000000 0.000000 0.000000
# 4 0.000000 0.000000 0.000000 0.032079 0.000000 0.000000
# 5 0.000000 0.000000 0.000000 0.000000 0.034842 0.000000
# 6 0.000000 0.000000 0.000000 0.000000 0.000000 0.122426
#
#
# Mechanical properties :
#
#
# Convention : Reuss Voigt Hill
#
# Bulk Modulus (GPa) = 40.00836 48.72722 44.36779
# Shear Modulus (GPa) = 18.08940 25.17722 21.63331
#
# Velocity S-wave (km/s) = 3.10243 3.66011 3.39275
# Velocity P-wave (km/s) = 5.84134 6.61731 6.24140
#
# Compressibility (1/GPa) = 0.02499477
#
# Stress axis : x y z
#
# Youngs Moduli (GPa) = 108.64910 39.86983 56.89917
#
# Poissons Ratio (x) = 0.24845 0.09619
# Poissons Ratio (y) = 0.67705 0.31356
# Poissons Ratio (z) = 0.18368 0.21971
#
# Static dielectric constant tensor:
#      x y z
#    x 3.933520 0.000000 0.000000 
#    y 0.000000 3.188110 0.000000 
#    z 0.000000 0.000000 3.564200 
# 
# 
# High freq. dielectric constant tensor:
#      x y z
#    x 1.750700 0.000000 0.000000 
#    y 0.000000 1.699330 0.000000 
#    z 0.000000 0.000000 1.744940 
# 
# From -- ./inp_files/5143.got.cif
#   From: 2010.03.12/outbox.cif.g09.slc.cpg/sg17_3_cif.got.tgz:5143.got - 2010.04.10 18:46:23.
