data_PCOD8155286
_publ_section_title
;
Structure prediction by ZEFSAII (Michael W. Deem and Ramdas Pophale) SiO2 
 PCOD8155286
Probable space group: P 2 2 2
;
_chemical_formula_sum "Si O2"
_cell_formula_units_Z 23
_cell_length_a 13.133345
_cell_length_b 9.329245
_cell_length_c 8.786213
_cell_angle_alpha 90.000000
_cell_angle_beta 90.000000
_cell_angle_gamma 90.000000
_cell_volume 1076.523659
_symmetry_space_group_name_H-M "P 2 2 2"
_symmetry_group_IT_number 16
_symmetry_cell_setting 'orthorhombic'
loop_
_space_group_symop_operation_xyz
x,y,z
-x,-y,z
x,-y,-z
-x,y,-z
loop_
_atom_site_type_symbol
_atom_site_label
_atom_site_fract_x
_atom_site_fract_y
_atom_site_fract_z
Si Si1 0.563359 0.126108 0.213147
Si Si2 0.385194 0.730757 0.654141
Si Si3 0.332054 0.329221 0.009430
Si Si4 0.500000 0.500000 0.500000
Si Si5 0.000000 0.500000 0.000000
Si Si6 0.000000 0.000000 0.000000
Si Si7 0.754628 0.866743 0.591124
Si Si8 0.873758 0.250784 0.143944
O O1 0.488024 0.173200 0.350347
O O2 0.581519 0.257650 0.096975
O O3 0.669894 0.073101 0.288361
O O4 0.500000 0.000000 0.127835
O O5 0.422919 0.575058 0.613503
O O6 0.299449 0.769347 0.533070
O O7 0.339071 0.730155 0.821611
O O8 0.223489 0.269870 0.960802
O O9 0.341627 0.500000 0.000000
O O10 0.061357 0.396070 0.883738
O O11 0.931480 0.896196 0.896481
O O12 0.839068 0.771074 0.679563
O O13 0.805259 0.000000 0.500000
#
# Coordination Sequence:
#
# PCOD8155286 Si02
#       8
#     4   4   4   1   1   1   4   4
#     4  11  22  41  61  95 135 193 238 278 319 379
#     4  12  24  37  61  89 137 186 227 275 320 390
#     4  11  25  42  66  98 136 177 242 288 331 401
#     4  12  24  36  56  84 132 194 226 262 344 368
#     4  10  20  50  84 104 130 162 230 302 372 442
#     4  10  24  46  74 102 126 174 222 278 384 442
#     4  11  23  42  66  97 141 177 227 279 340 406
#     4  10  24  44  77 101 131 171 222 294 364 429
#
# _framework density 21.365067
#
# number of rings (size 3 to 8) (size 9 to 14) (size 15 to 20)
#    0.000    1.043    4.348    1.565    4.870    2.087 
#    0.000    0.435    0.000    1.043    0.000    0.000 
#    0.000    0.000    0.000    0.000    0.000    0.000 
#
# Total GULP energy -285008.250660 kJ/mol
# GULP energy per Si atom -12391.663072 kJ/mol
# Density = 2.131644 g / cm^3
# Si number density = 21.365067 Si / 1000 Ang^3
#
#
#
# Elastic Constant Matrix: (Units=GPa)
#
#
# Indices 1 2 3 4 5 6 
#
# 1 97.1550 65.9103 60.3076 0.0000 0.0000 0.0000
# 2 65.9103 151.8470 61.0925 0.0000 0.0000 0.0000
# 3 60.3076 61.0925 141.4403 0.0000 0.0000 0.0000
# 4 0.0000 0.0000 0.0000 39.4650 0.0000 0.0000
# 5 0.0000 0.0000 0.0000 0.0000 40.5655 0.0000
# 6 0.0000 0.0000 0.0000 0.0000 0.0000 36.0228
#
#
#
# Elastic Compliance Matrix: (Units=1/GPa)
#
#
# Indices 1 2 3 4 5 6 
#
# 1 0.017014 -0.005406 -0.004919 0.000000 0.000000 0.000000
# 2 -0.005406 0.009688 -0.001880 0.000000 0.000000 0.000000
# 3 -0.004919 -0.001880 0.009980 0.000000 0.000000 0.000000
# 4 0.000000 0.000000 0.000000 0.025339 0.000000 0.000000
# 5 0.000000 0.000000 0.000000 0.000000 0.024651 0.000000
# 6 0.000000 0.000000 0.000000 0.000000 0.000000 0.027760
#
#
# Mechanical properties :
#
#
# Convention : Reuss Voigt Hill
#
# Bulk Modulus (GPa) = 81.48789 85.00701 83.24745
# Shear Modulus (GPa) = 34.98149 36.75278 35.86714
#
# Velocity S-wave (km/s) = 4.05077 4.15206 4.10173
# Velocity P-wave (km/s) = 7.75254 7.92845 7.84099
#
# Compressibility (1/GPa) = 0.01227176
#
# Stress axis : x y z
#
# Youngs Moduli (GPa) = 58.77592 103.21785 100.20413
#
# Poissons Ratio (x) = 0.55797 0.49295
# Poissons Ratio (y) = 0.31773 0.18836
# Poissons Ratio (z) = 0.28915 0.19403
#
# Static dielectric constant tensor:
#      x y z
#    x 3.913720 0.000000 0.000000 
#    y 0.000000 4.133550 0.000000 
#    z 0.000000 0.000000 4.096600 
# 
# 
# High freq. dielectric constant tensor:
#      x y z
#    x 1.824500 0.000000 0.000000 
#    y 0.000000 1.849000 0.000000 
#    z 0.000000 0.000000 1.844180 
# 
# From -- ./inp_files/5144.got.cif
#   From: 2010.03.12/outbox.cif.g09.slc.cpg/sg16_3_cif.got.tgz:5144.got - 2010.03.31 00:51:45.
