data_PCOD8155461
_publ_section_title
;
Structure prediction by ZEFSAII (Michael W. Deem and Ramdas Pophale) SiO2 
 PCOD8155461
Probable space group: P 2 2 21
;
_chemical_formula_sum "Si O2"
_cell_formula_units_Z 22
_cell_length_a 14.310552
_cell_length_b 16.462505
_cell_length_c 5.205299
_cell_angle_alpha 90.000000
_cell_angle_beta 90.000000
_cell_angle_gamma 90.000000
_cell_volume 1226.303554
_symmetry_space_group_name_H-M "P 2 2 21"
_symmetry_group_IT_number 17
_symmetry_cell_setting 'orthorhombic'
loop_
_space_group_symop_operation_xyz
x,y,z
-x,-y,1/2+z
x,-y,-z
-x,y,1/2-z
loop_
_atom_site_type_symbol
_atom_site_label
_atom_site_fract_x
_atom_site_fract_y
_atom_site_fract_z
Si Si1 0.907883 0.423789 0.631666
Si Si2 0.390336 0.550566 0.248988
Si Si3 0.000000 0.301068 0.250000
Si Si4 0.752868 0.311429 0.751836
Si Si5 0.187384 0.777015 0.726987
Si Si6 0.107671 0.947342 0.750322
O O1 0.854472 0.500000 0.500000
O O2 0.948644 0.353376 0.459586
O O3 0.833259 0.379558 0.815968
O O4 0.000000 0.465843 0.750000
O O5 0.359085 0.500000 0.500000
O O6 0.500000 0.567559 0.250000
O O7 0.343650 0.639548 0.236626
O O8 0.359457 0.500000 0.000000
O O9 0.917425 0.246389 0.134909
O O10 0.774092 0.264981 0.485750
O O11 0.746384 0.248438 0.988437
O O12 0.182133 0.873715 0.761536
O O13 0.000000 0.916765 0.750000
O O14 0.129331 0.000000 0.500000
O O15 0.128019 0.000000 0.000000
#
# Coordination Sequence:
#
# PCOD8155461 Si02
#       6
#     4   4   2   4   4   4
#     4  11  20  30  43  62  97 139 184 209 247 289
#     4  10  21  39  60  80 106 140 182 231 276 317
#     4  10  20  32  42  64  96 142 174 216 250 296
#     4  11  23  34  53  77 103 140 176 223 269 313
#     4  11  21  35  52  74 108 135 177 216 265 313
#     4  10  20  34  53  75 101 142 184 219 257 314
#
# _framework density 17.940093999999998
#
# number of rings (size 3 to 8) (size 9 to 14) (size 15 to 20)
#    0.000    1.455    3.636    2.727    0.000    2.182 
#    0.000    0.000    0.000    0.000    0.000    0.000 
#    0.000   14.545    0.000    0.000    0.000    0.000 
#
# Total GULP energy -272644.501776 kJ/mol
# GULP energy per Si atom -12392.931899 kJ/mol
# Density = 1.789926 g / cm^3
# Si number density = 17.940094 Si / 1000 Ang^3
#
#
#
# Elastic Constant Matrix: (Units=GPa)
#
#
# Indices 1 2 3 4 5 6 
#
# 1 52.8565 39.4709 28.9813 0.0000 0.0000 0.0000
# 2 39.4709 121.9204 59.6739 0.0000 0.0000 0.0000
# 3 28.9813 59.6739 138.9297 0.0000 0.0000 0.0000
# 4 0.0000 0.0000 0.0000 22.9563 0.0000 0.0000
# 5 0.0000 0.0000 0.0000 0.0000 13.7788 0.0000
# 6 0.0000 0.0000 0.0000 0.0000 0.0000 29.5612
#
#
#
# Elastic Compliance Matrix: (Units=1/GPa)
#
#
# Indices 1 2 3 4 5 6 
#
# 1 0.025492 -0.007154 -0.002245 0.000000 0.000000 0.000000
# 2 -0.007154 0.012393 -0.003831 0.000000 0.000000 0.000000
# 3 -0.002245 -0.003831 0.009312 0.000000 0.000000 0.000000
# 4 0.000000 0.000000 0.000000 0.043561 0.000000 0.000000
# 5 0.000000 0.000000 0.000000 0.000000 0.072575 0.000000
# 6 0.000000 0.000000 0.000000 0.000000 0.000000 0.033828
#
#
# Mechanical properties :
#
#
# Convention : Reuss Voigt Hill
#
# Bulk Modulus (GPa) = 48.22205 63.32878 55.77541
# Shear Modulus (GPa) = 21.68878 25.63130 23.66004
#
# Velocity S-wave (km/s) = 3.48078 3.78394 3.63552
# Velocity P-wave (km/s) = 6.56447 7.38022 6.98427
#
# Compressibility (1/GPa) = 0.02073740
#
# Stress axis : x y z
#
# Youngs Moduli (GPa) = 39.22724 80.68949 107.39289
#
# Poissons Ratio (x) = 0.57727 0.24109
# Poissons Ratio (y) = 0.28064 0.41140
# Poissons Ratio (z) = 0.08806 0.30910
#
# Static dielectric constant tensor:
#      x y z
#    x 3.317320 0.000000 0.000000 
#    y 0.000000 3.293640 0.000000 
#    z 0.000000 0.000000 3.361630 
# 
# 
# High freq. dielectric constant tensor:
#      x y z
#    x 1.654550 0.000000 0.000000 
#    y 0.000000 1.690920 0.000000 
#    z 0.000000 0.000000 1.705770 
# 
# From -- ./inp_files/2145.got.cif
#   From: 2010.03.12/outbox.cif.g09.slc.cpg/sg17_2_cif.got.tgz:2145.got - 2010.04.10 18:46:23.
