data_PCOD8155653
_publ_section_title
;
Structure prediction by ZEFSAII (Michael W. Deem and Ramdas Pophale) SiO2 
 PCOD8155653
Probable space group: P 2 2 21
;
_chemical_formula_sum "Si O2"
_cell_formula_units_Z 24
_cell_length_a 8.255287
_cell_length_b 12.565433
_cell_length_c 11.394122
_cell_angle_alpha 90.000000
_cell_angle_beta 90.000000
_cell_angle_gamma 90.000000
_cell_volume 1181.926583
_symmetry_space_group_name_H-M "P 2 2 21"
_symmetry_group_IT_number 17
_symmetry_cell_setting 'orthorhombic'
loop_
_space_group_symop_operation_xyz
x,y,z
-x,-y,1/2+z
x,-y,-z
-x,y,1/2-z
loop_
_atom_site_type_symbol
_atom_site_label
_atom_site_fract_x
_atom_site_fract_y
_atom_site_fract_z
Si Si1 0.000000 0.688967 0.750000
Si Si2 0.705296 0.797197 0.630725
Si Si3 0.119161 0.842779 0.093226
Si Si4 0.143161 0.000000 0.500000
Si Si5 0.500000 0.370849 0.250000
Si Si6 0.796389 0.481213 0.135553
Si Si7 0.000000 0.341012 0.750000
Si Si8 0.677057 0.987614 0.241427
O O1 0.127071 0.765746 0.809676
O O2 0.074969 0.614149 0.649089
O O3 0.731686 0.818401 0.493259
O O4 0.574349 0.703760 0.647842
O O5 0.644056 0.904832 0.688198
O O6 0.061544 0.730695 0.143306
O O7 0.183185 0.916773 0.198737
O O8 0.972089 0.898085 0.021936
O O9 0.262149 0.984143 0.610717
O O10 0.628880 0.448438 0.193304
O O11 0.854211 0.587355 0.201338
O O12 0.768382 0.500000 0.000000
O O13 0.500000 0.929506 0.250000
#
# Coordination Sequence:
#
# PCOD8155653 Si02
#       8
#     2   4   4   2   2   4   2   4
#     4   9  20  37  66  96 112 167 220 275 322 388
#     4  11  21  40  67  92 132 170 225 265 334 402
#     4  12  24  44  67 101 133 182 231 278 330 416
#     4  12  24  42  70  88 144 182 230 278 330 406
#     4  10  24  42  64 100 128 178 222 266 362 406
#     4  10  22  43  66  92 133 164 219 285 333 395
#     4  11  24  45  66 104 124 171 238 273 342 402
#     4  12  26  41  62 100 141 178 222 280 344 405
#
# _framework density 20.305828000000002
#
# number of rings (size 3 to 8) (size 9 to 14) (size 15 to 20)
#    0.000    1.000    4.167    2.000    2.333    2.667 
#    4.500    1.667    0.000    0.000    0.000    0.000 
#    0.000    0.000    0.000    0.000    0.000    0.000 
#
# Total GULP energy -297681.847133 kJ/mol
# GULP energy per Si atom -12403.410297 kJ/mol
# Density = 2.025961 g / cm^3
# Si number density = 20.305828 Si / 1000 Ang^3
#
#
#
# Elastic Constant Matrix: (Units=GPa)
#
#
# Indices 1 2 3 4 5 6 
#
# 1 109.0289 38.7908 34.3856 0.0000 0.0000 0.0000
# 2 38.7908 94.0382 36.7326 0.0000 0.0000 0.0000
# 3 34.3856 36.7326 123.5336 0.0000 0.0000 0.0000
# 4 0.0000 0.0000 0.0000 26.6986 0.0000 0.0000
# 5 0.0000 0.0000 0.0000 0.0000 20.1533 0.0000
# 6 0.0000 0.0000 0.0000 0.0000 0.0000 19.8735
#
#
#
# Elastic Compliance Matrix: (Units=1/GPa)
#
#
# Indices 1 2 3 4 5 6 
#
# 1 0.011156 -0.003834 -0.001965 0.000000 0.000000 0.000000
# 2 -0.003834 0.013349 -0.002902 0.000000 0.000000 0.000000
# 3 -0.001965 -0.002902 0.009505 0.000000 0.000000 0.000000
# 4 0.000000 0.000000 0.000000 0.037455 0.000000 0.000000
# 5 0.000000 0.000000 0.000000 0.000000 0.049620 0.000000
# 6 0.000000 0.000000 0.000000 0.000000 0.000000 0.050318
#
#
# Mechanical properties :
#
#
# Convention : Reuss Voigt Hill
#
# Bulk Modulus (GPa) = 60.21547 60.71320 60.46434
# Shear Modulus (GPa) = 25.72791 27.79119 26.75955
#
# Velocity S-wave (km/s) = 3.56339 3.70352 3.63413
# Velocity P-wave (km/s) = 6.83000 6.94639 6.88844
#
# Compressibility (1/GPa) = 0.01660703
#
# Stress axis : x y z
#
# Youngs Moduli (GPa) = 89.63962 74.91092 105.20886
#
# Poissons Ratio (x) = 0.28722 0.20675
# Poissons Ratio (y) = 0.34369 0.30533
# Poissons Ratio (z) = 0.17615 0.21740
#
# Static dielectric constant tensor:
#      x y z
#    x 3.970140 0.000000 0.000000 
#    y 0.000000 3.714910 0.000000 
#    z 0.000000 0.000000 3.742440 
# 
# 
# High freq. dielectric constant tensor:
#      x y z
#    x 1.799970 0.000000 0.000000 
#    y 0.000000 1.796690 0.000000 
#    z 0.000000 0.000000 1.797870 
# 
# From -- ./inp_files/6641.got.cif
#   From: 2010.03.12/outbox.cif.g09.slc.cpg/sg17_4_cif.got.tgz:6641.got - 2010.04.10 18:46:23.
