data_PCOD8155760
_publ_section_title
;
Structure prediction by ZEFSAII (Michael W. Deem and Ramdas Pophale) SiO2 
 PCOD8155760
Probable space group: P 2 2 21
;
_chemical_formula_sum "Si O2"
_cell_formula_units_Z 18
_cell_length_a 5.604180
_cell_length_b 5.018354
_cell_length_c 23.976786
_cell_angle_alpha 90.000000
_cell_angle_beta 90.000000
_cell_angle_gamma 90.000000
_cell_volume 674.317354
_symmetry_space_group_name_H-M "P 2 2 21"
_symmetry_group_IT_number 17
_symmetry_cell_setting 'orthorhombic'
loop_
_space_group_symop_operation_xyz
x,y,z
-x,-y,1/2+z
x,-y,-z
-x,y,1/2-z
loop_
_atom_site_type_symbol
_atom_site_label
_atom_site_fract_x
_atom_site_fract_y
_atom_site_fract_z
Si Si1 0.597980 0.667041 0.841862
Si Si2 0.145366 0.828360 0.305598
Si Si3 0.230475 0.986036 0.109051
Si Si4 0.607938 0.611848 0.053627
Si Si5 0.977887 0.000000 0.000000
O O1 0.639107 0.387626 0.809609
O O2 0.324792 0.773462 0.850256
O O3 0.697697 0.630031 0.905837
O O4 0.742754 0.878783 0.805410
O O5 0.000000 0.774927 0.250000
O O6 0.969525 0.811703 0.359113
O O7 0.140328 0.109080 0.050790
O O8 0.454076 0.795597 0.094831
O O9 0.828489 0.758267 0.025037
O O10 0.458971 0.500000 0.000000
#
# Coordination Sequence:
#
# PCOD8155760 Si02
#       5
#     4   4   4   4   2
#     4  12  26  54  75 119 158 201 278 327 398 505
#     4  12  29  55  82 115 162 215 274 343 409 479
#     4  12  26  49  81 118 161 218 259 347 415 474
#     4  12  25  46  75 117 165 205 273 327 401 517
#     4  12  24  48  76 120 164 218 262 338 416 496
#
# _framework density 26.693663999999998
#
# number of rings (size 3 to 8) (size 9 to 14) (size 15 to 20)
#    0.000    0.000    4.444    5.333    3.111    3.556 
#    8.000    0.000    0.000    0.000    0.000    0.000 
#    0.000    0.000    0.000    0.000    0.000    0.000 
#
# Total GULP energy -223062.601200 kJ/mol
# GULP energy per Si atom -12392.366733 kJ/mol
# Density = 2.663291 g / cm^3
# Si number density = 26.693664 Si / 1000 Ang^3
#
#
#
# Elastic Constant Matrix: (Units=GPa)
#
#
# Indices 1 2 3 4 5 6 
#
# 1 77.9001 18.0996 -5.0537 0.0000 0.0000 0.0000
# 2 18.0996 120.3441 3.1604 0.0000 0.0000 0.0000
# 3 -5.0537 3.1604 85.4855 0.0000 0.0000 0.0000
# 4 0.0000 0.0000 0.0000 44.4483 0.0000 0.0000
# 5 0.0000 0.0000 0.0000 0.0000 30.1083 0.0000
# 6 0.0000 0.0000 0.0000 0.0000 0.0000 22.4027
#
#
#
# Elastic Compliance Matrix: (Units=1/GPa)
#
#
# Indices 1 2 3 4 5 6 
#
# 1 0.013365 -0.002033 0.000865 0.000000 0.000000 0.000000
# 2 -0.002033 0.008627 -0.000439 0.000000 0.000000 0.000000
# 3 0.000865 -0.000439 0.011765 0.000000 0.000000 0.000000
# 4 0.000000 0.000000 0.000000 0.022498 0.000000 0.000000
# 5 0.000000 0.000000 0.000000 0.000000 0.033213 0.000000
# 6 0.000000 0.000000 0.000000 0.000000 0.000000 0.044637
#
#
# Mechanical properties :
#
#
# Convention : Reuss Voigt Hill
#
# Bulk Modulus (GPa) = 32.73957 35.12693 33.93325
# Shear Modulus (GPa) = 33.89804 37.22675 35.56240
#
# Velocity S-wave (km/s) = 3.56742 3.73847 3.65395
# Velocity P-wave (km/s) = 5.40927 5.64117 5.52643
#
# Compressibility (1/GPa) = 0.03054408
#
# Stress axis : x y z
#
# Youngs Moduli (GPa) = 74.81999 115.91812 84.99588
#
# Poissons Ratio (x) = 0.23565 -0.07355
# Poissons Ratio (y) = 0.15210 0.03732
# Poissons Ratio (z) = -0.06474 0.05090
#
# Static dielectric constant tensor:
#      x y z
#    x 4.744460 0.000000 0.000000 
#    y 0.000000 4.800580 0.000000 
#    z 0.000000 0.000000 5.239240 
# 
# 
# High freq. dielectric constant tensor:
#      x y z
#    x 2.055120 0.000000 0.000000 
#    y 0.000000 2.073710 0.000000 
#    z 0.000000 0.000000 2.086270 
# 
# From -- ./inp_files/10743.got.cif
#   From: 2010.03.12/outbox.cif.g09.slc.cpg/sg17_6_cif.got.tgz:10743.got - 2010.04.10 18:46:23.
