data_PCOD8155740
_publ_section_title
;
Structure prediction by ZEFSAII (Michael W. Deem and Ramdas Pophale) SiO2 
 PCOD8155740
Probable space group: P 2 2 21
;
_chemical_formula_sum "Si O2"
_cell_formula_units_Z 18
_cell_length_a 5.183077
_cell_length_b 10.810516
_cell_length_c 14.040370
_cell_angle_alpha 90.000000
_cell_angle_beta 90.000000
_cell_angle_gamma 90.000000
_cell_volume 786.706317
_symmetry_space_group_name_H-M "P 2 2 21"
_symmetry_group_IT_number 17
_symmetry_cell_setting 'orthorhombic'
loop_
_space_group_symop_operation_xyz
x,y,z
-x,-y,1/2+z
x,-y,-z
-x,y,1/2-z
loop_
_atom_site_type_symbol
_atom_site_label
_atom_site_fract_x
_atom_site_fract_y
_atom_site_fract_z
Si Si1 0.831581 0.911067 0.413833
Si Si2 0.000000 0.929426 0.750000
Si Si3 0.350828 0.759964 0.448828
Si Si4 0.309766 0.722776 0.661493
Si Si5 0.761514 0.451014 0.809546
O O1 0.609221 0.809419 0.398974
O O2 0.112582 0.853699 0.434765
O O3 0.749486 0.000000 0.500000
O O4 0.817914 0.983914 0.313673
O O5 0.128939 0.841151 0.671791
O O6 0.436545 0.738638 0.558193
O O7 0.274393 0.628698 0.404302
O O8 0.500000 0.726288 0.750000
O O9 0.160927 0.591480 0.661699
O O10 0.500000 0.449434 0.750000
O O11 0.000000 0.394308 0.750000
#
# Coordination Sequence:
#
# PCOD8155740 Si02
#       5
#     4   2   4   4   4
#     4  12  27  46  71 105 146 190 242 295 361 438
#     4  12  26  46  72 102 142 198 236 298 360 440
#     4  12  27  47  72 108 146 188 244 301 364 429
#     4  11  25  48  76 103 145 189 251 303 363 441
#     4  11  25  47  74 109 145 189 239 300 367 428
#
# _framework density 22.880203000000002
#
# number of rings (size 3 to 8) (size 9 to 14) (size 15 to 20)
#    0.000    0.444    3.333    4.000    7.778    0.000 
#    0.000    4.444    0.000    0.000    0.000    0.000 
#    0.000    0.000    0.000    0.000    0.000    0.000 
#
# Total GULP energy -223203.502508 kJ/mol
# GULP energy per Si atom -12400.194584 kJ/mol
# Density = 2.282813 g / cm^3
# Si number density = 22.880203 Si / 1000 Ang^3
#
#
#
# Elastic Constant Matrix: (Units=GPa)
#
#
# Indices 1 2 3 4 5 6 
#
# 1 121.3264 39.6962 41.9979 0.0000 0.0000 0.0000
# 2 39.6962 127.1008 75.9405 0.0000 0.0000 0.0000
# 3 41.9979 75.9405 153.9748 0.0000 0.0000 0.0000
# 4 0.0000 0.0000 0.0000 59.1090 0.0000 0.0000
# 5 0.0000 0.0000 0.0000 0.0000 32.9596 0.0000
# 6 0.0000 0.0000 0.0000 0.0000 0.0000 22.2830
#
#
#
# Elastic Compliance Matrix: (Units=1/GPa)
#
#
# Indices 1 2 3 4 5 6 
#
# 1 0.009447 -0.002000 -0.001590 0.000000 0.000000 0.000000
# 2 -0.002000 0.011578 -0.005165 0.000000 0.000000 0.000000
# 3 -0.001590 -0.005165 0.009476 0.000000 0.000000 0.000000
# 4 0.000000 0.000000 0.000000 0.016918 0.000000 0.000000
# 5 0.000000 0.000000 0.000000 0.000000 0.030340 0.000000
# 6 0.000000 0.000000 0.000000 0.000000 0.000000 0.044877
#
#
# Mechanical properties :
#
#
# Convention : Reuss Voigt Hill
#
# Bulk Modulus (GPa) = 76.98057 79.74124 78.36091
# Shear Modulus (GPa) = 34.60745 39.18818 36.89781
#
# Velocity S-wave (km/s) = 3.89337 4.14303 4.02014
# Velocity P-wave (km/s) = 7.34365 7.60353 7.47472
#
# Compressibility (1/GPa) = 0.01299029
#
# Stress axis : x y z
#
# Youngs Moduli (GPa) = 105.85155 86.36716 105.53400
#
# Poissons Ratio (x) = 0.17277 0.16782
# Poissons Ratio (y) = 0.21175 0.54507
# Poissons Ratio (z) = 0.16832 0.44608
#
# Static dielectric constant tensor:
#      x y z
#    x 0.718670 0.000000 0.000000 
#    y 0.000000 4.579220 0.000000 
#    z 0.000000 0.000000 4.122920 
# 
# 
# High freq. dielectric constant tensor:
#      x y z
#    x 1.891180 0.000000 0.000000 
#    y 0.000000 1.923120 0.000000 
#    z 0.000000 0.000000 1.914870 
# 
# From -- ./inp_files/5820.got.cif
#   From: 2010.03.12/outbox.cif.g09.slc.cpg/sg17_3_cif.got.tgz:5820.got - 2010.04.10 18:46:23.
