data_PCOD8155790
_publ_section_title
;
Structure prediction by ZEFSAII (Michael W. Deem and Ramdas Pophale) SiO2 
 PCOD8155790
Probable space group: P 21 21 2
;
_chemical_formula_sum "Si O2"
_cell_formula_units_Z 28
_cell_length_a 9.508289
_cell_length_b 19.276437
_cell_length_c 8.287825
_cell_angle_alpha 90.000000
_cell_angle_beta 90.000000
_cell_angle_gamma 90.000000
_cell_volume 1519.041745
_symmetry_space_group_name_H-M "P 21 21 2"
_symmetry_group_IT_number 18
_symmetry_cell_setting 'orthorhombic'
loop_
_space_group_symop_operation_xyz
x,y,z
-x,-y,z
1/2+x,1/2-y,-z
1/2-x,1/2+y,-z
loop_
_atom_site_type_symbol
_atom_site_label
_atom_site_fract_x
_atom_site_fract_y
_atom_site_fract_z
Si Si1 0.066267 0.653803 0.473369
Si Si2 0.334817 0.858260 0.274179
Si Si3 0.546211 0.812761 0.021403
Si Si4 0.094694 0.561326 0.185158
Si Si5 0.231836 0.140558 0.252625
Si Si6 0.549393 0.715078 0.734111
Si Si7 0.331288 0.001806 0.126365
O O1 0.143125 0.600844 0.347042
O O2 0.190763 0.673381 0.593646
O O3 0.010293 0.722766 0.386007
O O4 0.930168 0.622276 0.568873
O O5 0.428395 0.808375 0.159891
O O6 0.197239 0.815933 0.323692
O O7 0.277775 0.926480 0.180219
O O8 0.702740 0.822415 0.094765
O O9 0.507659 0.881316 0.917367
O O10 0.552475 0.743030 0.917448
O O11 0.000000 0.500000 0.252805
O O12 0.207472 0.525257 0.060000
O O13 0.262233 0.057970 0.246540
O O14 0.067152 0.154977 0.270513
O O15 0.500000 0.000000 0.141298
#
# Coordination Sequence:
#
# PCOD8155790 Si02
#       7
#     4   4   4   4   4   4   4
#     4  10  21  33  55  79 108 148 176 220 267 325
#     4  11  20  35  58  81 110 143 184 225 268 322
#     4   9  18  35  56  78 104 143 182 218 258 321
#     4   9  16  30  56  83  96 123 186 232 251 300
#     4  10  20  35  55  80 109 144 180 222 268 320
#     4  11  22  34  51  85 115 143 177 221 275 323
#     4  10  17  36  58  78 101 136 187 227 260 318
#
# _framework density 18.432673999999999
#
# number of rings (size 3 to 8) (size 9 to 14) (size 15 to 20)
#    0.000    2.000    5.714    1.714    2.000    0.571 
#    0.000    0.000    0.000    0.000    0.000    0.000 
#    0.000    0.000    0.000    0.000    0.000    0.000 
#
# Total GULP energy -346882.878714 kJ/mol
# GULP energy per Si atom -12388.674240 kJ/mol
# Density = 1.839072 g / cm^3
# Si number density = 18.432674 Si / 1000 Ang^3
#
#
#
# Elastic Constant Matrix: (Units=GPa)
#
#
# Indices 1 2 3 4 5 6 
#
# 1 78.3978 18.3528 24.9759 0.0000 0.0000 0.0000
# 2 18.3528 68.9075 33.0311 0.0000 0.0000 0.0000
# 3 24.9759 33.0311 93.1522 0.0000 0.0000 0.0000
# 4 0.0000 0.0000 0.0000 23.6158 0.0000 0.0000
# 5 0.0000 0.0000 0.0000 0.0000 13.2718 0.0000
# 6 0.0000 0.0000 0.0000 0.0000 0.0000 20.3511
#
#
#
# Elastic Compliance Matrix: (Units=1/GPa)
#
#
# Indices 1 2 3 4 5 6 
#
# 1 0.014260 -0.002368 -0.002984 0.000000 0.000000 0.000000
# 2 -0.002368 0.017877 -0.005704 0.000000 0.000000 0.000000
# 3 -0.002984 -0.005704 0.013558 0.000000 0.000000 0.000000
# 4 0.000000 0.000000 0.000000 0.042345 0.000000 0.000000
# 5 0.000000 0.000000 0.000000 0.000000 0.075348 0.000000
# 6 0.000000 0.000000 0.000000 0.000000 0.000000 0.049137
#
#
# Mechanical properties :
#
#
# Convention : Reuss Voigt Hill
#
# Bulk Modulus (GPa) = 42.40242 43.68635 43.04438
# Shear Modulus (GPa) = 20.61872 22.38759 21.50316
#
# Velocity S-wave (km/s) = 3.34817 3.48883 3.41923
# Velocity P-wave (km/s) = 6.16449 6.32307 6.24428
#
# Compressibility (1/GPa) = 0.02358356
#
# Stress axis : x y z
#
# Youngs Moduli (GPa) = 70.12447 55.93709 73.75793
#
# Poissons Ratio (x) = 0.13245 0.22009
# Poissons Ratio (y) = 0.16604 0.42074
# Poissons Ratio (z) = 0.20924 0.31908
#
# Static dielectric constant tensor:
#      x y z
#    x 2.947890 0.000000 0.000000 
#    y 0.000000 3.422370 0.000000 
#    z 0.000000 0.000000 3.646080 
# 
# 
# High freq. dielectric constant tensor:
#      x y z
#    x 1.666780 0.000000 0.000000 
#    y 0.000000 1.714360 0.000000 
#    z 0.000000 0.000000 1.722750 
# 
# From -- ./inp_files/3463.got.cif
#   From: 2010.03.12/outbox.cif.g09.slc.cpg/sg18_2_cif.got.tgz:3463.got - 2010.04.10 18:53:55.
