data_PCOD8155547
_publ_section_title
;
Structure prediction by ZEFSAII (Michael W. Deem and Ramdas Pophale) SiO2 
 PCOD8155547
Probable space group: P 2 2 21
;
_chemical_formula_sum "Si O2"
_cell_formula_units_Z 18
_cell_length_a 9.917671
_cell_length_b 10.420616
_cell_length_c 7.246824
_cell_angle_alpha 90.000000
_cell_angle_beta 90.000000
_cell_angle_gamma 90.000000
_cell_volume 748.946514
_symmetry_space_group_name_H-M "P 2 2 21"
_symmetry_group_IT_number 17
_symmetry_cell_setting 'orthorhombic'
loop_
_space_group_symop_operation_xyz
x,y,z
-x,-y,1/2+z
x,-y,-z
-x,y,1/2-z
loop_
_atom_site_type_symbol
_atom_site_label
_atom_site_fract_x
_atom_site_fract_y
_atom_site_fract_z
Si Si1 0.157090 0.750524 0.230960
Si Si2 0.856547 0.207642 0.304729
Si Si3 0.500000 0.340508 0.250000
Si Si4 0.223301 0.473485 0.203302
Si Si5 0.648423 0.138644 0.028968
O O1 0.190582 0.606246 0.307279
O O2 0.255858 0.836923 0.352755
O O3 0.000000 0.784437 0.250000
O O4 0.187609 0.779631 0.017056
O O5 0.856183 0.351241 0.212435
O O6 0.742295 0.122996 0.209664
O O7 0.000000 0.145167 0.250000
O O8 0.380754 0.436762 0.197445
O O9 0.538329 0.249895 0.072796
O O10 0.168158 0.500000 0.000000
O O11 0.576781 0.000000 0.000000
#
# Coordination Sequence:
#
# PCOD8155547 Si02
#       5
#     4   4   2   4   4
#     4  11  22  41  71 107 137 182 221 283 370 426
#     4  10  20  41  64 101 142 169 223 287 343 420
#     4  10  24  46  64  98 136 180 234 304 332 410
#     4   9  21  37  64 100 135 171 223 280 355 413
#     4  11  26  47  67  95 135 190 241 282 342 409
#
# _framework density 24.033757999999999
#
# number of rings (size 3 to 8) (size 9 to 14) (size 15 to 20)
#    0.000    1.778    2.222    0.667    3.111    4.444 
#   12.000    0.000    0.000    0.000    0.000    0.000 
#    0.000    0.000    0.000    0.000    0.000    0.000 
#
# Total GULP energy -222995.185440 kJ/mol
# GULP energy per Si atom -12388.621413 kJ/mol
# Density = 2.397906 g / cm^3
# Si number density = 24.033758 Si / 1000 Ang^3
#
#
#
# Elastic Constant Matrix: (Units=GPa)
#
#
# Indices 1 2 3 4 5 6 
#
# 1 80.1560 -10.8745 12.3100 0.0000 0.0000 0.0000
# 2 -10.8745 77.5001 22.0402 0.0000 0.0000 0.0000
# 3 12.3100 22.0402 104.7125 0.0000 0.0000 0.0000
# 4 0.0000 0.0000 0.0000 14.2505 0.0000 0.0000
# 5 0.0000 0.0000 0.0000 0.0000 32.7728 0.0000
# 6 0.0000 0.0000 0.0000 0.0000 0.0000 20.1796
#
#
#
# Elastic Compliance Matrix: (Units=1/GPa)
#
#
# Indices 1 2 3 4 5 6 
#
# 1 0.013120 0.002425 -0.002053 0.000000 0.000000 0.000000
# 2 0.002425 0.014173 -0.003268 0.000000 0.000000 0.000000
# 3 -0.002053 -0.003268 0.010479 0.000000 0.000000 0.000000
# 4 0.000000 0.000000 0.000000 0.070173 0.000000 0.000000
# 5 0.000000 0.000000 0.000000 0.000000 0.030513 0.000000
# 6 0.000000 0.000000 0.000000 0.000000 0.000000 0.049555
#
#
# Mechanical properties :
#
#
# Convention : Reuss Voigt Hill
#
# Bulk Modulus (GPa) = 31.27006 34.36889 32.81948
# Shear Modulus (GPa) = 24.45401 29.36676 26.91039
#
# Velocity S-wave (km/s) = 3.19327 3.49936 3.34981
# Velocity P-wave (km/s) = 5.16092 5.53702 5.35227
#
# Compressibility (1/GPa) = 0.03197947
#
# Stress axis : x y z
#
# Youngs Moduli (GPa) = 76.22027 70.55734 95.42729
#
# Poissons Ratio (x) = -0.17108 0.19589
# Poissons Ratio (y) = -0.18481 0.31188
# Poissons Ratio (z) = 0.15646 0.23060
#
# Static dielectric constant tensor:
#      x y z
#    x 4.189000 0.000000 0.000000 
#    y 0.000000 4.436270 0.000000 
#    z 0.000000 0.000000 4.303400 
# 
# 
# High freq. dielectric constant tensor:
#      x y z
#    x 1.947550 0.000000 0.000000 
#    y 0.000000 1.947230 0.000000 
#    z 0.000000 0.000000 1.947670 
# 
# From -- ./inp_files/4572.got.cif
#   From: 2010.03.12/outbox.cif.g09.slc.cpg/sg17_3_cif.got.tgz:4572.got - 2010.04.10 18:46:23.
