data_PCOD8155063
_publ_section_title
;
Structure prediction by ZEFSAII (Michael W. Deem and Ramdas Pophale) SiO2 
 PCOD8155063
Probable space group: C 2/C
;
_chemical_formula_sum "Si O2"
_cell_formula_units_Z 44
_cell_length_a 17.281120
_cell_length_b 8.889720
_cell_length_c 13.854552
_cell_angle_alpha 90.000000
_cell_angle_beta 65.249540
_cell_angle_gamma 90.000000
_cell_volume 1932.881238
_symmetry_space_group_name_H-M "C 2/C"
_symmetry_group_IT_number 15
_symmetry_cell_setting 'monoclinic'
loop_
_space_group_symop_operation_xyz
x,y,z
-x,y,1/2-z
-x,-y,-z
x,-y,1/2+z
1/2+x,1/2+y,z
1/2-x,1/2+y,1/2-z
1/2-x,1/2-y,-z
1/2+x,1/2-y,1/2+z
loop_
_atom_site_type_symbol
_atom_site_label
_atom_site_fract_x
_atom_site_fract_y
_atom_site_fract_z
Si Si1 0.366280 0.824940 0.171090
Si Si2 0.203477 0.005030 0.801790
Si Si3 0.382752 0.117058 0.446383
Si Si4 0.718686 0.417587 0.506364
Si Si5 0.900093 0.907407 0.313192
Si Si6 0.000000 0.421272 0.250000
O O1 0.302316 0.963600 0.225137
O O2 0.313223 0.671309 0.203743
O O3 0.435587 0.819320 0.221186
O O4 0.409777 0.848685 0.043240
O O5 0.181942 0.053552 0.920459
O O6 0.140972 0.109515 0.770906
O O7 0.370242 0.271866 0.396310
O O8 0.293475 0.031934 0.494424
O O9 0.454682 0.023941 0.353736
O O10 0.750000 0.250000 0.500000
O O11 0.639722 0.440983 0.620121
O O12 0.000000 0.922554 0.250000
#
# Coordination Sequence:
#
# PCOD8155063 Si02
#       6
#     8   8   8   8   8   4
#     4  12  27  48  77 111 154 202 256 321 387 463
#     4  12  26  46  79 106 152 202 252 315 393 455
#     4  12  25  50  77 104 154 201 258 309 394 460
#     4  12  26  48  77 111 148 202 256 319 386 466
#     4  12  27  48  75 111 152 201 259 315 382 465
#     4  12  28  46  78 118 150 198 264 326 376 464
#
# _framework density 22.763943999999999
#
# number of rings (size 3 to 8) (size 9 to 14) (size 15 to 20)
#    0.000    0.000    6.364    3.273    1.273    0.727 
#    3.273    0.000    0.000    0.000    0.000    0.000 
#    0.000    0.000    0.000    0.000    0.000    0.000 
#
# Total GULP energy -272893.033701 kJ/mol
# GULP energy per Si atom -12404.228805 kJ/mol
# Density = 2.271213 g / cm^3
# Si number density = 22.763944 Si / 1000 Ang^3
#
#
#
# Elastic Constant Matrix: (Units=GPa)
#
#
# Indices 1 2 3 4 5 6 
#
# 1 164.7609 58.7129 71.8334 0.0000 20.3725 0.0000
# 2 58.7129 141.0119 54.8602 0.0000 2.4392 0.0000
# 3 71.8334 54.8602 121.9610 0.0000 10.0154 0.0000
# 4 0.0000 0.0000 0.0000 19.4183 0.0000 8.0179
# 5 20.3725 2.4392 10.0154 0.0000 51.5713 0.0000
# 6 0.0000 0.0000 0.0000 8.0179 0.0000 28.0420
#
#
#
# Elastic Compliance Matrix: (Units=1/GPa)
#
#
# Indices 1 2 3 4 5 6 
#
# 1 0.008924 -0.002072 -0.004108 0.000000 -0.002629 0.000000
# 2 -0.002072 0.009083 -0.002944 0.000000 0.000961 0.000000
# 3 -0.004108 -0.002944 0.011990 0.000000 -0.000566 0.000000
# 4 0.000000 0.000000 0.000000 0.058392 0.000000 -0.016696
# 5 -0.002629 0.000961 -0.000566 0.000000 0.020494 0.000000
# 6 0.000000 0.000000 0.000000 -0.016696 0.000000 0.040435
#
#
# Mechanical properties :
#
#
# Convention : Reuss Voigt Hill
#
# Bulk Modulus (GPa) = 85.11936 88.72743 86.92339
# Shear Modulus (GPa) = 29.15757 35.96146 32.55951
#
# Velocity S-wave (km/s) = 3.58280 3.97893 3.78605
# Velocity P-wave (km/s) = 7.38841 7.75699 7.57494
#
# Compressibility (1/GPa) = 0.01174821
#
# Stress axis : x y z
#
# Youngs Moduli (GPa) = 112.05777 110.09413 83.40329
#
# Poissons Ratio (x) = 0.22810 0.34264
# Poissons Ratio (y) = 0.23217 0.24557
# Poissons Ratio (z) = 0.46036 0.32415
#
# Static dielectric constant tensor:
#      x y z
#    x 4.180510 0.000000 0.274850 
#    y 0.000000 4.190860 0.000000 
#    z 0.274850 0.000000 4.429670 
# 
# 
# High freq. dielectric constant tensor:
#      x y z
#    x 1.899230 0.000000 0.013700 
#    y 0.000000 1.903140 0.000000 
#    z 0.013700 0.000000 1.921860 
# 
# From -- ./inp_files/159640.got.cif
#   From: 2010.06.25/outbox.cif.g09.slc.cpg/sg15_80_cif.got.tgz:159640.got - 2010.06.28 07:06:18.
