data_PCOD8155345
_publ_section_title
;
Structure prediction by ZEFSAII (Michael W. Deem and Ramdas Pophale) SiO2 
 PCOD8155345
Probable space group: P 2 2 2
;
_chemical_formula_sum "Si O2"
_cell_formula_units_Z 20
_cell_length_a 13.175968
_cell_length_b 10.095996
_cell_length_c 7.527740
_cell_angle_alpha 90.000000
_cell_angle_beta 90.000000
_cell_angle_gamma 90.000000
_cell_volume 1001.374002
_symmetry_space_group_name_H-M "P 2 2 2"
_symmetry_group_IT_number 16
_symmetry_cell_setting 'orthorhombic'
loop_
_space_group_symop_operation_xyz
x,y,z
-x,-y,z
x,-y,-z
-x,y,-z
loop_
_atom_site_type_symbol
_atom_site_label
_atom_site_fract_x
_atom_site_fract_y
_atom_site_fract_z
Si Si1 0.880990 0.156753 0.496458
Si Si2 0.389874 0.988503 0.209638
Si Si3 0.259682 0.253610 0.801975
Si Si4 0.616517 0.491445 0.709715
Si Si5 0.739582 0.766630 0.207718
O O1 0.838215 0.230849 0.321424
O O2 0.838215 0.236915 0.667324
O O3 0.000000 0.179723 0.500000
O O4 0.854950 0.000000 0.500000
O O5 0.345181 0.847630 0.266103
O O6 0.500000 0.000000 0.299933
O O7 0.319210 0.105042 0.280195
O O8 0.399575 0.000000 0.000000
O O9 0.310257 0.397472 0.791917
O O10 0.224909 0.222642 0.003398
O O11 0.500000 0.500000 0.779978
O O12 0.618791 0.500000 0.500000
O O13 0.662812 0.354144 0.772939
#
# Coordination Sequence:
#
# PCOD8155345 Si02
#       5
#     4   4   4   4   4
#     4  11  24  43  66  93 123 157 207 269 326 367
#     4   9  18  33  57  88 121 157 200 248 296 360
#     4  11  22  40  63  91 125 163 209 253 306 371
#     4  11  23  39  63  95 133 172 205 244 304 374
#     4  11  22  40  63  91 125 163 209 253 306 371
#
# _framework density 19.972559
#
# number of rings (size 3 to 8) (size 9 to 14) (size 15 to 20)
#    0.000    1.400    4.000    1.800    0.000    4.000 
#    0.000    5.000    0.000    2.400    0.000    0.000 
#    0.000    0.000    0.000    0.000    0.000    0.000 
#
# Total GULP energy -247993.671452 kJ/mol
# GULP energy per Si atom -12399.683573 kJ/mol
# Density = 1.992710 g / cm^3
# Si number density = 19.972559 Si / 1000 Ang^3
#
#
#
# Elastic Constant Matrix: (Units=GPa)
#
#
# Indices 1 2 3 4 5 6 
#
# 1 128.3839 23.1220 54.3717 0.0000 0.0000 0.0000
# 2 23.1220 61.6453 13.1805 0.0000 0.0000 0.0000
# 3 54.3717 13.1805 114.7587 0.0000 0.0000 0.0000
# 4 0.0000 0.0000 0.0000 21.6465 0.0000 0.0000
# 5 0.0000 0.0000 0.0000 0.0000 13.1574 0.0000
# 6 0.0000 0.0000 0.0000 0.0000 0.0000 5.4866
#
#
#
# Elastic Compliance Matrix: (Units=1/GPa)
#
#
# Indices 1 2 3 4 5 6 
#
# 1 0.010216 -0.002867 -0.004511 0.000000 0.000000 0.000000
# 2 -0.002867 0.017435 -0.000644 0.000000 0.000000 0.000000
# 3 -0.004511 -0.000644 0.010925 0.000000 0.000000 0.000000
# 4 0.000000 0.000000 0.000000 0.046197 0.000000 0.000000
# 5 0.000000 0.000000 0.000000 0.000000 0.076003 0.000000
# 6 0.000000 0.000000 0.000000 0.000000 0.000000 0.182261
#
#
# Mechanical properties :
#
#
# Convention : Reuss Voigt Hill
#
# Bulk Modulus (GPa) = 44.38195 54.01515 49.19855
# Shear Modulus (GPa) = 13.63916 22.33237 17.98576
#
# Velocity S-wave (km/s) = 2.61606 3.34751 3.00413
# Velocity P-wave (km/s) = 5.60310 6.48417 6.05967
#
# Compressibility (1/GPa) = 0.02253168
#
# Stress axis : x y z
#
# Youngs Moduli (GPa) = 97.88615 57.35586 91.53212
#
# Poissons Ratio (x) = 0.16446 0.41289
# Poissons Ratio (y) = 0.28067 0.05894
# Poissons Ratio (z) = 0.44155 0.03694
#
# Static dielectric constant tensor:
#      x y z
#    x 3.590020 0.000000 0.000000 
#    y 0.000000 3.668950 0.000000 
#    z 0.000000 0.000000 4.263180 
# 
# 
# High freq. dielectric constant tensor:
#      x y z
#    x 1.766950 0.000000 0.000000 
#    y 0.000000 1.783420 0.000000 
#    z 0.000000 0.000000 1.787250 
# 
# From -- ./inp_files/4988.got.cif
#   From: 2010.03.12/outbox.cif.g09.slc.cpg/sg16_3_cif.got.tgz:4988.got - 2010.03.31 00:51:45.
