data_PCOD8155179
_publ_section_title
;
Structure prediction by ZEFSAII (Michael W. Deem and Ramdas Pophale) SiO2 
 PCOD8155179
Probable space group: C 2/C
;
_chemical_formula_sum "Si O2"
_cell_formula_units_Z 64
_cell_length_a 16.672604
_cell_length_b 34.543820
_cell_length_c 23.032303
_cell_angle_alpha 90.000000
_cell_angle_beta 160.629953
_cell_angle_gamma 90.000000
_cell_volume 4399.615478
_symmetry_space_group_name_H-M "C 2/C"
_symmetry_group_IT_number 15
_symmetry_cell_setting 'monoclinic'
loop_
_space_group_symop_operation_xyz
x,y,z
-x,y,1/2-z
-x,-y,-z
x,-y,1/2+z
1/2+x,1/2+y,z
1/2-x,1/2+y,1/2-z
1/2-x,1/2-y,-z
1/2+x,1/2-y,1/2+z
loop_
_atom_site_type_symbol
_atom_site_label
_atom_site_fract_x
_atom_site_fract_y
_atom_site_fract_z
Si Si1 0.037994 0.982047 0.182164
Si Si2 0.613591 0.982060 0.969913
Si Si3 0.604683 0.863368 0.467003
Si Si4 0.053911 0.136628 0.191900
Si Si5 0.064802 0.287218 0.200234
Si Si6 0.240790 0.941182 0.783781
Si Si7 0.105879 0.212792 0.470369
Si Si8 0.588452 0.058833 0.630967
O O1 0.207009 0.983324 0.353525
O O2 0.140320 0.949292 0.208035
O O3 0.762406 0.972374 0.012769
O O4 0.046592 0.024108 0.157284
O O5 0.409809 0.949301 0.842799
O O6 0.487830 0.024122 0.877811
O O7 0.735874 0.856447 0.617772
O O8 0.441770 0.825948 0.342747
O O9 0.424028 0.900154 0.344740
O O10 0.799921 0.870886 0.550103
O O11 0.106116 0.099856 0.186002
O O12 0.046288 0.174037 0.145509
O O13 0.309211 0.286572 0.404906
O O14 0.062653 0.249998 0.156618
O O15 0.833882 0.285976 0.083841
O O16 0.400310 0.940259 0.950216
#
# Coordination Sequence:
#
# PCOD8155179 Si02
#       8
#     8   8   8   8   8   8   8   8
#     4   8  12  18  28  43  66  94 121 150 181 208
#     4   8  12  18  28  43  66  94 121 150 181 208
#     4   9  15  22  33  49  70  95 120 146 175 206
#     4   9  15  22  33  49  70  95 120 146 175 206
#     4   9  16  25  36  50  69  93 119 144 171 206
#     4   8  13  19  28  45  68  93 120 148 178 210
#     4   9  16  25  36  50  69  93 119 144 171 206
#     4   8  13  19  28  45  68  93 120 148 178 210
#
# _framework density 14.546726
#
# number of rings (size 3 to 8) (size 9 to 14) (size 15 to 20)
#    0.000    3.500    0.000    3.000    0.000    6.000 
#    0.000    0.000    0.000    0.000    0.000    3.500 
#    0.000    4.000    0.000    1.750    0.000    2.500 
#
# Total GULP energy -396548.745431 kJ/mol
# GULP energy per Si atom -12392.148295 kJ/mol
# Density = 1.451362 g / cm^3
# Si number density = 14.546726 Si / 1000 Ang^3
#
#
#
# Elastic Constant Matrix: (Units=GPa)
#
#
# Indices 1 2 3 4 5 6 
#
# 1 58.5123 50.3190 32.1914 -0.0033 16.0455 0.0007
# 2 50.3190 148.0333 45.2327 -0.0026 4.0718 -0.0037
# 3 32.1914 45.2327 38.3549 0.1235 0.1819 -0.0321
# 4 -0.0033 -0.0026 0.1235 17.0994 0.0088 1.2541
# 5 16.0455 4.0718 0.1819 0.0088 17.7733 0.0002
# 6 0.0007 -0.0037 -0.0321 1.2541 0.0002 18.6450
#
#
#
# Elastic Compliance Matrix: (Units=1/GPa)
#
#
# Indices 1 2 3 4 5 6 
#
# 1 0.060841 -0.005773 -0.044005 0.000364 -0.053154 -0.000103
# 2 -0.005773 0.011203 -0.008380 0.000061 0.002731 -0.000016
# 3 -0.044005 -0.008380 0.072697 -0.000568 0.040904 0.000163
# 4 0.000364 0.000061 -0.000568 0.058776 -0.000366 -0.003954
# 5 -0.053154 0.002731 0.040904 -0.000366 0.103206 0.000096
# 6 -0.000103 -0.000016 0.000163 -0.003954 0.000096 0.053900
#
#
# Mechanical properties :
#
#
# Convention : Reuss Voigt Hill
#
# Bulk Modulus (GPa) = 35.18072 55.59854 45.38963
# Shear Modulus (GPa) = 10.27930 18.51404 14.39667
#
# Velocity S-wave (km/s) = 2.66115 3.57140 3.14934
# Velocity P-wave (km/s) = 5.80340 7.43708 6.67044
#
# Compressibility (1/GPa) = 0.02842466
#
# Stress axis : x y z
#
# Youngs Moduli (GPa) = 16.43625 89.26246 13.75575
#
# Poissons Ratio (x) = 0.51528 0.60533
# Poissons Ratio (y) = 0.09488 0.11527
# Poissons Ratio (z) = 0.72329 0.74802
#
# Static dielectric constant tensor:
#      x y z
#    x 2.716920 0.000000 0.131370 
#    y 0.000000 3.020100 -0.000010 
#    z 0.131370 -0.000010 2.563450 
# 
# 
# High freq. dielectric constant tensor:
#      x y z
#    x 1.515960 0.000000 0.000230 
#    y 0.000000 1.559490 0.000000 
#    z 0.000230 0.000000 1.515020 
# 
# From -- ./inp_files/278376.got.cif
#   From: 2010.06.25/outbox.cif.g09.slc.cpg/sg15_140_cif.got.tgz:278376.got - 2010.06.28 07:06:18.
