data_PCOD8155440
_publ_section_title
;
Structure prediction by ZEFSAII (Michael W. Deem and Ramdas Pophale) SiO2 
 PCOD8155440
Probable space group: P 2 2 21
;
_chemical_formula_sum "Si O2"
_cell_formula_units_Z 32
_cell_length_a 11.608102
_cell_length_b 14.632577
_cell_length_c 8.911951
_cell_angle_alpha 90.000000
_cell_angle_beta 90.000000
_cell_angle_gamma 90.000000
_cell_volume 1513.752327
_symmetry_space_group_name_H-M "P 2 2 21"
_symmetry_group_IT_number 17
_symmetry_cell_setting 'orthorhombic'
loop_
_space_group_symop_operation_xyz
x,y,z
-x,-y,1/2+z
x,-y,-z
-x,y,1/2-z
loop_
_atom_site_type_symbol
_atom_site_label
_atom_site_fract_x
_atom_site_fract_y
_atom_site_fract_z
Si Si1 0.003355 0.904640 0.066663
Si Si2 0.889093 0.238125 0.350414
Si Si3 0.670557 0.292888 0.846752
Si Si4 0.773423 0.164764 0.066534
Si Si5 0.479907 0.910471 0.584130
Si Si6 0.257442 0.406481 0.091948
Si Si7 0.577237 0.736997 0.454082
Si Si8 0.623697 0.487148 0.827094
O O1 0.000000 0.901993 0.250000
O O2 0.875612 0.897704 0.996892
O O3 0.084610 0.824224 0.997508
O O4 0.052945 0.000000 0.000000
O O5 0.792395 0.193318 0.240773
O O6 0.852576 0.339048 0.406145
O O7 0.000000 0.251089 0.250000
O O8 0.550286 0.300638 0.933244
O O9 0.647432 0.233575 0.696250
O O10 0.700401 0.395958 0.797482
O O11 0.769206 0.252198 0.954134
O O12 0.652528 0.113259 0.047588
O O13 0.500000 0.940833 0.750000
O O14 0.569125 0.828355 0.552057
O O15 0.519886 0.000000 0.500000
O O16 0.297727 0.431983 0.260094
O O17 0.233138 0.500000 0.000000
O O18 0.362970 0.348232 0.030756
O O19 0.500000 0.479012 0.750000
O O20 0.602577 0.500000 0.000000
#
# Coordination Sequence:
#
# PCOD8155440 Si02
#       8
#     4   4   4   4   4   4   4   4
#     4  11  24  45  72  99 126 163 216 282 336 389
#     4  10  24  46  66  94 130 164 214 276 334 382
#     4  10  19  36  61  93 129 172 205 258 313 369
#     4  10  22  42  68  93 132 173 214 264 324 394
#     4  11  25  41  62  94 133 177 215 255 318 387
#     4  12  23  41  65  92 126 170 218 264 320 387
#     4  10  21  39  59  89 134 167 211 259 308 378
#     4  12  22  35  57  94 130 171 220 261 310 377
#
# _framework density 21.139521999999999
#
# number of rings (size 3 to 8) (size 9 to 14) (size 15 to 20)
#    0.000    1.250    2.500    4.125    5.250    2.500 
#    0.000    6.250    0.000    0.000    0.000    0.000 
#    0.000    0.000    0.000    0.000    0.000    0.000 
#
# Total GULP energy -396591.171136 kJ/mol
# GULP energy per Si atom -12393.474098 kJ/mol
# Density = 2.109141 g / cm^3
# Si number density = 21.139522 Si / 1000 Ang^3
#
#
#
# Elastic Constant Matrix: (Units=GPa)
#
#
# Indices 1 2 3 4 5 6 
#
# 1 42.2155 32.6699 27.5564 0.0000 0.0000 0.0000
# 2 32.6699 152.7841 67.5203 0.0000 0.0000 0.0000
# 3 27.5564 67.5203 155.2647 0.0000 0.0000 0.0000
# 4 0.0000 0.0000 0.0000 39.8733 0.0000 0.0000
# 5 0.0000 0.0000 0.0000 0.0000 24.3737 0.0000
# 6 0.0000 0.0000 0.0000 0.0000 0.0000 36.8157
#
#
#
# Elastic Compliance Matrix: (Units=1/GPa)
#
#
# Indices 1 2 3 4 5 6 
#
# 1 0.029535 -0.004950 -0.003089 0.000000 0.000000 0.000000
# 2 -0.004950 0.008932 -0.003006 0.000000 0.000000 0.000000
# 3 -0.003089 -0.003006 0.008296 0.000000 0.000000 0.000000
# 4 0.000000 0.000000 0.000000 0.025079 0.000000 0.000000
# 5 0.000000 0.000000 0.000000 0.000000 0.041028 0.000000
# 6 0.000000 0.000000 0.000000 0.000000 0.000000 0.027162
#
#
# Mechanical properties :
#
#
# Convention : Reuss Voigt Hill
#
# Bulk Modulus (GPa) = 40.53014 67.30639 53.91826
# Shear Modulus (GPa) = 29.35168 35.04705 32.19936
#
# Velocity S-wave (km/s) = 3.73027 4.07614 3.90703
# Velocity P-wave (km/s) = 6.14553 7.35265 6.77602
#
# Compressibility (1/GPa) = 0.02467300
#
# Stress axis : x y z
#
# Youngs Moduli (GPa) = 33.85757 111.95638 120.54031
#
# Poissons Ratio (x) = 0.55423 0.37237
# Poissons Ratio (y) = 0.16761 0.36231
# Poissons Ratio (z) = 0.10459 0.33651
#
# Static dielectric constant tensor:
#      x y z
#    x 3.646810 0.000000 0.000000 
#    y 0.000000 4.104360 0.000000 
#    z 0.000000 0.000000 4.541580 
# 
# 
# High freq. dielectric constant tensor:
#      x y z
#    x 1.800420 0.000000 0.000000 
#    y 0.000000 1.837200 0.000000 
#    z 0.000000 0.000000 1.845510 
# 
# From -- ./inp_files/4930.got.cif
#   From: 2010.03.12/outbox.cif.g09.slc.cpg/sg17_3_cif.got.tgz:4930.got - 2010.04.10 18:46:23.
