data_PCOD8155730
_publ_section_title
;
Structure prediction by ZEFSAII (Michael W. Deem and Ramdas Pophale) SiO2 
 PCOD8155730
Probable space group: P 2 2 21
;
_chemical_formula_sum "Si O2"
_cell_formula_units_Z 20
_cell_length_a 9.571223
_cell_length_b 12.711276
_cell_length_c 7.505883
_cell_angle_alpha 90.000000
_cell_angle_beta 90.000000
_cell_angle_gamma 90.000000
_cell_volume 913.184169
_symmetry_space_group_name_H-M "P 2 2 21"
_symmetry_group_IT_number 17
_symmetry_cell_setting 'orthorhombic'
loop_
_space_group_symop_operation_xyz
x,y,z
-x,-y,1/2+z
x,-y,-z
-x,y,1/2-z
loop_
_atom_site_type_symbol
_atom_site_label
_atom_site_fract_x
_atom_site_fract_y
_atom_site_fract_z
Si Si1 0.357337 0.321700 0.965387
Si Si2 0.162465 0.277875 0.267104
Si Si3 0.154630 0.968499 0.700058
Si Si4 0.669977 0.616223 0.059335
Si Si5 0.609299 0.907832 0.390725
O O1 0.310531 0.362542 0.770612
O O2 0.511009 0.365730 0.007243
O O3 0.353279 0.196436 0.996233
O O4 0.245369 0.350222 0.119772
O O5 0.223175 0.305772 0.461466
O O6 0.000000 0.308334 0.250000
O O7 0.182336 0.152588 0.252008
O O8 0.250306 0.040524 0.821486
O O9 0.000000 0.003182 0.750000
O O10 0.189097 0.000000 0.500000
O O11 0.713540 0.500000 0.000000
O O12 0.500000 0.863791 0.250000
O O13 0.529367 0.000000 0.500000
#
# Coordination Sequence:
#
# PCOD8155730 Si02
#       5
#     4   4   4   4   4
#     4  11  25  45  72 102 138 176 234 290 342 418
#     4  11  26  46  69 103 141 183 230 286 343 414
#     4  11  24  40  65  95 140 187 224 269 334 415
#     4  11  26  48  73 102 131 181 232 292 360 409
#     4  12  23  39  63  99 134 177 224 279 335 398
#
# _framework density 21.901387
#
# number of rings (size 3 to 8) (size 9 to 14) (size 15 to 20)
#    0.000    0.800    4.000    3.000   11.200    0.800 
#    3.600    0.000    0.000    0.000    0.000    0.000 
#    0.000    0.000    0.000    0.000    0.000    0.000 
#
# Total GULP energy -247923.483115 kJ/mol
# GULP energy per Si atom -12396.174156 kJ/mol
# Density = 2.185154 g / cm^3
# Si number density = 21.901387 Si / 1000 Ang^3
#
#
#
# Elastic Constant Matrix: (Units=GPa)
#
#
# Indices 1 2 3 4 5 6 
#
# 1 110.3417 1.1518 27.1680 0.0000 0.0000 0.0000
# 2 1.1518 69.7958 -2.5806 0.0000 0.0000 0.0000
# 3 27.1680 -2.5806 87.0010 0.0000 0.0000 0.0000
# 4 0.0000 0.0000 0.0000 36.2653 0.0000 0.0000
# 5 0.0000 0.0000 0.0000 0.0000 -4.6555 0.0000
# 6 0.0000 0.0000 0.0000 0.0000 0.0000 15.5907
#
#
#
# Elastic Compliance Matrix: (Units=1/GPa)
#
#
# Indices 1 2 3 4 5 6 
#
# 1 0.009823 -0.000276 -0.003076 0.000000 0.000000 0.000000
# 2 -0.000276 0.014351 0.000512 0.000000 0.000000 0.000000
# 3 -0.003076 0.000512 0.012470 0.000000 0.000000 0.000000
# 4 0.000000 0.000000 0.000000 0.027575 0.000000 0.000000
# 5 0.000000 0.000000 0.000000 0.000000 -0.214799 0.000000
# 6 0.000000 0.000000 0.000000 0.000000 0.000000 0.064141
#
#
# Mechanical properties :
#
#
# Convention : Reuss Voigt Hill
#
# Bulk Modulus (GPa) = 32.29517 35.40189 33.84853
# Shear Modulus (GPa) = -70.98321 25.53340 -22.72490
#
# Velocity S-wave (km/s) = -5.69919 3.41814 -3.22468
# Velocity P-wave (km/s) = 5.34134 5.63716 1.27429
#
# Compressibility (1/GPa) = 0.03096438
#
# Stress axis : x y z
#
# Youngs Moduli (GPa) = 101.80292 69.68166 80.19420
#
# Poissons Ratio (x) = 0.01922 0.24665
# Poissons Ratio (y) = 0.02808 -0.04104
# Poissons Ratio (z) = 0.31311 -0.03566
#
# Static dielectric constant tensor:
#      x y z
#    x 3.902150 0.000000 0.000000 
#    y 0.000000 4.485490 0.000000 
#    z 0.000000 0.000000 4.311640 
# 
# 
# High freq. dielectric constant tensor:
#      x y z
#    x 1.860720 0.000000 0.000000 
#    y 0.000000 1.861110 0.000000 
#    z 0.000000 0.000000 1.872340 
# 
# From -- ./inp_files/4011.got.cif
#   From: 2010.03.12/outbox.cif.g09.slc.cpg/sg17_3_cif.got.tgz:4011.got - 2010.04.10 18:46:23.
