data_PCOD8155426
_publ_section_title
;
Structure prediction by ZEFSAII (Michael W. Deem and Ramdas Pophale) SiO2 
 PCOD8155426
Probable space group: P 2 2 21
;
_chemical_formula_sum "Si O2"
_cell_formula_units_Z 24
_cell_length_a 17.775709
_cell_length_b 7.973622
_cell_length_c 8.587788
_cell_angle_alpha 90.000000
_cell_angle_beta 90.000000
_cell_angle_gamma 90.000000
_cell_volume 1217.205456
_symmetry_space_group_name_H-M "P 2 2 21"
_symmetry_group_IT_number 17
_symmetry_cell_setting 'orthorhombic'
loop_
_space_group_symop_operation_xyz
x,y,z
-x,-y,1/2+z
x,-y,-z
-x,y,1/2-z
loop_
_atom_site_type_symbol
_atom_site_label
_atom_site_fract_x
_atom_site_fract_y
_atom_site_fract_z
Si Si1 0.582537 0.966397 0.316489
Si Si2 0.076275 0.411283 0.841749
Si Si3 0.299679 0.152753 0.396077
Si Si4 0.221929 0.604429 0.805518
Si Si5 0.315266 0.301098 0.709368
Si Si6 0.807225 0.826760 0.411013
O O1 0.500000 0.989593 0.250000
O O2 0.609307 0.773874 0.288472
O O3 0.586885 0.000000 0.500000
O O4 0.633238 0.098817 0.219882
O O5 0.143621 0.515156 0.756651
O O6 0.107131 0.220247 0.864206
O O7 0.000000 0.402114 0.750000
O O8 0.053502 0.500000 0.000000
O O9 0.230444 0.227737 0.297569
O O10 0.325795 0.294212 0.522290
O O11 0.269925 0.000000 0.500000
O O12 0.294685 0.487685 0.767850
O O13 0.220290 0.664716 0.985535
O O14 0.248648 0.170067 0.764063
O O15 0.804087 0.000000 0.500000
#
# Coordination Sequence:
#
# PCOD8155426 Si02
#       6
#     4   4   4   4   4   4
#     4  11  22  38  59  84 118 155 189 232 286 343
#     4   9  20  36  56  80 112 151 191 235 289 341
#     4  10  20  34  56  87 114 145 187 232 283 336
#     4  10  20  36  58  84 113 150 192 235 285 344
#     4  10  19  33  56  84 112 145 189 235 278 336
#     4  10  19  35  58  83 111 148 193 239 286 344
#
# _framework density 19.717295
#
# number of rings (size 3 to 8) (size 9 to 14) (size 15 to 20)
#    0.000    2.000    0.000    7.000    0.000    2.667 
#    0.000    4.167    0.000   19.000    0.000    0.000 
#    0.000    0.000    0.000    0.000    0.000    0.000 
#
# Total GULP energy -297389.834929 kJ/mol
# GULP energy per Si atom -12391.243122 kJ/mol
# Density = 1.967242 g / cm^3
# Si number density = 19.717295 Si / 1000 Ang^3
#
#
#
# Elastic Constant Matrix: (Units=GPa)
#
#
# Indices 1 2 3 4 5 6 
#
# 1 93.6407 43.0289 55.1821 0.0000 0.0000 0.0000
# 2 43.0289 78.5072 22.5723 0.0000 0.0000 0.0000
# 3 55.1821 22.5723 115.4916 0.0000 0.0000 0.0000
# 4 0.0000 0.0000 0.0000 26.6768 0.0000 0.0000
# 5 0.0000 0.0000 0.0000 0.0000 38.0509 0.0000
# 6 0.0000 0.0000 0.0000 0.0000 0.0000 25.4896
#
#
#
# Elastic Compliance Matrix: (Units=1/GPa)
#
#
# Indices 1 2 3 4 5 6 
#
# 1 0.018782 -0.008173 -0.007377 0.000000 0.000000 0.000000
# 2 -0.008173 0.017053 0.000572 0.000000 0.000000 0.000000
# 3 -0.007377 0.000572 0.012071 0.000000 0.000000 0.000000
# 4 0.000000 0.000000 0.000000 0.037486 0.000000 0.000000
# 5 0.000000 0.000000 0.000000 0.000000 0.026281 0.000000
# 6 0.000000 0.000000 0.000000 0.000000 0.000000 0.039232
#
#
# Mechanical properties :
#
#
# Convention : Reuss Voigt Hill
#
# Bulk Modulus (GPa) = 55.70739 58.80069 57.25404
# Shear Modulus (GPa) = 26.76052 29.16720 27.96386
#
# Velocity S-wave (km/s) = 3.68803 3.85030 3.77004
# Velocity P-wave (km/s) = 6.81541 7.04649 6.93191
#
# Compressibility (1/GPa) = 0.01795094
#
# Stress axis : x y z
#
# Youngs Moduli (GPa) = 53.24318 58.64156 82.84093
#
# Poissons Ratio (x) = 0.47929 0.61108
# Poissons Ratio (y) = 0.43516 -0.04741
# Poissons Ratio (z) = 0.39275 -0.03356
#
# Static dielectric constant tensor:
#      x y z
#    x 3.387710 0.000000 0.000000 
#    y 0.000000 3.774660 0.000000 
#    z 0.000000 0.000000 3.878470 
# 
# 
# High freq. dielectric constant tensor:
#      x y z
#    x 1.737770 0.000000 0.000000 
#    y 0.000000 1.772070 0.000000 
#    z 0.000000 0.000000 1.785450 
# 
# From -- ./inp_files/5436.got.cif
#   From: 2010.03.12/outbox.cif.g09.slc.cpg/sg17_3_cif.got.tgz:5436.got - 2010.04.10 18:46:23.
