data_PCOD8155472
_publ_section_title
;
Structure prediction by ZEFSAII (Michael W. Deem and Ramdas Pophale) SiO2 
 PCOD8155472
Probable space group: P 2 2 21
;
_chemical_formula_sum "Si O2"
_cell_formula_units_Z 24
_cell_length_a 12.731472
_cell_length_b 10.787474
_cell_length_c 9.180157
_cell_angle_alpha 90.000000
_cell_angle_beta 90.000000
_cell_angle_gamma 90.000000
_cell_volume 1260.806647
_symmetry_space_group_name_H-M "P 2 2 21"
_symmetry_group_IT_number 17
_symmetry_cell_setting 'orthorhombic'
loop_
_space_group_symop_operation_xyz
x,y,z
-x,-y,1/2+z
x,-y,-z
-x,y,1/2-z
loop_
_atom_site_type_symbol
_atom_site_label
_atom_site_fract_x
_atom_site_fract_y
_atom_site_fract_z
Si Si1 0.429459 0.000000 0.000000
Si Si2 0.706320 0.214405 0.622178
Si Si3 0.396674 0.465641 0.836869
Si Si4 0.896619 0.157234 0.159339
Si Si5 0.284669 0.297973 0.196947
Si Si6 0.500000 0.840099 0.750000
Si Si7 0.109010 0.127318 0.679539
O O1 0.505993 0.077430 0.104247
O O2 0.356955 0.913453 0.102444
O O3 0.631253 0.321786 0.684972
O O4 0.750221 0.257398 0.465390
O O5 0.798679 0.200145 0.739219
O O6 0.500000 0.498933 0.750000
O O7 0.298492 0.553403 0.789394
O O8 0.426697 0.500000 0.000000
O O9 0.804968 0.253126 0.195545
O O10 0.000000 0.196524 0.250000
O O11 0.865279 0.017615 0.201992
O O12 0.908266 0.166721 0.986666
O O13 0.395795 0.240765 0.243206
O O14 0.000000 0.164900 0.750000
#
# Coordination Sequence:
#
# PCOD8155472 Si02
#       7
#     2   4   4   4   4   2   4
#     4  10  22  34  54  84 120 150 190 240 296 352
#     4  10  21  37  56  83 114 155 189 242 294 343
#     4  10  22  39  59  81 112 157 200 238 287 344
#     4  10  21  36  60  88 115 153 192 243 297 355
#     4  10  20  38  57  80 115 151 197 236 288 344
#     4  10  20  34  54  80 114 154 184 242 296 342
#     4  10  20  36  58  87 117 148 191 241 302 355
#
# _framework density 19.035430999999999
#
# number of rings (size 3 to 8) (size 9 to 14) (size 15 to 20)
#    0.000    2.000    0.833    3.000    1.167    6.667 
#    0.000    0.833    0.000    0.000    0.000    0.000 
#    0.000    0.000    0.000    0.000    0.000    0.000 
#
# Total GULP energy -297577.370104 kJ/mol
# GULP energy per Si atom -12399.057088 kJ/mol
# Density = 1.899211 g / cm^3
# Si number density = 19.035431 Si / 1000 Ang^3
#
#
#
# Elastic Constant Matrix: (Units=GPa)
#
#
# Indices 1 2 3 4 5 6 
#
# 1 109.9813 47.5891 67.3296 0.0000 0.0000 0.0000
# 2 47.5891 98.6530 37.5613 0.0000 0.0000 0.0000
# 3 67.3296 37.5613 103.3313 0.0000 0.0000 0.0000
# 4 0.0000 0.0000 0.0000 22.6459 0.0000 0.0000
# 5 0.0000 0.0000 0.0000 0.0000 37.6228 0.0000
# 6 0.0000 0.0000 0.0000 0.0000 0.0000 2.7030
#
#
#
# Elastic Compliance Matrix: (Units=1/GPa)
#
#
# Indices 1 2 3 4 5 6 
#
# 1 0.016716 -0.004546 -0.009239 0.000000 0.000000 0.000000
# 2 -0.004546 0.013001 -0.001764 0.000000 0.000000 0.000000
# 3 -0.009239 -0.001764 0.016339 0.000000 0.000000 0.000000
# 4 0.000000 0.000000 0.000000 0.044158 0.000000 0.000000
# 5 0.000000 0.000000 0.000000 0.000000 0.026580 0.000000
# 6 0.000000 0.000000 0.000000 0.000000 0.000000 0.369961
#
#
# Mechanical properties :
#
#
# Convention : Reuss Voigt Hill
#
# Bulk Modulus (GPa) = 66.85538 68.54729 67.70134
# Shear Modulus (GPa) = 9.56319 23.22671 16.39495
#
# Velocity S-wave (km/s) = 2.24383 3.49690 2.93795
# Velocity P-wave (km/s) = 6.47386 7.23830 6.86673
#
# Compressibility (1/GPa) = 0.01495766
#
# Stress axis : x y z
#
# Youngs Moduli (GPa) = 59.82431 76.91766 61.20284
#
# Poissons Ratio (x) = 0.34964 0.56548
# Poissons Ratio (y) = 0.27194 0.10796
# Poissons Ratio (z) = 0.55274 0.13568
#
# Static dielectric constant tensor:
#      x y z
#    x 3.326680 0.000000 0.000000 
#    y 0.000000 3.601180 0.000000 
#    z 0.000000 0.000000 3.641410 
# 
# 
# High freq. dielectric constant tensor:
#      x y z
#    x 1.729280 0.000000 0.000000 
#    y 0.000000 1.737590 0.000000 
#    z 0.000000 0.000000 1.748160 
# 
# From -- ./inp_files/4813.got.cif
#   From: 2010.03.12/outbox.cif.g09.slc.cpg/sg17_3_cif.got.tgz:4813.got - 2010.04.10 18:46:23.
