data_PCOD8155375
_publ_section_title
;
Structure prediction by ZEFSAII (Michael W. Deem and Ramdas Pophale) SiO2 
 PCOD8155375
Probable space group: P 2 2 21
;
_chemical_formula_sum "Si O2"
_cell_formula_units_Z 18
_cell_length_a 9.087761
_cell_length_b 10.667510
_cell_length_c 8.433378
_cell_angle_alpha 90.000000
_cell_angle_beta 90.000000
_cell_angle_gamma 90.000000
_cell_volume 817.563553
_symmetry_space_group_name_H-M "P 2 2 21"
_symmetry_group_IT_number 17
_symmetry_cell_setting 'orthorhombic'
loop_
_space_group_symop_operation_xyz
x,y,z
-x,-y,1/2+z
x,-y,-z
-x,y,1/2-z
loop_
_atom_site_type_symbol
_atom_site_label
_atom_site_fract_x
_atom_site_fract_y
_atom_site_fract_z
Si Si1 0.276753 0.128203 0.926077
Si Si2 0.547876 0.500000 0.500000
Si Si3 0.000000 0.808406 0.250000
Si Si4 0.221812 0.336561 0.160630
Si Si5 0.907273 0.363425 0.023045
Si Si6 0.500000 0.300986 0.750000
O O1 0.114828 0.105649 0.847878
O O2 0.370398 0.204688 0.795981
O O3 0.267622 0.207537 0.084010
O O4 0.342830 0.000000 0.000000
O O5 0.650983 0.560357 0.636703
O O6 0.458714 0.390489 0.596653
O O7 0.095492 0.719667 0.365511
O O8 0.197256 0.301477 0.344458
O O9 0.072584 0.387111 0.083147
O O10 0.836551 0.500000 0.000000
#
# Coordination Sequence:
#
# PCOD8155375 Si02
#       6
#     4   2   2   4   4   2
#     4  10  23  45  64  90 132 174 221 269 319 399
#     4  10  20  40  60  94 128 162 226 280 332 398
#     4  10  22  36  62  98 126 170 224 264 322 384
#     4   9  19  34  57  89 132 167 204 269 332 384
#     4  10  18  29  56  96 135 165 202 264 338 398
#     4  10  24  42  70  92 130 178 214 280 340 390
#
# _framework density 22.016635000000001
#
# number of rings (size 3 to 8) (size 9 to 14) (size 15 to 20)
#    0.000    2.222    1.111    1.333    6.222    5.333 
#    0.000    7.778    0.000    0.000    0.000    0.000 
#    0.000    0.000    0.000    0.000    0.000    0.000 
#
# Total GULP energy -223017.717051 kJ/mol
# GULP energy per Si atom -12389.873170 kJ/mol
# Density = 2.196652 g / cm^3
# Si number density = 22.016635 Si / 1000 Ang^3
#
#
#
# Elastic Constant Matrix: (Units=GPa)
#
#
# Indices 1 2 3 4 5 6 
#
# 1 52.7582 46.3126 40.1484 0.0000 0.0000 0.0000
# 2 46.3126 115.6573 55.1530 0.0000 0.0000 0.0000
# 3 40.1484 55.1530 133.2815 0.0000 0.0000 0.0000
# 4 0.0000 0.0000 0.0000 31.6958 0.0000 0.0000
# 5 0.0000 0.0000 0.0000 0.0000 38.4917 0.0000
# 6 0.0000 0.0000 0.0000 0.0000 0.0000 21.4493
#
#
#
# Elastic Compliance Matrix: (Units=1/GPa)
#
#
# Indices 1 2 3 4 5 6 
#
# 1 0.032089 -0.010266 -0.005418 0.000000 0.000000 0.000000
# 2 -0.010266 0.014056 -0.002724 0.000000 0.000000 0.000000
# 3 -0.005418 -0.002724 0.010262 0.000000 0.000000 0.000000
# 4 0.000000 0.000000 0.000000 0.031550 0.000000 0.000000
# 5 0.000000 0.000000 0.000000 0.000000 0.025980 0.000000
# 6 0.000000 0.000000 0.000000 0.000000 0.000000 0.046622
#
#
# Mechanical properties :
#
#
# Convention : Reuss Voigt Hill
#
# Bulk Modulus (GPa) = 51.04294 64.99169 58.01732
# Shear Modulus (GPa) = 24.52124 28.99956 26.76040
#
# Velocity S-wave (km/s) = 3.34092 3.63321 3.49013
# Velocity P-wave (km/s) = 6.17386 6.86904 6.53071
#
# Compressibility (1/GPa) = 0.01959135
#
# Stress axis : x y z
#
# Youngs Moduli (GPa) = 31.16329 71.14426 97.44396
#
# Poissons Ratio (x) = 0.73034 0.52797
# Poissons Ratio (y) = 0.31991 0.26545
# Poissons Ratio (z) = 0.16885 0.19381
#
# Static dielectric constant tensor:
#      x y z
#    x 3.856630 0.000000 0.000000 
#    y 0.000000 3.759670 0.000000 
#    z 0.000000 0.000000 4.191490 
# 
# 
# High freq. dielectric constant tensor:
#      x y z
#    x 1.849250 0.000000 0.000000 
#    y 0.000000 1.842330 0.000000 
#    z 0.000000 0.000000 1.878800 
# 
# From -- ./inp_files/3969.got.cif
#   From: 2010.03.12/outbox.cif.g09.slc.cpg/sg17_2_cif.got.tgz:3969.got - 2010.04.10 18:46:23.
