data_PCOD8155635
_publ_section_title
;
Structure prediction by ZEFSAII (Michael W. Deem and Ramdas Pophale) SiO2 
 PCOD8155635
Probable space group: P 2 2 21
;
_chemical_formula_sum "Si O2"
_cell_formula_units_Z 24
_cell_length_a 8.721743
_cell_length_b 23.121408
_cell_length_c 5.209304
_cell_angle_alpha 90.000000
_cell_angle_beta 90.000000
_cell_angle_gamma 90.000000
_cell_volume 1050.502923
_symmetry_space_group_name_H-M "P 2 2 21"
_symmetry_group_IT_number 17
_symmetry_cell_setting 'orthorhombic'
loop_
_space_group_symop_operation_xyz
x,y,z
-x,-y,1/2+z
x,-y,-z
-x,y,1/2-z
loop_
_atom_site_type_symbol
_atom_site_label
_atom_site_fract_x
_atom_site_fract_y
_atom_site_fract_z
Si Si1 0.683555 0.400456 0.280084
Si Si2 0.752944 0.879683 0.042596
Si Si3 0.100822 0.000000 0.500000
Si Si4 0.101147 0.500000 0.000000
Si Si5 0.243320 0.218734 0.911711
Si Si6 0.500000 0.824064 0.750000
Si Si7 0.000000 0.190634 0.250000
Si Si8 0.678668 0.665846 0.224299
O O1 0.500000 0.414429 0.250000
O O2 0.783163 0.455755 0.358755
O O3 0.734705 0.354923 0.497362
O O4 0.741392 0.373227 0.009708
O O5 0.788382 0.947067 0.074943
O O6 0.771808 0.846952 0.311476
O O7 0.580715 0.867861 0.948054
O O8 0.867059 0.851303 0.842105
O O9 0.000000 0.014927 0.250000
O O10 0.000000 0.477667 0.750000
O O11 0.270747 0.266810 0.690217
O O12 0.385320 0.220384 0.109046
O O13 0.078138 0.232290 0.039545
O O14 0.500000 0.659917 0.250000
#
# Coordination Sequence:
#
# PCOD8155635 Si02
#       8
#     4   4   2   2   4   2   2   4
#     4  10  24  45  73 110 139 194 252 290 342 436
#     4  11  23  44  65  97 131 179 237 285 363 424
#     4  12  26  46  72  94 130 184 238 304 352 428
#     4  12  26  48  76 106 156 196 234 310 380 416
#     4  11  23  41  69 100 141 186 224 296 355 430
#     4  10  24  40  66 102 134 182 224 288 374 424
#     4  10  22  40  64  96 130 180 242 270 354 436
#     4  10  22  40  70 106 141 180 238 296 350 413
#
# _framework density 22.846197
#
# number of rings (size 3 to 8) (size 9 to 14) (size 15 to 20)
#    0.000    1.333    0.833    4.000   10.500    2.667 
#    4.500    1.667    0.000    0.000    0.000    0.000 
#    0.000    0.000    0.000    0.000    0.000    0.000 
#
# Total GULP energy -297347.933958 kJ/mol
# GULP energy per Si atom -12389.497248 kJ/mol
# Density = 2.279420 g / cm^3
# Si number density = 22.846197 Si / 1000 Ang^3
#
#
#
# Elastic Constant Matrix: (Units=GPa)
#
#
# Indices 1 2 3 4 5 6 
#
# 1 85.6575 41.5129 45.4798 0.0000 0.0000 0.0000
# 2 41.5129 140.7984 57.4926 0.0000 0.0000 0.0000
# 3 45.4798 57.4926 151.3038 0.0000 0.0000 0.0000
# 4 0.0000 0.0000 0.0000 27.2697 0.0000 0.0000
# 5 0.0000 0.0000 0.0000 0.0000 21.2938 0.0000
# 6 0.0000 0.0000 0.0000 0.0000 0.0000 14.7053
#
#
#
# Elastic Compliance Matrix: (Units=1/GPa)
#
#
# Indices 1 2 3 4 5 6 
#
# 1 0.014914 -0.003038 -0.003329 0.000000 0.000000 0.000000
# 2 -0.003038 0.009026 -0.002516 0.000000 0.000000 0.000000
# 3 -0.003329 -0.002516 0.008566 0.000000 0.000000 0.000000
# 4 0.000000 0.000000 0.000000 0.036671 0.000000 0.000000
# 5 0.000000 0.000000 0.000000 0.000000 0.046962 0.000000
# 6 0.000000 0.000000 0.000000 0.000000 0.000000 0.068003
#
#
# Mechanical properties :
#
#
# Convention : Reuss Voigt Hill
#
# Bulk Modulus (GPa) = 67.84449 74.08115 70.96282
# Shear Modulus (GPa) = 24.17556 28.20538 26.19047
#
# Velocity S-wave (km/s) = 3.25651 3.51747 3.38950
# Velocity P-wave (km/s) = 6.62574 6.99951 6.81519
#
# Compressibility (1/GPa) = 0.01473959
#
# Stress axis : x y z
#
# Youngs Moduli (GPa) = 67.05083 110.79578 116.74200
#
# Poissons Ratio (x) = 0.33661 0.38858
# Poissons Ratio (y) = 0.20371 0.29376
# Poissons Ratio (z) = 0.22318 0.27880
#
# Static dielectric constant tensor:
#      x y z
#    x 4.561750 0.000000 0.000000 
#    y 0.000000 3.879900 0.000000 
#    z 0.000000 0.000000 4.962200 
# 
# 
# High freq. dielectric constant tensor:
#      x y z
#    x 1.904180 0.000000 0.000000 
#    y 0.000000 1.881170 0.000000 
#    z 0.000000 0.000000 1.919710 
# 
# From -- ./inp_files/1044.got.cif
#   From: 2010.03.12/outbox.cif.g09.slc.cpg/sg17_1_cif.got.tgz:1044.got - 2010.04.10 18:46:23.
