data_PCOD8155963
_publ_section_title
;
Structure prediction by ZEFSAII (Michael W. Deem and Ramdas Pophale) SiO2 
 PCOD8155963
Probable space group: P 21 21 2
;
_chemical_formula_sum "Si O2"
_cell_formula_units_Z 30
_cell_length_a 18.732098
_cell_length_b 9.397877
_cell_length_c 8.706831
_cell_angle_alpha 90.000000
_cell_angle_beta 90.000000
_cell_angle_gamma 90.000000
_cell_volume 1532.767533
_symmetry_space_group_name_H-M "P 21 21 2"
_symmetry_group_IT_number 18
_symmetry_cell_setting 'orthorhombic'
loop_
_space_group_symop_operation_xyz
x,y,z
-x,-y,z
1/2+x,1/2-y,-z
1/2-x,1/2+y,-z
loop_
_atom_site_type_symbol
_atom_site_label
_atom_site_fract_x
_atom_site_fract_y
_atom_site_fract_z
Si Si1 0.255346 0.582517 0.674032
Si Si2 0.457428 0.676043 0.204854
Si Si3 0.406400 0.398751 0.051957
Si Si4 0.777111 0.361594 0.330536
Si Si5 0.327447 0.850443 0.174998
Si Si6 0.244385 0.361380 0.144090
Si Si7 0.113799 0.876885 0.292788
Si Si8 0.000000 0.000000 0.518359
O O1 0.236922 0.570808 0.495862
O O2 0.191492 0.510740 0.773383
O O3 0.328136 0.501150 0.709149
O O4 0.265528 0.745008 0.723427
O O5 0.420284 0.563577 0.089892
O O6 0.539153 0.700487 0.150375
O O7 0.412220 0.821821 0.195342
O O8 0.456042 0.611261 0.376654
O O9 0.326060 0.359622 0.092372
O O10 0.422205 0.369877 0.873852
O O11 0.712371 0.258323 0.288075
O O12 0.781494 0.487687 0.207477
O O13 0.851267 0.275479 0.331948
O O14 0.304414 0.822128 0.000441
O O15 0.053750 0.907786 0.417408
#
# Coordination Sequence:
#
# PCOD8155963 Si02
#       8
#     4   4   4   4   4   4   4   2
#     4  11  24  35  64  91 127 160 206 266 320 368
#     4  10  22  37  64  90 123 163 209 259 309 386
#     4  10  20  36  63  91 121 163 208 254 312 374
#     4  11  23  37  62  93 125 154 212 260 319 369
#     4  11  21  40  61  92 119 163 211 261 313 372
#     4  12  21  39  64  91 128 159 208 264 314 374
#     4  11  22  40  61  94 122 165 209 258 314 372
#     4  10  22  38  66  90 128 166 204 258 312 384
#
# _framework density 19.57244
#
# number of rings (size 3 to 8) (size 9 to 14) (size 15 to 20)
#    0.000    1.333    4.000    4.800    5.600    0.000 
#    0.000    0.667    0.000    5.600    0.000    0.000 
#    0.000    0.000    0.000    0.000    0.000    0.000 
#
# Total GULP energy -372094.538029 kJ/mol
# GULP energy per Si atom -12403.151268 kJ/mol
# Density = 1.952789 g / cm^3
# Si number density = 19.572440 Si / 1000 Ang^3
#
#
#
# Elastic Constant Matrix: (Units=GPa)
#
#
# Indices 1 2 3 4 5 6 
#
# 1 97.2859 36.8921 41.8225 0.0000 0.0000 0.0000
# 2 36.8921 77.1276 21.6581 0.0000 0.0000 0.0000
# 3 41.8225 21.6581 113.0115 0.0000 0.0000 0.0000
# 4 0.0000 0.0000 0.0000 30.3778 0.0000 0.0000
# 5 0.0000 0.0000 0.0000 0.0000 26.6367 0.0000
# 6 0.0000 0.0000 0.0000 0.0000 0.0000 26.0019
#
#
#
# Elastic Compliance Matrix: (Units=1/GPa)
#
#
# Indices 1 2 3 4 5 6 
#
# 1 0.014208 -0.005622 -0.004181 0.000000 0.000000 0.000000
# 2 -0.005622 0.015928 -0.000972 0.000000 0.000000 0.000000
# 3 -0.004181 -0.000972 0.010582 0.000000 0.000000 0.000000
# 4 0.000000 0.000000 0.000000 0.032919 0.000000 0.000000
# 5 0.000000 0.000000 0.000000 0.000000 0.037542 0.000000
# 6 0.000000 0.000000 0.000000 0.000000 0.000000 0.038459
#
#
# Mechanical properties :
#
#
# Convention : Reuss Voigt Hill
#
# Bulk Modulus (GPa) = 52.16861 54.24119 53.20490
# Shear Modulus (GPa) = 28.15690 29.07344 28.61517
#
# Velocity S-wave (km/s) = 3.79700 3.85831 3.82778
# Velocity P-wave (km/s) = 6.77753 6.90086 6.83948
#
# Compressibility (1/GPa) = 0.01916861
#
# Stress axis : x y z
#
# Youngs Moduli (GPa) = 70.38183 62.78383 94.49976
#
# Poissons Ratio (x) = 0.35298 0.39507
# Poissons Ratio (y) = 0.39570 0.09184
# Poissons Ratio (z) = 0.29424 0.06102
#
# Static dielectric constant tensor:
#      x y z
#    x 3.660640 0.000000 0.000000 
#    y 0.000000 3.628500 0.000000 
#    z 0.000000 0.000000 3.726490 
# 
# 
# High freq. dielectric constant tensor:
#      x y z
#    x 1.754750 0.000000 0.000000 
#    y 0.000000 1.746600 0.000000 
#    z 0.000000 0.000000 1.779580 
# 
# From -- ./inp_files/4695.got.cif
#   From: 2010.03.12/outbox.cif.g09.slc.cpg/sg18_3_cif.got.tgz:4695.got - 2010.04.10 18:53:55.
