data_PCOD8155321
_publ_section_title
;
Structure prediction by ZEFSAII (Michael W. Deem and Ramdas Pophale) SiO2 
 PCOD8155321
Probable space group: P 2 2 2
;
_chemical_formula_sum "Si O2"
_cell_formula_units_Z 32
_cell_length_a 12.022138
_cell_length_b 13.602985
_cell_length_c 10.044874
_cell_angle_alpha 90.000000
_cell_angle_beta 90.000000
_cell_angle_gamma 90.000000
_cell_volume 1642.708186
_symmetry_space_group_name_H-M "P 2 2 2"
_symmetry_group_IT_number 16
_symmetry_cell_setting 'orthorhombic'
loop_
_space_group_symop_operation_xyz
x,y,z
-x,-y,z
x,-y,-z
-x,y,-z
loop_
_atom_site_type_symbol
_atom_site_label
_atom_site_fract_x
_atom_site_fract_y
_atom_site_fract_z
Si Si1 0.500087 0.888411 0.781294
Si Si2 0.775042 0.384355 0.783505
Si Si3 0.220310 0.610297 0.485604
Si Si4 0.121513 0.263055 0.989262
Si Si5 0.474950 0.387339 0.141720
Si Si6 0.425849 0.287127 0.619168
Si Si7 0.679416 0.887180 0.007538
Si Si8 0.106055 0.570658 0.229981
O O1 0.532276 0.823514 0.652313
O O2 0.379592 0.863431 0.849136
O O3 0.500000 0.000000 0.731084
O O4 0.591985 0.868751 0.891857
O O5 0.813163 0.354702 0.633683
O O6 0.647976 0.357531 0.812441
O O7 0.788227 0.501555 0.805675
O O8 0.857991 0.326194 0.878701
O O9 0.275450 0.500000 0.500000
O O10 0.299531 0.695490 0.425510
O O11 0.114546 0.603404 0.385636
O O12 0.115844 0.334902 0.862662
O O13 0.214420 0.179968 0.977441
O O14 0.000000 0.212485 0.000000
O O15 0.500000 0.500000 0.125341
O O16 0.562079 0.349107 0.247581
O O17 0.500000 0.334894 0.000000
O O18 0.500000 0.330005 0.500000
O O19 0.719308 0.000000 0.000000
O O20 0.000000 0.500000 0.207560
#
# Coordination Sequence:
#
# PCOD8155321 Si02
#       8
#     4   4   4   4   4   4   4   4
#     4   9  20  40  64  93 122 157 199 251 312 377
#     4  11  23  39  54  83 121 159 206 248 301 351
#     4  10  23  39  58  81 120 170 208 246 288 367
#     4  12  24  38  61  89 123 154 202 265 308 356
#     4  11  25  36  54  86 121 165 205 250 298 365
#     4  12  23  36  59  89 126 163 199 247 304 365
#     4   9  20  39  66  92 121 156 199 251 315 380
#     4  11  23  41  59  83 115 162 208 252 302 349
#
# _framework density 19.480028000000001
#
# number of rings (size 3 to 8) (size 9 to 14) (size 15 to 20)
#    0.000    1.375    2.500    4.125    8.750    2.750 
#    0.000    0.000    0.000    0.000    0.000    0.000 
#    0.000    2.000    0.000    0.000    0.000    0.000 
#
# Total GULP energy -396573.288597 kJ/mol
# GULP energy per Si atom -12392.915269 kJ/mol
# Density = 1.943569 g / cm^3
# Si number density = 19.480028 Si / 1000 Ang^3
#
#
#
# Elastic Constant Matrix: (Units=GPa)
#
#
# Indices 1 2 3 4 5 6 
#
# 1 93.1331 44.3237 31.5563 0.0000 0.0000 0.0000
# 2 44.3237 94.3881 44.7967 0.0000 0.0000 0.0000
# 3 31.5563 44.7967 127.9940 0.0000 0.0000 0.0000
# 4 0.0000 0.0000 0.0000 20.6524 0.0000 0.0000
# 5 0.0000 0.0000 0.0000 0.0000 25.1958 0.0000
# 6 0.0000 0.0000 0.0000 0.0000 0.0000 31.0485
#
#
#
# Elastic Compliance Matrix: (Units=1/GPa)
#
#
# Indices 1 2 3 4 5 6 
#
# 1 0.014029 -0.005932 -0.001383 0.000000 0.000000 0.000000
# 2 -0.005932 0.015213 -0.003862 0.000000 0.000000 0.000000
# 3 -0.001383 -0.003862 0.009505 0.000000 0.000000 0.000000
# 4 0.000000 0.000000 0.000000 0.048421 0.000000 0.000000
# 5 0.000000 0.000000 0.000000 0.000000 0.039689 0.000000
# 6 0.000000 0.000000 0.000000 0.000000 0.000000 0.032208
#
#
# Mechanical properties :
#
#
# Convention : Reuss Voigt Hill
#
# Bulk Modulus (GPa) = 60.99584 61.87431 61.43507
# Shear Modulus (GPa) = 26.75489 28.36856 27.56172
#
# Velocity S-wave (km/s) = 3.71003 3.82028 3.76556
# Velocity P-wave (km/s) = 7.05212 7.16179 7.10717
#
# Compressibility (1/GPa) = 0.01639456
#
# Stress axis : x y z
#
# Youngs Moduli (GPa) = 71.28225 65.73404 105.20306
#
# Poissons Ratio (x) = 0.38990 0.14547
# Poissons Ratio (y) = 0.42281 0.40629
# Poissons Ratio (z) = 0.09857 0.25386
#
# Static dielectric constant tensor:
#      x y z
#    x 3.557650 0.000000 0.000000 
#    y 0.000000 3.787850 0.000000 
#    z 0.000000 0.000000 3.773830 
# 
# 
# High freq. dielectric constant tensor:
#      x y z
#    x 1.748460 0.000000 0.000000 
#    y 0.000000 1.739400 0.000000 
#    z 0.000000 0.000000 1.769940 
# 
# From -- ./inp_files/4831.got.cif
#   From: 2010.03.12/outbox.cif.g09.slc.cpg/sg16_3_cif.got.tgz:4831.got - 2010.03.31 00:51:45.
