data_PCOD8155377
_publ_section_title
;
Structure prediction by ZEFSAII (Michael W. Deem and Ramdas Pophale) SiO2 
 PCOD8155377
Probable space group: P 2 2 21
;
_chemical_formula_sum "Si O2"
_cell_formula_units_Z 28
_cell_length_a 9.140911
_cell_length_b 16.646508
_cell_length_c 9.455096
_cell_angle_alpha 90.000000
_cell_angle_beta 90.000000
_cell_angle_gamma 90.000000
_cell_volume 1438.727573
_symmetry_space_group_name_H-M "P 2 2 21"
_symmetry_group_IT_number 17
_symmetry_cell_setting 'orthorhombic'
loop_
_space_group_symop_operation_xyz
x,y,z
-x,-y,1/2+z
x,-y,-z
-x,y,1/2-z
loop_
_atom_site_type_symbol
_atom_site_label
_atom_site_fract_x
_atom_site_fract_y
_atom_site_fract_z
Si Si1 0.676624 0.239233 0.399622
Si Si2 0.250802 0.609461 0.504682
Si Si3 0.823089 0.075443 0.087268
Si Si4 0.504638 0.500000 0.500000
Si Si5 0.003242 0.500000 0.000000
Si Si6 0.836685 0.078886 0.414096
Si Si7 0.348849 0.773048 0.564967
Si Si8 0.750595 0.586984 0.660568
O O1 0.765735 0.163507 0.463696
O O2 0.666873 0.232727 0.232231
O O3 0.519010 0.234333 0.474852
O O4 0.749939 0.327147 0.424612
O O5 0.395891 0.568696 0.437771
O O6 0.258824 0.704629 0.480054
O O7 0.250468 0.595928 0.672943
O O8 0.104141 0.570217 0.438008
O O9 0.793833 0.061354 0.252544
O O10 0.723958 0.144368 0.017986
O O11 0.992583 0.093682 0.061420
O O12 0.769204 0.000000 0.000000
O O13 0.605713 0.536850 0.622359
O O14 0.103834 0.462213 0.121536
O O15 0.782091 0.000000 0.500000
#
# Coordination Sequence:
#
# PCOD8155377 Si02
#       8
#     4   4   4   2   2   4   4   4
#     4   9  17  30  51  77  99 124 164 214 262 302
#     4  10  19  33  50  74 104 132 170 220 259 303
#     4   9  18  32  52  78 104 134 169 209 256 310
#     4  10  18  30  52  76  94 134 168 202 266 316
#     4  10  22  30  48  76  98 134 172 206 266 312
#     4   9  18  32  52  78 104 134 169 209 256 310
#     4   9  17  30  51  77  99 124 164 214 262 302
#     4  10  19  33  50  74 104 132 170 220 259 303
#
# _framework density 19.461639999999999
#
# number of rings (size 3 to 8) (size 9 to 14) (size 15 to 20)
#    0.000    2.571    1.429    0.857    2.000    0.571 
#    0.000    0.000    0.000   10.286    0.000    0.000 
#    0.000    0.000    0.000    0.000    0.000    0.000 
#
# Total GULP energy -346956.717017 kJ/mol
# GULP energy per Si atom -12391.311322 kJ/mol
# Density = 1.941734 g / cm^3
# Si number density = 19.461640 Si / 1000 Ang^3
#
#
#
# Elastic Constant Matrix: (Units=GPa)
#
#
# Indices 1 2 3 4 5 6 
#
# 1 115.5377 77.3928 19.6359 0.0000 0.0000 0.0000
# 2 77.3928 188.8733 39.1743 0.0000 0.0000 0.0000
# 3 19.6359 39.1743 24.7482 0.0000 0.0000 0.0000
# 4 0.0000 0.0000 0.0000 28.8008 0.0000 0.0000
# 5 0.0000 0.0000 0.0000 0.0000 19.4281 0.0000
# 6 0.0000 0.0000 0.0000 0.0000 0.0000 34.8017
#
#
#
# Elastic Compliance Matrix: (Units=1/GPa)
#
#
# Indices 1 2 3 4 5 6 
#
# 1 0.012041 -0.004395 -0.002596 0.000000 0.000000 0.000000
# 2 -0.004395 0.009487 -0.011530 0.000000 0.000000 0.000000
# 3 -0.002596 -0.011530 0.060717 0.000000 0.000000 0.000000
# 4 0.000000 0.000000 0.000000 0.034721 0.000000 0.000000
# 5 0.000000 0.000000 0.000000 0.000000 0.051472 0.000000
# 6 0.000000 0.000000 0.000000 0.000000 0.000000 0.028734
#
#
# Mechanical properties :
#
#
# Convention : Reuss Voigt Hill
#
# Bulk Modulus (GPa) = 22.12248 66.84057 44.48152
# Shear Modulus (GPa) = 20.05765 29.46986 24.76375
#
# Velocity S-wave (km/s) = 3.21382 3.89556 3.57100
# Velocity P-wave (km/s) = 5.01631 7.39278 6.31730
#
# Compressibility (1/GPa) = 0.04520290
#
# Stress axis : x y z
#
# Youngs Moduli (GPa) = 83.05252 105.40778 16.46981
#
# Poissons Ratio (x) = 0.46330 0.04275
# Poissons Ratio (y) = 0.36504 0.18989
# Poissons Ratio (z) = 0.21559 1.21532
#
# Static dielectric constant tensor:
#      x y z
#    x 3.756280 0.000000 0.000000 
#    y 0.000000 4.104030 0.000000 
#    z 0.000000 0.000000 3.072240 
# 
# 
# High freq. dielectric constant tensor:
#      x y z
#    x 1.765120 0.000000 0.000000 
#    y 0.000000 1.772260 0.000000 
#    z 0.000000 0.000000 1.700960 
# 
# From -- ./inp_files/6683.got.cif
#   From: 2010.03.12/outbox.cif.g09.slc.cpg/sg17_4_cif.got.tgz:6683.got - 2010.04.10 18:46:23.
