data_PCOD8155442
_publ_section_title
;
Structure prediction by ZEFSAII (Michael W. Deem and Ramdas Pophale) SiO2 
 PCOD8155442
Probable space group: P 2 2 21
;
_chemical_formula_sum "Si O2"
_cell_formula_units_Z 26
_cell_length_a 20.819824
_cell_length_b 7.828979
_cell_length_c 7.880786
_cell_angle_alpha 90.000000
_cell_angle_beta 90.000000
_cell_angle_gamma 90.000000
_cell_volume 1284.552080
_symmetry_space_group_name_H-M "P 2 2 21"
_symmetry_group_IT_number 17
_symmetry_cell_setting 'orthorhombic'
loop_
_space_group_symop_operation_xyz
x,y,z
-x,-y,1/2+z
x,-y,-z
-x,y,1/2-z
loop_
_atom_site_type_symbol
_atom_site_label
_atom_site_fract_x
_atom_site_fract_y
_atom_site_fract_z
Si Si1 0.570686 0.812481 0.301646
Si Si2 0.971337 0.671462 0.070447
Si Si3 0.940203 0.879837 0.648371
Si Si4 0.339592 0.502684 0.203861
Si Si5 0.239127 0.500000 0.500000
Si Si6 0.429063 0.808567 0.800345
Si Si7 0.148483 0.179625 0.451913
O O1 0.500000 0.751287 0.250000
O O2 0.620597 0.670106 0.239996
O O3 0.574711 0.823678 0.500785
O O4 0.585744 0.001695 0.222616
O O5 0.000000 0.637967 0.250000
O O6 0.938045 0.500000 0.000000
O O7 0.913387 0.808535 0.077703
O O8 0.027830 0.714712 0.937972
O O9 0.879648 0.820346 0.760218
O O10 0.000000 0.973195 0.750000
O O11 0.913335 0.000000 0.500000
O O12 0.277444 0.510327 0.322673
O O13 0.378172 0.332614 0.260836
O O14 0.323552 0.500000 0.000000
O O15 0.197847 0.329594 0.483606
O O16 0.500000 0.746513 0.750000
O O17 0.182455 0.000000 0.500000
#
# Coordination Sequence:
#
# PCOD8155442 Si02
#       7
#     4   4   4   4   2   4   4
#     4   9  18  33  59  95 124 150 192 248 315 377
#     4  11  20  35  63  99 128 159 194 253 322 384
#     4  10  19  36  62  97 126 157 199 249 327 390
#     4  10  23  43  61  83 122 166 207 258 303 363
#     4  12  28  46  62  88 122 172 230 256 300 368
#     4   9  18  33  59  95 124 150 193 247 313 383
#     4  11  24  44  62  89 127 160 210 262 304 372
#
# _framework density 20.240518000000002
#
# number of rings (size 3 to 8) (size 9 to 14) (size 15 to 20)
#    0.000    1.846    0.769    5.077    2.154    1.231 
#    5.538    0.000    0.000    0.000    0.000    0.000 
#    0.000    0.000    0.000    0.000    0.000    0.000 
#
# Total GULP energy -322217.811531 kJ/mol
# GULP energy per Si atom -12392.992751 kJ/mol
# Density = 2.019445 g / cm^3
# Si number density = 20.240518 Si / 1000 Ang^3
#
#
#
# Elastic Constant Matrix: (Units=GPa)
#
#
# Indices 1 2 3 4 5 6 
#
# 1 109.1891 76.8319 57.2832 0.0000 0.0000 0.0000
# 2 76.8319 150.6400 43.6179 0.0000 0.0000 0.0000
# 3 57.2832 43.6179 89.6356 0.0000 0.0000 0.0000
# 4 0.0000 0.0000 0.0000 17.3506 0.0000 0.0000
# 5 0.0000 0.0000 0.0000 0.0000 24.1271 0.0000
# 6 0.0000 0.0000 0.0000 0.0000 0.0000 28.5561
#
#
#
# Elastic Compliance Matrix: (Units=1/GPa)
#
#
# Indices 1 2 3 4 5 6 
#
# 1 0.018498 -0.006998 -0.008416 0.000000 0.000000 0.000000
# 2 -0.006998 0.010374 -0.000576 0.000000 0.000000 0.000000
# 3 -0.008416 -0.000576 0.016815 0.000000 0.000000 0.000000
# 4 0.000000 0.000000 0.000000 0.057635 0.000000 0.000000
# 5 0.000000 0.000000 0.000000 0.000000 0.041447 0.000000
# 6 0.000000 0.000000 0.000000 0.000000 0.000000 0.035019
#
#
# Mechanical properties :
#
#
# Convention : Reuss Voigt Hill
#
# Bulk Modulus (GPa) = 72.95527 78.32564 75.64045
# Shear Modulus (GPa) = 23.11208 25.45553 24.28380
#
# Velocity S-wave (km/s) = 3.38283 3.55019 3.46752
# Velocity P-wave (km/s) = 7.16801 7.45564 7.31324
#
# Compressibility (1/GPa) = 0.01370703
#
# Stress axis : x y z
#
# Youngs Moduli (GPa) = 54.06097 96.39258 59.47007
#
# Poissons Ratio (x) = 0.67452 0.50051
# Poissons Ratio (y) = 0.37830 0.03427
# Poissons Ratio (z) = 0.45498 0.05555
#
# Static dielectric constant tensor:
#      x y z
#    x 3.354110 0.000000 0.000000 
#    y 0.000000 4.377550 0.000000 
#    z 0.000000 0.000000 3.772480 
# 
# 
# High freq. dielectric constant tensor:
#      x y z
#    x 1.754910 0.000000 0.000000 
#    y 0.000000 1.813950 0.000000 
#    z 0.000000 0.000000 1.793680 
# 
# From -- ./inp_files/5475.got.cif
#   From: 2010.03.12/outbox.cif.g09.slc.cpg/sg17_3_cif.got.tgz:5475.got - 2010.04.10 18:46:23.
