data_PCOD8155615
_publ_section_title
;
Structure prediction by ZEFSAII (Michael W. Deem and Ramdas Pophale) SiO2 
 PCOD8155615
Probable space group: P 2 2 21
;
_chemical_formula_sum "Si O2"
_cell_formula_units_Z 32
_cell_length_a 8.646209
_cell_length_b 11.885050
_cell_length_c 14.484874
_cell_angle_alpha 90.000000
_cell_angle_beta 90.000000
_cell_angle_gamma 90.000000
_cell_volume 1488.474724
_symmetry_space_group_name_H-M "P 2 2 21"
_symmetry_group_IT_number 17
_symmetry_cell_setting 'orthorhombic'
loop_
_space_group_symop_operation_xyz
x,y,z
-x,-y,1/2+z
x,-y,-z
-x,y,1/2-z
loop_
_atom_site_type_symbol
_atom_site_label
_atom_site_fract_x
_atom_site_fract_y
_atom_site_fract_z
Si Si1 0.267522 0.629770 0.499689
Si Si2 0.600594 0.670523 0.563212
Si Si3 0.656660 0.518027 0.290904
Si Si4 0.104965 0.258164 0.664073
Si Si5 0.847768 0.662304 0.809549
Si Si6 0.678202 0.900868 0.275763
Si Si7 0.211135 0.717442 0.106172
Si Si8 0.329432 0.846491 0.788290
O O1 0.305334 0.500000 0.500000
O O2 0.426928 0.693373 0.526529
O O3 0.216523 0.659483 0.394533
O O4 0.136584 0.658923 0.578319
O O5 0.612461 0.556022 0.620191
O O6 0.721963 0.654651 0.481419
O O7 0.664450 0.780310 0.615682
O O8 0.500000 0.571025 0.250000
O O9 0.727239 0.435487 0.214625
O O10 0.769674 0.623540 0.311041
O O11 0.205946 0.150639 0.697036
O O12 0.000000 0.305641 0.750000
O O13 0.964348 0.237055 0.591339
O O14 0.784150 0.784643 0.782898
O O15 0.000000 0.636725 0.750000
O O16 0.500000 0.900995 0.250000
O O17 0.688243 0.826595 0.367919
O O18 0.734207 0.026967 0.299165
O O19 0.500000 0.846495 0.750000
#
# Coordination Sequence:
#
# PCOD8155615 Si02
#       8
#     4   4   4   4   4   4   4   4
#     4  12  25  38  67  99 140 182 233 288 341 424
#     4  11  22  41  64 100 132 173 230 285 339 418
#     4  11  22  41  65  94 140 182 228 282 349 419
#     4  10  26  44  61  96 140 177 230 283 347 418
#     4  11  25  39  64 100 137 183 225 282 359 414
#     4  10  22  43  72  89 117 178 221 280 344 406
#     4  11  24  37  66  94 135 171 222 281 347 412
#     4  10  21  46  70  91 132 172 229 289 345 411
#
# _framework density 21.498515999999999
#
# number of rings (size 3 to 8) (size 9 to 14) (size 15 to 20)
#    0.000    1.250    2.500    3.000    8.750    2.000 
#    0.000    0.625    5.500    0.000    0.000    0.000 
#    0.000    0.000    0.000    0.000    0.000    0.000 
#
# Total GULP energy -396454.365643 kJ/mol
# GULP energy per Si atom -12389.198926 kJ/mol
# Density = 2.144958 g / cm^3
# Si number density = 21.498516 Si / 1000 Ang^3
#
#
#
# Elastic Constant Matrix: (Units=GPa)
#
#
# Indices 1 2 3 4 5 6 
#
# 1 107.2157 32.7210 26.1677 0.0000 0.0000 0.0000
# 2 32.7210 133.0359 24.5196 0.0000 0.0000 0.0000
# 3 26.1677 24.5196 92.2079 0.0000 0.0000 0.0000
# 4 0.0000 0.0000 0.0000 19.3279 0.0000 0.0000
# 5 0.0000 0.0000 0.0000 0.0000 38.7533 0.0000
# 6 0.0000 0.0000 0.0000 0.0000 0.0000 28.9280
#
#
#
# Elastic Compliance Matrix: (Units=1/GPa)
#
#
# Indices 1 2 3 4 5 6 
#
# 1 0.010577 -0.002154 -0.002429 0.000000 0.000000 0.000000
# 2 -0.002154 0.008343 -0.001607 0.000000 0.000000 0.000000
# 3 -0.002429 -0.001607 0.011962 0.000000 0.000000 0.000000
# 4 0.000000 0.000000 0.000000 0.051739 0.000000 0.000000
# 5 0.000000 0.000000 0.000000 0.000000 0.025804 0.000000
# 6 0.000000 0.000000 0.000000 0.000000 0.000000 0.034569
#
#
# Mechanical properties :
#
#
# Convention : Reuss Voigt Hill
#
# Bulk Modulus (GPa) = 54.04936 55.47511 54.76224
# Shear Modulus (GPa) = 30.95202 34.00527 32.47865
#
# Velocity S-wave (km/s) = 3.79849 3.98144 3.89104
# Velocity P-wave (km/s) = 6.66585 6.85536 6.76127
#
# Compressibility (1/GPa) = 0.01850161
#
# Stress axis : x y z
#
# Youngs Moduli (GPa) = 94.54348 119.86466 83.59978
#
# Poissons Ratio (x) = 0.25817 0.20306
# Poissons Ratio (y) = 0.20363 0.13436
# Poissons Ratio (z) = 0.22964 0.19265
#
# Static dielectric constant tensor:
#      x y z
#    x 4.388250 0.000000 0.000000 
#    y 0.000000 3.962600 0.000000 
#    z 0.000000 0.000000 4.337350 
# 
# 
# High freq. dielectric constant tensor:
#      x y z
#    x 1.855960 0.000000 0.000000 
#    y 0.000000 1.826620 0.000000 
#    z 0.000000 0.000000 1.847050 
# 
# From -- ./inp_files/8275.got.cif
#   From: 2010.03.12/outbox.cif.g09.slc.cpg/sg17_5_cif.got.tgz:8275.got - 2010.04.10 18:46:23.
