data_PCOD8155775
_publ_section_title
;
Structure prediction by ZEFSAII (Michael W. Deem and Ramdas Pophale) SiO2 
 PCOD8155775
Probable space group: P 21 21 2
;
_chemical_formula_sum "Si O2"
_cell_formula_units_Z 30
_cell_length_a 5.023835
_cell_length_b 19.014045
_cell_length_c 15.953201
_cell_angle_alpha 90.000000
_cell_angle_beta 90.000000
_cell_angle_gamma 90.000000
_cell_volume 1523.904395
_symmetry_space_group_name_H-M "P 21 21 2"
_symmetry_group_IT_number 18
_symmetry_cell_setting 'orthorhombic'
loop_
_space_group_symop_operation_xyz
x,y,z
-x,-y,z
1/2+x,1/2-y,-z
1/2-x,1/2+y,-z
loop_
_atom_site_type_symbol
_atom_site_label
_atom_site_fract_x
_atom_site_fract_y
_atom_site_fract_z
Si Si1 0.703118 0.205159 0.003912
Si Si2 0.770636 0.897629 0.442692
Si Si3 0.725577 0.144194 0.355419
Si Si4 0.669103 0.130711 0.661518
Si Si5 0.808188 0.192451 0.825815
Si Si6 0.500000 0.000000 0.564881
Si Si7 0.824165 0.799564 0.588661
Si Si8 0.308912 0.288794 0.817146
O O1 0.776736 0.160160 0.920306
O O2 0.392166 0.225316 0.000359
O O3 0.765753 0.169356 0.094093
O O4 0.551030 0.895791 0.369479
O O5 0.758167 0.824300 0.494400
O O6 0.052142 0.906386 0.396500
O O7 0.717569 0.960636 0.507662
O O8 0.721817 0.216953 0.405972
O O9 0.772475 0.155034 0.256844
O O10 0.752184 0.130086 0.759614
O O11 0.669899 0.052396 0.623618
O O12 0.375940 0.163594 0.654340
O O13 0.874650 0.179411 0.610921
O O14 0.603806 0.257008 0.812147
O O15 0.099757 0.224554 0.809998
#
# Coordination Sequence:
#
# PCOD8155775 Si02
#       8
#     4   4   4   4   4   2   4   4
#     4   8  16  26  45  71 106 138 157 195 254 328
#     4  11  24  36  52  70 101 143 180 232 267 317
#     4  12  20  34  54  78 103 134 179 223 280 324
#     4  11  20  35  56  73 104 145 176 229 260 328
#     4  10  16  31  49  75 104 141 169 201 269 325
#     4  10  26  42  52  74 108 146 202 228 274 312
#     4  11  21  35  52  77 103 132 178 226 282 317
#     4  10  18  30  48  77 110 130 168 211 265 338
#
# _framework density 19.686273
#
# number of rings (size 3 to 8) (size 9 to 14) (size 15 to 20)
#    0.000    1.600    2.667    4.000    0.000    4.800 
#    0.000    0.000    0.000    0.000    0.000    0.933 
#    0.000   10.667    0.000    0.000    0.000    0.000 
#
# Total GULP energy -371872.401632 kJ/mol
# GULP energy per Si atom -12395.746721 kJ/mol
# Density = 1.964147 g / cm^3
# Si number density = 19.686273 Si / 1000 Ang^3
#
#
#
# Elastic Constant Matrix: (Units=GPa)
#
#
# Indices 1 2 3 4 5 6 
#
# 1 87.3618 13.2273 19.1688 0.0000 0.0000 0.0000
# 2 13.2273 48.0852 26.8226 0.0000 0.0000 0.0000
# 3 19.1688 26.8226 153.2371 0.0000 0.0000 0.0000
# 4 0.0000 0.0000 0.0000 24.2676 0.0000 0.0000
# 5 0.0000 0.0000 0.0000 0.0000 28.0001 0.0000
# 6 0.0000 0.0000 0.0000 0.0000 0.0000 17.7647
#
#
#
# Elastic Compliance Matrix: (Units=1/GPa)
#
#
# Indices 1 2 3 4 5 6 
#
# 1 0.012089 -0.002751 -0.001031 0.000000 0.000000 0.000000
# 2 -0.002751 0.023672 -0.003800 0.000000 0.000000 0.000000
# 3 -0.001031 -0.003800 0.007320 0.000000 0.000000 0.000000
# 4 0.000000 0.000000 0.000000 0.041207 0.000000 0.000000
# 5 0.000000 0.000000 0.000000 0.000000 0.035714 0.000000
# 6 0.000000 0.000000 0.000000 0.000000 0.000000 0.056291
#
#
# Mechanical properties :
#
#
# Convention : Reuss Voigt Hill
#
# Bulk Modulus (GPa) = 35.81685 45.23573 40.52629
# Shear Modulus (GPa) = 24.90502 29.30419 27.10461
#
# Velocity S-wave (km/s) = 3.56068 3.86237 3.71459
# Velocity P-wave (km/s) = 5.92772 6.55124 6.24726
#
# Compressibility (1/GPa) = 0.02791982
#
# Stress axis : x y z
#
# Youngs Moduli (GPa) = 82.71789 42.24313 136.61473
#
# Poissons Ratio (x) = 0.11619 0.14083
# Poissons Ratio (y) = 0.22752 0.51907
# Poissons Ratio (z) = 0.08527 0.16051
#
# Static dielectric constant tensor:
#      x y z
#    x 3.810900 0.000000 0.000000 
#    y 0.000000 3.031170 0.000000 
#    z 0.000000 0.000000 4.038170 
# 
# 
# High freq. dielectric constant tensor:
#      x y z
#    x 1.795120 0.000000 0.000000 
#    y 0.000000 1.687380 0.000000 
#    z 0.000000 0.000000 1.781190 
# 
# From -- ./inp_files/6573.got.cif
#   From: 2010.03.12/outbox.cif.g09.slc.cpg/sg18_4_cif.got.tgz:6573.got - 2010.04.10 18:53:55.
