data_PCOD8155788
_publ_section_title
;
Structure prediction by ZEFSAII (Michael W. Deem and Ramdas Pophale) SiO2 
 PCOD8155788
Probable space group: P 21 21 2
;
_chemical_formula_sum "Si O2"
_cell_formula_units_Z 22
_cell_length_a 5.074055
_cell_length_b 12.493819
_cell_length_c 19.944208
_cell_angle_alpha 90.000000
_cell_angle_beta 90.000000
_cell_angle_gamma 90.000000
_cell_volume 1264.349599
_symmetry_space_group_name_H-M "P 21 21 2"
_symmetry_group_IT_number 18
_symmetry_cell_setting 'orthorhombic'
loop_
_space_group_symop_operation_xyz
x,y,z
-x,-y,z
1/2+x,1/2-y,-z
1/2-x,1/2+y,-z
loop_
_atom_site_type_symbol
_atom_site_label
_atom_site_fract_x
_atom_site_fract_y
_atom_site_fract_z
Si Si1 0.000000 0.500000 0.272126
Si Si2 0.073285 0.840797 0.933571
Si Si3 0.429925 0.114237 0.018211
Si Si4 0.803186 0.088982 0.619403
Si Si5 0.000000 0.500000 0.502993
Si Si6 0.000000 0.000000 0.817379
Si Si7 0.470262 0.224096 0.459692
O O1 0.927242 0.597519 0.324258
O O2 0.753680 0.470236 0.226290
O O3 0.365375 0.867802 0.958079
O O4 0.859945 0.889253 0.985379
O O5 0.045382 0.893397 0.861005
O O6 0.042361 0.711296 0.928385
O O7 0.500000 0.000000 0.053163
O O8 0.921217 0.207830 0.608242
O O9 0.725350 0.044987 0.546097
O O10 0.000000 0.000000 0.650151
O O11 0.086682 0.597432 0.551724
O O12 0.772625 0.241957 0.480637
#
# Coordination Sequence:
#
# PCOD8155788 Si02
#       7
#     2   4   4   4   2   2   4
#     4  11  24  32  54  66 104 138 179 204 254 264
#     4  10  20  29  51  75 107 129 163 206 244 306
#     4  10  17  32  49  77 107 135 149 195 272 309
#     4  10  18  35  48  74 104 131 164 207 247 305
#     4   9  18  30  50  80 102 128 153 202 262 318
#     4  12  20  36  48  78  98 136 174 218 230 290
#     4  10  19  29  50  74 103 131 154 201 254 316
#
# _framework density 17.40025
#
# number of rings (size 3 to 8) (size 9 to 14) (size 15 to 20)
#    0.000    1.818    4.545    1.091    0.000    0.000 
#    0.000    0.000    0.000    0.000    2.364    2.545 
#    0.000    0.000    0.000    0.000    0.000    0.000 
#
# Total GULP energy -272550.255236 kJ/mol
# GULP energy per Si atom -12388.647965 kJ/mol
# Density = 1.736065 g / cm^3
# Si number density = 17.400250 Si / 1000 Ang^3
#
#
#
# Elastic Constant Matrix: (Units=GPa)
#
#
# Indices 1 2 3 4 5 6 
#
# 1 72.8738 15.2811 23.3674 0.0000 0.0000 0.0000
# 2 15.2811 146.4297 45.5224 0.0000 0.0000 0.0000
# 3 23.3674 45.5224 76.1033 0.0000 0.0000 0.0000
# 4 0.0000 0.0000 0.0000 10.6299 0.0000 0.0000
# 5 0.0000 0.0000 0.0000 0.0000 23.9143 0.0000
# 6 0.0000 0.0000 0.0000 0.0000 0.0000 22.5115
#
#
#
# Elastic Compliance Matrix: (Units=1/GPa)
#
#
# Indices 1 2 3 4 5 6 
#
# 1 0.015224 -0.000166 -0.004575 0.000000 0.000000 0.000000
# 2 -0.000166 0.008391 -0.004968 0.000000 0.000000 0.000000
# 3 -0.004575 -0.004968 0.017517 0.000000 0.000000 0.000000
# 4 0.000000 0.000000 0.000000 0.094075 0.000000 0.000000
# 5 0.000000 0.000000 0.000000 0.000000 0.041816 0.000000
# 6 0.000000 0.000000 0.000000 0.000000 0.000000 0.044422
#
#
# Mechanical properties :
#
#
# Convention : Reuss Voigt Hill
#
# Bulk Modulus (GPa) = 46.05609 51.52761 48.79185
# Shear Modulus (GPa) = 20.15307 25.49352 22.82330
#
# Velocity S-wave (km/s) = 3.40693 3.83185 3.62562
# Velocity P-wave (km/s) = 6.48092 7.01818 6.75489
#
# Compressibility (1/GPa) = 0.02171265
#
# Stress axis : x y z
#
# Youngs Moduli (GPa) = 65.68465 119.17392 57.08881
#
# Poissons Ratio (x) = 0.01984 0.26118
# Poissons Ratio (y) = 0.01094 0.28363
# Poissons Ratio (z) = 0.30051 0.59207
#
# Static dielectric constant tensor:
#      x y z
#    x 3.476990 0.000000 0.000000 
#    y 0.000000 3.786490 0.000000 
#    z 0.000000 0.000000 2.913670 
# 
# 
# High freq. dielectric constant tensor:
#      x y z
#    x 1.695750 0.000000 0.000000 
#    y 0.000000 1.671560 0.000000 
#    z 0.000000 0.000000 1.614210 
# 
# From -- ./inp_files/7464.got.cif
#   From: 2010.03.12/outbox.cif.g09.slc.cpg/sg18_4_cif.got.tgz:7464.got - 2010.04.10 18:53:55.
