data_PCOD8155613
_publ_section_title
;
Structure prediction by ZEFSAII (Michael W. Deem and Ramdas Pophale) SiO2 
 PCOD8155613
Probable space group: P 2 2 21
;
_chemical_formula_sum "Si O2"
_cell_formula_units_Z 20
_cell_length_a 8.336349
_cell_length_b 7.724907
_cell_length_c 13.750339
_cell_angle_alpha 90.000000
_cell_angle_beta 90.000000
_cell_angle_gamma 90.000000
_cell_volume 885.487741
_symmetry_space_group_name_H-M "P 2 2 21"
_symmetry_group_IT_number 17
_symmetry_cell_setting 'orthorhombic'
loop_
_space_group_symop_operation_xyz
x,y,z
-x,-y,1/2+z
x,-y,-z
-x,y,1/2-z
loop_
_atom_site_type_symbol
_atom_site_label
_atom_site_fract_x
_atom_site_fract_y
_atom_site_fract_z
Si Si1 0.180692 0.647956 0.722484
Si Si2 0.396283 0.186006 0.890331
Si Si3 0.728804 0.279594 0.815241
Si Si4 0.733310 0.173170 0.404300
Si Si5 0.093966 0.970539 0.606760
O O1 0.236339 0.480783 0.662421
O O2 0.282444 0.678471 0.822308
O O3 0.197755 0.818976 0.656545
O O4 0.000000 0.611079 0.750000
O O5 0.583476 0.232236 0.887094
O O6 0.308730 0.271002 0.798896
O O7 0.393545 0.977864 0.883092
O O8 0.306327 0.251784 0.988997
O O9 0.879017 0.151409 0.835733
O O10 0.907927 0.082581 0.396869
O O11 0.163078 0.000000 0.500000
#
# Coordination Sequence:
#
# PCOD8155613 Si02
#       5
#     4   4   4   4   4
#     4  10  24  42  71 106 135 181 235 290 342 410
#     4  10  22  44  69 102 136 187 228 280 355 414
#     4  11  25  43  67 101 144 180 231 287 353 412
#     4  10  21  44  75 100 133 184 236 281 348 411
#     4  11  23  42  71 100 139 184 235 290 338 403
#
# _framework density 22.586421999999999
#
# number of rings (size 3 to 8) (size 9 to 14) (size 15 to 20)
#    0.000    1.600    4.000    0.000    5.600    1.600 
#    7.200    8.000    0.000    0.000    0.000    0.000 
#    0.000    0.000    0.000    0.000    0.000    0.000 
#
# Total GULP energy -247941.255969 kJ/mol
# GULP energy per Si atom -12397.062798 kJ/mol
# Density = 2.253501 g / cm^3
# Si number density = 22.586422 Si / 1000 Ang^3
#
#
#
# Elastic Constant Matrix: (Units=GPa)
#
#
# Indices 1 2 3 4 5 6 
#
# 1 82.7094 42.5447 55.1801 0.0000 0.0000 0.0000
# 2 42.5447 161.0452 64.5088 0.0000 0.0000 0.0000
# 3 55.1801 64.5088 125.3662 0.0000 0.0000 0.0000
# 4 0.0000 0.0000 0.0000 18.7436 0.0000 0.0000
# 5 0.0000 0.0000 0.0000 0.0000 37.2536 0.0000
# 6 0.0000 0.0000 0.0000 0.0000 0.0000 20.8011
#
#
#
# Elastic Compliance Matrix: (Units=1/GPa)
#
#
# Indices 1 2 3 4 5 6 
#
# 1 0.017588 -0.001947 -0.006740 0.000000 0.000000 0.000000
# 2 -0.001947 0.008037 -0.003279 0.000000 0.000000 0.000000
# 3 -0.006740 -0.003279 0.012630 0.000000 0.000000 0.000000
# 4 0.000000 0.000000 0.000000 0.053352 0.000000 0.000000
# 5 0.000000 0.000000 0.000000 0.000000 0.026843 0.000000
# 6 0.000000 0.000000 0.000000 0.000000 0.000000 0.048074
#
#
# Mechanical properties :
#
#
# Convention : Reuss Voigt Hill
#
# Bulk Modulus (GPa) = 69.80722 77.06535 73.43629
# Shear Modulus (GPa) = 25.61075 29.15214 27.38145
#
# Velocity S-wave (km/s) = 3.37100 3.59652 3.48558
# Velocity P-wave (km/s) = 6.79156 7.17223 6.98449
#
# Compressibility (1/GPa) = 0.01432517
#
# Stress axis : x y z
#
# Youngs Moduli (GPa) = 56.85548 124.42366 79.17478
#
# Poissons Ratio (x) = 0.24222 0.53363
# Poissons Ratio (y) = 0.11068 0.25959
# Poissons Ratio (z) = 0.38320 0.40795
#
# Static dielectric constant tensor:
#      x y z
#    x 3.859590 0.000000 0.000000 
#    y 0.000000 4.083810 0.000000 
#    z 0.000000 0.000000 4.349870 
# 
# 
# High freq. dielectric constant tensor:
#      x y z
#    x 1.877730 0.000000 0.000000 
#    y 0.000000 1.881860 0.000000 
#    z 0.000000 0.000000 1.897750 
# 
# From -- ./inp_files/8002.got.cif
#   From: 2010.03.12/outbox.cif.g09.slc.cpg/sg17_5_cif.got.tgz:8002.got - 2010.04.10 18:46:23.
