data_PCOD8155176
_publ_section_title
;
Structure prediction by ZEFSAII (Michael W. Deem and Ramdas Pophale) SiO2 
 PCOD8155176
Probable space group: C 2/C
;
_chemical_formula_sum "Si O2"
_cell_formula_units_Z 28
_cell_length_a 11.232940
_cell_length_b 10.795793
_cell_length_c 10.478684
_cell_angle_alpha 90.000000
_cell_angle_beta 92.760312
_cell_angle_gamma 90.000000
_cell_volume 1269.259850
_symmetry_space_group_name_H-M "C 2/C"
_symmetry_group_IT_number 15
_symmetry_cell_setting 'monoclinic'
loop_
_space_group_symop_operation_xyz
x,y,z
-x,y,1/2-z
-x,-y,-z
x,-y,1/2+z
1/2+x,1/2+y,z
1/2-x,1/2+y,1/2-z
1/2-x,1/2-y,-z
1/2+x,1/2-y,1/2+z
loop_
_atom_site_type_symbol
_atom_site_label
_atom_site_fract_x
_atom_site_fract_y
_atom_site_fract_z
Si Si1 0.338667 0.999158 0.889835
Si Si2 0.566546 0.450903 0.880976
Si Si3 0.986413 0.307472 0.025858
Si Si4 0.500000 0.158417 0.250000
O O1 0.197492 0.008099 0.883481
O O2 0.387460 0.917308 0.012836
O O3 0.384475 0.931740 0.762684
O O4 0.393588 0.137725 0.903145
O O5 0.500000 0.493163 0.750000
O O6 0.500000 0.500000 0.000000
O O7 0.567989 0.301578 0.891715
O O8 0.017703 0.261078 0.880859
#
# Coordination Sequence:
#
# PCOD8155176 Si02
#       4
#     8   8   8   4
#     4   9  21  43  70  98 134 173 237 273 338 412
#     4  12  29  43  62 104 143 179 221 285 345 406
#     4   9  21  42  71  95 124 185 221 281 336 393
#     4   8  18  38  74 100 122 170 232 288 328 398
#
# _framework density 22.060099999999998
#
# number of rings (size 3 to 8) (size 9 to 14) (size 15 to 20)
#    1.714    0.571    0.000    0.857    8.000    1.143 
#    5.143    0.000    0.000    0.000    0.000    0.000 
#    0.000    0.000    0.000    0.000    0.000    0.000 
#
# Total GULP energy -173460.871870 kJ/mol
# GULP energy per Si atom -12390.062276 kJ/mol
# Density = 2.200989 g / cm^3
# Si number density = 22.060100 Si / 1000 Ang^3
#
#
#
# Elastic Constant Matrix: (Units=GPa)
#
#
# Indices 1 2 3 4 5 6 
#
# 1 163.7629 9.8943 36.4314 0.0000 16.6730 0.0000
# 2 9.8943 37.8300 -1.7760 0.0000 15.6566 0.0000
# 3 36.4314 -1.7760 98.8810 0.0000 6.6254 0.0000
# 4 0.0000 0.0000 0.0000 35.4833 0.0000 -2.3359
# 5 16.6730 15.6566 6.6254 0.0000 34.7923 0.0000
# 6 0.0000 0.0000 0.0000 -2.3359 0.0000 25.1562
#
#
#
# Elastic Compliance Matrix: (Units=1/GPa)
#
#
# Indices 1 2 3 4 5 6 
#
# 1 0.006948 -0.000912 -0.002412 0.000000 -0.002460 0.000000
# 2 -0.000912 0.032850 0.001912 0.000000 -0.014709 0.000000
# 3 -0.002412 0.001912 0.011159 0.000000 -0.001830 0.000000
# 4 0.000000 0.000000 0.000000 0.028356 0.000000 0.002633
# 5 -0.002460 -0.014709 -0.001830 0.000000 0.036888 0.000000
# 6 0.000000 0.000000 0.000000 0.002633 0.000000 0.039996
#
#
# Mechanical properties :
#
#
# Convention : Reuss Voigt Hill
#
# Bulk Modulus (GPa) = 20.77592 43.28593 32.03093
# Shear Modulus (GPa) = 28.56060 36.14798 32.35429
#
# Velocity S-wave (km/s) = 3.60206 4.05237 3.83383
# Velocity P-wave (km/s) = 5.17089 6.44671 5.84372
#
# Compressibility (1/GPa) = 0.04813264
#
# Stress axis : x y z
#
# Youngs Moduli (GPa) = 143.91645 30.44125 89.61680
#
# Poissons Ratio (x) = 0.02778 0.21612
# Poissons Ratio (y) = 0.13132 -0.17133
# Poissons Ratio (z) = 0.34707 -0.05820
#
# Static dielectric constant tensor:
#      x y z
#    x 3.595120 0.000000 -0.015800 
#    y 0.000000 3.867300 0.000000 
#    z -0.015800 0.000000 3.671260 
# 
# 
# High freq. dielectric constant tensor:
#      x y z
#    x 1.845880 0.000000 -0.005360 
#    y 0.000000 1.855390 0.000000 
#    z -0.005360 0.000000 1.864670 
# 
# From -- ./inp_files/83622.got.cif
#   From: 2010.06.25/outbox.cif.g09.slc.cpg/sg15_42_cif.got.tgz:83622.got - 2010.06.28 07:06:18.
