data_PCOD8155968
_publ_section_title
;
Structure prediction by ZEFSAII (Michael W. Deem and Ramdas Pophale) SiO2 
 PCOD8155968
Probable space group: P 21 21 2
;
_chemical_formula_sum "Si O2"
_cell_formula_units_Z 24
_cell_length_a 15.435044
_cell_length_b 8.880968
_cell_length_c 9.269138
_cell_angle_alpha 90.000000
_cell_angle_beta 90.000000
_cell_angle_gamma 90.000000
_cell_volume 1270.596121
_symmetry_space_group_name_H-M "P 21 21 2"
_symmetry_group_IT_number 18
_symmetry_cell_setting 'orthorhombic'
loop_
_space_group_symop_operation_xyz
x,y,z
-x,-y,z
1/2+x,1/2-y,-z
1/2-x,1/2+y,-z
loop_
_atom_site_type_symbol
_atom_site_label
_atom_site_fract_x
_atom_site_fract_y
_atom_site_fract_z
Si Si1 0.412529 0.417104 0.325654
Si Si2 0.733632 0.427673 0.151176
Si Si3 0.922499 0.394532 0.169730
Si Si4 0.245590 0.930097 0.147288
Si Si5 0.415309 0.407732 0.665372
Si Si6 0.579855 0.895005 0.163448
O O1 0.500000 0.500000 0.278992
O O2 0.332344 0.517641 0.272324
O O3 0.402433 0.404297 0.495572
O O4 0.414981 0.251469 0.260833
O O5 0.830970 0.479837 0.193790
O O6 0.734641 0.247223 0.134690
O O7 0.707261 0.508198 0.002713
O O8 0.931061 0.257575 0.276867
O O9 0.000000 0.500000 0.216009
O O10 0.929830 0.343664 0.002707
O O11 0.172799 0.972237 0.264953
O O12 0.333279 0.011980 0.191696
O O13 0.500000 0.500000 0.711549
O O14 0.500000 0.000000 0.211129
#
# Coordination Sequence:
#
# PCOD8155968 Si02
#       6
#     4   4   4   4   4   4
#     4  11  23  38  55  80 115 151 186 228 276 333
#     4  10  20  37  58  85 113 143 185 232 278 330
#     4   9  20  38  59  83 109 140 183 231 278 330
#     4  10  21  37  59  86 112 144 187 233 280 332
#     4  10  23  38  54  80 113 150 187 224 277 334
#     4  10  21  38  61  86 110 144 188 234 283 333
#
# _framework density 18.888773
#
# number of rings (size 3 to 8) (size 9 to 14) (size 15 to 20)
#    0.000    2.000    0.000    4.000    0.000   11.333 
#    0.000    3.333    0.000    0.000    0.000    0.000 
#    0.000    0.000    0.000    0.000    0.000    0.000 
#
# Total GULP energy -297615.747976 kJ/mol
# GULP energy per Si atom -12400.656166 kJ/mol
# Density = 1.884578 g / cm^3
# Si number density = 18.888773 Si / 1000 Ang^3
#
#
#
# Elastic Constant Matrix: (Units=GPa)
#
#
# Indices 1 2 3 4 5 6 
#
# 1 159.2911 64.5296 67.9384 0.0000 0.0000 0.0000
# 2 64.5296 99.4605 49.9792 0.0000 0.0000 0.0000
# 3 67.9384 49.9792 82.4947 0.0000 0.0000 0.0000
# 4 0.0000 0.0000 0.0000 -39.2109 0.0000 0.0000
# 5 0.0000 0.0000 0.0000 0.0000 29.5373 0.0000
# 6 0.0000 0.0000 0.0000 0.0000 0.0000 36.9735
#
#
#
# Elastic Compliance Matrix: (Units=1/GPa)
#
#
# Indices 1 2 3 4 5 6 
#
# 1 0.010477 -0.003539 -0.006484 0.000000 0.000000 0.000000
# 2 -0.003539 0.015650 -0.006567 0.000000 0.000000 0.000000
# 3 -0.006484 -0.006567 0.021441 0.000000 0.000000 0.000000
# 4 0.000000 0.000000 0.000000 -0.025503 0.000000 0.000000
# 5 0.000000 0.000000 0.000000 0.000000 0.033856 0.000000
# 6 0.000000 0.000000 0.000000 0.000000 0.000000 0.027046
#
#
# Mechanical properties :
#
#
# Convention : Reuss Voigt Hill
#
# Bulk Modulus (GPa) = 69.50577 78.46008 73.98292
# Shear Modulus (GPa) = 41.34156 16.04658 28.69407
#
# Velocity S-wave (km/s) = 4.68341 2.91783 3.90180
# Velocity P-wave (km/s) = 8.13161 7.27872 7.71696
#
# Compressibility (1/GPa) = 0.01438730
#
# Stress axis : x y z
#
# Youngs Moduli (GPa) = 95.44638 63.89597 46.64034
#
# Poissons Ratio (x) = 0.22614 0.30242
# Poissons Ratio (y) = 0.33780 0.30629
# Poissons Ratio (z) = 0.61889 0.41961
#
# Static dielectric constant tensor:
#      x y z
#    x 4.442790 0.000000 0.000000 
#    y 0.000000 3.425330 0.000000 
#    z 0.000000 0.000000 3.379030 
# 
# 
# High freq. dielectric constant tensor:
#      x y z
#    x 1.756560 0.000000 0.000000 
#    y 0.000000 1.737570 0.000000 
#    z 0.000000 0.000000 1.727550 
# 
# From -- ./inp_files/4188.got.cif
#   From: 2010.03.12/outbox.cif.g09.slc.cpg/sg18_3_cif.got.tgz:4188.got - 2010.04.10 18:53:55.
