data_PCOD8155255
_publ_section_title
;
Structure prediction by ZEFSAII (Michael W. Deem and Ramdas Pophale) SiO2 
 PCOD8155255
Probable space group: P 2 2 2
;
_chemical_formula_sum "Si O2"
_cell_formula_units_Z 28
_cell_length_a 18.295328
_cell_length_b 9.466118
_cell_length_c 8.965659
_cell_angle_alpha 90.000000
_cell_angle_beta 90.000000
_cell_angle_gamma 90.000000
_cell_volume 1552.724232
_symmetry_space_group_name_H-M "P 2 2 2"
_symmetry_group_IT_number 16
_symmetry_cell_setting 'orthorhombic'
loop_
_space_group_symop_operation_xyz
x,y,z
-x,-y,z
x,-y,-z
-x,y,-z
loop_
_atom_site_type_symbol
_atom_site_label
_atom_site_fract_x
_atom_site_fract_y
_atom_site_fract_z
Si Si1 0.080725 0.158473 0.177238
Si Si2 0.500000 0.833405 0.662110
Si Si3 0.657870 0.160773 0.678148
Si Si4 0.657870 0.839227 0.678148
Si Si5 0.080725 0.841527 0.177238
Si Si6 0.215711 0.662345 0.823545
Si Si7 0.784289 0.662345 0.823545
O O1 0.142071 0.264395 0.239748
O O2 1.000000 0.205133 0.234415
O O3 0.098320 1.000000 0.233876
O O4 0.081202 0.161271 1.000000
O O5 0.500000 0.759512 0.500000
O O6 0.423018 0.793832 0.742117
O O7 0.576982 0.793832 0.742117
O O8 0.500000 0.000000 0.638353
O O9 0.658733 0.173611 0.500000
O O10 0.714683 0.266900 0.749371
O O11 0.676646 1.000000 0.726245
O O12 0.714683 0.733100 0.749371
O O13 0.142071 0.735605 0.239748
O O14 0.212778 0.500000 0.775429
O O15 0.221905 0.680824 1.000000
#
# Coordination Sequence:
#
# PCOD8155255 Si02
#       7
#     4   4   4   4   4   4   4
#     4   8  14  26  45  67  89 116 153 194 231 267
#     4   7  12  26  48  71  90 110 146 195 236 271
#     4   9  17  31  52  73  91 116 153 195 236 276
#     4   9  17  31  52  73  91 116 153 195 236 276
#     4   8  14  26  45  67  89 116 153 194 231 267
#     4  10  20  31  44  67  99 130 156 184 224 274
#     4  10  20  31  44  67  99 130 156 184 224 274
#
# _framework density 18.032821999999999
#
# number of rings (size 3 to 8) (size 9 to 14) (size 15 to 20)
#    0.000    3.286    0.000    3.429    0.000    2.857 
#    0.000    4.286    0.000    7.714    0.000    6.000 
#    0.000    0.000    0.000    0.000    0.000    0.000 
#
# Total GULP energy -346877.199740 kJ/mol
# GULP energy per Si atom -12388.471419 kJ/mol
# Density = 1.799178 g / cm^3
# Si number density = 18.032822 Si / 1000 Ang^3
#
#
#
# Elastic Constant Matrix: (Units=GPa)
#
#
# Indices 1 2 3 4 5 6 
#
# 1 205.2082 107.0734 27.1169 0.0000 0.0000 0.0000
# 2 107.0734 125.8617 25.3947 0.0000 0.0000 0.0000
# 3 27.1169 25.3947 13.4004 0.0000 0.0000 0.0000
# 4 0.0000 0.0000 0.0000 19.9432 0.0000 0.0000
# 5 0.0000 0.0000 0.0000 0.0000 29.6288 0.0000
# 6 0.0000 0.0000 0.0000 0.0000 0.0000 5.9344
#
#
#
# Elastic Compliance Matrix: (Units=1/GPa)
#
#
# Indices 1 2 3 4 5 6 
#
# 1 0.009054 -0.006486 -0.006031 0.000000 0.000000 0.000000
# 2 -0.006486 0.017510 -0.020058 0.000000 0.000000 0.000000
# 3 -0.006031 -0.020058 0.124841 0.000000 0.000000 0.000000
# 4 0.000000 0.000000 0.000000 0.050142 0.000000 0.000000
# 5 0.000000 0.000000 0.000000 0.000000 0.033751 0.000000
# 6 0.000000 0.000000 0.000000 0.000000 0.000000 0.168508
#
#
# Mechanical properties :
#
#
# Convention : Reuss Voigt Hill
#
# Bulk Modulus (GPa) = 11.59351 73.73782 42.66566
# Shear Modulus (GPa) = 10.04607 23.42697 16.73652
#
# Velocity S-wave (km/s) = 2.36285 3.60825 3.04980
# Velocity P-wave (km/s) = 3.72655 7.63800 6.00942
#
# Compressibility (1/GPa) = 0.08625515
#
# Stress axis : x y z
#
# Youngs Moduli (GPa) = 110.44623 57.11077 8.01021
#
# Poissons Ratio (x) = 0.37041 0.04831
# Poissons Ratio (y) = 0.71632 0.16067
# Poissons Ratio (z) = 0.66610 1.14553
#
# Static dielectric constant tensor:
#      x y z
#    x 3.942560 0.000000 0.000000 
#    y 0.000000 3.257100 0.000000 
#    z 0.000000 0.000000 2.784590 
# 
# 
# High freq. dielectric constant tensor:
#      x y z
#    x 1.724890 0.000000 0.000000 
#    y 0.000000 1.679970 0.000000 
#    z 0.000000 0.000000 1.640560 
# 
# From -- ./inp_files/5578.got.cif
#   From: 2010.03.12/outbox.cif.g09.slc.cpg/sg16_3_cif.got.tgz:5578.got - 2010.03.31 00:51:45.
