data_PCOD8155542
_publ_section_title
;
Structure prediction by ZEFSAII (Michael W. Deem and Ramdas Pophale) SiO2 
 PCOD8155542
Probable space group: P 2 2 21
;
_chemical_formula_sum "Si O2"
_cell_formula_units_Z 22
_cell_length_a 9.134515
_cell_length_b 9.209435
_cell_length_c 12.724031
_cell_angle_alpha 90.000000
_cell_angle_beta 90.000000
_cell_angle_gamma 90.000000
_cell_volume 1070.392848
_symmetry_space_group_name_H-M "P 2 2 21"
_symmetry_group_IT_number 17
_symmetry_cell_setting 'orthorhombic'
loop_
_space_group_symop_operation_xyz
x,y,z
-x,-y,1/2+z
x,-y,-z
-x,y,1/2-z
loop_
_atom_site_type_symbol
_atom_site_label
_atom_site_fract_x
_atom_site_fract_y
_atom_site_fract_z
Si Si1 0.273429 0.643012 0.636868
Si Si2 0.041501 0.658110 0.968272
Si Si3 0.511753 0.500000 0.500000
Si Si4 0.160692 0.842691 0.796433
Si Si5 0.651467 0.607622 0.295863
Si Si6 0.879563 0.844525 0.336813
O O1 0.408985 0.623768 0.555927
O O2 0.275811 0.794958 0.703914
O O3 0.278937 0.517522 0.724162
O O4 0.123467 0.637168 0.572378
O O5 0.157040 0.714257 0.882244
O O6 0.100952 0.500000 0.000000
O O7 0.043203 0.777487 0.060729
O O8 0.622412 0.567038 0.416412
O O9 0.000000 0.852052 0.750000
O O10 0.197368 0.996830 0.852298
O O11 0.500000 0.663433 0.250000
O O12 0.759161 0.740559 0.289818
O O13 0.000000 0.866681 0.250000
#
# Coordination Sequence:
#
# PCOD8155542 Si02
#       6
#     4   4   2   4   4   4
#     4  10  20  40  64  91 126 166 214 274 325 388
#     4  11  20  34  64  96 123 159 215 266 328 387
#     4  10  22  40  64  96 122 174 222 274 316 390
#     4   9  21  38  59  93 130 162 204 266 331 393
#     4  10  23  41  63  91 130 166 219 272 321 387
#     4  11  23  38  62  94 130 169 210 270 331 396
#
# _framework density 20.553201000000001
#
# number of rings (size 3 to 8) (size 9 to 14) (size 15 to 20)
#    0.000    1.818    0.909    2.727    6.364    1.455 
#    0.000    2.727    0.000    0.000    0.000    0.000 
#    0.000    0.000    0.000    0.000    0.000    0.000 
#
# Total GULP energy -272613.371785 kJ/mol
# GULP energy per Si atom -12391.516899 kJ/mol
# Density = 2.050642 g / cm^3
# Si number density = 20.553201 Si / 1000 Ang^3
#
#
#
# Elastic Constant Matrix: (Units=GPa)
#
#
# Indices 1 2 3 4 5 6 
#
# 1 45.2877 43.1304 19.1292 0.0000 0.0000 0.0000
# 2 43.1304 147.5010 58.5067 0.0000 0.0000 0.0000
# 3 19.1292 58.5067 116.0564 0.0000 0.0000 0.0000
# 4 0.0000 0.0000 0.0000 29.0938 0.0000 0.0000
# 5 0.0000 0.0000 0.0000 0.0000 35.6575 0.0000
# 6 0.0000 0.0000 0.0000 0.0000 0.0000 98.4867
#
#
#
# Elastic Compliance Matrix: (Units=1/GPa)
#
#
# Indices 1 2 3 4 5 6 
#
# 1 0.030645 -0.008696 -0.000667 0.000000 0.000000 0.000000
# 2 -0.008696 0.010942 -0.004083 0.000000 0.000000 0.000000
# 3 -0.000667 -0.004083 0.010785 0.000000 0.000000 0.000000
# 4 0.000000 0.000000 0.000000 0.034372 0.000000 0.000000
# 5 0.000000 0.000000 0.000000 0.000000 0.028045 0.000000
# 6 0.000000 0.000000 0.000000 0.000000 0.000000 0.010154
#
#
# Mechanical properties :
#
#
# Convention : Reuss Voigt Hill
#
# Bulk Modulus (GPa) = 39.24756 61.15308 50.20032
# Shear Modulus (GPa) = 31.18643 45.18617 38.18630
#
# Velocity S-wave (km/s) = 3.89955 4.69390 4.31504
# Velocity P-wave (km/s) = 6.27792 7.69383 7.02166
#
# Compressibility (1/GPa) = 0.02547929
#
# Stress axis : x y z
#
# Youngs Moduli (GPa) = 32.63203 91.39228 92.72448
#
# Poissons Ratio (x) = 0.79476 0.06186
# Poissons Ratio (y) = 0.28377 0.37856
# Poissons Ratio (z) = 0.02177 0.37313
#
# Static dielectric constant tensor:
#      x y z
#    x 3.585020 0.000000 0.000000 
#    y 0.000000 3.943350 0.000000 
#    z 0.000000 0.000000 3.952370 
# 
# 
# High freq. dielectric constant tensor:
#      x y z
#    x 1.791240 0.000000 0.000000 
#    y 0.000000 1.794580 0.000000 
#    z 0.000000 0.000000 1.823640 
# 
# From -- ./inp_files/8098.got.cif
#   From: 2010.03.12/outbox.cif.g09.slc.cpg/sg17_5_cif.got.tgz:8098.got - 2010.04.10 18:46:23.
