data_PCOD8155493
_publ_section_title
;
Structure prediction by ZEFSAII (Michael W. Deem and Ramdas Pophale) SiO2 
 PCOD8155493
Probable space group: P 2 2 21
;
_chemical_formula_sum "Si O2"
_cell_formula_units_Z 30
_cell_length_a 13.911382
_cell_length_b 7.553254
_cell_length_c 12.076319
_cell_angle_alpha 90.000000
_cell_angle_beta 90.000000
_cell_angle_gamma 90.000000
_cell_volume 1268.933731
_symmetry_space_group_name_H-M "P 2 2 21"
_symmetry_group_IT_number 17
_symmetry_cell_setting 'orthorhombic'
loop_
_space_group_symop_operation_xyz
x,y,z
-x,-y,1/2+z
x,-y,-z
-x,y,1/2-z
loop_
_atom_site_type_symbol
_atom_site_label
_atom_site_fract_x
_atom_site_fract_y
_atom_site_fract_z
Si Si1 0.111559 0.996219 0.724577
Si Si2 0.219066 0.655572 0.331231
Si Si3 0.165597 0.500000 0.000000
Si Si4 0.601854 0.767780 0.287628
Si Si5 0.753982 0.829717 0.942029
Si Si6 0.687797 0.799803 0.512563
Si Si7 0.388874 0.176978 0.249304
Si Si8 0.107019 0.363499 0.216198
O O1 0.142735 0.899265 0.608179
O O2 0.150347 0.836629 0.806972
O O3 0.000000 0.035606 0.750000
O O4 0.165540 0.182309 0.732938
O O5 0.321486 0.638657 0.270939
O O6 0.226171 0.682871 0.463301
O O7 0.164392 0.468852 0.312343
O O8 0.225614 0.325040 0.978884
O O9 0.099942 0.480336 0.107015
O O10 0.500000 0.692309 0.250000
O O11 0.604645 0.764598 0.421304
O O12 0.619303 0.965595 0.243588
O O13 0.677443 0.752526 0.851354
O O14 0.704012 0.000000 0.000000
O O15 0.651282 0.746967 0.633863
O O16 0.723985 0.000000 0.500000
O O17 0.500000 0.238624 0.250000
O O18 0.000000 0.321626 0.250000
#
# Coordination Sequence:
#
# PCOD8155493 Si02
#       8
#     4   4   2   4   4   4   4   4
#     4  10  22  42  65  92 129 167 215 272 329 392
#     4  11  22  43  69  96 135 171 219 268 338 388
#     4  12  24  42  70  90 130 180 212 284 326 396
#     4  10  20  37  67 101 131 174 221 265 318 394
#     4  10  20  36  64  91 129 169 214 271 322 388
#     4  10  23  41  66  96 132 175 222 263 329 397
#     4  10  20  35  63 100 133 171 220 267 325 390
#     4  11  26  43  66  97 131 169 227 274 333 401
#
# _framework density 23.641895999999999
#
# number of rings (size 3 to 8) (size 9 to 14) (size 15 to 20)
#    0.000    1.600    4.000    1.200    3.733    3.200 
#    0.000    3.333    0.000    0.800    0.000    0.000 
#    0.000    0.000    0.000    0.000    0.000    0.000 
#
# Total GULP energy -371738.209755 kJ/mol
# GULP energy per Si atom -12391.273658 kJ/mol
# Density = 2.358809 g / cm^3
# Si number density = 23.641896 Si / 1000 Ang^3
#
#
#
# Elastic Constant Matrix: (Units=GPa)
#
#
# Indices 1 2 3 4 5 6 
#
# 1 116.9275 28.4768 43.3148 0.0000 0.0000 0.0000
# 2 28.4768 75.9460 6.7762 0.0000 0.0000 0.0000
# 3 43.3148 6.7762 138.2823 0.0000 0.0000 0.0000
# 4 0.0000 0.0000 0.0000 28.2172 0.0000 0.0000
# 5 0.0000 0.0000 0.0000 0.0000 34.2850 0.0000
# 6 0.0000 0.0000 0.0000 0.0000 0.0000 36.0093
#
#
#
# Elastic Compliance Matrix: (Units=1/GPa)
#
#
# Indices 1 2 3 4 5 6 
#
# 1 0.010619 -0.003701 -0.003145 0.000000 0.000000 0.000000
# 2 -0.003701 0.014515 0.000448 0.000000 0.000000 0.000000
# 3 -0.003145 0.000448 0.008195 0.000000 0.000000 0.000000
# 4 0.000000 0.000000 0.000000 0.035439 0.000000 0.000000
# 5 0.000000 0.000000 0.000000 0.000000 0.029167 0.000000
# 6 0.000000 0.000000 0.000000 0.000000 0.000000 0.027771
#
#
# Mechanical properties :
#
#
# Convention : Reuss Voigt Hill
#
# Bulk Modulus (GPa) = 48.70255 54.25461 51.47858
# Shear Modulus (GPa) = 34.40084 36.54150 35.47117
#
# Velocity S-wave (km/s) = 3.81869 3.93571 3.87764
# Velocity P-wave (km/s) = 6.33151 6.60692 6.47068
#
# Compressibility (1/GPa) = 0.02053281
#
# Stress axis : x y z
#
# Youngs Moduli (GPa) = 94.17430 68.89427 122.03039
#
# Poissons Ratio (x) = 0.25498 0.38376
# Poissons Ratio (y) = 0.34854 -0.05467
# Poissons Ratio (z) = 0.29616 -0.03086
#
# Static dielectric constant tensor:
#      x y z
#    x 4.175040 0.000000 0.000000 
#    y 0.000000 4.300480 0.000000 
#    z 0.000000 0.000000 2.856170 
# 
# 
# High freq. dielectric constant tensor:
#      x y z
#    x 1.921780 0.000000 0.000000 
#    y 0.000000 1.942850 0.000000 
#    z 0.000000 0.000000 1.940440 
# 
# From -- ./inp_files/7259.got.cif
#   From: 2010.03.12/outbox.cif.g09.slc.cpg/sg17_4_cif.got.tgz:7259.got - 2010.04.10 18:46:23.
