data_PCOD8155456
_publ_section_title
;
Structure prediction by ZEFSAII (Michael W. Deem and Ramdas Pophale) SiO2 
 PCOD8155456
Probable space group: P 2 2 21
;
_chemical_formula_sum "Si O2"
_cell_formula_units_Z 16
_cell_length_a 12.580187
_cell_length_b 7.731337
_cell_length_c 8.787228
_cell_angle_alpha 90.000000
_cell_angle_beta 90.000000
_cell_angle_gamma 90.000000
_cell_volume 854.660428
_symmetry_space_group_name_H-M "P 2 2 21"
_symmetry_group_IT_number 17
_symmetry_cell_setting 'orthorhombic'
loop_
_space_group_symop_operation_xyz
x,y,z
-x,-y,1/2+z
x,-y,-z
-x,y,1/2-z
loop_
_atom_site_type_symbol
_atom_site_label
_atom_site_fract_x
_atom_site_fract_y
_atom_site_fract_z
Si Si1 0.618073 0.645826 0.304911
Si Si2 0.721717 0.029866 0.823972
Si Si3 0.696449 0.715701 0.632635
Si Si4 0.904376 0.900431 0.647096
O O1 0.500000 0.605015 0.250000
O O2 0.663185 0.789152 0.192850
O O3 0.626526 0.715940 0.478323
O O4 0.684400 0.468817 0.285119
O O5 0.656138 0.872000 0.742318
O O6 0.838507 0.039800 0.747937
O O7 0.734755 0.000000 0.000000
O O8 0.822756 0.746258 0.598174
O O9 0.000000 0.825035 0.750000
O O10 0.949785 0.000000 0.500000
#
# Coordination Sequence:
#
# PCOD8155456 Si02
#       4
#     4   4   4   4
#     4  11  22  39  66  89 126 179 209 266 328 368
#     4  10  21  38  61  93 132 163 218 265 310 393
#     4   9  22  42  60  91 133 158 220 273 305 390
#     4  10  19  40  69  93 128 169 213 264 329 375
#
# _framework density 18.720886
#
# number of rings (size 3 to 8) (size 9 to 14) (size 15 to 20)
#    1.500    0.500    2.500    1.500    0.000    8.000 
#    0.000    1.250    5.500    0.000    0.000    0.000 
#    0.000    0.000    0.000    0.000    0.000    0.000 
#
# Total GULP energy -198239.196103 kJ/mol
# GULP energy per Si atom -12389.949756 kJ/mol
# Density = 1.867828 g / cm^3
# Si number density = 18.720886 Si / 1000 Ang^3
#
#
#
# Elastic Constant Matrix: (Units=GPa)
#
#
# Indices 1 2 3 4 5 6 
#
# 1 91.3032 36.6979 38.3045 0.0000 0.0000 0.0000
# 2 36.6979 105.4273 43.3074 0.0000 0.0000 0.0000
# 3 38.3045 43.3074 123.3666 0.0000 0.0000 0.0000
# 4 0.0000 0.0000 0.0000 9.0909 0.0000 0.0000
# 5 0.0000 0.0000 0.0000 0.0000 37.3600 0.0000
# 6 0.0000 0.0000 0.0000 0.0000 0.0000 21.9544
#
#
#
# Elastic Compliance Matrix: (Units=1/GPa)
#
#
# Indices 1 2 3 4 5 6 
#
# 1 0.013621 -0.003510 -0.002997 0.000000 0.000000 0.000000
# 2 -0.003510 0.011988 -0.003119 0.000000 0.000000 0.000000
# 3 -0.002997 -0.003119 0.010131 0.000000 0.000000 0.000000
# 4 0.000000 0.000000 0.000000 0.110000 0.000000 0.000000
# 5 0.000000 0.000000 0.000000 0.000000 0.026767 0.000000
# 6 0.000000 0.000000 0.000000 0.000000 0.000000 0.045549
#
#
# Mechanical properties :
#
#
# Convention : Reuss Voigt Hill
#
# Bulk Modulus (GPa) = 60.64705 61.85743 61.25224
# Shear Modulus (GPa) = 20.59289 27.13356 23.86322
#
# Velocity S-wave (km/s) = 3.32022 3.81119 3.57415
# Velocity P-wave (km/s) = 6.86762 7.24435 7.05850
#
# Compressibility (1/GPa) = 0.01648885
#
# Stress axis : x y z
#
# Youngs Moduli (GPa) = 73.41790 83.41641 98.70517
#
# Poissons Ratio (x) = 0.29280 0.29581
# Poissons Ratio (y) = 0.25770 0.30781
# Poissons Ratio (z) = 0.22003 0.26013
#
# Static dielectric constant tensor:
#      x y z
#    x 3.240760 0.000000 0.000000 
#    y 0.000000 3.400020 0.000000 
#    z 0.000000 0.000000 3.422290 
# 
# 
# High freq. dielectric constant tensor:
#      x y z
#    x 1.706300 0.000000 0.000000 
#    y 0.000000 1.716870 0.000000 
#    z 0.000000 0.000000 1.733710 
# 
# From -- ./inp_files/4510.got.cif
#   From: 2010.03.12/outbox.cif.g09.slc.cpg/sg17_3_cif.got.tgz:4510.got - 2010.04.10 18:46:23.
