data_PCOD8155782
_publ_section_title
;
Structure prediction by ZEFSAII (Michael W. Deem and Ramdas Pophale) SiO2 
 PCOD8155782
Probable space group: P 21 21 2
;
_chemical_formula_sum "Si O2"
_cell_formula_units_Z 24
_cell_length_a 9.579254
_cell_length_b 14.097123
_cell_length_c 8.438785
_cell_angle_alpha 90.000000
_cell_angle_beta 90.000000
_cell_angle_gamma 90.000000
_cell_volume 1139.572867
_symmetry_space_group_name_H-M "P 21 21 2"
_symmetry_group_IT_number 18
_symmetry_cell_setting 'orthorhombic'
loop_
_space_group_symop_operation_xyz
x,y,z
-x,-y,z
1/2+x,1/2-y,-z
1/2-x,1/2+y,-z
loop_
_atom_site_type_symbol
_atom_site_label
_atom_site_fract_x
_atom_site_fract_y
_atom_site_fract_z
Si Si1 0.000000 0.000000 0.453242
Si Si2 0.374872 0.317220 0.512144
Si Si3 0.763688 0.948800 0.219316
Si Si4 0.688562 0.651665 0.879504
Si Si5 0.000000 0.500000 0.578660
Si Si6 0.410839 0.822913 0.607305
Si Si7 0.897232 0.771414 0.072887
O O1 0.070020 0.917771 0.559116
O O2 0.888162 0.945413 0.345570
O O3 0.330564 0.333157 0.693297
O O4 0.489371 0.237006 0.493428
O O5 0.245004 0.283195 0.410770
O O6 0.614750 0.950547 0.309121
O O7 0.784061 0.851629 0.121639
O O8 0.778417 0.039386 0.100568
O O9 0.546112 0.679900 0.975212
O O10 0.823415 0.712444 0.933114
O O11 0.922758 0.570514 0.456272
O O12 0.440783 0.805760 0.792131
#
# Coordination Sequence:
#
# PCOD8155782 Si02
#       7
#     2   4   4   4   2   4   4
#     4  10  16  40  62  82 110 168 206 244 302 384
#     4  10  21  38  64  89 120 161 213 251 319 379
#     4  11  20  42  67  86 121 175 209 250 316 396
#     4  10  22  40  63  91 119 170 211 253 315 382
#     4  12  24  36  66  98 128 160 214 258 328 390
#     4  11  22  38  61  95 125 157 205 268 310 373
#     4  11  23  41  65  91 127 162 216 266 310 371
#
# _framework density 21.060524000000001
#
# number of rings (size 3 to 8) (size 9 to 14) (size 15 to 20)
#    0.000    1.333    8.333    1.000    2.333    1.333 
#    6.000    0.000    3.667    0.000    0.000    0.000 
#    0.000    0.000    0.000    0.000    0.000    0.000 
#
# Total GULP energy -297446.150387 kJ/mol
# GULP energy per Si atom -12393.589599 kJ/mol
# Density = 2.101259 g / cm^3
# Si number density = 21.060524 Si / 1000 Ang^3
#
#
#
# Elastic Constant Matrix: (Units=GPa)
#
#
# Indices 1 2 3 4 5 6 
#
# 1 105.8070 16.3576 16.6272 0.0000 0.0000 0.0000
# 2 16.3576 86.6117 23.6474 0.0000 0.0000 0.0000
# 3 16.6272 23.6474 19.9970 0.0000 0.0000 0.0000
# 4 0.0000 0.0000 0.0000 18.0753 0.0000 0.0000
# 5 0.0000 0.0000 0.0000 0.0000 29.7682 0.0000
# 6 0.0000 0.0000 0.0000 0.0000 0.0000 41.5375
#
#
#
# Elastic Compliance Matrix: (Units=1/GPa)
#
#
# Indices 1 2 3 4 5 6 
#
# 1 0.010894 0.000614 -0.009784 0.000000 0.000000 0.000000
# 2 0.000614 0.017086 -0.020715 0.000000 0.000000 0.000000
# 3 -0.009784 -0.020715 0.082639 0.000000 0.000000 0.000000
# 4 0.000000 0.000000 0.000000 0.055324 0.000000 0.000000
# 5 0.000000 0.000000 0.000000 0.000000 0.033593 0.000000
# 6 0.000000 0.000000 0.000000 0.000000 0.000000 0.024075
#
#
# Mechanical properties :
#
#
# Convention : Reuss Voigt Hill
#
# Bulk Modulus (GPa) = 19.66632 36.18670 27.92651
# Shear Modulus (GPa) = 16.64838 28.26176 22.45507
#
# Velocity S-wave (km/s) = 2.81464 3.66721 3.26884
# Velocity P-wave (km/s) = 4.46331 5.92881 5.24747
#
# Compressibility (1/GPa) = 0.05084835
#
# Stress axis : x y z
#
# Youngs Moduli (GPa) = 91.79551 58.52879 12.10083
#
# Poissons Ratio (x) = -0.03593 0.11839
# Poissons Ratio (y) = -0.05635 0.25067
# Poissons Ratio (z) = 0.89812 1.21242
#
# Static dielectric constant tensor:
#      x y z
#    x 4.285510 0.000000 0.000000 
#    y 0.000000 4.118440 0.000000 
#    z 0.000000 0.000000 3.254240 
# 
# 
# High freq. dielectric constant tensor:
#      x y z
#    x 1.844880 0.000000 0.000000 
#    y 0.000000 1.837910 0.000000 
#    z 0.000000 0.000000 1.768840 
# 
# From -- ./inp_files/3188.got.cif
#   From: 2010.03.12/outbox.cif.g09.slc.cpg/sg18_2_cif.got.tgz:3188.got - 2010.04.10 18:53:55.
