data_PCOD8155810
_publ_section_title
;
Structure prediction by ZEFSAII (Michael W. Deem and Ramdas Pophale) SiO2 
 PCOD8155810
Probable space group: P 21 21 2
;
_chemical_formula_sum "Si O2"
_cell_formula_units_Z 26
_cell_length_a 16.570368
_cell_length_b 8.834766
_cell_length_c 8.966013
_cell_angle_alpha 90.000000
_cell_angle_beta 90.000000
_cell_angle_gamma 90.000000
_cell_volume 1312.582376
_symmetry_space_group_name_H-M "P 21 21 2"
_symmetry_group_IT_number 18
_symmetry_cell_setting 'orthorhombic'
loop_
_space_group_symop_operation_xyz
x,y,z
-x,-y,z
1/2+x,1/2-y,-z
1/2-x,1/2+y,-z
loop_
_atom_site_type_symbol
_atom_site_label
_atom_site_fract_x
_atom_site_fract_y
_atom_site_fract_z
Si Si1 0.221615 0.394760 0.600475
Si Si2 0.000000 0.000000 0.037556
Si Si3 0.328772 0.490474 0.861284
Si Si4 0.801247 0.337271 0.021778
Si Si5 0.231074 0.057440 0.687064
Si Si6 0.432911 0.399185 0.247905
Si Si7 0.086554 0.570095 0.767328
O O1 0.298658 0.456112 0.693699
O O2 0.213175 0.214791 0.604568
O O3 0.232592 0.438277 0.428748
O O4 0.138837 0.462362 0.662979
O O5 0.031717 0.870152 0.921619
O O6 0.076586 0.038830 0.142603
O O7 0.281390 0.633121 0.930365
O O8 0.311189 0.342876 0.963431
O O9 0.874055 0.411942 0.930287
O O10 0.796861 0.416294 0.183375
O O11 0.149581 0.993004 0.759722
O O12 0.500000 0.500000 0.337665
O O13 0.419484 0.233199 0.316979
O O14 0.000000 0.500000 0.791400
#
# Coordination Sequence:
#
# PCOD8155810 Si02
#       7
#     4   2   4   4   4   4   4
#     4  10  24  36  59  83 116 158 193 239 288 348
#     4  10  18  34  58  90 110 150 180 254 284 352
#     4  10  20  35  59  86 115 145 195 235 295 342
#     4  10  18  36  59  84 111 148 189 241 285 345
#     4  11  20  39  58  82 113 157 197 234 291 346
#     4  10  19  34  59  83 114 144 187 236 292 338
#     4  11  21  36  58  89 115 145 192 239 291 349
#
# _framework density 19.80828
#
# number of rings (size 3 to 8) (size 9 to 14) (size 15 to 20)
#    0.462    1.231    3.077    1.846    0.000    2.462 
#    1.385    0.769    3.385    0.000    0.000    0.000 
#    0.000    0.000    0.000    0.000    0.000    0.000 
#
# Total GULP energy -322227.398434 kJ/mol
# GULP energy per Si atom -12393.361478 kJ/mol
# Density = 1.976320 g / cm^3
# Si number density = 19.808280 Si / 1000 Ang^3
#
#
#
# Elastic Constant Matrix: (Units=GPa)
#
#
# Indices 1 2 3 4 5 6 
#
# 1 151.6443 42.2792 36.7563 0.0000 0.0000 0.0000
# 2 42.2792 96.8139 20.8797 0.0000 0.0000 0.0000
# 3 36.7563 20.8797 62.6309 0.0000 0.0000 0.0000
# 4 0.0000 0.0000 0.0000 27.1180 0.0000 0.0000
# 5 0.0000 0.0000 0.0000 0.0000 18.0095 0.0000
# 6 0.0000 0.0000 0.0000 0.0000 0.0000 28.0647
#
#
#
# Elastic Compliance Matrix: (Units=1/GPa)
#
#
# Indices 1 2 3 4 5 6 
#
# 1 0.008331 -0.002784 -0.003961 0.000000 0.000000 0.000000
# 2 -0.002784 0.012060 -0.002387 0.000000 0.000000 0.000000
# 3 -0.003961 -0.002387 0.019087 0.000000 0.000000 0.000000
# 4 0.000000 0.000000 0.000000 0.036876 0.000000 0.000000
# 5 0.000000 0.000000 0.000000 0.000000 0.055526 0.000000
# 6 0.000000 0.000000 0.000000 0.000000 0.000000 0.035632
#
#
# Mechanical properties :
#
#
# Convention : Reuss Voigt Hill
#
# Bulk Modulus (GPa) = 47.13833 56.76884 51.95359
# Shear Modulus (GPa) = 25.92757 28.71671 27.32214
#
# Velocity S-wave (km/s) = 3.62183 3.81167 3.71796
# Velocity P-wave (km/s) = 6.42956 6.93492 6.68701
#
# Compressibility (1/GPa) = 0.02121416
#
# Stress axis : x y z
#
# Youngs Moduli (GPa) = 120.03968 82.92211 52.39229
#
# Poissons Ratio (x) = 0.23084 0.20752
# Poissons Ratio (y) = 0.33416 0.12504
# Poissons Ratio (z) = 0.47547 0.19791
#
# Static dielectric constant tensor:
#      x y z
#    x 3.703640 0.000000 0.000000 
#    y 0.000000 3.647450 0.000000 
#    z 0.000000 0.000000 3.372450 
# 
# 
# High freq. dielectric constant tensor:
#      x y z
#    x 1.773450 0.000000 0.000000 
#    y 0.000000 1.773510 0.000000 
#    z 0.000000 0.000000 1.747330 
# 
# From -- ./inp_files/4522.got.cif
#   From: 2010.03.12/outbox.cif.g09.slc.cpg/sg18_3_cif.got.tgz:4522.got - 2010.04.10 18:53:55.
