data_PCOD8155115
_publ_section_title
;
Structure prediction by ZEFSAII (Michael W. Deem and Ramdas Pophale) SiO2 
 PCOD8155115
Probable space group: C 2/C
;
_chemical_formula_sum "Si O2"
_cell_formula_units_Z 48
_cell_length_a 15.267667
_cell_length_b 10.884097
_cell_length_c 15.468782
_cell_angle_alpha 90.000000
_cell_angle_beta 125.858354
_cell_angle_gamma 90.000000
_cell_volume 2083.324299
_symmetry_space_group_name_H-M "C 2/C"
_symmetry_group_IT_number 15
_symmetry_cell_setting 'monoclinic'
loop_
_space_group_symop_operation_xyz
x,y,z
-x,y,1/2-z
-x,-y,-z
x,-y,1/2+z
1/2+x,1/2+y,z
1/2-x,1/2+y,1/2-z
1/2-x,1/2-y,-z
1/2+x,1/2-y,1/2+z
loop_
_atom_site_type_symbol
_atom_site_label
_atom_site_fract_x
_atom_site_fract_y
_atom_site_fract_z
Si Si1 0.201638 0.498707 0.518367
Si Si2 0.113257 0.584769 0.294772
Si Si3 0.445271 0.537089 0.134158
Si Si4 0.449786 0.778561 0.037053
Si Si5 0.330363 0.902451 0.315513
Si Si6 0.593254 0.307063 0.171657
O O1 0.182793 0.580148 0.422059
O O2 0.329284 0.501929 0.602661
O O3 0.144929 0.364898 0.478272
O O4 0.153620 0.561083 0.575706
O O5 0.170942 0.520193 0.247566
O O6 0.089375 0.726097 0.256278
O O7 0.000000 0.517659 0.250000
O O8 0.500000 0.596433 0.250000
O O9 0.427940 0.638416 0.051037
O O10 0.516171 0.424863 0.137963
O O11 0.566467 0.816215 0.142939
O O12 0.447946 0.776974 0.931764
O O13 0.218772 0.836966 0.228484
#
# Coordination Sequence:
#
# PCOD8155115 Si02
#       6
#     8   8   8   8   8   8
#     4  12  26  51  76 112 147 197 252 310 372 448
#     4  12  26  48  77 108 149 194 252 305 375 445
#     4  12  28  48  74 112 152 194 251 305 379 442
#     4  12  27  48  78 109 147 200 253 308 371 445
#     4  12  27  48  76 112 149 193 250 314 371 443
#     4  12  28  49  75 111 156 198 248 308 376 446
#
# _framework density 23.040099999999999
#
# number of rings (size 3 to 8) (size 9 to 14) (size 15 to 20)
#    0.000    0.000    5.000    4.000    9.333    0.667 
#    0.000    0.000    0.000    0.000    0.000    0.000 
#    0.000    0.000    0.000    0.000    0.000    0.000 
#
# Total GULP energy -297642.404014 kJ/mol
# GULP energy per Si atom -12401.766834 kJ/mol
# Density = 2.298766 g / cm^3
# Si number density = 23.040100 Si / 1000 Ang^3
#
#
#
# Elastic Constant Matrix: (Units=GPa)
#
#
# Indices 1 2 3 4 5 6 
#
# 1 102.9580 17.1775 34.7514 0.0000 20.3468 0.0000
# 2 17.1775 72.8448 19.1035 0.0000 -1.2336 0.0000
# 3 34.7514 19.1035 102.6273 0.0000 1.9774 0.0000
# 4 0.0000 0.0000 0.0000 32.3513 0.0000 -0.0002
# 5 20.3468 -1.2336 1.9774 0.0000 52.3714 0.0000
# 6 0.0000 0.0000 0.0000 -0.0002 0.0000 32.4362
#
#
#
# Elastic Compliance Matrix: (Units=1/GPa)
#
#
# Indices 1 2 3 4 5 6 
#
# 1 0.012203 -0.001994 -0.003672 0.000000 -0.004649 0.000000
# 2 -0.001994 0.014768 -0.002097 0.000000 0.001202 0.000000
# 3 -0.003672 -0.002097 0.011359 0.000000 0.000948 0.000000
# 4 0.000000 0.000000 0.000000 0.030911 0.000000 0.000000
# 5 -0.004649 0.001202 0.000948 0.000000 0.020893 0.000000
# 6 0.000000 0.000000 0.000000 0.000000 0.000000 0.030830
#
#
# Mechanical properties :
#
#
# Convention : Reuss Voigt Hill
#
# Bulk Modulus (GPa) = 43.84725 46.72165 45.28445
# Shear Modulus (GPa) = 34.70019 37.25828 35.97923
#
# Velocity S-wave (km/s) = 3.88503 4.02569 3.95599
# Velocity P-wave (km/s) = 6.26073 6.47539 6.36897
#
# Compressibility (1/GPa) = 0.02280645
#
# Stress axis : x y z
#
# Youngs Moduli (GPa) = 81.94430 67.71290 88.03303
#
# Poissons Ratio (x) = 0.13499 0.32322
# Poissons Ratio (y) = 0.16336 0.18462
# Poissons Ratio (z) = 0.30087 0.14200
#
# Static dielectric constant tensor:
#      x y z
#    x 4.211660 0.000000 0.063990 
#    y 0.000000 3.920830 0.000000 
#    z 0.063990 0.000000 4.385950 
# 
# 
# High freq. dielectric constant tensor:
#      x y z
#    x 1.925260 0.000000 0.000470 
#    y 0.000000 1.902000 0.000000 
#    z 0.000470 0.000000 1.926860 
# 
# From -- ./inp_files/152742.got.cif
#   From: 2010.06.25/outbox.cif.g09.slc.cpg/sg15_77_cif.got.tgz:152742.got - 2010.06.28 07:06:18.
