data_PCOD8155497
_publ_section_title
;
Structure prediction by ZEFSAII (Michael W. Deem and Ramdas Pophale) SiO2 
 PCOD8155497
Probable space group: P 2 2 21
;
_chemical_formula_sum "Si O2"
_cell_formula_units_Z 16
_cell_length_a 12.736298
_cell_length_b 13.583265
_cell_length_c 4.967569
_cell_angle_alpha 90.000000
_cell_angle_beta 90.000000
_cell_angle_gamma 90.000000
_cell_volume 859.391975
_symmetry_space_group_name_H-M "P 2 2 21"
_symmetry_group_IT_number 17
_symmetry_cell_setting 'orthorhombic'
loop_
_space_group_symop_operation_xyz
x,y,z
-x,-y,1/2+z
x,-y,-z
-x,y,1/2-z
loop_
_atom_site_type_symbol
_atom_site_label
_atom_site_fract_x
_atom_site_fract_y
_atom_site_fract_z
Si Si1 0.570794 0.385818 0.006024
Si Si2 0.070687 0.000000 0.000000
Si Si3 0.071176 0.500000 0.500000
Si Si4 0.879371 0.206658 0.670066
Si Si5 0.795392 0.690324 0.854511
O O1 0.500000 0.354578 0.750000
O O2 0.602429 0.500000 0.000000
O O3 0.500000 0.358174 0.250000
O O4 0.674328 0.324642 0.072757
O O5 0.140382 0.905283 0.075090
O O6 0.000000 0.033600 0.250000
O O7 0.142418 0.408073 0.424536
O O8 0.000000 0.467600 0.750000
O O9 0.827933 0.281248 0.451167
O O10 0.000000 0.228496 0.750000
O O11 0.822620 0.218844 0.953714
#
# Coordination Sequence:
#
# PCOD8155497 Si02
#       5
#     4   2   2   4   4
#     4  10  21  38  58  79 107 144 193 246 281 319
#     4  10  20  36  56  80 110 148 190 234 272 312
#     4  12  24  34  48  76 118 152 178 206 262 340
#     4  11  22  36  57  82 116 148 188 228 273 336
#     4  12  22  37  55  83 111 152 186 226 281 336
#
# _framework density 18.617813000000002
#
# number of rings (size 3 to 8) (size 9 to 14) (size 15 to 20)
#    0.000    1.000    1.250    9.000    0.000    0.000 
#    0.000    0.000    0.000    0.000    0.000   17.500 
#    0.000    0.000    0.000    0.000    0.000    0.000 
#
# Total GULP energy -198251.535083 kJ/mol
# GULP energy per Si atom -12390.720943 kJ/mol
# Density = 1.857544 g / cm^3
# Si number density = 18.617813 Si / 1000 Ang^3
#
#
#
# Elastic Constant Matrix: (Units=GPa)
#
#
# Indices 1 2 3 4 5 6 
#
# 1 121.3424 29.1396 34.8200 0.0000 0.0000 0.0000
# 2 29.1396 74.2472 8.0440 0.0000 0.0000 0.0000
# 3 34.8200 8.0440 107.9008 0.0000 0.0000 0.0000
# 4 0.0000 0.0000 0.0000 37.0116 0.0000 0.0000
# 5 0.0000 0.0000 0.0000 0.0000 42.4630 0.0000
# 6 0.0000 0.0000 0.0000 0.0000 0.0000 -6.5466
#
#
#
# Elastic Compliance Matrix: (Units=1/GPa)
#
#
# Indices 1 2 3 4 5 6 
#
# 1 0.009946 -0.003585 -0.002942 0.000000 0.000000 0.000000
# 2 -0.003585 0.014870 0.000048 0.000000 0.000000 0.000000
# 3 -0.002942 0.000048 0.010214 0.000000 0.000000 0.000000
# 4 0.000000 0.000000 0.000000 0.027019 0.000000 0.000000
# 5 0.000000 0.000000 0.000000 0.000000 0.023550 0.000000
# 6 0.000000 0.000000 0.000000 0.000000 0.000000 -0.152752
#
#
# Mechanical properties :
#
#
# Convention : Reuss Voigt Hill
#
# Bulk Modulus (GPa) = 45.30583 49.72197 47.51390
# Shear Modulus (GPa) = -106.75197 30.01805 -38.36696
#
# Velocity S-wave (km/s) = -7.58044 4.01974 -4.54449
# Velocity P-wave (km/s) = 7.22703 6.95047 1.40016
#
# Compressibility (1/GPa) = 0.02207221
#
# Stress axis : x y z
#
# Youngs Moduli (GPa) = 100.53901 67.24843 97.90746
#
# Poissons Ratio (x) = 0.24108 0.28809
# Poissons Ratio (y) = 0.36042 -0.00473
# Poissons Ratio (z) = 0.29584 -0.00325
#
# Static dielectric constant tensor:
#      x y z
#    x 3.342480 0.000000 0.000000 
#    y 0.000000 3.304220 0.000000 
#    z 0.000000 0.000000 3.747840 
# 
# 
# High freq. dielectric constant tensor:
#      x y z
#    x 1.706500 0.000000 0.000000 
#    y 0.000000 1.709770 0.000000 
#    z 0.000000 0.000000 1.752100 
# 
# From -- ./inp_files/1241.got.cif
#   From: 2010.03.12/outbox.cif.g09.slc.cpg/sg17_1_cif.got.tgz:1241.got - 2010.04.10 18:46:23.
