data_PCOD8155619
_publ_section_title
;
Structure prediction by ZEFSAII (Michael W. Deem and Ramdas Pophale) SiO2 
 PCOD8155619
Probable space group: P 2 2 21
;
_chemical_formula_sum "Si O2"
_cell_formula_units_Z 18
_cell_length_a 8.240427
_cell_length_b 10.826322
_cell_length_c 9.330704
_cell_angle_alpha 90.000000
_cell_angle_beta 90.000000
_cell_angle_gamma 90.000000
_cell_volume 832.424912
_symmetry_space_group_name_H-M "P 2 2 21"
_symmetry_group_IT_number 17
_symmetry_cell_setting 'orthorhombic'
loop_
_space_group_symop_operation_xyz
x,y,z
-x,-y,1/2+z
x,-y,-z
-x,y,1/2-z
loop_
_atom_site_type_symbol
_atom_site_label
_atom_site_fract_x
_atom_site_fract_y
_atom_site_fract_z
Si Si1 0.411039 0.390304 0.607425
Si Si2 0.081181 0.116761 0.102499
Si Si3 0.565909 0.786263 0.606950
Si Si4 0.133185 0.799561 0.373634
Si Si5 0.648356 0.000000 0.000000
O O1 0.365365 0.500000 0.500000
O O2 0.500000 0.440133 0.750000
O O3 0.537848 0.298037 0.531565
O O4 0.245827 0.319602 0.650094
O O5 0.246004 0.188933 0.128347
O O6 0.000000 0.072863 0.250000
O O7 0.959445 0.213207 0.025390
O O8 0.111591 0.000000 0.000000
O O9 0.500000 0.718167 0.750000
O O10 0.464239 0.912166 0.594185
O O11 0.241420 0.924917 0.384991
O O12 0.000000 0.811207 0.250000
#
# Coordination Sequence:
#
# PCOD8155619 Si02
#       5
#     4   4   4   4   2
#     4  11  25  48  72  96 129 176 232 288 336 398
#     4  12  24  39  60  93 139 176 213 265 332 398
#     4  11  24  41  65  98 131 179 227 271 331 401
#     4  11  24  42  66 101 137 174 219 275 339 397
#     4  10  22  36  64  98 138 176 218 262 328 408
#
# _framework density 21.623571999999999
#
# number of rings (size 3 to 8) (size 9 to 14) (size 15 to 20)
#    0.000    0.889    2.222    5.333    3.111    3.556 
#    0.000    7.778    0.000    0.000    0.000    0.000 
#    0.000    0.000    0.000    0.000    0.000    0.000 
#
# Total GULP energy -223218.846266 kJ/mol
# GULP energy per Si atom -12401.047015 kJ/mol
# Density = 2.157436 g / cm^3
# Si number density = 21.623572 Si / 1000 Ang^3
#
#
#
# Elastic Constant Matrix: (Units=GPa)
#
#
# Indices 1 2 3 4 5 6 
#
# 1 122.8942 36.4249 35.6589 0.0000 0.0000 0.0000
# 2 36.4249 89.1723 29.3698 0.0000 0.0000 0.0000
# 3 35.6589 29.3698 131.7093 0.0000 0.0000 0.0000
# 4 0.0000 0.0000 0.0000 26.3050 0.0000 0.0000
# 5 0.0000 0.0000 0.0000 0.0000 43.3811 0.0000
# 6 0.0000 0.0000 0.0000 0.0000 0.0000 13.9474
#
#
#
# Elastic Compliance Matrix: (Units=1/GPa)
#
#
# Indices 1 2 3 4 5 6 
#
# 1 0.009669 -0.003332 -0.001875 0.000000 0.000000 0.000000
# 2 -0.003332 0.013251 -0.002053 0.000000 0.000000 0.000000
# 3 -0.001875 -0.002053 0.008558 0.000000 0.000000 0.000000
# 4 0.000000 0.000000 0.000000 0.038016 0.000000 0.000000
# 5 0.000000 0.000000 0.000000 0.000000 0.023052 0.000000
# 6 0.000000 0.000000 0.000000 0.000000 0.000000 0.071698
#
#
# Mechanical properties :
#
#
# Convention : Reuss Voigt Hill
#
# Bulk Modulus (GPa) = 58.96627 60.74254 59.85441
# Shear Modulus (GPa) = 27.11278 32.88150 29.99714
#
# Velocity S-wave (km/s) = 3.54482 3.90376 3.72861
# Velocity P-wave (km/s) = 6.63950 6.96211 6.80272
#
# Compressibility (1/GPa) = 0.01695885
#
# Stress axis : x y z
#
# Youngs Moduli (GPa) = 103.42758 75.46379 116.85262
#
# Poissons Ratio (x) = 0.25144 0.21906
# Poissons Ratio (y) = 0.34462 0.23988
# Poissons Ratio (z) = 0.19389 0.15491
#
# Static dielectric constant tensor:
#      x y z
#    x 4.114480 0.000000 0.000000 
#    y 0.000000 3.665130 0.000000 
#    z 0.000000 0.000000 4.210700 
# 
# 
# High freq. dielectric constant tensor:
#      x y z
#    x 1.865570 0.000000 0.000000 
#    y 0.000000 1.817650 0.000000 
#    z 0.000000 0.000000 1.865390 
# 
# From -- ./inp_files/4037.got.cif
#   From: 2010.03.12/outbox.cif.g09.slc.cpg/sg17_3_cif.got.tgz:4037.got - 2010.04.10 18:46:23.
