data_PCOD8155140
_publ_section_title
;
Structure prediction by ZEFSAII (Michael W. Deem and Ramdas Pophale) SiO2 
 PCOD8155140
Probable space group: C 2/C
;
_chemical_formula_sum "Si O2"
_cell_formula_units_Z 44
_cell_length_a 20.070350
_cell_length_b 8.045140
_cell_length_c 9.588346
_cell_angle_alpha 90.000000
_cell_angle_beta 88.511703
_cell_angle_gamma 90.000000
_cell_volume 1547.696199
_symmetry_space_group_name_H-M "C 2/C"
_symmetry_group_IT_number 15
_symmetry_cell_setting 'monoclinic'
loop_
_space_group_symop_operation_xyz
x,y,z
-x,y,1/2-z
-x,-y,-z
x,-y,1/2+z
1/2+x,1/2+y,z
1/2-x,1/2+y,1/2-z
1/2-x,1/2-y,-z
1/2+x,1/2-y,1/2+z
loop_
_atom_site_type_symbol
_atom_site_label
_atom_site_fract_x
_atom_site_fract_y
_atom_site_fract_z
Si Si1 0.889012 0.055392 0.920820
Si Si2 0.275013 0.194301 0.336505
Si Si3 0.708278 0.087282 0.460810
Si Si4 0.000000 0.791531 0.250000
Si Si5 0.567347 0.027536 0.413101
Si Si6 0.870269 0.791220 0.705119
O O1 0.834410 0.177992 0.857235
O O2 0.964317 0.100324 0.870999
O O3 0.875393 0.870858 0.859976
O O4 0.885555 0.061895 0.089587
O O5 0.293100 0.074454 0.206596
O O6 0.241834 0.423941 0.528254
O O7 0.204237 0.283073 0.308025
O O8 0.750000 0.250000 0.500000
O O9 0.629923 0.074377 0.511708
O O10 0.941202 0.679729 0.190646
O O11 0.500000 0.000000 0.500000
O O12 0.579346 0.859223 0.324041
#
# Coordination Sequence:
#
# PCOD8155140 Si02
#       6
#     8   8   8   4   8   8
#     4  12  27  51  77 118 165 210 276 343 415 507
#     4  12  26  50  77 126 165 215 275 347 423 505
#     4  12  28  49  87 123 170 221 283 354 429 502
#     4  12  26  52  82 114 164 220 280 350 418 504
#     4  12  27  54  86 118 167 227 286 349 428 517
#     4  12  28  49  82 118 165 218 272 347 423 502
#
# _framework density 28.429352999999999
#
# number of rings (size 3 to 8) (size 9 to 14) (size 15 to 20)
#    0.000    0.000    5.455    2.727    5.091    1.455 
#    3.273    0.000    0.000    0.000    0.000    0.000 
#    0.000    0.000    0.000    0.000    0.000    0.000 
#
# Total GULP energy -272769.416958 kJ/mol
# GULP energy per Si atom -12398.609862 kJ/mol
# Density = 2.836465 g / cm^3
# Si number density = 28.429353 Si / 1000 Ang^3
#
#
#
# Elastic Constant Matrix: (Units=GPa)
#
#
# Indices 1 2 3 4 5 6 
#
# 1 134.1634 23.4887 -6.5031 0.0000 -23.0568 0.0000
# 2 23.4887 113.2688 -7.8010 0.0000 -0.6869 0.0000
# 3 -6.5031 -7.8010 80.3642 0.0000 -20.9203 0.0000
# 4 0.0000 0.0000 0.0000 47.1985 0.0000 -8.8830
# 5 -23.0568 -0.6869 -20.9203 0.0000 46.6588 0.0000
# 6 0.0000 0.0000 0.0000 -8.8830 0.0000 45.2366
#
#
#
# Elastic Compliance Matrix: (Units=1/GPa)
#
#
# Indices 1 2 3 4 5 6 
#
# 1 0.008714 -0.001646 0.001879 0.000000 0.005124 0.000000
# 2 -0.001646 0.009213 0.000662 0.000000 -0.000381 0.000000
# 3 0.001879 0.000662 0.014609 0.000000 0.007489 0.000000
# 4 0.000000 0.000000 0.000000 0.022000 0.000000 0.004320
# 5 0.005124 -0.000381 0.007489 0.000000 0.027316 0.000000
# 6 0.000000 0.000000 0.000000 0.004320 0.000000 0.022954
#
#
# Mechanical properties :
#
#
# Convention : Reuss Voigt Hill
#
# Bulk Modulus (GPa) = 29.13313 38.46284 33.79799
# Shear Modulus (GPa) = 43.68369 49.05958 46.37163
#
# Velocity S-wave (km/s) = 3.92416 4.15862 4.04309
# Velocity P-wave (km/s) = 5.54994 6.05124 5.80600
#
# Compressibility (1/GPa) = 0.03432518
#
# Stress axis : x y z
#
# Youngs Moduli (GPa) = 114.76361 108.53924 68.45058
#
# Poissons Ratio (x) = 0.17870 -0.12863
# Poissons Ratio (y) = 0.18895 -0.04531
# Poissons Ratio (z) = -0.21566 -0.07184
#
# Static dielectric constant tensor:
#      x y z
#    x 5.511250 0.000000 -0.014160 
#    y 0.000000 5.115470 0.000000 
#    z -0.014160 0.000000 5.754960 
# 
# 
# High freq. dielectric constant tensor:
#      x y z
#    x 2.168100 0.000000 -0.018860 
#    y 0.000000 2.154490 0.000000 
#    z -0.018860 0.000000 2.156950 
# 
# From -- ./inp_files/110030.got.cif
#   From: 2010.06.25/outbox.cif.g09.slc.cpg/sg15_56_cif.got.tgz:110030.got - 2010.06.28 07:06:18.
