data_PCOD8155316
_publ_section_title
;
Structure prediction by ZEFSAII (Michael W. Deem and Ramdas Pophale) SiO2 
 PCOD8155316
Probable space group: P 2 2 2
;
_chemical_formula_sum "Si O2"
_cell_formula_units_Z 19
_cell_length_a 19.048377
_cell_length_b 8.544916
_cell_length_c 5.386267
_cell_angle_alpha 90.000000
_cell_angle_beta 90.000000
_cell_angle_gamma 90.000000
_cell_volume 876.705343
_symmetry_space_group_name_H-M "P 2 2 2"
_symmetry_group_IT_number 16
_symmetry_cell_setting 'orthorhombic'
loop_
_space_group_symop_operation_xyz
x,y,z
-x,-y,z
x,-y,-z
-x,y,-z
loop_
_atom_site_type_symbol
_atom_site_label
_atom_site_fract_x
_atom_site_fract_y
_atom_site_fract_z
Si Si1 0.566689 0.746857 0.667927
Si Si2 0.147215 0.685007 0.525930
Si Si3 0.500000 0.000000 0.000000
Si Si4 0.371302 0.500000 0.000000
Si Si5 0.082861 0.821313 0.019401
Si Si6 0.302877 0.673466 0.606798
O O1 0.500000 0.718807 0.500000
O O2 0.637124 0.784426 0.509889
O O3 0.577004 0.582375 0.806800
O O4 0.552813 0.895049 0.840923
O O5 0.145463 0.500000 0.500000
O O6 0.110254 0.758528 0.284528
O O7 0.226964 0.748617 0.553969
O O8 0.110236 0.725890 0.783903
O O9 0.321453 0.358743 0.104015
O O10 0.000000 0.806083 0.000000
O O11 0.107715 0.000000 0.000000
O O12 0.306423 0.500000 0.500000
#
# Coordination Sequence:
#
# PCOD8155316 Si02
#       6
#     4   4   1   2   4   4
#     4  11  24  42  61  93 123 169 222 268 337 395
#     4  11  24  42  73 106 139 177 234 293 343 401
#     4  12  26  42  60  82 136 174 212 292 324 384
#     4  10  22  41  70  90 123 170 212 282 331 416
#     4  11  25  46  69 100 144 189 228 275 345 423
#     4   9  22  39  65  95 128 165 217 272 339 399
#
# _framework density 21.672046999999999
#
# number of rings (size 3 to 8) (size 9 to 14) (size 15 to 20)
#    0.000    1.474    0.000    3.474    8.842   14.316 
#    1.895    4.211    0.000    0.000    0.000    0.000 
#    0.000    0.000    0.000    0.000    0.000    0.000 
#
# Total GULP energy -235484.883333 kJ/mol
# GULP energy per Si atom -12393.941228 kJ/mol
# Density = 2.162272 g / cm^3
# Si number density = 21.672047 Si / 1000 Ang^3
#
#
#
# Elastic Constant Matrix: (Units=GPa)
#
#
# Indices 1 2 3 4 5 6 
#
# 1 137.4500 40.7158 51.4120 0.0000 0.0000 0.0000
# 2 40.7158 69.8904 30.2107 0.0000 0.0000 0.0000
# 3 51.4120 30.2107 134.4217 0.0000 0.0000 0.0000
# 4 0.0000 0.0000 0.0000 29.3912 0.0000 0.0000
# 5 0.0000 0.0000 0.0000 0.0000 1.9730 0.0000
# 6 0.0000 0.0000 0.0000 0.0000 0.0000 91.1540
#
#
#
# Elastic Compliance Matrix: (Units=1/GPa)
#
#
# Indices 1 2 3 4 5 6 
#
# 1 0.009587 -0.004430 -0.002671 0.000000 0.000000 0.000000
# 2 -0.004430 0.017895 -0.002327 0.000000 0.000000 0.000000
# 3 -0.002671 -0.002327 0.008984 0.000000 0.000000 0.000000
# 4 0.000000 0.000000 0.000000 0.034024 0.000000 0.000000
# 5 0.000000 0.000000 0.000000 0.000000 0.506831 0.000000
# 6 0.000000 0.000000 0.000000 0.000000 0.000000 0.010970
#
#
# Mechanical properties :
#
#
# Convention : Reuss Voigt Hill
#
# Bulk Modulus (GPa) = 56.79102 65.15990 60.97546
# Shear Modulus (GPa) = 8.15637 39.13189 23.64413
#
# Velocity S-wave (km/s) = 1.94209 4.25389 3.30661
# Velocity P-wave (km/s) = 5.59380 7.36607 6.54025
#
# Compressibility (1/GPa) = 0.01760842
#
# Stress axis : x y z
#
# Youngs Moduli (GPa) = 104.31007 55.88103 111.31046
#
# Poissons Ratio (x) = 0.24758 0.29730
# Poissons Ratio (y) = 0.46214 0.25906
# Poissons Ratio (z) = 0.27860 0.13006
#
# Static dielectric constant tensor:
#      x y z
#    x 4.388260 0.000000 0.000000 
#    y 0.000000 3.860360 0.000000 
#    z 0.000000 0.000000 0.504170 
# 
# 
# High freq. dielectric constant tensor:
#      x y z
#    x 1.862460 0.000000 0.000000 
#    y 0.000000 1.835370 0.000000 
#    z 0.000000 0.000000 1.872890 
# 
# From -- ./inp_files/2245.got.cif
#   From: 2010.03.12/outbox.cif.g09.slc.cpg/sg16_2_cif.got.tgz:2245.got - 2010.03.31 00:51:45.
