data_PCOD8155462
_publ_section_title
;
Structure prediction by ZEFSAII (Michael W. Deem and Ramdas Pophale) SiO2 
 PCOD8155462
Probable space group: P 2 2 21
;
_chemical_formula_sum "Si O2"
_cell_formula_units_Z 18
_cell_length_a 14.369018
_cell_length_b 12.927562
_cell_length_c 5.144708
_cell_angle_alpha 90.000000
_cell_angle_beta 90.000000
_cell_angle_gamma 90.000000
_cell_volume 955.662288
_symmetry_space_group_name_H-M "P 2 2 21"
_symmetry_group_IT_number 17
_symmetry_cell_setting 'orthorhombic'
loop_
_space_group_symop_operation_xyz
x,y,z
-x,-y,1/2+z
x,-y,-z
-x,y,1/2-z
loop_
_atom_site_type_symbol
_atom_site_label
_atom_site_fract_x
_atom_site_fract_y
_atom_site_fract_z
Si Si1 0.060313 0.380022 0.001143
Si Si2 0.352759 0.216100 0.573147
Si Si3 0.645338 0.500000 0.500000
Si Si4 0.438904 0.000000 0.500000
Si Si5 0.741986 0.698314 0.587804
Si Si6 0.500000 0.353924 0.750000
O O1 0.149863 0.305578 0.011562
O O2 0.000000 0.351578 0.750000
O O3 0.090791 0.500000 0.000000
O O4 0.000000 0.353406 0.250000
O O5 0.313706 0.247897 0.854637
O O6 0.451217 0.279133 0.533240
O O7 0.372782 0.094936 0.574954
O O8 0.277195 0.238196 0.350203
O O9 0.709821 0.580774 0.655482
O O10 0.582469 0.429910 0.679341
O O11 0.500000 0.030422 0.250000
#
# Coordination Sequence:
#
# PCOD8155462 Si02
#       6
#     4   4   2   2   4   2
#     4  10  20  36  58  85 120 155 189 232 290 352
#     4  11  24  37  60  81 116 150 207 239 291 336
#     4  10  20  32  52  76 122 154 192 226 268 326
#     4  12  24  42  62  84 112 156 198 260 294 330
#     4  11  22  38  56  89 114 157 192 238 282 353
#     4  10  20  36  50  84 110 170 190 238 264 350
#
# _framework density 18.835104999999999
#
# number of rings (size 3 to 8) (size 9 to 14) (size 15 to 20)
#    0.000    1.333    2.222    4.000    3.111    2.667 
#    0.000    0.000    0.000    0.000    0.000   15.556 
#    0.000    0.000    0.000    0.000    0.000    0.000 
#
# Total GULP energy -223091.537462 kJ/mol
# GULP energy per Si atom -12393.974303 kJ/mol
# Density = 1.879224 g / cm^3
# Si number density = 18.835105 Si / 1000 Ang^3
#
#
#
# Elastic Constant Matrix: (Units=GPa)
#
#
# Indices 1 2 3 4 5 6 
#
# 1 108.9278 48.2084 37.1521 0.0000 0.0000 0.0000
# 2 48.2084 120.7669 33.2526 0.0000 0.0000 0.0000
# 3 37.1521 33.2526 111.4485 0.0000 0.0000 0.0000
# 4 0.0000 0.0000 0.0000 27.0051 0.0000 0.0000
# 5 0.0000 0.0000 0.0000 0.0000 20.8651 0.0000
# 6 0.0000 0.0000 0.0000 0.0000 0.0000 17.9765
#
#
#
# Elastic Compliance Matrix: (Units=1/GPa)
#
#
# Indices 1 2 3 4 5 6 
#
# 1 0.011889 -0.003982 -0.002775 0.000000 0.000000 0.000000
# 2 -0.003982 0.010355 -0.001762 0.000000 0.000000 0.000000
# 3 -0.002775 -0.001762 0.010424 0.000000 0.000000 0.000000
# 4 0.000000 0.000000 0.000000 0.037030 0.000000 0.000000
# 5 0.000000 0.000000 0.000000 0.000000 0.047927 0.000000
# 6 0.000000 0.000000 0.000000 0.000000 0.000000 0.055628
#
#
# Mechanical properties :
#
#
# Convention : Reuss Voigt Hill
#
# Bulk Modulus (GPa) = 63.98249 64.26326 64.12288
# Shear Modulus (GPa) = 25.57522 28.00469 26.78995
#
# Velocity S-wave (km/s) = 3.68890 3.86013 3.77549
# Velocity P-wave (km/s) = 7.22409 7.35258 7.28862
#
# Compressibility (1/GPa) = 0.01562928
#
# Stress axis : x y z
#
# Youngs Moduli (GPa) = 84.10984 96.57049 95.93499
#
# Poissons Ratio (x) = 0.38453 0.26625
# Poissons Ratio (y) = 0.33491 0.16906
# Poissons Ratio (z) = 0.23343 0.17018
#
# Static dielectric constant tensor:
#      x y z
#    x 3.628030 0.000000 0.000000 
#    y 0.000000 3.474910 0.000000 
#    z 0.000000 0.000000 3.658260 
# 
# 
# High freq. dielectric constant tensor:
#      x y z
#    x 1.728170 0.000000 0.000000 
#    y 0.000000 1.715800 0.000000 
#    z 0.000000 0.000000 1.731820 
# 
# From -- ./inp_files/1433.got.cif
#   From: 2010.03.12/outbox.cif.g09.slc.cpg/sg17_1_cif.got.tgz:1433.got - 2010.04.10 18:46:23.
