data_PCOD8155368
_publ_section_title
;
Structure prediction by ZEFSAII (Michael W. Deem and Ramdas Pophale) SiO2 
 PCOD8155368
Probable space group: P 2 2 21
;
_chemical_formula_sum "Si O2"
_cell_formula_units_Z 22
_cell_length_a 7.825242
_cell_length_b 8.461570
_cell_length_c 15.190176
_cell_angle_alpha 90.000000
_cell_angle_beta 90.000000
_cell_angle_gamma 90.000000
_cell_volume 1005.799776
_symmetry_space_group_name_H-M "P 2 2 21"
_symmetry_group_IT_number 17
_symmetry_cell_setting 'orthorhombic'
loop_
_space_group_symop_operation_xyz
x,y,z
-x,-y,1/2+z
x,-y,-z
-x,y,1/2-z
loop_
_atom_site_type_symbol
_atom_site_label
_atom_site_fract_x
_atom_site_fract_y
_atom_site_fract_z
Si Si1 0.193263 0.852530 0.635409
Si Si2 0.039546 0.417620 0.909901
Si Si3 0.316700 0.660250 0.466136
Si Si4 0.498700 0.053780 0.600089
Si Si5 0.129397 0.059695 0.902468
Si Si6 0.000000 0.623671 0.750000
O O1 0.221079 0.766541 0.541268
O O2 0.156998 0.725919 0.710977
O O3 0.361467 0.955275 0.657244
O O4 0.030168 0.970703 0.640207
O O5 0.118832 0.246810 0.899337
O O6 0.092316 0.522977 0.826234
O O7 0.834739 0.405595 0.905557
O O8 0.104245 0.500000 0.000000
O O9 0.413205 0.500000 0.500000
O O10 0.445660 0.760681 0.405463
O O11 0.685689 0.025195 0.643339
O O12 0.494673 0.000000 0.500000
O O13 0.143687 0.000000 0.000000
#
# Coordination Sequence:
#
# PCOD8155368 Si02
#       6
#     4   4   4   4   4   2
#     4  11  20  38  61  87 123 161 210 256 303 376
#     4  11  21  38  65  97 128 164 215 258 316 382
#     4  10  17  36  62  88 125 159 201 258 301 368
#     4   9  20  34  62  95 120 164 207 248 315 374
#     4  11  19  37  66  94 125 164 208 260 318 373
#     4  12  24  38  68  92 118 182 208 254 336 364
#
# _framework density 21.873138999999998
#
# number of rings (size 3 to 8) (size 9 to 14) (size 15 to 20)
#    0.000    1.455    7.273    0.545    0.000    1.455 
#    0.000    2.727    4.000    0.000    0.000    0.000 
#    0.000    0.000    0.000    0.000    0.000    0.000 
#
# Total GULP energy -272599.848077 kJ/mol
# GULP energy per Si atom -12390.902185 kJ/mol
# Density = 2.182335 g / cm^3
# Si number density = 21.873139 Si / 1000 Ang^3
#
#
#
# Elastic Constant Matrix: (Units=GPa)
#
#
# Indices 1 2 3 4 5 6 
#
# 1 129.6497 56.2357 19.2531 0.0000 0.0000 0.0000
# 2 56.2357 162.7894 40.1182 0.0000 0.0000 0.0000
# 3 19.2531 40.1182 81.8026 0.0000 0.0000 0.0000
# 4 0.0000 0.0000 0.0000 32.8988 0.0000 0.0000
# 5 0.0000 0.0000 0.0000 0.0000 4.3748 0.0000
# 6 0.0000 0.0000 0.0000 0.0000 0.0000 20.0300
#
#
#
# Elastic Compliance Matrix: (Units=1/GPa)
#
#
# Indices 1 2 3 4 5 6 
#
# 1 0.009106 -0.002977 -0.000683 0.000000 0.000000 0.000000
# 2 -0.002977 0.007961 -0.003204 0.000000 0.000000 0.000000
# 3 -0.000683 -0.003204 0.013956 0.000000 0.000000 0.000000
# 4 0.000000 0.000000 0.000000 0.030396 0.000000 0.000000
# 5 0.000000 0.000000 0.000000 0.000000 0.228584 0.000000
# 6 0.000000 0.000000 0.000000 0.000000 0.000000 0.049925
#
#
# Mechanical properties :
#
#
# Convention : Reuss Voigt Hill
#
# Bulk Modulus (GPa) = 57.81834 67.27285 62.54559
# Shear Modulus (GPa) = 13.91124 28.70303 21.30714
#
# Velocity S-wave (km/s) = 2.52463 3.62643 3.12448
# Velocity P-wave (km/s) = 5.91517 6.95394 6.45549
#
# Compressibility (1/GPa) = 0.01729555
#
# Stress axis : x y z
#
# Youngs Moduli (GPa) = 109.81845 125.61389 71.65179
#
# Poissons Ratio (x) = 0.37399 0.04894
# Poissons Ratio (y) = 0.32697 0.22954
# Poissons Ratio (z) = 0.07501 0.40240
#
# Static dielectric constant tensor:
#      x y z
#    x 4.298820 0.000000 0.000000 
#    y 0.000000 4.471780 0.000000 
#    z 0.000000 0.000000 3.575570 
# 
# 
# High freq. dielectric constant tensor:
#      x y z
#    x 1.843720 0.000000 0.000000 
#    y 0.000000 1.883040 0.000000 
#    z 0.000000 0.000000 1.823740 
# 
# From -- ./inp_files/8115.got.cif
#   From: 2010.03.12/outbox.cif.g09.slc.cpg/sg17_5_cif.got.tgz:8115.got - 2010.04.10 18:46:23.
