data_PCOD8155443
_publ_section_title
;
Structure prediction by ZEFSAII (Michael W. Deem and Ramdas Pophale) SiO2 
 PCOD8155443
Probable space group: P 2 2 21
;
_chemical_formula_sum "Si O2"
_cell_formula_units_Z 26
_cell_length_a 11.045216
_cell_length_b 7.761424
_cell_length_c 15.627603
_cell_angle_alpha 90.000000
_cell_angle_beta 90.000000
_cell_angle_gamma 90.000000
_cell_volume 1339.701342
_symmetry_space_group_name_H-M "P 2 2 21"
_symmetry_group_IT_number 17
_symmetry_cell_setting 'orthorhombic'
loop_
_space_group_symop_operation_xyz
x,y,z
-x,-y,1/2+z
x,-y,-z
-x,y,1/2-z
loop_
_atom_site_type_symbol
_atom_site_label
_atom_site_fract_x
_atom_site_fract_y
_atom_site_fract_z
Si Si1 0.883297 0.000000 0.500000
Si Si2 0.851569 0.500000 0.500000
Si Si3 0.612671 0.984709 0.184081
Si Si4 0.638727 0.621955 0.249888
Si Si5 0.510200 0.000000 0.000000
Si Si6 0.975037 0.716800 0.618636
Si Si7 0.203151 0.281054 0.274282
Si Si8 0.695991 0.782328 0.430998
O O1 0.968776 0.855645 0.541616
O O2 0.792566 0.938575 0.422771
O O3 0.937700 0.528339 0.582217
O O4 0.762564 0.660807 0.498079
O O5 0.500000 0.996164 0.250000
O O6 0.711499 0.115856 0.218974
O O7 0.658306 0.784817 0.185461
O O8 0.586129 0.041261 0.085948
O O9 0.500000 0.557716 0.250000
O O10 0.722225 0.459564 0.227360
O O11 0.673064 0.689276 0.342889
O O12 0.429510 0.835286 0.024819
O O13 0.881143 0.756331 0.693575
O O14 0.114612 0.707771 0.644771
#
# Coordination Sequence:
#
# PCOD8155443 Si02
#       8
#     2   2   4   4   2   4   4   4
#     4   9  20  37  68  88 118 165 211 274 312 366
#     4  10  20  36  64  90 120 158 214 272 300 372
#     4  11  24  42  65  94 132 168 211 265 324 389
#     4  11  21  41  64  94 129 168 208 262 328 385
#     4  11  22  41  62  94 128 171 209 264 322 392
#     4  10  22  42  61  91 122 161 218 263 317 375
#     4  11  24  42  63  92 128 169 208 263 325 392
#     4  10  19  36  64  93 122 159 217 261 312 370
#
# _framework density 19.407309999999999
#
# number of rings (size 3 to 8) (size 9 to 14) (size 15 to 20)
#    0.000    1.538    4.615    1.385    4.308    1.846 
#    8.308    1.538    0.000    0.000    0.000    0.000 
#    0.000    0.000    0.000    0.000    0.000    0.000 
#
# Total GULP energy -322157.172980 kJ/mol
# GULP energy per Si atom -12390.660499 kJ/mol
# Density = 1.936314 g / cm^3
# Si number density = 19.407310 Si / 1000 Ang^3
#
#
#
# Elastic Constant Matrix: (Units=GPa)
#
#
# Indices 1 2 3 4 5 6 
#
# 1 115.5789 62.5688 40.6686 0.0000 0.0000 0.0000
# 2 62.5688 104.3544 22.7784 0.0000 0.0000 0.0000
# 3 40.6686 22.7784 94.9865 0.0000 0.0000 0.0000
# 4 0.0000 0.0000 0.0000 27.3666 0.0000 0.0000
# 5 0.0000 0.0000 0.0000 0.0000 30.1443 0.0000
# 6 0.0000 0.0000 0.0000 0.0000 0.0000 19.8518
#
#
#
# Elastic Compliance Matrix: (Units=1/GPa)
#
#
# Indices 1 2 3 4 5 6 
#
# 1 0.014294 -0.007634 -0.004289 0.000000 0.000000 0.000000
# 2 -0.007634 0.014189 -0.000134 0.000000 0.000000 0.000000
# 3 -0.004289 -0.000134 0.012396 0.000000 0.000000 0.000000
# 4 0.000000 0.000000 0.000000 0.036541 0.000000 0.000000
# 5 0.000000 0.000000 0.000000 0.000000 0.033174 0.000000
# 6 0.000000 0.000000 0.000000 0.000000 0.000000 0.050373
#
#
# Mechanical properties :
#
#
# Convention : Reuss Voigt Hill
#
# Bulk Modulus (GPa) = 59.64930 62.99459 61.32194
# Shear Modulus (GPa) = 26.22312 28.06614 27.14463
#
# Velocity S-wave (km/s) = 3.67985 3.80697 3.74395
# Velocity P-wave (km/s) = 6.98980 7.20095 7.09616
#
# Compressibility (1/GPa) = 0.01676466
#
# Stress axis : x y z
#
# Youngs Moduli (GPa) = 69.95856 70.47553 80.66826
#
# Poissons Ratio (x) = 0.53803 0.34601
# Poissons Ratio (y) = 0.53408 0.01082
# Poissons Ratio (z) = 0.30008 0.00945
#
# Static dielectric constant tensor:
#      x y z
#    x 3.672120 0.000000 0.000000 
#    y 0.000000 3.866340 0.000000 
#    z 0.000000 0.000000 3.617560 
# 
# 
# High freq. dielectric constant tensor:
#      x y z
#    x 1.752770 0.000000 0.000000 
#    y 0.000000 1.761010 0.000000 
#    z 0.000000 0.000000 1.752750 
# 
# From -- ./inp_files/9500.got.cif
#   From: 2010.03.12/outbox.cif.g09.slc.cpg/sg17_5_cif.got.tgz:9500.got - 2010.04.10 18:46:23.
