data_PCOD8155883
_publ_section_title
;
Structure prediction by ZEFSAII (Michael W. Deem and Ramdas Pophale) SiO2 
 PCOD8155883
Probable space group: P 21 21 2
;
_chemical_formula_sum "Si O2"
_cell_formula_units_Z 24
_cell_length_a 12.394056
_cell_length_b 11.944257
_cell_length_c 8.771155
_cell_angle_alpha 90.000000
_cell_angle_beta 90.000000
_cell_angle_gamma 90.000000
_cell_volume 1298.462403
_symmetry_space_group_name_H-M "P 21 21 2"
_symmetry_group_IT_number 18
_symmetry_cell_setting 'orthorhombic'
loop_
_space_group_symop_operation_xyz
x,y,z
-x,-y,z
1/2+x,1/2-y,-z
1/2-x,1/2+y,-z
loop_
_atom_site_type_symbol
_atom_site_label
_atom_site_fract_x
_atom_site_fract_y
_atom_site_fract_z
Si Si1 0.376916 0.999960 0.402202
Si Si2 0.790986 0.353342 0.116984
Si Si3 0.280974 0.924982 0.699384
Si Si4 0.600975 0.196045 0.167550
Si Si5 0.143790 0.715300 0.780986
Si Si6 0.023906 0.374488 0.143142
O O1 0.285291 0.973643 0.528638
O O2 0.371188 0.915432 0.260296
O O3 0.500000 0.000000 0.467111
O O4 0.340126 0.121481 0.346194
O O5 0.767348 0.481669 0.167187
O O6 0.696976 0.283369 0.198438
O O7 0.909285 0.315403 0.180995
O O8 0.799766 0.332215 0.935070
O O9 0.191060 0.831789 0.721329
O O10 0.400474 0.869142 0.709296
O O11 0.482950 0.243057 0.206778
O O12 0.598054 0.178428 0.987304
O O13 0.000000 0.500000 0.085486
#
# Coordination Sequence:
#
# PCOD8155883 Si02
#       6
#     4   4   4   4   4   4
#     4  10  21  37  58  84 114 150 192 232 276 336
#     4  10  20  34  60  83 112 147 186 236 276 329
#     4  11  21  36  59  85 113 149 188 232 281 334
#     4  10  19  36  59  84 115 147 184 232 286 331
#     4  10  22  37  58  87 114 148 191 233 277 337
#     4   9  17  34  56  83 106 143 195 229 262 329
#
# _framework density 18.483398999999999
#
# number of rings (size 3 to 8) (size 9 to 14) (size 15 to 20)
#    0.000    2.000    1.667    5.000    2.333    0.667 
#    0.000    0.000    0.000    1.000    0.000    0.000 
#    0.000    0.000    0.000    0.000    0.000    0.000 
#
# Total GULP energy -297319.771897 kJ/mol
# GULP energy per Si atom -12388.323829 kJ/mol
# Density = 1.844133 g / cm^3
# Si number density = 18.483399 Si / 1000 Ang^3
#
#
#
# Elastic Constant Matrix: (Units=GPa)
#
#
# Indices 1 2 3 4 5 6 
#
# 1 98.0944 54.4486 34.3181 0.0000 0.0000 0.0000
# 2 54.4486 72.9786 22.7130 0.0000 0.0000 0.0000
# 3 34.3181 22.7130 56.4551 0.0000 0.0000 0.0000
# 4 0.0000 0.0000 0.0000 25.6474 0.0000 0.0000
# 5 0.0000 0.0000 0.0000 0.0000 23.9802 0.0000
# 6 0.0000 0.0000 0.0000 0.0000 0.0000 37.2940
#
#
#
# Elastic Compliance Matrix: (Units=1/GPa)
#
#
# Indices 1 2 3 4 5 6 
#
# 1 0.019470 -0.012395 -0.006849 0.000000 0.000000 0.000000
# 2 -0.012395 0.023555 -0.001942 0.000000 0.000000 0.000000
# 3 -0.006849 -0.001942 0.022658 0.000000 0.000000 0.000000
# 4 0.000000 0.000000 0.000000 0.038990 0.000000 0.000000
# 5 0.000000 0.000000 0.000000 0.000000 0.041701 0.000000
# 6 0.000000 0.000000 0.000000 0.000000 0.000000 0.026814
#
#
# Mechanical properties :
#
#
# Convention : Reuss Voigt Hill
#
# Bulk Modulus (GPa) = 42.89758 50.05417 46.47588
# Shear Modulus (GPa) = 22.38835 25.12088 23.75461
#
# Velocity S-wave (km/s) = 3.48410 3.69060 3.58884
# Velocity P-wave (km/s) = 6.28048 6.73054 6.50940
#
# Compressibility (1/GPa) = 0.02331134
#
# Stress axis : x y z
#
# Youngs Moduli (GPa) = 51.36004 42.45417 44.13494
#
# Poissons Ratio (x) = 0.52622 0.30228
# Poissons Ratio (y) = 0.63661 0.08570
# Poissons Ratio (z) = 0.35176 0.08244
#
# Static dielectric constant tensor:
#      x y z
#    x 3.558570 0.000000 0.000000 
#    y 0.000000 3.228490 0.000000 
#    z 0.000000 0.000000 3.287070 
# 
# 
# High freq. dielectric constant tensor:
#      x y z
#    x 1.717400 0.000000 0.000000 
#    y 0.000000 1.697670 0.000000 
#    z 0.000000 0.000000 1.713890 
# 
# From -- ./inp_files/3720.got.cif
#   From: 2010.03.12/outbox.cif.g09.slc.cpg/sg18_2_cif.got.tgz:3720.got - 2010.04.10 18:53:55.
