data_PCOD8155297
_publ_section_title
;
Structure prediction by ZEFSAII (Michael W. Deem and Ramdas Pophale) SiO2 
 PCOD8155297
Probable space group: P 2 2 2
;
_chemical_formula_sum "Si O2"
_cell_formula_units_Z 32
_cell_length_a 15.029014
_cell_length_b 11.977550
_cell_length_c 8.960798
_cell_angle_alpha 90.000000
_cell_angle_beta 90.000000
_cell_angle_gamma 90.000000
_cell_volume 1613.040118
_symmetry_space_group_name_H-M "P 2 2 2"
_symmetry_group_IT_number 16
_symmetry_cell_setting 'orthorhombic'
loop_
_space_group_symop_operation_xyz
x,y,z
-x,-y,z
x,-y,-z
-x,y,-z
loop_
_atom_site_type_symbol
_atom_site_label
_atom_site_fract_x
_atom_site_fract_y
_atom_site_fract_z
Si Si1 0.295918 0.898652 0.407490
Si Si2 0.402557 0.534952 0.669230
Si Si3 0.397439 0.976398 0.840441
Si Si4 0.006189 0.868078 0.822527
Si Si5 0.354177 0.222721 0.333990
Si Si6 0.854611 0.272367 0.338118
Si Si7 0.784400 0.492792 0.178784
Si Si8 0.150976 0.285713 0.324319
O O1 0.372698 0.845109 0.513299
O O2 0.229933 0.806211 0.348019
O O3 0.248112 0.000000 0.500000
O O4 0.345294 0.942701 0.265651
O O5 0.500000 0.500000 0.730102
O O6 0.383768 0.500000 0.500000
O O7 0.411045 0.666938 0.670658
O O8 0.319392 0.494200 0.769312
O O9 0.382741 0.846317 0.809789
O O10 0.500000 0.000000 0.831851
O O11 0.355784 0.000000 0.000000
O O12 0.096171 0.808812 0.764863
O O13 0.928665 0.798220 0.745913
O O14 0.000000 0.000000 0.777153
O O15 0.000000 0.856118 0.000000
O O16 0.249138 0.238838 0.333556
O O17 0.830628 0.381191 0.240698
O O18 0.886060 0.304884 0.506599
O O19 0.843990 0.595208 0.240581
O O20 0.786506 0.500000 0.000000
#
# Coordination Sequence:
#
# PCOD8155297 Si02
#       8
#     4   4   4   4   4   4   4   4
#     4   9  20  36  59  87 114 153 202 248 305 361
#     4  10  21  38  62  91 123 160 210 261 308 365
#     4  10  22  36  52  80 116 156 199 243 300 366
#     4  11  26  42  62  97 132 161 199 252 318 379
#     4   9  20  38  59  83 116 157 197 253 302 354
#     4  11  23  40  67  92 119 163 211 257 307 365
#     4  11  23  41  64  92 127 166 208 256 323 378
#     4  10  22  43  65  88 124 160 209 256 304 372
#
# _framework density 19.838317
#
# number of rings (size 3 to 8) (size 9 to 14) (size 15 to 20)
#    0.000    1.875    0.000    3.750    5.250    9.500 
#    0.000    5.000    0.000    0.000    0.000    0.000 
#    0.000    0.000    0.000    0.000    0.000    0.000 
#
# Total GULP energy -396589.339959 kJ/mol
# GULP energy per Si atom -12393.416874 kJ/mol
# Density = 1.979316 g / cm^3
# Si number density = 19.838317 Si / 1000 Ang^3
#
#
#
# Elastic Constant Matrix: (Units=GPa)
#
#
# Indices 1 2 3 4 5 6 
#
# 1 69.7807 57.7870 48.3350 0.0000 0.0000 0.0000
# 2 57.7870 175.9085 82.2924 0.0000 0.0000 0.0000
# 3 48.3350 82.2924 160.1451 0.0000 0.0000 0.0000
# 4 0.0000 0.0000 0.0000 34.0629 0.0000 0.0000
# 5 0.0000 0.0000 0.0000 0.0000 36.4014 0.0000
# 6 0.0000 0.0000 0.0000 0.0000 0.0000 34.4114
#
#
#
# Elastic Compliance Matrix: (Units=1/GPa)
#
#
# Indices 1 2 3 4 5 6 
#
# 1 0.021246 -0.005239 -0.003720 0.000000 0.000000 0.000000
# 2 -0.005239 0.008776 -0.002928 0.000000 0.000000 0.000000
# 3 -0.003720 -0.002928 0.008872 0.000000 0.000000 0.000000
# 4 0.000000 0.000000 0.000000 0.029357 0.000000 0.000000
# 5 0.000000 0.000000 0.000000 0.000000 0.027471 0.000000
# 6 0.000000 0.000000 0.000000 0.000000 0.000000 0.029060
#
#
# Mechanical properties :
#
#
# Convention : Reuss Voigt Hill
#
# Bulk Modulus (GPa) = 66.14427 86.96257 76.55342
# Shear Modulus (GPa) = 32.55257 35.46980 34.01118
#
# Velocity S-wave (km/s) = 4.05519 4.23300 4.14505
# Velocity P-wave (km/s) = 7.43909 8.23540 7.84735
#
# Compressibility (1/GPa) = 0.01511847
#
# Stress axis : x y z
#
# Youngs Moduli (GPa) = 47.06730 113.95088 112.71495
#
# Poissons Ratio (x) = 0.59699 0.41934
# Poissons Ratio (y) = 0.24659 0.33006
# Poissons Ratio (z) = 0.17511 0.33368
#
# Static dielectric constant tensor:
#      x y z
#    x 3.532300 0.000000 0.000000 
#    y 0.000000 4.020990 0.000000 
#    z 0.000000 0.000000 4.069060 
# 
# 
# High freq. dielectric constant tensor:
#      x y z
#    x 1.766190 0.000000 0.000000 
#    y 0.000000 1.793510 0.000000 
#    z 0.000000 0.000000 1.782300 
# 
# From -- ./inp_files/4867.got.cif
#   From: 2010.03.12/outbox.cif.g09.slc.cpg/sg16_3_cif.got.tgz:4867.got - 2010.03.31 00:51:45.
