data_PCOD8155565
_publ_section_title
;
Structure prediction by ZEFSAII (Michael W. Deem and Ramdas Pophale) SiO2 
 PCOD8155565
Probable space group: P 2 2 21
;
_chemical_formula_sum "Si O2"
_cell_formula_units_Z 24
_cell_length_a 5.298003
_cell_length_b 26.082026
_cell_length_c 8.815563
_cell_angle_alpha 90.000000
_cell_angle_beta 90.000000
_cell_angle_gamma 90.000000
_cell_volume 1218.157874
_symmetry_space_group_name_H-M "P 2 2 21"
_symmetry_group_IT_number 17
_symmetry_cell_setting 'orthorhombic'
loop_
_space_group_symop_operation_xyz
x,y,z
-x,-y,1/2+z
x,-y,-z
-x,y,1/2-z
loop_
_atom_site_type_symbol
_atom_site_label
_atom_site_fract_x
_atom_site_fract_y
_atom_site_fract_z
Si Si1 0.363186 0.404260 0.906693
Si Si2 0.661303 0.500000 0.000000
Si Si3 0.249947 0.851559 0.159159
Si Si4 0.754216 0.206028 0.343310
Si Si5 0.750315 0.027793 0.659445
Si Si6 0.000000 0.471847 0.750000
Si Si7 0.248178 0.325097 0.157510
O O1 0.500000 0.387504 0.750000
O O2 0.108382 0.434597 0.877018
O O3 0.519007 0.446020 0.001077
O O4 0.282921 0.354404 0.999368
O O5 0.805274 0.492825 0.159841
O O6 0.500000 0.834623 0.250000
O O7 0.247767 0.911888 0.130086
O O8 0.000000 0.834114 0.250000
O O9 0.254953 0.824797 0.997840
O O10 0.500000 0.194348 0.250000
O O11 0.779647 0.265686 0.383891
O O12 0.000000 0.187675 0.250000
O O13 0.500000 0.010867 0.750000
O O14 0.000000 0.010405 0.750000
O O15 0.749337 0.000000 0.500000
O O16 0.500000 0.336107 0.250000
O O17 0.000000 0.343749 0.250000
#
# Coordination Sequence:
#
# PCOD8155565 Si02
#       7
#     4   2   4   4   4   2   4
#     4  10  23  41  58  86 116 148 191 235 283 345
#     4  10  22  40  58  84 112 144 188 228 280 334
#     4  10  21  37  58  89 119 156 202 250 298 353
#     4  10  21  40  61  87 119 151 197 247 294 357
#     4  10  21  36  55  83 122 159 205 249 296 354
#     4  10  22  40  58  82 114 144 186 234 272 340
#     4  10  24  42  62  89 117 152 193 238 292 348
#
# _framework density 19.701879000000002
#
# number of rings (size 3 to 8) (size 9 to 14) (size 15 to 20)
#    0.000    2.000    0.000    2.000    4.667    5.333 
#    3.000    0.000    0.000    0.000    0.000    0.000 
#    0.000    0.000    0.000    0.000    0.000    0.000 
#
# Total GULP energy -297529.599946 kJ/mol
# GULP energy per Si atom -12397.066664 kJ/mol
# Density = 1.965704 g / cm^3
# Si number density = 19.701879 Si / 1000 Ang^3
#
#
#
# Elastic Constant Matrix: (Units=GPa)
#
#
# Indices 1 2 3 4 5 6 
#
# 1 174.0360 45.8358 84.4940 0.0000 0.0000 0.0000
# 2 45.8358 56.8361 73.4239 0.0000 0.0000 0.0000
# 3 84.4940 73.4239 165.3056 0.0000 0.0000 0.0000
# 4 0.0000 0.0000 0.0000 41.8778 0.0000 0.0000
# 5 0.0000 0.0000 0.0000 0.0000 23.4159 0.0000
# 6 0.0000 0.0000 0.0000 0.0000 0.0000 15.5756
#
#
#
# Elastic Compliance Matrix: (Units=1/GPa)
#
#
# Indices 1 2 3 4 5 6 
#
# 1 0.007813 -0.002679 -0.002803 0.000000 0.000000 0.000000
# 2 -0.002679 0.042201 -0.017375 0.000000 0.000000 0.000000
# 3 -0.002803 -0.017375 0.015200 0.000000 0.000000 0.000000
# 4 0.000000 0.000000 0.000000 0.023879 0.000000 0.000000
# 5 0.000000 0.000000 0.000000 0.000000 0.042706 0.000000
# 6 0.000000 0.000000 0.000000 0.000000 0.000000 0.064203
#
#
# Mechanical properties :
#
#
# Convention : Reuss Voigt Hill
#
# Bulk Modulus (GPa) = 51.28601 89.29833 70.29217
# Shear Modulus (GPa) = 20.14377 29.00213 24.57295
#
# Velocity S-wave (km/s) = 3.20101 3.84089 3.53546
# Velocity P-wave (km/s) = 6.30472 8.06803 7.24026
#
# Compressibility (1/GPa) = 0.01949850
#
# Stress axis : x y z
#
# Youngs Moduli (GPa) = 127.99982 23.69616 65.79007
#
# Poissons Ratio (x) = 0.06348 0.18444
# Poissons Ratio (y) = 0.34289 1.14311
# Poissons Ratio (z) = 0.35884 0.41172
#
# Static dielectric constant tensor:
#      x y z
#    x 4.308110 0.000000 0.000000 
#    y 0.000000 3.431010 0.000000 
#    z 0.000000 0.000000 3.516640 
# 
# 
# High freq. dielectric constant tensor:
#      x y z
#    x 1.792320 0.000000 0.000000 
#    y 0.000000 1.754770 0.000000 
#    z 0.000000 0.000000 1.776260 
# 
# From -- ./inp_files/3578.got.cif
#   From: 2010.03.12/outbox.cif.g09.slc.cpg/sg17_2_cif.got.tgz:3578.got - 2010.04.10 18:46:23.
