data_PCOD8155181
_publ_section_title
;
Structure prediction by ZEFSAII (Michael W. Deem and Ramdas Pophale) SiO2 
 PCOD8155181
Probable space group: C 2/C
;
_chemical_formula_sum "Si O2"
_cell_formula_units_Z 48
_cell_length_a 13.572906
_cell_length_b 30.675801
_cell_length_c 9.125366
_cell_angle_alpha 90.000000
_cell_angle_beta 47.753473
_cell_angle_gamma 90.000000
_cell_volume 2812.565674
_symmetry_space_group_name_H-M "C 2/C"
_symmetry_group_IT_number 15
_symmetry_cell_setting 'monoclinic'
loop_
_space_group_symop_operation_xyz
x,y,z
-x,y,1/2-z
-x,-y,-z
x,-y,1/2+z
1/2+x,1/2+y,z
1/2-x,1/2+y,1/2-z
1/2-x,1/2-y,-z
1/2+x,1/2-y,1/2+z
loop_
_atom_site_type_symbol
_atom_site_label
_atom_site_fract_x
_atom_site_fract_y
_atom_site_fract_z
Si Si1 0.850988 0.382454 0.573159
Si Si2 0.652234 0.455649 0.770067
Si Si3 0.649012 0.117545 0.775134
Si Si4 0.851000 0.714577 0.724593
Si Si5 0.648999 0.214578 0.426594
Si Si6 0.347766 0.544351 0.574535
O O1 0.744975 0.417117 0.741243
O O2 0.846639 0.382721 0.403361
O O3 0.812760 0.333951 0.667638
O O4 1.000000 0.394772 0.477854
O O5 0.696572 0.500000 0.803429
O O6 0.672488 0.461974 0.577513
O O7 0.500000 0.443732 0.960464
O O8 0.687240 0.166048 0.793158
O O9 0.755024 0.082883 0.731194
O O10 0.749999 0.750000 0.756972
O O11 1.000000 0.726507 0.523650
O O12 0.843496 0.715587 0.906504
#
# Coordination Sequence:
#
# PCOD8155181 Si02
#       6
#     8   8   8   8   8   8
#     4   8  14  24  36  51  73 100 128 157 189 225
#     4   9  17  28  41  57  77 101 129 160 192 226
#     4   8  14  24  36  51  73 100 128 157 189 225
#     4   8  13  20  30  46  69  96 124 152 182 219
#     4   8  13  20  30  46  69  96 124 152 182 219
#     4   9  17  28  41  57  77 101 129 160 192 226
#
# _framework density 17.066268000000001
#
# number of rings (size 3 to 8) (size 9 to 14) (size 15 to 20)
#    0.000    3.667    0.000    2.000    0.000    2.000 
#    0.000    6.667    0.000    0.000    0.000    0.000 
#    0.000    1.333    0.000    3.000    0.000    6.000 
#
# Total GULP energy -297418.123022 kJ/mol
# GULP energy per Si atom -12392.421793 kJ/mol
# Density = 1.702742 g / cm^3
# Si number density = 17.066268 Si / 1000 Ang^3
#
#
#
# Elastic Constant Matrix: (Units=GPa)
#
#
# Indices 1 2 3 4 5 6 
#
# 1 35.8951 57.4100 32.0580 0.0000 -26.7346 0.0000
# 2 57.4100 175.5254 80.7773 0.0000 -52.4703 0.0000
# 3 32.0580 80.7773 63.6780 0.0000 -35.6503 0.0000
# 4 0.0000 0.0000 0.0000 33.5173 0.0000 -14.2396
# 5 -26.7346 -52.4703 -35.6503 0.0000 27.8911 0.0000
# 6 0.0000 0.0000 0.0000 -14.2396 0.0000 27.1757
#
#
#
# Elastic Compliance Matrix: (Units=1/GPa)
#
#
# Indices 1 2 3 4 5 6 
#
# 1 0.112628 -0.014776 0.024334 0.000000 0.111265 0.000000
# 2 -0.014776 0.016990 -0.014587 0.000000 -0.000845 0.000000
# 3 0.024334 -0.014587 0.069102 0.000000 0.084209 0.000000
# 4 0.000000 0.000000 0.000000 0.038379 0.000000 0.020110
# 5 0.111265 -0.000845 0.084209 0.000000 0.248550 0.000000
# 6 0.000000 0.000000 0.000000 0.020110 0.000000 0.047335
#
#
# Mechanical properties :
#
#
# Convention : Reuss Voigt Hill
#
# Bulk Modulus (GPa) = 5.30046 68.39878 36.84962
# Shear Modulus (GPa) = 8.25176 24.70703 16.47940
#
# Velocity S-wave (km/s) = 2.20128 3.80901 3.11080
# Velocity P-wave (km/s) = 3.09409 7.71428 5.87722
#
# Compressibility (1/GPa) = 0.18866282
#
# Stress axis : x y z
#
# Youngs Moduli (GPa) = 8.87875 58.85662 14.47133
#
# Poissons Ratio (x) = 0.86965 -0.35215
# Poissons Ratio (y) = 0.13119 0.21110
# Poissons Ratio (z) = -0.21606 0.85857
#
# Static dielectric constant tensor:
#      x y z
#    x 2.875750 0.000000 -0.473730 
#    y 0.000000 3.577270 0.000000 
#    z -0.473730 0.000000 3.086730 
# 
# 
# High freq. dielectric constant tensor:
#      x y z
#    x 1.613420 0.000000 -0.040740 
#    y 0.000000 1.668300 0.000000 
#    z -0.040740 0.000000 1.631570 
# 
# From -- ./inp_files/101474.got.cif
#   From: 2010.06.25/outbox.cif.g09.slc.cpg/sg15_51_cif.got.tgz:101474.got - 2010.06.28 07:06:18.
