data_PCOD8155678
_publ_section_title
;
Structure prediction by ZEFSAII (Michael W. Deem and Ramdas Pophale) SiO2 
 PCOD8155678
Probable space group: P 2 2 21
;
_chemical_formula_sum "Si O2"
_cell_formula_units_Z 20
_cell_length_a 5.199201
_cell_length_b 5.163150
_cell_length_c 26.758521
_cell_angle_alpha 90.000000
_cell_angle_beta 90.000000
_cell_angle_gamma 90.000000
_cell_volume 718.312552
_symmetry_space_group_name_H-M "P 2 2 21"
_symmetry_group_IT_number 17
_symmetry_cell_setting 'orthorhombic'
loop_
_space_group_symop_operation_xyz
x,y,z
-x,-y,1/2+z
x,-y,-z
-x,y,1/2-z
loop_
_atom_site_type_symbol
_atom_site_label
_atom_site_fract_x
_atom_site_fract_y
_atom_site_fract_z
Si Si1 0.781668 0.885663 0.445143
Si Si2 0.859719 0.557770 0.829099
Si Si3 0.500000 0.359398 0.750000
Si Si4 0.274333 0.851368 0.579358
Si Si5 0.929399 0.500000 0.000000
Si Si6 0.881938 0.065403 0.695956
O O1 0.881046 0.591392 0.454366
O O2 0.790624 0.000000 0.500000
O O3 0.502071 0.931458 0.420356
O O4 0.996216 0.020816 0.410541
O O5 0.703556 0.550988 0.776657
O O6 0.678768 0.648351 0.875461
O O7 0.981332 0.275923 0.841264
O O8 0.088305 0.771122 0.822136
O O9 0.591313 0.168466 0.704356
O O10 0.263521 0.711579 0.524625
O O11 0.000000 0.113201 0.750000
#
# Coordination Sequence:
#
# PCOD8155678 Si02
#       6
#     4   4   2   4   2   4
#     4  10  23  46  71 105 143 191 252 307 380 457
#     4  11  26  45  72 112 150 194 259 315 393 469
#     4  10  24  50  80 102 156 206 248 328 390 466
#     4  11  26  45  72 113 147 196 257 321 387 472
#     4  10  24  50  78 100 152 206 248 326 394 464
#     4  10  23  46  70 105 142 194 247 306 378 457
#
# _framework density 27.843035
#
# number of rings (size 3 to 8) (size 9 to 14) (size 15 to 20)
#    0.000    1.600    0.000    3.600    5.600   14.400 
#    0.000    2.000    0.000    0.000    0.000    0.000 
#    0.000    0.000    0.000    0.000    0.000    0.000 
#
# Total GULP energy -247761.197319 kJ/mol
# GULP energy per Si atom -12388.059866 kJ/mol
# Density = 2.777966 g / cm^3
# Si number density = 27.843035 Si / 1000 Ang^3
#
#
#
# Elastic Constant Matrix: (Units=GPa)
#
#
# Indices 1 2 3 4 5 6 
#
# 1 137.6680 33.3082 12.2363 0.0000 0.0000 0.0000
# 2 33.3082 124.6664 22.7720 0.0000 0.0000 0.0000
# 3 12.2363 22.7720 67.2178 0.0000 0.0000 0.0000
# 4 0.0000 0.0000 0.0000 40.3156 0.0000 0.0000
# 5 0.0000 0.0000 0.0000 0.0000 17.9927 0.0000
# 6 0.0000 0.0000 0.0000 0.0000 0.0000 20.9631
#
#
#
# Elastic Compliance Matrix: (Units=1/GPa)
#
#
# Indices 1 2 3 4 5 6 
#
# 1 0.007802 -0.001946 -0.000761 0.000000 0.000000 0.000000
# 2 -0.001946 0.009036 -0.002707 0.000000 0.000000 0.000000
# 3 -0.000761 -0.002707 0.015933 0.000000 0.000000 0.000000
# 4 0.000000 0.000000 0.000000 0.024804 0.000000 0.000000
# 5 0.000000 0.000000 0.000000 0.000000 0.055578 0.000000
# 6 0.000000 0.000000 0.000000 0.000000 0.000000 0.047703
#
#
# Mechanical properties :
#
#
# Convention : Reuss Voigt Hill
#
# Bulk Modulus (GPa) = 45.57225 51.79835 48.68530
# Shear Modulus (GPa) = 27.93331 33.26998 30.60165
#
# Velocity S-wave (km/s) = 3.17084 3.46050 3.31883
# Velocity P-wave (km/s) = 5.45973 5.88310 5.67536
#
# Compressibility (1/GPa) = 0.02194318
#
# Stress axis : x y z
#
# Youngs Moduli (GPa) = 128.16849 110.67243 62.76423
#
# Poissons Ratio (x) = 0.21532 0.04778
# Poissons Ratio (y) = 0.24936 0.16990
# Poissons Ratio (z) = 0.09756 0.29958
#
# Static dielectric constant tensor:
#      x y z
#    x 5.376470 0.000000 0.000000 
#    y 0.000000 5.509060 0.000000 
#    z 0.000000 0.000000 5.452000 
# 
# 
# High freq. dielectric constant tensor:
#      x y z
#    x 2.101720 0.000000 0.000000 
#    y 0.000000 2.122950 0.000000 
#    z 0.000000 0.000000 2.133040 
# 
# From -- ./inp_files/11045.got.cif
#   From: 2010.03.12/outbox.cif.g09.slc.cpg/sg17_6_cif.got.tgz:11045.got - 2010.04.10 18:46:23.
