data_PCOD8155485
_publ_section_title
;
Structure prediction by ZEFSAII (Michael W. Deem and Ramdas Pophale) SiO2 
 PCOD8155485
Probable space group: P 2 2 21
;
_chemical_formula_sum "Si O2"
_cell_formula_units_Z 24
_cell_length_a 5.206789
_cell_length_b 13.007685
_cell_length_c 15.739633
_cell_angle_alpha 90.000000
_cell_angle_beta 90.000000
_cell_angle_gamma 90.000000
_cell_volume 1066.018132
_symmetry_space_group_name_H-M "P 2 2 21"
_symmetry_group_IT_number 17
_symmetry_cell_setting 'orthorhombic'
loop_
_space_group_symop_operation_xyz
x,y,z
-x,-y,1/2+z
x,-y,-z
-x,y,1/2-z
loop_
_atom_site_type_symbol
_atom_site_label
_atom_site_fract_x
_atom_site_fract_y
_atom_site_fract_z
Si Si1 0.404006 0.406475 0.562337
Si Si2 0.092546 0.649723 0.153141
Si Si3 0.628170 0.808549 0.971928
Si Si4 0.129469 0.862592 0.057602
Si Si5 0.752180 0.005292 0.706253
Si Si6 0.252452 0.218421 0.279342
O O1 0.460736 0.500000 0.500000
O O2 0.630178 0.402468 0.633781
O O3 0.386139 0.307361 0.503045
O O4 0.126222 0.416816 0.605907
O O5 0.124546 0.765792 0.120655
O O6 0.000000 0.651840 0.250000
O O7 0.730419 0.813070 0.876289
O O8 0.341377 0.852642 0.982659
O O9 0.841726 0.876007 0.021662
O O10 0.223537 0.964315 0.107516
O O11 0.500000 0.055039 0.750000
O O12 0.000000 0.055813 0.750000
O O13 0.749294 0.882429 0.717944
O O14 0.500000 0.284874 0.250000
O O15 0.000000 0.281902 0.250000
#
# Coordination Sequence:
#
# PCOD8155485 Si02
#       6
#     4   4   4   4   4   4
#     4  10  21  38  59  85 118 150 187 238 288 340
#     4  10  20  35  59  87 117 148 186 235 288 343
#     4  10  21  38  59  81 109 151 191 229 286 347
#     4  10  20  35  58  84 110 145 187 233 285 336
#     4  10  20  35  53  78 110 144 181 229 279 325
#     4  10  21  39  56  77 111 148 187 232 278 333
#
# _framework density 22.513688999999999
#
# number of rings (size 3 to 8) (size 9 to 14) (size 15 to 20)
#    0.000    2.000    0.000    3.500    0.000    2.667 
#    0.000   22.500    0.000    0.000    0.000    0.000 
#    0.000    0.000    0.000    0.000    0.000    0.000 
#
# Total GULP energy -297366.589747 kJ/mol
# GULP energy per Si atom -12390.274573 kJ/mol
# Density = 2.246245 g / cm^3
# Si number density = 22.513689 Si / 1000 Ang^3
#
#
#
# Elastic Constant Matrix: (Units=GPa)
#
#
# Indices 1 2 3 4 5 6 
#
# 1 197.4110 21.4303 38.0744 0.0000 0.0000 0.0000
# 2 21.4303 34.4657 16.8396 0.0000 0.0000 0.0000
# 3 38.0744 16.8396 95.5764 0.0000 0.0000 0.0000
# 4 0.0000 0.0000 0.0000 25.0380 0.0000 0.0000
# 5 0.0000 0.0000 0.0000 0.0000 45.4043 0.0000
# 6 0.0000 0.0000 0.0000 0.0000 0.0000 -3.5291
#
#
#
# Elastic Compliance Matrix: (Units=1/GPa)
#
#
# Indices 1 2 3 4 5 6 
#
# 1 0.005702 -0.002665 -0.001802 0.000000 0.000000 0.000000
# 2 -0.002665 0.032993 -0.004751 0.000000 0.000000 0.000000
# 3 -0.001802 -0.004751 0.012018 0.000000 0.000000 0.000000
# 4 0.000000 0.000000 0.000000 0.039939 0.000000 0.000000
# 5 0.000000 0.000000 0.000000 0.000000 0.022024 0.000000
# 6 0.000000 0.000000 0.000000 0.000000 0.000000 -0.283358
#
#
# Mechanical properties :
#
#
# Convention : Reuss Voigt Hill
#
# Bulk Modulus (GPa) = 30.98267 53.34908 42.16588
# Shear Modulus (GPa) = -35.33942 30.12323 -2.60809
#
# Velocity S-wave (km/s) = -3.96622 3.66183 -1.07748
# Velocity P-wave (km/s) = 2.68011 6.45185 4.14990
#
# Compressibility (1/GPa) = 0.03227610
#
# Stress axis : x y z
#
# Youngs Moduli (GPa) = 175.36267 30.30945 83.20959
#
# Poissons Ratio (x) = 0.08078 0.14995
# Poissons Ratio (y) = 0.46738 0.39535
# Poissons Ratio (z) = 0.31602 0.14401
#
# Static dielectric constant tensor:
#      x y z
#    x 5.852570 0.000000 0.000000 
#    y 0.000000 3.588460 0.000000 
#    z 0.000000 0.000000 3.939330 
# 
# 
# High freq. dielectric constant tensor:
#      x y z
#    x 1.924240 0.000000 0.000000 
#    y 0.000000 1.838820 0.000000 
#    z 0.000000 0.000000 1.890490 
# 
# From -- ./inp_files/7749.got.cif
#   From: 2010.03.12/outbox.cif.g09.slc.cpg/sg17_4_cif.got.tgz:7749.got - 2010.04.10 18:46:23.
