data_PCOD8155771
_publ_section_title
;
Structure prediction by ZEFSAII (Michael W. Deem and Ramdas Pophale) SiO2 
 PCOD8155771
Probable space group: P 2 2 21
;
_chemical_formula_sum "Si O2"
_cell_formula_units_Z 12
_cell_length_a 10.136072
_cell_length_b 5.184081
_cell_length_c 8.865141
_cell_angle_alpha 90.000000
_cell_angle_beta 90.000000
_cell_angle_gamma 90.000000
_cell_volume 465.829634
_symmetry_space_group_name_H-M "P 2 2 21"
_symmetry_group_IT_number 17
_symmetry_cell_setting 'orthorhombic'
loop_
_space_group_symop_operation_xyz
x,y,z
-x,-y,1/2+z
x,-y,-z
-x,y,1/2-z
loop_
_atom_site_type_symbol
_atom_site_label
_atom_site_fract_x
_atom_site_fract_y
_atom_site_fract_z
Si Si1 0.249733 0.307589 0.767929
Si Si2 0.094879 0.000000 0.000000
Si Si3 0.549908 0.500000 0.500000
Si Si4 0.000000 0.351804 0.250000
Si Si5 0.624702 0.000000 0.000000
O O1 0.287226 0.095467 0.641783
O O2 0.131251 0.488193 0.710202
O O3 0.372217 0.462352 0.841126
O O4 0.195091 0.172457 0.912569
O O5 0.003542 0.174540 0.103364
O O6 0.461641 0.250499 0.459025
#
# Coordination Sequence:
#
# PCOD8155771 Si02
#       5
#     4   2   2   2   2
#     4  12  29  55  89 130 178 235 306 376 456 545
#     4  12  27  51  88 122 184 230 296 374 462 546
#     4  12  28  58  90 128 182 244 302 378 444 540
#     4  12  28  54  86 132 174 242 292 386 464 534
#     4  12  33  55  94 132 178 244 310 368 456 536
#
# _framework density 25.760493
#
# number of rings (size 3 to 8) (size 9 to 14) (size 15 to 20)
#    0.000    0.000    3.333    3.000    4.667   13.333 
#    0.000    0.000    0.000    0.000    0.000    0.000 
#    0.000    0.000    0.000    0.000    0.000    0.000 
#
# Total GULP energy -148716.788856 kJ/mol
# GULP energy per Si atom -12393.065738 kJ/mol
# Density = 2.570186 g / cm^3
# Si number density = 25.760493 Si / 1000 Ang^3
#
#
#
# Elastic Constant Matrix: (Units=GPa)
#
#
# Indices 1 2 3 4 5 6 
#
# 1 144.1570 84.3654 70.4255 0.0000 0.0000 0.0000
# 2 84.3654 199.9762 83.9020 0.0000 0.0000 0.0000
# 3 70.4255 83.9020 170.4657 0.0000 0.0000 0.0000
# 4 0.0000 0.0000 0.0000 88.5545 0.0000 0.0000
# 5 0.0000 0.0000 0.0000 0.0000 -2.1158 0.0000
# 6 0.0000 0.0000 0.0000 0.0000 0.0000 25.5312
#
#
#
# Elastic Compliance Matrix: (Units=1/GPa)
#
#
# Indices 1 2 3 4 5 6 
#
# 1 0.010051 -0.003148 -0.002603 0.000000 0.000000 0.000000
# 2 -0.003148 0.007288 -0.002287 0.000000 0.000000 0.000000
# 3 -0.002603 -0.002287 0.008067 0.000000 0.000000 0.000000
# 4 0.000000 0.000000 0.000000 0.011292 0.000000 0.000000
# 5 0.000000 0.000000 0.000000 0.000000 -0.472644 0.000000
# 6 0.000000 0.000000 0.000000 0.000000 0.000000 0.039168
#
#
# Mechanical properties :
#
#
# Convention : Reuss Voigt Hill
#
# Bulk Modulus (GPa) = 107.17123 110.22053 108.69588
# Shear Modulus (GPa) = -13.24178 40.78773 13.77297
#
# Velocity S-wave (km/s) = -2.26969 3.98344 2.31477
# Velocity P-wave (km/s) = 5.90124 8.00229 7.03069
#
# Compressibility (1/GPa) = 0.00933086
#
# Stress axis : x y z
#
# Youngs Moduli (GPa) = 99.49371 137.21058 123.96150
#
# Poissons Ratio (x) = 0.43196 0.32266
# Poissons Ratio (y) = 0.31322 0.28344
# Poissons Ratio (z) = 0.25897 0.31373
#
# Static dielectric constant tensor:
#      x y z
#    x 4.896270 0.000000 0.000000 
#    y 0.000000 4.945680 0.000000 
#    z 0.000000 0.000000 4.757040 
# 
# 
# High freq. dielectric constant tensor:
#      x y z
#    x 2.048810 0.000000 0.000000 
#    y 0.000000 2.052070 0.000000 
#    z 0.000000 0.000000 2.046580 
# 
# From -- ./inp_files/4452.got.cif
#   From: 2010.03.12/outbox.cif.g09.slc.cpg/sg17_3_cif.got.tgz:4452.got - 2010.04.10 18:46:23.
