data_PCOD8155036
_publ_section_title
;
Structure prediction by ZEFSAII (Michael W. Deem and Ramdas Pophale) SiO2 
 PCOD8155036
Probable space group: C 2/C
;
_chemical_formula_sum "Si O2"
_cell_formula_units_Z 40
_cell_length_a 8.927412
_cell_length_b 21.928890
_cell_length_c 7.742871
_cell_angle_alpha 90.000000
_cell_angle_beta 87.771225
_cell_angle_gamma 90.000000
_cell_volume 1514.661503
_symmetry_space_group_name_H-M "C 2/C"
_symmetry_group_IT_number 15
_symmetry_cell_setting 'monoclinic'
loop_
_space_group_symop_operation_xyz
x,y,z
-x,y,1/2-z
-x,-y,-z
x,-y,1/2+z
1/2+x,1/2+y,z
1/2-x,1/2+y,1/2-z
1/2-x,1/2-y,-z
1/2+x,1/2-y,1/2+z
loop_
_atom_site_type_symbol
_atom_site_label
_atom_site_fract_x
_atom_site_fract_y
_atom_site_fract_z
Si Si1 0.500000 0.288923 0.250000
Si Si2 0.467076 0.800633 0.454185
Si Si3 0.741862 0.082161 0.485404
Si Si4 0.274775 0.352980 0.486801
Si Si5 0.000000 0.876901 0.750000
Si Si6 0.841204 0.534743 0.679032
O O1 0.574564 0.254868 0.414503
O O2 0.360749 0.331523 0.310898
O O3 0.500000 0.784864 0.250000
O O4 0.345108 0.854126 0.484709
O O5 0.627464 0.814766 0.531284
O O6 0.905696 0.084954 0.393301
O O7 0.776230 0.047394 0.662458
O O8 0.640608 0.035533 0.375758
O O9 0.378543 0.338485 0.647948
O O10 0.217684 0.423160 0.475958
O O11 0.000000 0.559057 0.750000
#
# Coordination Sequence:
#
# PCOD8155036 Si02
#       6
#     4   8   8   8   4   8
#     4  12  30  47  86 116 170 215 272 346 400 484
#     4  12  27  54  85 120 160 218 280 333 403 493
#     4  12  26  48  79 122 159 209 268 338 410 490
#     4  12  26  53  72 119 160 213 273 328 410 480
#     4  12  30  45  78 110 172 213 260 342 410 488
#     4  12  25  47  85 114 157 208 272 343 400 492
#
# _framework density 26.408541
#
# number of rings (size 3 to 8) (size 9 to 14) (size 15 to 20)
#    0.000    0.000    4.000    4.800    5.600    4.800 
#    0.000    0.000    2.200    0.000    0.000    0.000 
#    0.000    0.000    0.000    0.000    0.000    0.000 
#
# Total GULP energy -247809.631896 kJ/mol
# GULP energy per Si atom -12390.481595 kJ/mol
# Density = 2.634843 g / cm^3
# Si number density = 26.408541 Si / 1000 Ang^3
#
#
#
# Elastic Constant Matrix: (Units=GPa)
#
#
# Indices 1 2 3 4 5 6 
#
# 1 95.3411 10.0448 21.6658 0.0000 12.2495 0.0000
# 2 10.0448 77.1227 25.1144 0.0000 6.3384 0.0000
# 3 21.6658 25.1144 140.4896 0.0000 13.8676 0.0000
# 4 0.0000 0.0000 0.0000 20.6668 0.0000 -0.6086
# 5 12.2495 6.3384 13.8676 0.0000 55.2116 0.0000
# 6 0.0000 0.0000 0.0000 -0.6086 0.0000 26.4791
#
#
#
# Elastic Compliance Matrix: (Units=1/GPa)
#
#
# Indices 1 2 3 4 5 6 
#
# 1 0.011149 -0.000839 -0.001369 0.000000 -0.002034 0.000000
# 2 -0.000839 0.013884 -0.002270 0.000000 -0.000838 0.000000
# 3 -0.001369 -0.002270 0.007874 0.000000 -0.001414 0.000000
# 4 0.000000 0.000000 0.000000 0.048420 0.000000 0.001113
# 5 -0.002034 -0.000838 -0.001414 0.000000 0.019014 0.000000
# 6 0.000000 0.000000 0.000000 0.001113 0.000000 0.037791
#
#
# Mechanical properties :
#
#
# Convention : Reuss Voigt Hill
#
# Bulk Modulus (GPa) = 41.75044 47.40037 44.57541
# Shear Modulus (GPa) = 32.24308 37.54673 34.89490
#
# Velocity S-wave (km/s) = 3.49798 3.77472 3.63898
# Velocity P-wave (km/s) = 5.67082 6.08160 5.87980
#
# Compressibility (1/GPa) = 0.02395185
#
# Stress axis : x y z
#
# Youngs Moduli (GPa) = 89.69109 72.02718 126.99505
#
# Poissons Ratio (x) = 0.06045 0.17381
# Poissons Ratio (y) = 0.07528 0.28825
# Poissons Ratio (z) = 0.12276 0.16349
#
# Static dielectric constant tensor:
#      x y z
#    x 4.788950 0.000000 -0.292960 
#    y 0.000000 4.643380 0.000000 
#    z -0.292960 0.000000 5.213230 
# 
# 
# High freq. dielectric constant tensor:
#      x y z
#    x 2.061190 0.000000 -0.012380 
#    y 0.000000 2.047820 0.000000 
#    z -0.012380 0.000000 2.080720 
# 
# From -- ./inp_files/23705.got.cif
#   From: 2010.06.25/outbox.cif.g09.slc.cpg/sg15_12_cif.got.tgz:23705.got - 2010.06.28 07:06:18.
