data_PCOD8155618
_publ_section_title
;
Structure prediction by ZEFSAII (Michael W. Deem and Ramdas Pophale) SiO2 
 PCOD8155618
Probable space group: P 2 2 21
;
_chemical_formula_sum "Si O2"
_cell_formula_units_Z 12
_cell_length_a 9.227654
_cell_length_b 10.643561
_cell_length_c 5.122071
_cell_angle_alpha 90.000000
_cell_angle_beta 90.000000
_cell_angle_gamma 90.000000
_cell_volume 503.064706
_symmetry_space_group_name_H-M "P 2 2 21"
_symmetry_group_IT_number 17
_symmetry_cell_setting 'orthorhombic'
loop_
_space_group_symop_operation_xyz
x,y,z
-x,-y,1/2+z
x,-y,-z
-x,y,1/2-z
loop_
_atom_site_type_symbol
_atom_site_label
_atom_site_fract_x
_atom_site_fract_y
_atom_site_fract_z
Si Si1 0.092931 0.853887 0.500620
Si Si2 0.599795 0.500000 0.500000
Si Si3 0.670447 0.248695 0.697067
Si Si4 0.599887 0.000000 0.500000
O O1 0.239012 0.769240 0.466424
O O2 0.000000 0.818983 0.250000
O O3 0.138312 0.000000 0.500000
O O4 0.000000 0.812600 0.750000
O O5 0.500000 0.469603 0.250000
O O6 0.705161 0.380399 0.554180
O O7 0.500000 0.250240 0.750000
O O8 0.703489 0.123893 0.518769
O O9 0.500000 0.985650 0.750000
#
# Coordination Sequence:
#
# PCOD8155618 Si02
#       4
#     4   2   4   2
#     4  10  24  42  63  99 144 186 229 289 360 423
#     4  10  22  42  64 104 148 186 224 298 370 416
#     4  10  23  40  71 104 143 182 236 298 354 423
#     4  10  22  34  58 104 140 174 230 298 346 406
#
# _framework density 23.853791000000001
#
# number of rings (size 3 to 8) (size 9 to 14) (size 15 to 20)
#    0.000    2.000    0.000    1.000   16.333    5.333 
#    0.000    0.000    0.000   10.000    0.000    0.000 
#    0.000    0.000    0.000    0.000    0.000    0.000 
#
# Total GULP energy -148734.623568 kJ/mol
# GULP energy per Si atom -12394.551964 kJ/mol
# Density = 2.379950 g / cm^3
# Si number density = 23.853791 Si / 1000 Ang^3
#
#
#
# Elastic Constant Matrix: (Units=GPa)
#
#
# Indices 1 2 3 4 5 6 
#
# 1 119.4354 52.2738 61.0385 0.0000 0.0000 0.0000
# 2 52.2738 214.5753 63.4039 0.0000 0.0000 0.0000
# 3 61.0385 63.4039 169.2658 0.0000 0.0000 0.0000
# 4 0.0000 0.0000 0.0000 24.8398 0.0000 0.0000
# 5 0.0000 0.0000 0.0000 0.0000 34.8168 0.0000
# 6 0.0000 0.0000 0.0000 0.0000 0.0000 4.5522
#
#
#
# Elastic Compliance Matrix: (Units=1/GPa)
#
#
# Indices 1 2 3 4 5 6 
#
# 1 0.010765 -0.001659 -0.003261 0.000000 0.000000 0.000000
# 2 -0.001659 0.005496 -0.001460 0.000000 0.000000 0.000000
# 3 -0.003261 -0.001460 0.007631 0.000000 0.000000 0.000000
# 4 0.000000 0.000000 0.000000 0.040258 0.000000 0.000000
# 5 0.000000 0.000000 0.000000 0.000000 0.028722 0.000000
# 6 0.000000 0.000000 0.000000 0.000000 0.000000 0.219673
#
#
# Mechanical properties :
#
#
# Convention : Reuss Voigt Hill
#
# Bulk Modulus (GPa) = 89.83281 95.18987 92.51134
# Shear Modulus (GPa) = 15.19687 34.61246 24.90467
#
# Velocity S-wave (km/s) = 2.52679 3.81337 3.23469
# Velocity P-wave (km/s) = 6.80106 7.70592 7.26759
#
# Compressibility (1/GPa) = 0.01113179
#
# Stress axis : x y z
#
# Youngs Moduli (GPa) = 92.89186 181.94730 131.04969
#
# Poissons Ratio (x) = 0.30187 0.42729
# Poissons Ratio (y) = 0.15412 0.19139
# Poissons Ratio (z) = 0.30288 0.26572
#
# Static dielectric constant tensor:
#      x y z
#    x 4.417150 0.000000 0.000000 
#    y 0.000000 5.446880 0.000000 
#    z 0.000000 0.000000 4.493690 
# 
# 
# High freq. dielectric constant tensor:
#      x y z
#    x 1.927940 0.000000 0.000000 
#    y 0.000000 1.935650 0.000000 
#    z 0.000000 0.000000 1.953350 
# 
# From -- ./inp_files/551.got.cif
#   From: 2010.03.12/outbox.cif.g09.slc.cpg/sg17_1_cif.got.tgz:551.got - 2010.04.10 18:46:23.
