data_PCOD8155544
_publ_section_title
;
Structure prediction by ZEFSAII (Michael W. Deem and Ramdas Pophale) SiO2 
 PCOD8155544
Probable space group: P 2 2 21
;
_chemical_formula_sum "Si O2"
_cell_formula_units_Z 32
_cell_length_a 9.144521
_cell_length_b 12.352606
_cell_length_c 14.010407
_cell_angle_alpha 90.000000
_cell_angle_beta 90.000000
_cell_angle_gamma 90.000000
_cell_volume 1582.596870
_symmetry_space_group_name_H-M "P 2 2 21"
_symmetry_group_IT_number 17
_symmetry_cell_setting 'orthorhombic'
loop_
_space_group_symop_operation_xyz
x,y,z
-x,-y,1/2+z
x,-y,-z
-x,y,1/2-z
loop_
_atom_site_type_symbol
_atom_site_label
_atom_site_fract_x
_atom_site_fract_y
_atom_site_fract_z
Si Si1 0.770729 0.215494 0.346200
Si Si2 0.788125 0.058849 0.178297
Si Si3 0.488486 0.101911 0.434415
Si Si4 0.666872 0.691724 0.981832
Si Si5 0.880714 0.177186 0.820998
Si Si6 0.951929 0.804250 0.970162
Si Si7 0.641811 0.637373 0.184092
Si Si8 0.659289 0.591834 0.779392
O O1 0.831273 0.137066 0.264910
O O2 0.629872 0.161617 0.393322
O O3 0.739800 0.331422 0.296306
O O4 0.892959 0.233471 0.427106
O O5 0.615564 0.065173 0.152975
O O6 0.885062 0.095177 0.088294
O O7 0.822672 0.938827 0.213269
O O8 0.399157 0.187746 0.498199
O O9 0.533639 0.000000 0.500000
O O10 0.843442 0.700639 0.973638
O O11 0.622848 0.647057 0.879787
O O12 0.605733 0.620210 0.070321
O O13 0.746106 0.259067 0.817938
O O14 0.000000 0.224600 0.750000
O O15 0.965186 0.159015 0.920705
O O16 0.500000 0.662124 0.250000
O O17 0.732396 0.528229 0.214226
O O18 0.500000 0.556602 0.750000
#
# Coordination Sequence:
#
# PCOD8155544 Si02
#       8
#     4   4   4   4   4   4   4   4
#     4  12  22  37  63 101 125 165 210 266 323 381
#     4  11  21  38  63  87 126 167 208 252 322 389
#     4  11  22  36  59  95 134 163 207 263 318 387
#     4  10  20  40  65  88 124 167 214 256 320 385
#     4  11  24  43  60  87 130 173 211 267 327 399
#     4  10  22  38  61  90 121 163 212 254 317 385
#     4  10  24  41  65  90 122 169 219 264 322 384
#     4  11  20  41  66  95 125 158 214 276 319 381
#
# _framework density 20.219932
#
# number of rings (size 3 to 8) (size 9 to 14) (size 15 to 20)
#    0.000    1.250    3.750    4.500    0.000    5.000 
#    2.250    0.000    0.000    0.000    0.000    0.000 
#    0.000    0.000    0.000    0.000    0.000    0.000 
#
# Total GULP energy -396545.583476 kJ/mol
# GULP energy per Si atom -12392.049484 kJ/mol
# Density = 2.017391 g / cm^3
# Si number density = 20.219932 Si / 1000 Ang^3
#
#
#
# Elastic Constant Matrix: (Units=GPa)
#
#
# Indices 1 2 3 4 5 6 
#
# 1 96.1788 33.7123 60.2372 0.0000 0.0000 0.0000
# 2 33.7123 123.1683 32.9174 0.0000 0.0000 0.0000
# 3 60.2372 32.9174 99.0159 0.0000 0.0000 0.0000
# 4 0.0000 0.0000 0.0000 27.5323 0.0000 0.0000
# 5 0.0000 0.0000 0.0000 0.0000 35.6667 0.0000
# 6 0.0000 0.0000 0.0000 0.0000 0.0000 -4.4277
#
#
#
# Elastic Compliance Matrix: (Units=1/GPa)
#
#
# Indices 1 2 3 4 5 6 
#
# 1 0.017282 -0.002108 -0.009813 0.000000 0.000000 0.000000
# 2 -0.002108 0.009168 -0.001766 0.000000 0.000000 0.000000
# 3 -0.009813 -0.001766 0.016656 0.000000 0.000000 0.000000
# 4 0.000000 0.000000 0.000000 0.036321 0.000000 0.000000
# 5 0.000000 0.000000 0.000000 0.000000 0.028037 0.000000
# 6 0.000000 0.000000 0.000000 0.000000 0.000000 -0.225850
#
#
# Mechanical properties :
#
#
# Convention : Reuss Voigt Hill
#
# Bulk Modulus (GPa) = 63.55874 63.56631 63.56253
# Shear Modulus (GPa) = -58.29640 24.52067 -16.88786
#
# Velocity S-wave (km/s) = -5.37529 3.48616 -2.89313
# Velocity P-wave (km/s) = 2.65010 6.90725 4.51038
#
# Compressibility (1/GPa) = 0.01573348
#
# Stress axis : x y z
#
# Youngs Moduli (GPa) = 57.86374 109.07848 60.03789
#
# Poissons Ratio (x) = 0.22990 0.58915
# Poissons Ratio (y) = 0.12196 0.10600
# Poissons Ratio (z) = 0.56782 0.19258
#
# Static dielectric constant tensor:
#      x y z
#    x 3.576580 0.000000 0.000000 
#    y 0.000000 3.725550 0.000000 
#    z 0.000000 0.000000 3.988560 
# 
# 
# High freq. dielectric constant tensor:
#      x y z
#    x 1.775030 0.000000 0.000000 
#    y 0.000000 1.790460 0.000000 
#    z 0.000000 0.000000 1.797920 
# 
# From -- ./inp_files/8302.got.cif
#   From: 2010.03.12/outbox.cif.g09.slc.cpg/sg17_5_cif.got.tgz:8302.got - 2010.04.10 18:46:23.
