data_PCOD8155595
_publ_section_title
;
Structure prediction by ZEFSAII (Michael W. Deem and Ramdas Pophale) SiO2 
 PCOD8155595
Probable space group: P 2 2 21
;
_chemical_formula_sum "Si O2"
_cell_formula_units_Z 20
_cell_length_a 12.127614
_cell_length_b 8.538060
_cell_length_c 9.047914
_cell_angle_alpha 90.000000
_cell_angle_beta 90.000000
_cell_angle_gamma 90.000000
_cell_volume 936.877981
_symmetry_space_group_name_H-M "P 2 2 21"
_symmetry_group_IT_number 17
_symmetry_cell_setting 'orthorhombic'
loop_
_space_group_symop_operation_xyz
x,y,z
-x,-y,1/2+z
x,-y,-z
-x,y,1/2-z
loop_
_atom_site_type_symbol
_atom_site_label
_atom_site_fract_x
_atom_site_fract_y
_atom_site_fract_z
Si Si1 0.524453 0.681468 0.023023
Si Si2 0.683880 0.104593 0.144308
Si Si3 0.344478 0.796305 0.208267
Si Si4 0.898265 0.199314 0.652780
Si Si5 0.108035 0.170233 0.176815
O O1 0.403833 0.760211 0.050992
O O2 0.598198 0.693502 0.167937
O O3 0.505294 0.500000 0.000000
O O4 0.587450 0.770187 0.889779
O O5 0.786903 0.199523 0.215493
O O6 0.639002 0.982327 0.265773
O O7 0.719174 0.000000 0.000000
O O8 0.217273 0.745832 0.221181
O O9 0.889600 0.255433 0.482503
O O10 0.000000 0.270772 0.750000
O O11 0.907111 0.013640 0.655061
O O12 0.000000 0.244357 0.250000
#
# Coordination Sequence:
#
# PCOD8155595 Si02
#       5
#     4   4   4   4   4
#     4  10  21  41  61  85 123 169 205 262 316 382
#     4   9  19  37  60  90 124 162 205 268 316 380
#     4   9  20  41  57  90 120 157 213 251 320 382
#     4   9  18  33  57  85 126 156 189 265 317 372
#     4   9  18  29  54  93 121 152 204 250 320 375
#
# _framework density 21.347496
#
# number of rings (size 3 to 8) (size 9 to 14) (size 15 to 20)
#    0.000    2.800    0.000    0.000   11.200    0.000 
#   46.800    0.000    0.000    2.400    0.000    0.000 
#    0.000    0.000    0.000    0.000    0.000    0.000 
#
# Total GULP energy -247790.131403 kJ/mol
# GULP energy per Si atom -12389.506570 kJ/mol
# Density = 2.129891 g / cm^3
# Si number density = 21.347496 Si / 1000 Ang^3
#
#
#
# Elastic Constant Matrix: (Units=GPa)
#
#
# Indices 1 2 3 4 5 6 
#
# 1 185.6624 50.9484 66.2000 0.0000 0.0000 0.0000
# 2 50.9484 72.9013 33.3769 0.0000 0.0000 0.0000
# 3 66.2000 33.3769 84.2133 0.0000 0.0000 0.0000
# 4 0.0000 0.0000 0.0000 17.9735 0.0000 0.0000
# 5 0.0000 0.0000 0.0000 0.0000 49.9036 0.0000
# 6 0.0000 0.0000 0.0000 0.0000 0.0000 0.1434
#
#
#
# Elastic Compliance Matrix: (Units=1/GPa)
#
#
# Indices 1 2 3 4 5 6 
#
# 1 0.008104 -0.003356 -0.005041 0.000000 0.000000 0.000000
# 2 -0.003356 0.018148 -0.004554 0.000000 0.000000 0.000000
# 3 -0.005041 -0.004554 0.017642 0.000000 0.000000 0.000000
# 4 0.000000 0.000000 0.000000 0.055638 0.000000 0.000000
# 5 0.000000 0.000000 0.000000 0.000000 0.020039 0.000000
# 6 0.000000 0.000000 0.000000 0.000000 0.000000 6.972027
#
#
# Mechanical properties :
#
#
# Convention : Reuss Voigt Hill
#
# Bulk Modulus (GPa) = 55.58048 71.53639 63.55844
# Shear Modulus (GPa) = 0.70190 26.42088 13.56139
#
# Velocity S-wave (km/s) = 0.57403 3.52185 2.52319
# Velocity P-wave (km/s) = 5.15092 7.07963 6.19084
#
# Compressibility (1/GPa) = 0.01799193
#
# Stress axis : x y z
#
# Youngs Moduli (GPa) = 123.38983 55.10295 56.68226
#
# Poissons Ratio (x) = 0.18493 0.28572
# Poissons Ratio (y) = 0.41411 0.25816
# Poissons Ratio (z) = 0.62197 0.25096
#
# Static dielectric constant tensor:
#      x y z
#    x 4.297170 0.000000 0.000000 
#    y 0.000000 3.194130 0.000000 
#    z 0.000000 0.000000 4.292600 
# 
# 
# High freq. dielectric constant tensor:
#      x y z
#    x 1.849530 0.000000 0.000000 
#    y 0.000000 1.771090 0.000000 
#    z 0.000000 0.000000 1.843750 
# 
# From -- ./inp_files/4635.got.cif
#   From: 2010.03.12/outbox.cif.g09.slc.cpg/sg17_3_cif.got.tgz:4635.got - 2010.04.10 18:46:23.
