data_PCOD8155274
_publ_section_title
;
Structure prediction by ZEFSAII (Michael W. Deem and Ramdas Pophale) SiO2 
 PCOD8155274
Probable space group: P 2 2 2
;
_chemical_formula_sum "Si O2"
_cell_formula_units_Z 32
_cell_length_a 9.848983
_cell_length_b 15.791714
_cell_length_c 11.138182
_cell_angle_alpha 90.000000
_cell_angle_beta 90.000000
_cell_angle_gamma 90.000000
_cell_volume 1732.347317
_symmetry_space_group_name_H-M "P 2 2 2"
_symmetry_group_IT_number 16
_symmetry_cell_setting 'orthorhombic'
loop_
_space_group_symop_operation_xyz
x,y,z
-x,-y,z
x,-y,-z
-x,y,-z
loop_
_atom_site_type_symbol
_atom_site_label
_atom_site_fract_x
_atom_site_fract_y
_atom_site_fract_z
Si Si1 0.658701 0.843783 0.140135
Si Si2 0.341299 0.156217 0.859865
Si Si3 0.254055 0.671684 0.748280
Si Si4 0.844905 1.000000 0.141592
Si Si5 0.000000 0.593575 0.138573
Si Si6 0.161756 0.400696 0.500000
Si Si7 0.745945 0.328316 0.251720
Si Si8 0.500000 0.404977 0.128921
O O1 0.500000 0.868001 0.159366
O O2 0.698610 0.767407 0.228300
O O3 0.757808 0.918944 0.183107
O O4 0.683955 0.821067 1.000000
O O5 0.301390 0.232593 0.771700
O O6 0.242192 0.081056 0.816893
O O7 0.222497 0.651199 0.610867
O O8 0.371326 0.610360 0.789992
O O9 0.126130 0.650860 0.829067
O O10 0.000000 0.000000 0.195420
O O11 0.856297 0.000000 0.000000
O O12 0.126130 0.650860 0.170933
O O13 0.000000 0.500000 0.204235
O O14 0.000000 0.575006 0.000000
O O15 0.205325 0.500000 0.500000
O O16 0.222497 0.348801 0.610867
O O17 0.000000 0.393411 0.500000
O O18 0.628674 0.389640 0.210008
O O19 0.500000 0.500000 0.088869
O O20 0.500000 0.353002 0.000000
#
# Coordination Sequence:
#
# PCOD8155274 Si02
#       8
#     4   4   4   4   4   4   4   4
#     4  10  20  37  59  88 126 160 193 240 305 372
#     4  10  20  37  59  88 126 160 193 240 305 372
#     4  12  23  38  60  85 117 162 207 253 301 359
#     4   9  19  33  57  92 125 158 193 237 295 363
#     4  11  22  35  55  84 116 154 200 251 312 368
#     4  11  24  43  61  80 115 164 219 267 302 349
#     4  12  23  38  60  85 117 162 207 253 301 359
#     4  11  22  37  57  86 122 152 190 249 312 370
#
# _framework density 18.472048000000001
#
# number of rings (size 3 to 8) (size 9 to 14) (size 15 to 20)
#    0.000    1.250    2.500    4.875    1.750    4.000 
#    0.000    1.250    0.000    0.750    0.000    3.500 
#    0.000    0.000    0.000    0.000    0.000    0.000 
#
# Total GULP energy -396627.384476 kJ/mol
# GULP energy per Si atom -12394.605765 kJ/mol
# Density = 1.843000 g / cm^3
# Si number density = 18.472048 Si / 1000 Ang^3
#
#
#
# Elastic Constant Matrix: (Units=GPa)
#
#
# Indices 1 2 3 4 5 6 
#
# 1 158.3550 54.0866 44.5015 0.0000 0.0000 0.0000
# 2 54.0866 117.1789 42.3535 0.0000 0.0000 0.0000
# 3 44.5015 42.3535 105.6863 0.0000 0.0000 0.0000
# 4 0.0000 0.0000 0.0000 20.1211 0.0000 0.0000
# 5 0.0000 0.0000 0.0000 0.0000 4.7157 0.0000
# 6 0.0000 0.0000 0.0000 0.0000 0.0000 35.7070
#
#
#
# Elastic Compliance Matrix: (Units=1/GPa)
#
#
# Indices 1 2 3 4 5 6 
#
# 1 0.007905 -0.002860 -0.002182 0.000000 0.000000 0.000000
# 2 -0.002860 0.011014 -0.003210 0.000000 0.000000 0.000000
# 3 -0.002182 -0.003210 0.011667 0.000000 0.000000 0.000000
# 4 0.000000 0.000000 0.000000 0.049699 0.000000 0.000000
# 5 0.000000 0.000000 0.000000 0.000000 0.212057 0.000000
# 6 0.000000 0.000000 0.000000 0.000000 0.000000 0.028006
#
#
# Mechanical properties :
#
#
# Convention : Reuss Voigt Hill
#
# Bulk Modulus (GPa) = 71.01124 73.67815 72.34469
# Shear Modulus (GPa) = 14.63931 28.12734 21.38332
#
# Velocity S-wave (km/s) = 2.81821 3.90641 3.40605
# Velocity P-wave (km/s) = 7.00826 7.76657 7.39714
#
# Compressibility (1/GPa) = 0.01408228
#
# Stress axis : x y z
#
# Youngs Moduli (GPa) = 126.50111 90.79248 85.71027
#
# Poissons Ratio (x) = 0.25966 0.18706
# Poissons Ratio (y) = 0.36178 0.27510
# Poissons Ratio (z) = 0.27609 0.29141
#
# Static dielectric constant tensor:
#      x y z
#    x 3.711070 0.000000 0.000000 
#    y 0.000000 3.418700 0.000000 
#    z 0.000000 0.000000 3.170370 
# 
# 
# High freq. dielectric constant tensor:
#      x y z
#    x 1.738010 0.000000 0.000000 
#    y 0.000000 1.716250 0.000000 
#    z 0.000000 0.000000 1.688000 
# 
# From -- ./inp_files/6658.got.cif
#   From: 2010.03.12/outbox.cif.g09.slc.cpg/sg16_4_cif.got.tgz:6658.got - 2010.03.31 00:51:45.
