data_PCOD8155481
_publ_section_title
;
Structure prediction by ZEFSAII (Michael W. Deem and Ramdas Pophale) SiO2 
 PCOD8155481
Probable space group: P 2 2 21
;
_chemical_formula_sum "Si O2"
_cell_formula_units_Z 24
_cell_length_a 5.410600
_cell_length_b 12.181449
_cell_length_c 17.708925
_cell_angle_alpha 90.000000
_cell_angle_beta 90.000000
_cell_angle_gamma 90.000000
_cell_volume 1167.176616
_symmetry_space_group_name_H-M "P 2 2 21"
_symmetry_group_IT_number 17
_symmetry_cell_setting 'orthorhombic'
loop_
_space_group_symop_operation_xyz
x,y,z
-x,-y,1/2+z
x,-y,-z
-x,y,1/2-z
loop_
_atom_site_type_symbol
_atom_site_label
_atom_site_fract_x
_atom_site_fract_y
_atom_site_fract_z
Si Si1 0.379619 0.718637 0.344471
Si Si2 0.515883 0.479760 0.335376
Si Si3 0.000000 0.166735 0.750000
Si Si4 0.432701 0.000000 0.500000
Si Si5 0.984805 0.574368 0.924949
Si Si6 0.109450 0.783719 0.487586
Si Si7 0.741838 0.896032 0.387358
O O1 0.542344 0.610943 0.331200
O O2 0.204690 0.744201 0.273786
O O3 0.235693 0.708484 0.423719
O O4 0.546727 0.824559 0.343912
O O5 0.500000 0.431455 0.250000
O O6 0.759901 0.434628 0.377550
O O7 0.257100 0.456587 0.377309
O O8 0.943716 0.083524 0.679036
O O9 0.272730 0.889968 0.509311
O O10 0.604613 0.000401 0.424321
O O11 0.008751 0.500000 0.000000
O O12 0.949424 0.703590 0.943132
O O13 0.850256 0.828475 0.457550
#
# Coordination Sequence:
#
# PCOD8155481 Si02
#       7
#     4   4   2   2   4   4   4
#     4  10  21  36  61  94 134 168 211 273 340 395
#     4  12  26  41  64  99 141 185 226 273 341 408
#     4  10  20  34  60  96 134 170 206 278 348 410
#     4  10  22  38  66  94 124 170 220 280 336 394
#     4  12  25  42  68 100 137 178 227 279 337 410
#     4  10  22  40  63  97 125 166 225 280 331 395
#     4  10  20  37  61  94 129 166 215 275 347 398
#
# _framework density 20.562439000000001
#
# number of rings (size 3 to 8) (size 9 to 14) (size 15 to 20)
#    0.000    1.333    1.667    4.000    9.333    0.000 
#    0.000    0.000    0.000    8.000    4.333    0.000 
#    0.000    0.000    0.000    0.000    0.000    0.000 
#
# Total GULP energy -297325.772146 kJ/mol
# GULP energy per Si atom -12388.573839 kJ/mol
# Density = 2.051564 g / cm^3
# Si number density = 20.562439 Si / 1000 Ang^3
#
#
#
# Elastic Constant Matrix: (Units=GPa)
#
#
# Indices 1 2 3 4 5 6 
#
# 1 113.6634 30.6419 61.5499 0.0000 0.0000 0.0000
# 2 30.6419 90.7317 55.6016 0.0000 0.0000 0.0000
# 3 61.5499 55.6016 139.2956 0.0000 0.0000 0.0000
# 4 0.0000 0.0000 0.0000 25.8521 0.0000 0.0000
# 5 0.0000 0.0000 0.0000 0.0000 52.5759 0.0000
# 6 0.0000 0.0000 0.0000 0.0000 0.0000 5.6101
#
#
#
# Elastic Compliance Matrix: (Units=1/GPa)
#
#
# Indices 1 2 3 4 5 6 
#
# 1 0.011638 -0.001031 -0.004731 0.000000 0.000000 0.000000
# 2 -0.001031 0.014682 -0.005405 0.000000 0.000000 0.000000
# 3 -0.004731 -0.005405 0.011427 0.000000 0.000000 0.000000
# 4 0.000000 0.000000 0.000000 0.038682 0.000000 0.000000
# 5 0.000000 0.000000 0.000000 0.000000 0.019020 0.000000
# 6 0.000000 0.000000 0.000000 0.000000 0.000000 0.178251
#
#
# Mechanical properties :
#
#
# Convention : Reuss Voigt Hill
#
# Bulk Modulus (GPa) = 64.88094 71.03081 67.95587
# Shear Modulus (GPa) = 16.60193 29.86742 23.23467
#
# Velocity S-wave (km/s) = 2.84455 3.81533 3.36513
# Velocity P-wave (km/s) = 6.51231 7.35037 6.94400
#
# Compressibility (1/GPa) = 0.01541285
#
# Stress axis : x y z
#
# Youngs Moduli (GPa) = 85.92838 68.11100 87.51462
#
# Poissons Ratio (x) = 0.07024 0.41400
# Poissons Ratio (y) = 0.08861 0.47300
# Poissons Ratio (z) = 0.40649 0.36813
#
# Static dielectric constant tensor:
#      x y z
#    x 4.109920 0.000000 0.000000 
#    y 0.000000 3.483030 0.000000 
#    z 0.000000 0.000000 4.254930 
# 
# 
# High freq. dielectric constant tensor:
#      x y z
#    x 1.828960 0.000000 0.000000 
#    y 0.000000 1.769080 0.000000 
#    z 0.000000 0.000000 1.812250 
# 
# From -- ./inp_files/8598.got.cif
#   From: 2010.03.12/outbox.cif.g09.slc.cpg/sg17_5_cif.got.tgz:8598.got - 2010.04.10 18:46:23.
