data_PCOD8155941
_publ_section_title
;
Structure prediction by ZEFSAII (Michael W. Deem and Ramdas Pophale) SiO2 
 PCOD8155941
Probable space group: P 21 21 2
;
_chemical_formula_sum "Si O2"
_cell_formula_units_Z 26
_cell_length_a 10.603596
_cell_length_b 8.083542
_cell_length_c 14.249988
_cell_angle_alpha 90.000000
_cell_angle_beta 90.000000
_cell_angle_gamma 90.000000
_cell_volume 1221.432215
_symmetry_space_group_name_H-M "P 21 21 2"
_symmetry_group_IT_number 18
_symmetry_cell_setting 'orthorhombic'
loop_
_space_group_symop_operation_xyz
x,y,z
-x,-y,z
1/2+x,1/2-y,-z
1/2-x,1/2+y,-z
loop_
_atom_site_type_symbol
_atom_site_label
_atom_site_fract_x
_atom_site_fract_y
_atom_site_fract_z
Si Si1 0.500000 0.000000 0.124405
Si Si2 0.356605 0.454053 0.227088
Si Si3 0.333338 0.348306 0.422569
Si Si4 0.856907 0.018433 0.117341
Si Si5 0.179677 0.314683 0.750721
Si Si6 0.190546 0.742279 0.951514
Si Si7 0.388437 0.731177 0.449673
O O1 0.446377 0.853334 0.189641
O O2 0.601114 0.918139 0.055779
O O3 0.500000 0.500000 0.248767
O O4 0.317915 0.324775 0.309550
O O5 0.277395 0.625414 0.230334
O O6 0.337719 0.379951 0.125263
O O7 0.354987 0.541363 0.437171
O O8 0.458025 0.250753 0.463784
O O9 0.198807 0.295547 0.465510
O O10 0.784872 0.052944 0.215396
O O11 0.826173 0.842440 0.067031
O O12 0.822399 0.175341 0.052318
O O13 0.000000 0.000000 0.144423
O O14 0.152382 0.339892 0.640641
#
# Coordination Sequence:
#
# PCOD8155941 Si02
#       7
#     2   4   4   4   4   4   4
#     4  10  20  34  66  94 112 168 214 248 296 374
#     4  11  18  40  68  89 118 161 212 263 294 372
#     4  10  21  39  64  94 123 160 212 259 319 370
#     4  11  26  42  58  95 130 160 205 259 318 370
#     4  10  21  41  62  90 123 162 211 251 312 368
#     4  11  23  38  66  89 120 164 206 258 307 365
#     4  10  21  40  62  92 126 163 206 265 311 381
#
# _framework density 21.286487000000001
#
# number of rings (size 3 to 8) (size 9 to 14) (size 15 to 20)
#    0.000    1.538    4.615    1.385    4.308    4.308 
#    5.538    0.000    0.000    0.000    0.000    0.000 
#    0.000    0.000    0.000    0.000    0.000    0.000 
#
# Total GULP energy -322253.810236 kJ/mol
# GULP energy per Si atom -12394.377317 kJ/mol
# Density = 2.123804 g / cm^3
# Si number density = 21.286487 Si / 1000 Ang^3
#
#
#
# Elastic Constant Matrix: (Units=GPa)
#
#
# Indices 1 2 3 4 5 6 
#
# 1 97.0340 15.6166 24.7652 0.0000 0.0000 0.0000
# 2 15.6166 52.4291 16.6359 0.0000 0.0000 0.0000
# 3 24.7652 16.6359 77.8803 0.0000 0.0000 0.0000
# 4 0.0000 0.0000 0.0000 34.2338 0.0000 0.0000
# 5 0.0000 0.0000 0.0000 0.0000 17.0953 0.0000
# 6 0.0000 0.0000 0.0000 0.0000 0.0000 26.9099
#
#
#
# Elastic Compliance Matrix: (Units=1/GPa)
#
#
# Indices 1 2 3 4 5 6 
#
# 1 0.011497 -0.002429 -0.003137 0.000000 0.000000 0.000000
# 2 -0.002429 0.020973 -0.003708 0.000000 0.000000 0.000000
# 3 -0.003137 -0.003708 0.014630 0.000000 0.000000 0.000000
# 4 0.000000 0.000000 0.000000 0.029211 0.000000 0.000000
# 5 0.000000 0.000000 0.000000 0.000000 0.058496 0.000000
# 6 0.000000 0.000000 0.000000 0.000000 0.000000 0.037161
#
#
# Mechanical properties :
#
#
# Convention : Reuss Voigt Hill
#
# Bulk Modulus (GPa) = 35.02317 37.93099 36.47708
# Shear Modulus (GPa) = 24.99582 27.00285 25.99933
#
# Velocity S-wave (km/s) = 3.43046 3.56553 3.49865
# Velocity P-wave (km/s) = 5.67272 5.89988 5.78741
#
# Compressibility (1/GPa) = 0.02855253
#
# Stress axis : x y z
#
# Youngs Moduli (GPa) = 86.97701 47.67950 68.35370
#
# Poissons Ratio (x) = 0.11582 0.21444
# Poissons Ratio (y) = 0.21128 0.25343
# Poissons Ratio (z) = 0.27286 0.17678
#
# Static dielectric constant tensor:
#      x y z
#    x 3.909660 0.000000 0.000000 
#    y 0.000000 4.053890 0.000000 
#    z 0.000000 0.000000 3.921730 
# 
# 
# High freq. dielectric constant tensor:
#      x y z
#    x 1.820100 0.000000 0.000000 
#    y 0.000000 1.841270 0.000000 
#    z 0.000000 0.000000 1.824970 
# 
# From -- ./inp_files/6874.got.cif
#   From: 2010.03.12/outbox.cif.g09.slc.cpg/sg18_4_cif.got.tgz:6874.got - 2010.04.10 18:53:55.
