data_PCOD8155210
_publ_section_title
;
Structure prediction by ZEFSAII (Michael W. Deem and Ramdas Pophale) SiO2 
 PCOD8155210
Probable space group: P 2 2 2
;
_chemical_formula_sum "Si O2"
_cell_formula_units_Z 24
_cell_length_a 5.109463
_cell_length_b 21.328822
_cell_length_c 12.671945
_cell_angle_alpha 90.000000
_cell_angle_beta 90.000000
_cell_angle_gamma 90.000000
_cell_volume 1380.973700
_symmetry_space_group_name_H-M "P 2 2 2"
_symmetry_group_IT_number 16
_symmetry_cell_setting 'orthorhombic'
loop_
_space_group_symop_operation_xyz
x,y,z
-x,-y,z
x,-y,-z
-x,y,-z
loop_
_atom_site_type_symbol
_atom_site_label
_atom_site_fract_x
_atom_site_fract_y
_atom_site_fract_z
Si Si1 0.554736 0.143659 0.614802
Si Si2 0.933021 0.071030 0.322198
Si Si3 0.417459 0.209340 0.175635
Si Si4 0.754191 0.528037 0.118820
Si Si5 0.086456 0.863827 0.113143
Si Si6 0.744961 0.666514 0.068841
O O1 0.500000 0.173943 0.500000
O O2 0.345036 0.087600 0.626553
O O3 0.505074 0.198202 0.701697
O O4 0.844388 0.115447 0.628065
O O5 0.894093 0.079022 0.195656
O O6 0.000000 0.000000 0.348859
O O7 0.645268 0.177019 0.104305
O O8 0.370993 0.281780 0.149022
O O9 0.137989 0.180517 0.154696
O O10 0.500000 0.500000 0.177286
O O11 0.802768 0.602407 0.129500
O O12 0.000000 0.500000 0.181391
O O13 0.753605 0.500000 0.000000
O O14 0.000000 0.891437 0.000000
O O15 0.500000 0.646838 0.000000
O O16 0.000000 0.688938 0.000000
#
# Coordination Sequence:
#
# PCOD8155210 Si02
#       6
#     4   4   4   4   4   4
#     4  10  21  37  53  68  95 123 147 204 258 281
#     4  10  21  34  52  77  94 116 159 194 233 302
#     4  10  21  32  46  71  91 121 170 193 225 283
#     4  10  16  28  38  59  93 128 161 185 220 268
#     4  10  19  34  48  65 100 128 152 193 229 270
#     4  12  19  27  46  66  94 132 161 189 224 270
#
# _framework density 17.379042999999999
#
# number of rings (size 3 to 8) (size 9 to 14) (size 15 to 20)
#    0.000    1.667    3.333    4.000    0.000    2.333 
#    0.000    0.000    0.000    6.000    0.000    0.000 
#    0.000    0.667    0.000    4.000    0.000    0.000 
#
# Total GULP energy -297341.685360 kJ/mol
# GULP energy per Si atom -12389.236890 kJ/mol
# Density = 1.733949 g / cm^3
# Si number density = 17.379043 Si / 1000 Ang^3
#
#
#
# Elastic Constant Matrix: (Units=GPa)
#
#
# Indices 1 2 3 4 5 6 
#
# 1 109.9583 21.1069 2.4902 0.0000 0.0000 0.0000
# 2 21.1069 77.3590 15.0804 0.0000 0.0000 0.0000
# 3 2.4902 15.0804 69.9119 0.0000 0.0000 0.0000
# 4 0.0000 0.0000 0.0000 8.1947 0.0000 0.0000
# 5 0.0000 0.0000 0.0000 0.0000 18.5938 0.0000
# 6 0.0000 0.0000 0.0000 0.0000 0.0000 24.4995
#
#
#
# Elastic Compliance Matrix: (Units=1/GPa)
#
#
# Indices 1 2 3 4 5 6 
#
# 1 0.009601 -0.002665 0.000233 0.000000 0.000000 0.000000
# 2 -0.002665 0.014234 -0.002975 0.000000 0.000000 0.000000
# 3 0.000233 -0.002975 0.014937 0.000000 0.000000 0.000000
# 4 0.000000 0.000000 0.000000 0.122030 0.000000 0.000000
# 5 0.000000 0.000000 0.000000 0.000000 0.053781 0.000000
# 6 0.000000 0.000000 0.000000 0.000000 0.000000 0.040817
#
#
# Mechanical properties :
#
#
# Convention : Reuss Voigt Hill
#
# Bulk Modulus (GPa) = 35.76933 37.17600 36.47267
# Shear Modulus (GPa) = 18.14659 24.82771 21.48715
#
# Velocity S-wave (km/s) = 3.23486 3.78378 3.52004
# Velocity P-wave (km/s) = 5.88039 6.36609 6.12805
#
# Compressibility (1/GPa) = 0.02795691
#
# Stress axis : x y z
#
# Youngs Moduli (GPa) = 104.15996 70.25497 66.94684
#
# Poissons Ratio (x) = 0.18722 -0.01559
# Poissons Ratio (y) = 0.27757 0.19919
# Poissons Ratio (z) = -0.02425 0.20904
#
# Static dielectric constant tensor:
#      x y z
#    x -0.970190 0.000000 0.000000 
#    y 0.000000 3.156930 0.000000 
#    z 0.000000 0.000000 3.450010 
# 
# 
# High freq. dielectric constant tensor:
#      x y z
#    x 1.708320 0.000000 0.000000 
#    y 0.000000 1.649330 0.000000 
#    z 0.000000 0.000000 1.626110 
# 
# From -- ./inp_files/6055.got.cif
#   From: 2010.03.12/outbox.cif.g09.slc.cpg/sg16_4_cif.got.tgz:6055.got - 2010.03.31 00:51:45.
