data_PCOD8155603
_publ_section_title
;
Structure prediction by ZEFSAII (Michael W. Deem and Ramdas Pophale) SiO2 
 PCOD8155603
Probable space group: P 2 2 21
;
_chemical_formula_sum "Si O2"
_cell_formula_units_Z 14
_cell_length_a 5.104387
_cell_length_b 8.690658
_cell_length_c 14.882239
_cell_angle_alpha 90.000000
_cell_angle_beta 90.000000
_cell_angle_gamma 90.000000
_cell_volume 660.183291
_symmetry_space_group_name_H-M "P 2 2 21"
_symmetry_group_IT_number 17
_symmetry_cell_setting 'orthorhombic'
loop_
_space_group_symop_operation_xyz
x,y,z
-x,-y,1/2+z
x,-y,-z
-x,y,1/2-z
loop_
_atom_site_type_symbol
_atom_site_label
_atom_site_fract_x
_atom_site_fract_y
_atom_site_fract_z
Si Si1 0.595452 0.821739 0.996769
Si Si2 0.749866 0.761622 0.798515
Si Si3 0.074219 0.652260 0.059348
Si Si4 0.000000 0.531709 0.250000
O O1 0.733225 0.792013 0.902424
O O2 0.823922 0.766411 0.063489
O O3 0.329182 0.728813 0.014369
O O4 0.525157 0.000000 0.000000
O O5 0.500000 0.833360 0.750000
O O6 0.765012 0.576638 0.786582
O O7 0.000000 0.841766 0.750000
O O8 0.120557 0.624750 0.165676
O O9 0.011712 0.500000 0.000000
#
# Coordination Sequence:
#
# PCOD8155603 Si02
#       4
#     4   4   4   2
#     4  12  26  46  67 101 145 181 219 282 360 412
#     4  10  21  41  68  96 133 177 227 276 347 400
#     4  12  24  44  75  99 133 183 237 284 335 411
#     4  10  24  40  72 104 132 170 246 288 334 388
#
# _framework density 21.206232
#
# number of rings (size 3 to 8) (size 9 to 14) (size 15 to 20)
#    0.857    0.000    2.857    5.143    4.000    0.000 
#    7.714    0.000    0.000    0.000    0.000    0.000 
#    0.000    0.000    0.000    0.000    0.000    0.000 
#
# Total GULP energy -173472.209824 kJ/mol
# GULP energy per Si atom -12390.872130 kJ/mol
# Density = 2.115797 g / cm^3
# Si number density = 21.206232 Si / 1000 Ang^3
#
#
#
# Elastic Constant Matrix: (Units=GPa)
#
#
# Indices 1 2 3 4 5 6 
#
# 1 131.1023 23.2938 8.0715 0.0000 0.0000 0.0000
# 2 23.2938 84.0573 30.2949 0.0000 0.0000 0.0000
# 3 8.0715 30.2949 124.6372 0.0000 0.0000 0.0000
# 4 0.0000 0.0000 0.0000 2.2629 0.0000 0.0000
# 5 0.0000 0.0000 0.0000 0.0000 20.9513 0.0000
# 6 0.0000 0.0000 0.0000 0.0000 0.0000 30.6574
#
#
#
# Elastic Compliance Matrix: (Units=1/GPa)
#
#
# Indices 1 2 3 4 5 6 
#
# 1 0.008023 -0.002231 0.000023 0.000000 0.000000 0.000000
# 2 -0.002231 0.013660 -0.003176 0.000000 0.000000 0.000000
# 3 0.000023 -0.003176 0.008794 0.000000 0.000000 0.000000
# 4 0.000000 0.000000 0.000000 0.441920 0.000000 0.000000
# 5 0.000000 0.000000 0.000000 0.000000 0.047730 0.000000
# 6 0.000000 0.000000 0.000000 0.000000 0.000000 0.032619
#
#
# Mechanical properties :
#
#
# Convention : Reuss Voigt Hill
#
# Bulk Modulus (GPa) = 50.74234 51.45747 51.09990
# Shear Modulus (GPa) = 8.77067 29.31675 19.04371
#
# Velocity S-wave (km/s) = 2.03590 3.72218 2.99996
# Velocity P-wave (km/s) = 5.43199 6.54146 6.01237
#
# Compressibility (1/GPa) = 0.01970741
#
# Stress axis : x y z
#
# Youngs Moduli (GPa) = 124.64626 73.20886 113.71783
#
# Poissons Ratio (x) = 0.16336 -0.00260
# Poissons Ratio (y) = 0.27814 0.36113
# Poissons Ratio (z) = -0.00285 0.23249
#
# Static dielectric constant tensor:
#      x y z
#    x 4.022060 0.000000 0.000000 
#    y 0.000000 3.779890 0.000000 
#    z 0.000000 0.000000 3.954370 
# 
# 
# High freq. dielectric constant tensor:
#      x y z
#    x 1.842540 0.000000 0.000000 
#    y 0.000000 1.802590 0.000000 
#    z 0.000000 0.000000 1.843210 
# 
# From -- ./inp_files/7485.got.cif
#   From: 2010.03.12/outbox.cif.g09.slc.cpg/sg17_4_cif.got.tgz:7485.got - 2010.04.10 18:46:23.
