data_PCOD8155370
_publ_section_title
;
Structure prediction by ZEFSAII (Michael W. Deem and Ramdas Pophale) SiO2 
 PCOD8155370
Probable space group: P 2 2 21
;
_chemical_formula_sum "Si O2"
_cell_formula_units_Z 24
_cell_length_a 5.028226
_cell_length_b 10.531951
_cell_length_c 24.611063
_cell_angle_alpha 90.000000
_cell_angle_beta 90.000000
_cell_angle_gamma 90.000000
_cell_volume 1303.328798
_symmetry_space_group_name_H-M "P 2 2 21"
_symmetry_group_IT_number 17
_symmetry_cell_setting 'orthorhombic'
loop_
_space_group_symop_operation_xyz
x,y,z
-x,-y,1/2+z
x,-y,-z
-x,y,1/2-z
loop_
_atom_site_type_symbol
_atom_site_label
_atom_site_fract_x
_atom_site_fract_y
_atom_site_fract_z
Si Si1 0.907564 0.619111 0.809426
Si Si2 0.029175 0.856667 0.188623
Si Si3 0.051765 0.611167 0.378933
Si Si4 0.551184 0.502329 0.436291
Si Si5 0.470758 0.023524 0.311543
Si Si6 0.593491 0.720455 0.640197
O O1 0.962177 0.473513 0.824580
O O2 0.597557 0.652889 0.815350
O O3 0.000000 0.648773 0.750000
O O4 0.093853 0.707075 0.847414
O O5 0.326762 0.907483 0.180162
O O6 0.000000 0.800935 0.250000
O O7 0.977110 0.754158 0.141786
O O8 0.826421 0.972796 0.180103
O O9 0.329061 0.590735 0.409153
O O10 0.826540 0.569763 0.421354
O O11 0.510287 0.500000 0.500000
O O12 0.534521 0.354685 0.416149
O O13 0.500000 0.079435 0.250000
O O14 0.522226 0.130335 0.357839
#
# Coordination Sequence:
#
# PCOD8155370 Si02
#       6
#     4   4   4   4   4   4
#     4  10  18  29  48  74 103 128 158 205 254 304
#     4  10  20  33  51  76 108 142 168 195 240 305
#     4  10  20  34  53  76 100 130 168 208 255 306
#     4  10  21  37  57  76  97 130 172 224 269 296
#     4  10  19  31  49  73 105 140 167 195 238 302
#     4  10  20  32  50  75 101 134 171 207 252 301
#
# _framework density 18.414383999999998
#
# number of rings (size 3 to 8) (size 9 to 14) (size 15 to 20)
#    0.000    2.000    0.000    4.500    0.000    1.333 
#    0.000    5.000    0.000    6.000    0.000    0.000 
#    0.000    0.000    0.000    0.000    0.000    0.000 
#
# Total GULP energy -297508.157784 kJ/mol
# GULP energy per Si atom -12396.173241 kJ/mol
# Density = 1.837247 g / cm^3
# Si number density = 18.414384 Si / 1000 Ang^3
#
#
#
# Elastic Constant Matrix: (Units=GPa)
#
#
# Indices 1 2 3 4 5 6 
#
# 1 59.5744 -3.4142 -6.9433 0.0000 0.0000 0.0000
# 2 -3.4142 77.2729 31.1276 0.0000 0.0000 0.0000
# 3 -6.9433 31.1276 71.6371 0.0000 0.0000 0.0000
# 4 0.0000 0.0000 0.0000 19.3635 0.0000 0.0000
# 5 0.0000 0.0000 0.0000 0.0000 16.7316 0.0000
# 6 0.0000 0.0000 0.0000 0.0000 0.0000 16.0770
#
#
#
# Elastic Compliance Matrix: (Units=1/GPa)
#
#
# Indices 1 2 3 4 5 6 
#
# 1 0.016978 0.000106 0.001600 0.000000 0.000000 0.000000
# 2 0.000106 0.015688 -0.006806 0.000000 0.000000 0.000000
# 3 0.001600 -0.006806 0.017072 0.000000 0.000000 0.000000
# 4 0.000000 0.000000 0.000000 0.051643 0.000000 0.000000
# 5 0.000000 0.000000 0.000000 0.000000 0.059767 0.000000
# 6 0.000000 0.000000 0.000000 0.000000 0.000000 0.062201
#
#
# Mechanical properties :
#
#
# Convention : Reuss Voigt Hill
#
# Bulk Modulus (GPa) = 25.29354 27.78052 26.53703
# Shear Modulus (GPa) = 20.26515 22.94873 21.60694
#
# Velocity S-wave (km/s) = 3.32099 3.53404 3.42917
# Velocity P-wave (km/s) = 5.33581 5.63664 5.48828
#
# Compressibility (1/GPa) = 0.03953579
#
# Stress axis : x y z
#
# Youngs Moduli (GPa) = 58.89900 63.74470 58.57634
#
# Poissons Ratio (x) = -0.00674 -0.09370
# Poissons Ratio (y) = -0.00623 0.39869
# Poissons Ratio (z) = -0.09422 0.43386
#
# Static dielectric constant tensor:
#      x y z
#    x 3.676710 0.000000 0.000000 
#    y 0.000000 3.223850 0.000000 
#    z 0.000000 0.000000 3.108220 
# 
# 
# High freq. dielectric constant tensor:
#      x y z
#    x 1.740360 0.000000 0.000000 
#    y 0.000000 1.703220 0.000000 
#    z 0.000000 0.000000 1.675770 
# 
# From -- ./inp_files/10403.got.cif
#   From: 2010.03.12/outbox.cif.g09.slc.cpg/sg17_6_cif.got.tgz:10403.got - 2010.04.10 18:46:23.
