data_PCOD8155945
_publ_section_title
;
Structure prediction by ZEFSAII (Michael W. Deem and Ramdas Pophale) SiO2 
 PCOD8155945
Probable space group: P 21 21 2
;
_chemical_formula_sum "Si O2"
_cell_formula_units_Z 24
_cell_length_a 14.007909
_cell_length_b 8.889555
_cell_length_c 8.943820
_cell_angle_alpha 90.000000
_cell_angle_beta 90.000000
_cell_angle_gamma 90.000000
_cell_volume 1113.720935
_symmetry_space_group_name_H-M "P 21 21 2"
_symmetry_group_IT_number 18
_symmetry_cell_setting 'orthorhombic'
loop_
_space_group_symop_operation_xyz
x,y,z
-x,-y,z
1/2+x,1/2-y,-z
1/2-x,1/2+y,-z
loop_
_atom_site_type_symbol
_atom_site_label
_atom_site_fract_x
_atom_site_fract_y
_atom_site_fract_z
Si Si1 0.144664 0.636065 0.612284
Si Si2 0.798479 0.031077 0.565351
Si Si3 0.780678 0.501331 0.882415
Si Si4 0.970915 0.341013 0.343221
Si Si5 0.093894 0.074669 0.291099
Si Si6 0.226471 0.667586 0.182642
O O1 0.202758 0.505436 0.525726
O O2 0.134357 0.571421 0.780588
O O3 0.045222 0.654074 0.524032
O O4 0.201919 0.794841 0.615769
O O5 0.887013 0.001018 0.453557
O O6 0.799884 0.920704 0.709029
O O7 0.680981 0.434684 0.822424
O O8 0.779082 0.682480 0.875995
O O9 0.798991 0.445523 0.049106
O O10 0.871789 0.282906 0.266890
O O11 0.000000 0.500000 0.275347
O O12 0.065779 0.247325 0.312809
O O13 0.000000 0.000000 0.218917
#
# Coordination Sequence:
#
# PCOD8155945 Si02
#       6
#     4   4   4   4   4   4
#     4  10  20  37  58  89 114 155 195 242 288 361
#     4  10  20  35  62  84 118 151 201 235 297 354
#     4  11  24  40  64  84 127 162 206 239 307 369
#     4  11  24  37  64  91 122 150 207 256 303 345
#     4  11  20  41  62  89 116 158 198 254 301 355
#     4  11  24  42  60  91 119 168 201 243 302 374
#
# _framework density 21.549385000000001
#
# number of rings (size 3 to 8) (size 9 to 14) (size 15 to 20)
#    0.000    1.333    3.333    4.000   14.000    0.000 
#    0.000    3.333    0.000    0.000    0.000    0.000 
#    0.000    0.000    0.000    0.000    0.000    0.000 
#
# Total GULP energy -297487.062723 kJ/mol
# GULP energy per Si atom -12395.294280 kJ/mol
# Density = 2.150034 g / cm^3
# Si number density = 21.549385 Si / 1000 Ang^3
#
#
#
# Elastic Constant Matrix: (Units=GPa)
#
#
# Indices 1 2 3 4 5 6 
#
# 1 34.4933 -14.2505 1.5897 0.0000 0.0000 0.0000
# 2 -14.2505 97.8919 9.0117 0.0000 0.0000 0.0000
# 3 1.5897 9.0117 100.5797 0.0000 0.0000 0.0000
# 4 0.0000 0.0000 0.0000 36.7586 0.0000 0.0000
# 5 0.0000 0.0000 0.0000 0.0000 19.8648 0.0000
# 6 0.0000 0.0000 0.0000 0.0000 0.0000 31.7461
#
#
#
# Elastic Compliance Matrix: (Units=1/GPa)
#
#
# Indices 1 2 3 4 5 6 
#
# 1 0.030927 0.004585 -0.000900 0.000000 0.000000 0.000000
# 2 0.004585 0.010980 -0.001056 0.000000 0.000000 0.000000
# 3 -0.000900 -0.001056 0.010051 0.000000 0.000000 0.000000
# 4 0.000000 0.000000 0.000000 0.027204 0.000000 0.000000
# 5 0.000000 0.000000 0.000000 0.000000 0.050340 0.000000
# 6 0.000000 0.000000 0.000000 0.000000 0.000000 0.031500
#
#
# Mechanical properties :
#
#
# Convention : Reuss Voigt Hill
#
# Bulk Modulus (GPa) = 17.47755 25.07407 21.27581
# Shear Modulus (GPa) = 28.60138 33.44817 31.02477
#
# Velocity S-wave (km/s) = 3.64709 3.94402 3.79846
# Velocity P-wave (km/s) = 5.08558 5.69222 5.39743
#
# Compressibility (1/GPa) = 0.05721625
#
# Stress axis : x y z
#
# Youngs Moduli (GPa) = 32.33442 91.07439 99.49041
#
# Poissons Ratio (x) = -0.41757 0.08950
# Poissons Ratio (y) = -0.14825 0.10509
# Poissons Ratio (z) = 0.02909 0.09620
#
# Static dielectric constant tensor:
#      x y z
#    x 3.714750 0.000000 0.000000 
#    y 0.000000 4.048490 0.000000 
#    z 0.000000 0.000000 3.963010 
# 
# 
# High freq. dielectric constant tensor:
#      x y z
#    x 1.814760 0.000000 0.000000 
#    y 0.000000 1.872370 0.000000 
#    z 0.000000 0.000000 1.828840 
# 
# From -- ./inp_files/3155.got.cif
#   From: 2010.03.12/outbox.cif.g09.slc.cpg/sg18_2_cif.got.tgz:3155.got - 2010.04.10 18:53:55.
