data_PCOD8155985
_publ_section_title
;
Structure prediction by ZEFSAII (Michael W. Deem and Ramdas Pophale) SiO2 
 PCOD8155985
Probable space group: P 21 21 2
;
_chemical_formula_sum "Si O2"
_cell_formula_units_Z 28
_cell_length_a 9.305358
_cell_length_b 18.434539
_cell_length_c 8.191083
_cell_angle_alpha 90.000000
_cell_angle_beta 90.000000
_cell_angle_gamma 90.000000
_cell_volume 1405.098255
_symmetry_space_group_name_H-M "P 21 21 2"
_symmetry_group_IT_number 18
_symmetry_cell_setting 'orthorhombic'
loop_
_space_group_symop_operation_xyz
x,y,z
-x,-y,z
1/2+x,1/2-y,-z
1/2-x,1/2+y,-z
loop_
_atom_site_type_symbol
_atom_site_label
_atom_site_fract_x
_atom_site_fract_y
_atom_site_fract_z
Si Si1 0.073624 0.193105 0.042329
Si Si2 0.623899 0.450621 0.144508
Si Si3 0.057760 0.126346 0.543267
Si Si4 0.562887 0.227216 0.270867
Si Si5 0.215601 0.644038 0.714949
Si Si6 0.829034 0.501149 0.900165
Si Si7 0.828377 0.136195 0.266364
O O1 0.199759 0.204002 0.175586
O O2 0.924048 0.175246 0.129556
O O3 0.123054 0.129488 0.924094
O O4 0.060531 0.263645 0.927186
O O5 0.500000 0.500000 0.064227
O O6 0.591350 0.442084 0.337900
O O7 0.771872 0.490598 0.087873
O O8 0.928751 0.107858 0.415577
O O9 0.015709 0.199182 0.639945
O O10 0.209075 0.140801 0.458837
O O11 0.447678 0.165791 0.314121
O O12 0.716955 0.197125 0.330998
O O13 0.230949 0.565318 0.795263
O O14 0.764866 0.572610 0.815840
O O15 0.000000 0.500000 0.904525
#
# Coordination Sequence:
#
# PCOD8155985 Si02
#       7
#     4   4   4   4   4   4   4
#     4   9  20  35  60  87 111 158 202 245 286 345
#     4  10  20  38  60  84 117 148 203 242 292 352
#     4  10  24  37  59  87 119 163 191 247 300 360
#     4  11  20  38  58  88 122 154 200 244 298 353
#     4  10  21  37  59  86 122 155 200 246 294 358
#     4  11  22  40  61  89 115 157 200 253 303 344
#     4  11  21  38  62  87 120 156 202 244 300 361
#
# _framework density 19.927433000000001
#
# number of rings (size 3 to 8) (size 9 to 14) (size 15 to 20)
#    0.000    1.714    2.857    1.714    2.000    0.000 
#    0.000    2.143    0.000    0.000    0.000    0.000 
#    0.000    0.000    0.000    0.000    0.000    0.000 
#
# Total GULP energy -347044.049304 kJ/mol
# GULP energy per Si atom -12394.430332 kJ/mol
# Density = 1.988208 g / cm^3
# Si number density = 19.927433 Si / 1000 Ang^3
#
#
#
# Elastic Constant Matrix: (Units=GPa)
#
#
# Indices 1 2 3 4 5 6 
#
# 1 125.6375 20.0319 46.2531 0.0000 0.0000 0.0000
# 2 20.0319 51.7436 20.6865 0.0000 0.0000 0.0000
# 3 46.2531 20.6865 90.7911 0.0000 0.0000 0.0000
# 4 0.0000 0.0000 0.0000 16.1055 0.0000 0.0000
# 5 0.0000 0.0000 0.0000 0.0000 23.2653 0.0000
# 6 0.0000 0.0000 0.0000 0.0000 0.0000 27.4600
#
#
#
# Elastic Compliance Matrix: (Units=1/GPa)
#
#
# Indices 1 2 3 4 5 6 
#
# 1 0.009984 -0.002015 -0.004627 0.000000 0.000000 0.000000
# 2 -0.002015 0.021670 -0.003911 0.000000 0.000000 0.000000
# 3 -0.004627 -0.003911 0.014263 0.000000 0.000000 0.000000
# 4 0.000000 0.000000 0.000000 0.062091 0.000000 0.000000
# 5 0.000000 0.000000 0.000000 0.000000 0.042982 0.000000
# 6 0.000000 0.000000 0.000000 0.000000 0.000000 0.036417
#
#
# Mechanical properties :
#
#
# Convention : Reuss Voigt Hill
#
# Bulk Modulus (GPa) = 40.30619 49.12391 44.71505
# Shear Modulus (GPa) = 23.06454 25.44620 24.25537
#
# Velocity S-wave (km/s) = 3.40579 3.57731 3.49260
# Velocity P-wave (km/s) = 5.97798 6.46280 6.22511
#
# Compressibility (1/GPa) = 0.02481008
#
# Stress axis : x y z
#
# Youngs Moduli (GPa) = 100.15785 46.14737 70.11317
#
# Poissons Ratio (x) = 0.09300 0.32443
# Poissons Ratio (y) = 0.20185 0.27419
# Poissons Ratio (z) = 0.46345 0.18047
#
# Static dielectric constant tensor:
#      x y z
#    x 3.615880 0.000000 0.000000 
#    y 0.000000 3.564040 0.000000 
#    z 0.000000 0.000000 3.776390 
# 
# 
# High freq. dielectric constant tensor:
#      x y z
#    x 1.782000 0.000000 0.000000 
#    y 0.000000 1.769400 0.000000 
#    z 0.000000 0.000000 1.772640 
# 
# From -- ./inp_files/3464.got.cif
#   From: 2010.03.12/outbox.cif.g09.slc.cpg/sg18_2_cif.got.tgz:3464.got - 2010.04.10 18:53:55.
