data_PCOD8155652
_publ_section_title
;
Structure prediction by ZEFSAII (Michael W. Deem and Ramdas Pophale) SiO2 
 PCOD8155652
Probable space group: P 2 2 21
;
_chemical_formula_sum "Si O2"
_cell_formula_units_Z 20
_cell_length_a 6.285085
_cell_length_b 13.740376
_cell_length_c 11.433036
_cell_angle_alpha 90.000000
_cell_angle_beta 90.000000
_cell_angle_gamma 90.000000
_cell_volume 987.350485
_symmetry_space_group_name_H-M "P 2 2 21"
_symmetry_group_IT_number 17
_symmetry_cell_setting 'orthorhombic'
loop_
_space_group_symop_operation_xyz
x,y,z
-x,-y,1/2+z
x,-y,-z
-x,y,1/2-z
loop_
_atom_site_type_symbol
_atom_site_label
_atom_site_fract_x
_atom_site_fract_y
_atom_site_fract_z
Si Si1 0.287441 0.103402 0.950894
Si Si2 0.122668 0.754566 0.864590
Si Si3 0.622668 0.254566 0.864590
Si Si4 0.787442 0.396598 0.049106
Si Si5 0.000000 0.847740 0.250000
Si Si6 0.500000 0.347739 0.250000
O O1 0.497867 0.164740 0.923016
O O2 0.150828 0.086556 0.832323
O O3 0.137780 0.157186 0.044731
O O4 0.362820 0.000000 0.000000
O O5 0.359175 0.721517 0.832033
O O6 0.000000 0.793066 0.750000
O O7 0.997868 0.664739 0.923015
O O8 0.500000 0.293066 0.750000
O O9 0.859174 0.221516 0.832033
O O10 0.637782 0.342813 0.955269
O O11 0.650829 0.413443 0.167677
O O12 0.862820 0.500000 0.000000
#
# Coordination Sequence:
#
# PCOD8155652 Si02
#       6
#     4   4   4   4   2   2
#     4  11  23  41  66  94 126 168 210 256 313 377
#     4  10  22  43  62  92 130 164 212 263 306 372
#     4  10  22  43  62  92 130 164 212 263 306 372
#     4  11  23  41  66  94 126 168 210 256 313 377
#     4  10  22  44  64  92 130 164 210 260 316 366
#     4  10  22  44  64  92 130 164 210 260 316 366
#
# _framework density 20.256233000000002
#
# number of rings (size 3 to 8) (size 9 to 14) (size 15 to 20)
#    0.000    1.600    4.000    0.000    2.800    1.600 
#   10.800    0.000    0.000    0.000    0.000    0.000 
#    0.000    0.000    0.000    0.000    0.000    0.000 
#
# Total GULP energy -248056.493775 kJ/mol
# GULP energy per Si atom -12402.824689 kJ/mol
# Density = 2.021013 g / cm^3
# Si number density = 20.256233 Si / 1000 Ang^3
#
#
#
# Elastic Constant Matrix: (Units=GPa)
#
#
# Indices 1 2 3 4 5 6 
#
# 1 94.0062 39.2998 34.2014 0.0000 0.0000 0.0000
# 2 39.2998 114.9163 59.2365 0.0000 0.0000 0.0000
# 3 34.2014 59.2365 113.9707 0.0000 0.0000 0.0000
# 4 0.0000 0.0000 0.0000 25.0809 0.0000 0.0000
# 5 0.0000 0.0000 0.0000 0.0000 39.9176 0.0000
# 6 0.0000 0.0000 0.0000 0.0000 0.0000 22.4284
#
#
#
# Elastic Compliance Matrix: (Units=1/GPa)
#
#
# Indices 1 2 3 4 5 6 
#
# 1 0.012782 -0.003270 -0.002136 0.000000 0.000000 0.000000
# 2 -0.003270 0.012723 -0.005632 0.000000 0.000000 0.000000
# 3 -0.002136 -0.005632 0.012342 0.000000 0.000000 0.000000
# 4 0.000000 0.000000 0.000000 0.039871 0.000000 0.000000
# 5 0.000000 0.000000 0.000000 0.000000 0.025052 0.000000
# 6 0.000000 0.000000 0.000000 0.000000 0.000000 0.044586
#
#
# Mechanical properties :
#
#
# Convention : Reuss Voigt Hill
#
# Bulk Modulus (GPa) = 63.40443 65.37428 64.38935
# Shear Modulus (GPa) = 28.62228 30.16242 29.39235
#
# Velocity S-wave (km/s) = 3.76308 3.86300 3.81337
# Velocity P-wave (km/s) = 7.08874 7.22778 7.15859
#
# Compressibility (1/GPa) = 0.01577177
#
# Stress axis : x y z
#
# Youngs Moduli (GPa) = 78.23609 78.59605 81.02264
#
# Poissons Ratio (x) = 0.25702 0.17307
# Poissons Ratio (y) = 0.25584 0.45629
# Poissons Ratio (z) = 0.16711 0.44262
#
# Static dielectric constant tensor:
#      x y z
#    x 3.658110 0.000000 0.000000 
#    y 0.000000 3.202350 0.000000 
#    z 0.000000 0.000000 4.065170 
# 
# 
# High freq. dielectric constant tensor:
#      x y z
#    x 1.798710 0.000000 0.000000 
#    y 0.000000 1.753510 0.000000 
#    z 0.000000 0.000000 1.818000 
# 
# From -- ./inp_files/5900.got.cif
#   From: 2010.03.12/outbox.cif.g09.slc.cpg/sg17_3_cif.got.tgz:5900.got - 2010.04.10 18:46:23.
