data_PCOD8155349
_publ_section_title
;
Structure prediction by ZEFSAII (Michael W. Deem and Ramdas Pophale) SiO2 
 PCOD8155349
Probable space group: P 2 2 2
;
_chemical_formula_sum "Si O2"
_cell_formula_units_Z 24
_cell_length_a 11.210375
_cell_length_b 12.027547
_cell_length_c 8.225090
_cell_angle_alpha 90.000000
_cell_angle_beta 90.000000
_cell_angle_gamma 90.000000
_cell_volume 1109.016128
_symmetry_space_group_name_H-M "P 2 2 2"
_symmetry_group_IT_number 16
_symmetry_cell_setting 'orthorhombic'
loop_
_space_group_symop_operation_xyz
x,y,z
-x,-y,z
x,-y,-z
-x,y,-z
loop_
_atom_site_type_symbol
_atom_site_label
_atom_site_fract_x
_atom_site_fract_y
_atom_site_fract_z
Si Si1 0.758210 0.175631 0.185847
Si Si2 0.734656 0.228034 0.817084
Si Si3 0.493959 0.871127 0.308653
Si Si4 0.152866 0.446930 0.176974
Si Si5 0.932902 0.650352 0.671507
Si Si6 0.862721 0.970616 0.320837
O O1 0.624432 0.191657 0.249850
O O2 0.855563 0.239360 0.297445
O O3 0.788598 0.044723 0.193629
O O4 0.768744 0.217488 0.004530
O O5 0.602290 0.189248 0.780013
O O6 0.743500 0.359002 0.776507
O O7 0.833187 0.158103 0.714284
O O8 0.500000 0.856887 0.500000
O O9 0.500000 0.000000 0.257188
O O10 0.154846 0.542780 0.316371
O O11 0.029252 0.375494 0.185572
O O12 0.172767 0.500000 0.000000
O O13 0.000000 0.660774 0.500000
O O14 0.814854 0.000000 0.500000
O O15 0.000000 0.000000 0.301901
#
# Coordination Sequence:
#
# PCOD8155349 Si02
#       6
#     4   4   4   4   4   4
#     4  12  25  42  72 101 141 183 241 292 360 432
#     4  12  25  43  74 102 140 189 239 299 360 438
#     4  11  25  47  72  99 139 190 239 296 365 436
#     4  11  23  45  70 104 142 183 237 290 364 431
#     4  11  25  43  72 105 141 190 235 293 358 436
#     4  11  25  41  63 103 147 183 226 291 361 436
#
# _framework density 21.640802999999998
#
# number of rings (size 3 to 8) (size 9 to 14) (size 15 to 20)
#    0.000    0.667    3.333    5.000    7.000    3.333 
#    3.000    0.833    0.000    1.000    0.000    0.000 
#    0.000    0.000    0.000    0.000    0.000    0.000 
#
# Total GULP energy -297604.185224 kJ/mol
# GULP energy per Si atom -12400.174384 kJ/mol
# Density = 2.159155 g / cm^3
# Si number density = 21.640803 Si / 1000 Ang^3
#
#
#
# Elastic Constant Matrix: (Units=GPa)
#
#
# Indices 1 2 3 4 5 6 
#
# 1 91.1496 39.1773 38.6049 0.0000 0.0000 0.0000
# 2 39.1773 117.6039 44.5989 0.0000 0.0000 0.0000
# 3 38.6049 44.5989 110.3769 0.0000 0.0000 0.0000
# 4 0.0000 0.0000 0.0000 22.6668 0.0000 0.0000
# 5 0.0000 0.0000 0.0000 0.0000 29.8063 0.0000
# 6 0.0000 0.0000 0.0000 0.0000 0.0000 56.6354
#
#
#
# Elastic Compliance Matrix: (Units=1/GPa)
#
#
# Indices 1 2 3 4 5 6 
#
# 1 0.013876 -0.003286 -0.003526 0.000000 0.000000 0.000000
# 2 -0.003286 0.010820 -0.003223 0.000000 0.000000 0.000000
# 3 -0.003526 -0.003223 0.011595 0.000000 0.000000 0.000000
# 4 0.000000 0.000000 0.000000 0.044117 0.000000 0.000000
# 5 0.000000 0.000000 0.000000 0.000000 0.033550 0.000000
# 6 0.000000 0.000000 0.000000 0.000000 0.000000 0.017657
#
#
# Mechanical properties :
#
#
# Convention : Reuss Voigt Hill
#
# Bulk Modulus (GPa) = 61.63971 62.65473 62.14722
# Shear Modulus (GPa) = 31.82860 34.93832 33.38346
#
# Velocity S-wave (km/s) = 3.83922 4.02240 3.93188
# Velocity P-wave (km/s) = 6.94246 7.11252 7.02800
#
# Compressibility (1/GPa) = 0.01622331
#
# Stress axis : x y z
#
# Youngs Moduli (GPa) = 72.06459 92.42330 86.24257
#
# Poissons Ratio (x) = 0.30366 0.30407
# Poissons Ratio (y) = 0.23677 0.27793
# Poissons Ratio (z) = 0.25409 0.29785
#
# Static dielectric constant tensor:
#      x y z
#    x 3.910420 0.000000 0.000000 
#    y 0.000000 4.252350 0.000000 
#    z 0.000000 0.000000 3.894070 
# 
# 
# High freq. dielectric constant tensor:
#      x y z
#    x 1.838080 0.000000 0.000000 
#    y 0.000000 1.856940 0.000000 
#    z 0.000000 0.000000 1.854820 
# 
# From -- ./inp_files/4719.got.cif
#   From: 2010.03.12/outbox.cif.g09.slc.cpg/sg16_3_cif.got.tgz:4719.got - 2010.03.31 00:51:45.
