data_PCOD8155167
_publ_section_title
;
Structure prediction by ZEFSAII (Michael W. Deem and Ramdas Pophale) SiO2 
 PCOD8155167
Probable space group: C 2/C
;
_chemical_formula_sum "Si O2"
_cell_formula_units_Z 32
_cell_length_a 9.934354
_cell_length_b 20.429839
_cell_length_c 7.502195
_cell_angle_alpha 90.000000
_cell_angle_beta 130.132175
_cell_angle_gamma 90.000000
_cell_volume 1164.137424
_symmetry_space_group_name_H-M "C 2/C"
_symmetry_group_IT_number 15
_symmetry_cell_setting 'monoclinic'
loop_
_space_group_symop_operation_xyz
x,y,z
-x,y,1/2-z
-x,-y,-z
x,-y,1/2+z
1/2+x,1/2+y,z
1/2-x,1/2+y,1/2-z
1/2-x,1/2-y,-z
1/2+x,1/2-y,1/2+z
loop_
_atom_site_type_symbol
_atom_site_label
_atom_site_fract_x
_atom_site_fract_y
_atom_site_fract_z
Si Si1 0.322234 0.059131 0.210621
Si Si2 0.635135 0.805724 0.210248
Si Si3 0.184251 0.301343 0.801678
Si Si4 0.696652 0.427044 0.981590
O O1 0.500000 0.047344 0.250000
O O2 0.229442 0.128214 0.078307
O O3 0.341915 0.069138 0.443540
O O4 0.194664 0.997418 0.077714
O O5 0.500000 0.804884 0.250000
O O6 0.740996 0.736368 0.311241
O O7 0.755366 0.870418 0.335067
O O8 0.526783 0.812258 0.924205
O O9 0.250000 0.250000 0.000000
O O10 0.500000 0.412006 0.750000
#
# Coordination Sequence:
#
# PCOD8155167 Si02
#       4
#     8   8   8   8
#     4  12  28  53  84 121 169 220 282 348 424 495
#     4  12  27  51  80 118 164 224 271 344 426 498
#     4  12  29  48  82 120 164 213 281 344 417 503
#     4  12  30  52  86 122 169 222 285 348 416 505
#
# _framework density 27.488163
#
# number of rings (size 3 to 8) (size 9 to 14) (size 15 to 20)
#    0.000    0.000    2.500    5.250   10.500    2.000 
#    0.000    0.000    0.000    0.000    0.000    0.000 
#    0.000    0.000    0.000    0.000    0.000    0.000 
#
# Total GULP energy -198222.959856 kJ/mol
# GULP energy per Si atom -12388.934991 kJ/mol
# Density = 2.742560 g / cm^3
# Si number density = 27.488163 Si / 1000 Ang^3
#
#
#
# Elastic Constant Matrix: (Units=GPa)
#
#
# Indices 1 2 3 4 5 6 
#
# 1 84.1637 53.7546 38.8150 0.0000 0.2762 0.0000
# 2 53.7546 288.8240 99.2276 0.0000 23.8753 0.0000
# 3 38.8150 99.2276 175.7401 0.0000 3.3937 0.0000
# 4 0.0000 0.0000 0.0000 56.1602 0.0000 -12.3207
# 5 0.2762 23.8753 3.3937 0.0000 31.5492 0.0000
# 6 0.0000 0.0000 0.0000 -12.3207 0.0000 40.4959
#
#
#
# Elastic Compliance Matrix: (Units=1/GPa)
#
#
# Indices 1 2 3 4 5 6 
#
# 1 0.014119 -0.002088 -0.001971 0.000000 0.001669 0.000000
# 2 -0.002088 0.004907 -0.002243 0.000000 -0.003454 0.000000
# 3 -0.001971 -0.002243 0.007374 0.000000 0.000921 0.000000
# 4 0.000000 0.000000 0.000000 0.019080 0.000000 0.005805
# 5 0.001669 -0.003454 0.000921 0.000000 0.034197 0.000000
# 6 0.000000 0.000000 0.000000 0.005805 0.000000 0.026460
#
#
# Mechanical properties :
#
#
# Convention : Reuss Voigt Hill
#
# Bulk Modulus (GPa) = 72.48915 103.59135 88.04025
# Shear Modulus (GPa) = 40.53824 49.43642 44.98733
#
# Velocity S-wave (km/s) = 3.84442 4.24543 4.04989
# Velocity P-wave (km/s) = 6.79223 7.86124 7.34621
#
# Compressibility (1/GPa) = 0.01379517
#
# Stress axis : x y z
#
# Youngs Moduli (GPa) = 70.82542 203.79027 135.60909
#
# Poissons Ratio (x) = 0.42560 0.26735
# Poissons Ratio (y) = 0.14791 0.30413
# Poissons Ratio (z) = 0.13963 0.45703
#
# Static dielectric constant tensor:
#      x y z
#    x 4.330620 0.000000 -0.022580 
#    y 0.000000 9.004970 0.000000 
#    z -0.022580 0.000000 5.439090 
# 
# 
# High freq. dielectric constant tensor:
#      x y z
#    x 2.135220 0.000000 -0.030890 
#    y 0.000000 2.139370 0.000000 
#    z -0.030890 0.000000 2.099800 
# 
# From -- ./inp_files/32387.got.cif
#   From: 2010.06.25/outbox.cif.g09.slc.cpg/sg15_17_cif.got.tgz:32387.got - 2010.06.28 07:06:18.
