data_PCOD8155785
_publ_section_title
;
Structure prediction by ZEFSAII (Michael W. Deem and Ramdas Pophale) SiO2 
 PCOD8155785
Probable space group: P 21 21 2
;
_chemical_formula_sum "Si O2"
_cell_formula_units_Z 32
_cell_length_a 25.904236
_cell_length_b 5.200223
_cell_length_c 12.343716
_cell_angle_alpha 90.000000
_cell_angle_beta 90.000000
_cell_angle_gamma 90.000000
_cell_volume 1662.794874
_symmetry_space_group_name_H-M "P 21 21 2"
_symmetry_group_IT_number 18
_symmetry_cell_setting 'orthorhombic'
loop_
_space_group_symop_operation_xyz
x,y,z
-x,-y,z
1/2+x,1/2-y,-z
1/2-x,1/2+y,-z
loop_
_atom_site_type_symbol
_atom_site_label
_atom_site_fract_x
_atom_site_fract_y
_atom_site_fract_z
Si Si1 0.779059 0.291984 0.469125
Si Si2 0.202274 0.721665 0.219222
Si Si3 0.225654 0.309461 0.958265
Si Si4 0.608159 0.746888 0.499154
Si Si5 0.648834 0.277809 0.871750
Si Si6 0.017069 0.749950 0.638725
Si Si7 0.942861 0.746801 0.427727
Si Si8 0.030114 0.249318 0.183615
O O1 0.760205 0.582783 0.484260
O O2 0.790854 0.234109 0.345140
O O3 0.832358 0.258760 0.534164
O O4 0.260186 0.742422 0.166554
O O5 0.177149 0.443379 0.198012
O O6 0.164714 0.942295 0.172513
O O7 0.237496 0.611746 0.974749
O O8 0.167443 0.252296 0.001570
O O9 0.577708 0.749543 0.384566
O O10 0.595459 0.488961 0.565165
O O11 0.592513 0.993327 0.570255
O O12 0.587625 0.247434 0.864873
O O13 0.985717 0.749468 0.523036
O O14 0.000000 0.500000 0.706704
O O15 0.000000 0.000000 0.706576
O O16 0.971718 0.754771 0.313979
O O17 0.000000 0.500000 0.141016
O O18 0.000000 0.000000 0.139416
#
# Coordination Sequence:
#
# PCOD8155785 Si02
#       8
#     4   4   4   4   4   4   4   4
#     4  12  24  35  46  67  99 135 171 205 246 304
#     4  10  19  35  54  71  95 132 173 217 255 288
#     4   8  16  30  52  76  94 116 162 215 248 283
#     4  10  18  30  44  58  84 120 155 193 232 270
#     4  10  19  33  52  75 100 133 168 201 249 299
#     4   8  14  23  38  57  76  98 138 178 212 263
#     4  10  17  28  44  64  85 117 158 189 223 283
#     4  12  21  28  40  66 105 137 155 184 227 296
#
# _framework density 19.244709
#
# number of rings (size 3 to 8) (size 9 to 14) (size 15 to 20)
#    0.000    2.000    0.000    6.750    0.000    0.000 
#    0.000    0.000    0.000    0.000    0.000    0.000 
#    0.000   18.000    0.000    0.000    0.000    0.000 
#
# Total GULP energy -396514.472402 kJ/mol
# GULP energy per Si atom -12391.077263 kJ/mol
# Density = 1.920091 g / cm^3
# Si number density = 19.244709 Si / 1000 Ang^3
#
#
#
# Elastic Constant Matrix: (Units=GPa)
#
#
# Indices 1 2 3 4 5 6 
#
# 1 100.8745 27.9919 15.4742 0.0000 0.0000 0.0000
# 2 27.9919 149.2218 5.1862 0.0000 0.0000 0.0000
# 3 15.4742 5.1862 12.6973 0.0000 0.0000 0.0000
# 4 0.0000 0.0000 0.0000 14.3350 0.0000 0.0000
# 5 0.0000 0.0000 0.0000 0.0000 18.3483 0.0000
# 6 0.0000 0.0000 0.0000 0.0000 0.0000 31.0735
#
#
#
# Elastic Compliance Matrix: (Units=1/GPa)
#
#
# Indices 1 2 3 4 5 6 
#
# 1 0.012687 -0.001869 -0.014698 0.000000 0.000000 0.000000
# 2 -0.001869 0.007073 -0.000611 0.000000 0.000000 0.000000
# 3 -0.014698 -0.000611 0.096918 0.000000 0.000000 0.000000
# 4 0.000000 0.000000 0.000000 0.069759 0.000000 0.000000
# 5 0.000000 0.000000 0.000000 0.000000 0.054501 0.000000
# 6 0.000000 0.000000 0.000000 0.000000 0.000000 0.032182
#
#
# Mechanical properties :
#
#
# Convention : Reuss Voigt Hill
#
# Bulk Modulus (GPa) = 12.14739 40.01093 26.07916
# Shear Modulus (GPa) = 14.92906 27.02744 20.97825
#
# Velocity S-wave (km/s) = 2.78825 3.75161 3.30522
# Velocity P-wave (km/s) = 4.08553 6.29300 5.30535
#
# Compressibility (1/GPa) = 0.08232224
#
# Stress axis : x y z
#
# Youngs Moduli (GPa) = 78.82347 141.37715 10.31795
#
# Poissons Ratio (x) = 0.26423 0.15165
# Poissons Ratio (y) = 0.14732 0.00631
# Poissons Ratio (z) = 1.15852 0.08643
#
# Static dielectric constant tensor:
#      x y z
#    x 3.654890 0.000000 0.000000 
#    y 0.000000 5.073050 0.000000 
#    z 0.000000 0.000000 2.981580 
# 
# 
# High freq. dielectric constant tensor:
#      x y z
#    x 1.742480 0.000000 0.000000 
#    y 0.000000 1.788710 0.000000 
#    z 0.000000 0.000000 1.675580 
# 
# From -- ./inp_files/6324.got.cif
#   From: 2010.03.12/outbox.cif.g09.slc.cpg/sg18_4_cif.got.tgz:6324.got - 2010.04.10 18:53:55.
