data_PCOD8155262
_publ_section_title
;
Structure prediction by ZEFSAII (Michael W. Deem and Ramdas Pophale) SiO2 
 PCOD8155262
Probable space group: P 2 2 2
;
_chemical_formula_sum "Si O2"
_cell_formula_units_Z 32
_cell_length_a 11.741355
_cell_length_b 9.215725
_cell_length_c 15.216365
_cell_angle_alpha 90.000000
_cell_angle_beta 90.000000
_cell_angle_gamma 90.000000
_cell_volume 1646.488278
_symmetry_space_group_name_H-M "P 2 2 2"
_symmetry_group_IT_number 16
_symmetry_cell_setting 'orthorhombic'
loop_
_space_group_symop_operation_xyz
x,y,z
-x,-y,z
x,-y,-z
-x,y,-z
loop_
_atom_site_type_symbol
_atom_site_label
_atom_site_fract_x
_atom_site_fract_y
_atom_site_fract_z
Si Si1 0.347145 0.845705 0.153535
Si Si2 0.750804 0.826284 0.330475
Si Si3 0.700966 0.337306 0.981607
Si Si4 0.048244 0.661926 0.911082
Si Si5 0.609779 0.166082 0.834070
Si Si6 0.006359 0.170950 0.266411
Si Si7 0.630364 0.173435 0.496574
Si Si8 0.234427 0.830973 0.328462
O O1 0.477215 0.845351 0.185100
O O2 0.280383 0.775545 0.235098
O O3 0.324477 0.017235 0.138001
O O4 0.302345 0.756632 0.070345
O O5 0.673402 0.767363 0.250597
O O6 0.699305 0.762100 0.420346
O O7 0.881696 0.777430 0.319025
O O8 0.745565 0.998517 0.333363
O O9 0.816921 0.336133 0.925257
O O10 0.608093 0.272538 0.916736
O O11 0.663648 0.500000 0.000000
O O12 0.000000 0.500000 0.900002
O O13 0.005944 0.753305 0.828262
O O14 0.000000 0.734111 0.000000
O O15 0.899145 0.213776 0.328500
O O16 0.000000 0.000000 0.247647
O O17 0.500000 0.229612 0.500000
O O18 0.695756 0.236086 0.410445
O O19 0.631956 0.000000 0.500000
#
# Coordination Sequence:
#
# PCOD8155262 Si02
#       8
#     4   4   4   4   4   4   4   4
#     4  10  21  36  56  80 113 148 185 229 275 331
#     4   9  17  31  51  78 113 146 180 222 270 326
#     4  12  23  37  55  78 106 142 189 231 278 328
#     4  11  22  39  54  74 104 145 186 228 275 329
#     4  10  20  37  56  80 112 149 185 227 278 330
#     4  10  20  35  54  81 109 139 182 230 278 324
#     4   9  16  28  49  79 114 149 178 212 269 333
#     4   9  18  30  50  80 111 145 182 220 269 327
#
# _framework density 19.435305
#
# number of rings (size 3 to 8) (size 9 to 14) (size 15 to 20)
#    0.000    2.000    2.500    2.250    0.000    5.750 
#    2.250    2.500    0.000    0.000    0.000    4.375 
#    0.000    6.000    0.000    0.000    0.000    0.000 
#
# Total GULP energy -396583.992403 kJ/mol
# GULP energy per Si atom -12393.249763 kJ/mol
# Density = 1.939107 g / cm^3
# Si number density = 19.435305 Si / 1000 Ang^3
#
#
#
# Elastic Constant Matrix: (Units=GPa)
#
#
# Indices 1 2 3 4 5 6 
#
# 1 125.8568 20.4825 67.7167 0.0000 0.0000 0.0000
# 2 20.4825 44.4194 32.3288 0.0000 0.0000 0.0000
# 3 67.7167 32.3288 158.8012 0.0000 0.0000 0.0000
# 4 0.0000 0.0000 0.0000 2.9895 0.0000 0.0000
# 5 0.0000 0.0000 0.0000 0.0000 33.5363 0.0000
# 6 0.0000 0.0000 0.0000 0.0000 0.0000 14.4684
#
#
#
# Elastic Compliance Matrix: (Units=1/GPa)
#
#
# Indices 1 2 3 4 5 6 
#
# 1 0.010439 -0.001848 -0.004075 0.000000 0.000000 0.000000
# 2 -0.001848 0.026756 -0.004659 0.000000 0.000000 0.000000
# 3 -0.004075 -0.004659 0.008983 0.000000 0.000000 0.000000
# 4 0.000000 0.000000 0.000000 0.334508 0.000000 0.000000
# 5 0.000000 0.000000 0.000000 0.000000 0.029818 0.000000
# 6 0.000000 0.000000 0.000000 0.000000 0.000000 0.069116
#
#
# Mechanical properties :
#
#
# Convention : Reuss Voigt Hill
#
# Bulk Modulus (GPa) = 39.97738 63.34818 51.66278
# Shear Modulus (GPa) = 9.82083 24.10211 16.96147
#
# Velocity S-wave (km/s) = 2.25035 3.52535 2.95738
# Velocity P-wave (km/s) = 5.23127 7.01683 6.18879
#
# Compressibility (1/GPa) = 0.02501414
#
# Stress axis : x y z
#
# Youngs Moduli (GPa) = 95.79547 37.37546 111.31545
#
# Poissons Ratio (x) = 0.06905 0.45364
# Poissons Ratio (y) = 0.17698 0.51863
# Poissons Ratio (z) = 0.39039 0.17414
#
# Static dielectric constant tensor:
#      x y z
#    x 3.756980 0.000000 0.000000 
#    y 0.000000 3.194780 0.000000 
#    z 0.000000 0.000000 3.721760 
# 
# 
# High freq. dielectric constant tensor:
#      x y z
#    x 1.774840 0.000000 0.000000 
#    y 0.000000 1.700180 0.000000 
#    z 0.000000 0.000000 1.763250 
# 
# From -- ./inp_files/4876.got.cif
#   From: 2010.03.12/outbox.cif.g09.slc.cpg/sg16_3_cif.got.tgz:4876.got - 2010.03.31 00:51:45.
