data_PCOD8155769
_publ_section_title
;
Structure prediction by ZEFSAII (Michael W. Deem and Ramdas Pophale) SiO2 
 PCOD8155769
Probable space group: P 2 2 21
;
_chemical_formula_sum "Si O2"
_cell_formula_units_Z 16
_cell_length_a 8.069643
_cell_length_b 5.285959
_cell_length_c 15.568149
_cell_angle_alpha 90.000000
_cell_angle_beta 90.000000
_cell_angle_gamma 90.000000
_cell_volume 664.071882
_symmetry_space_group_name_H-M "P 2 2 21"
_symmetry_group_IT_number 17
_symmetry_cell_setting 'orthorhombic'
loop_
_space_group_symop_operation_xyz
x,y,z
-x,-y,1/2+z
x,-y,-z
-x,y,1/2-z
loop_
_atom_site_type_symbol
_atom_site_label
_atom_site_fract_x
_atom_site_fract_y
_atom_site_fract_z
Si Si1 0.948366 0.000000 0.000000
Si Si2 0.161803 0.643217 0.090034
Si Si3 0.000000 0.357116 0.250000
Si Si4 0.525356 0.266183 0.849587
Si Si5 0.271837 0.235478 0.372790
O O1 0.832795 0.218228 0.039776
O O2 0.061757 0.903952 0.078654
O O3 0.354042 0.701727 0.101088
O O4 0.079589 0.516682 0.172624
O O5 0.137053 0.500000 0.000000
O O6 0.847341 0.197347 0.210645
O O7 0.500000 0.300260 0.750000
O O8 0.649149 0.487419 0.878166
O O9 0.593348 0.987719 0.870395
#
# Coordination Sequence:
#
# PCOD8155769 Si02
#       5
#     2   4   2   4   4
#     4  12  30  48  82 118 162 218 278 340 408 484
#     4  12  29  53  80 121 165 216 276 337 411 489
#     4  12  26  56  82 114 166 216 276 338 408 490
#     4  12  29  49  80 117 161 212 269 335 413 489
#     4  12  29  50  79 116 161 212 269 335 405 485
#
# _framework density 24.093779000000001
#
# number of rings (size 3 to 8) (size 9 to 14) (size 15 to 20)
#    0.000    0.000    5.000    2.250   10.500    1.000 
#    0.000    0.000    0.000    0.000    0.000    0.000 
#    0.000    0.000    0.000    0.000    0.000    0.000 
#
# Total GULP energy -198392.103640 kJ/mol
# GULP energy per Si atom -12399.506477 kJ/mol
# Density = 2.403894 g / cm^3
# Si number density = 24.093779 Si / 1000 Ang^3
#
#
#
# Elastic Constant Matrix: (Units=GPa)
#
#
# Indices 1 2 3 4 5 6 
#
# 1 144.7845 29.3748 54.8341 0.0000 0.0000 0.0000
# 2 29.3748 79.7783 15.9723 0.0000 0.0000 0.0000
# 3 54.8341 15.9723 131.4707 0.0000 0.0000 0.0000
# 4 0.0000 0.0000 0.0000 54.8142 0.0000 0.0000
# 5 0.0000 0.0000 0.0000 0.0000 55.2325 0.0000
# 6 0.0000 0.0000 0.0000 0.0000 0.0000 32.5548
#
#
#
# Elastic Compliance Matrix: (Units=1/GPa)
#
#
# Indices 1 2 3 4 5 6 
#
# 1 0.008674 -0.002531 -0.003310 0.000000 0.000000 0.000000
# 2 -0.002531 0.013586 -0.000595 0.000000 0.000000 0.000000
# 3 -0.003310 -0.000595 0.009059 0.000000 0.000000 0.000000
# 4 0.000000 0.000000 0.000000 0.018243 0.000000 0.000000
# 5 0.000000 0.000000 0.000000 0.000000 0.018105 0.000000
# 6 0.000000 0.000000 0.000000 0.000000 0.000000 0.030717
#
#
# Mechanical properties :
#
#
# Convention : Reuss Voigt Hill
#
# Bulk Modulus (GPa) = 54.21066 61.82177 58.01621
# Shear Modulus (GPa) = 42.58709 45.57713 44.08211
#
# Velocity S-wave (km/s) = 4.20879 4.35403 4.28203
# Velocity P-wave (km/s) = 6.79465 7.14082 6.96989
#
# Compressibility (1/GPa) = 0.01844656
#
# Stress axis : x y z
#
# Youngs Moduli (GPa) = 115.28653 73.60631 110.38518
#
# Poissons Ratio (x) = 0.18630 0.36541
# Poissons Ratio (y) = 0.29180 0.06566
# Poissons Ratio (z) = 0.38163 0.04379
#
# Static dielectric constant tensor:
#      x y z
#    x 2.011810 0.000000 0.000000 
#    y 0.000000 4.290780 0.000000 
#    z 0.000000 0.000000 4.643040 
# 
# 
# High freq. dielectric constant tensor:
#      x y z
#    x 1.982700 0.000000 0.000000 
#    y 0.000000 1.953220 0.000000 
#    z 0.000000 0.000000 1.976080 
# 
# From -- ./inp_files/7883.got.cif
#   From: 2010.03.12/outbox.cif.g09.slc.cpg/sg17_4_cif.got.tgz:7883.got - 2010.04.10 18:46:23.
