data_PCOD8155554
_publ_section_title
;
Structure prediction by ZEFSAII (Michael W. Deem and Ramdas Pophale) SiO2 
 PCOD8155554
Probable space group: P 2 2 21
;
_chemical_formula_sum "Si O2"
_cell_formula_units_Z 22
_cell_length_a 12.205431
_cell_length_b 9.255169
_cell_length_c 9.221230
_cell_angle_alpha 90.000000
_cell_angle_beta 90.000000
_cell_angle_gamma 90.000000
_cell_volume 1041.660816
_symmetry_space_group_name_H-M "P 2 2 21"
_symmetry_group_IT_number 17
_symmetry_cell_setting 'orthorhombic'
loop_
_space_group_symop_operation_xyz
x,y,z
-x,-y,1/2+z
x,-y,-z
-x,y,1/2-z
loop_
_atom_site_type_symbol
_atom_site_label
_atom_site_fract_x
_atom_site_fract_y
_atom_site_fract_z
Si Si1 0.719212 0.500000 0.500000
Si Si2 0.059708 0.164645 0.991580
Si Si3 0.727371 0.749463 0.306716
Si Si4 0.209222 0.732040 0.790407
Si Si5 0.845897 0.336651 0.973752
Si Si6 0.394404 0.965473 0.837921
O O1 0.660726 0.631612 0.409530
O O2 0.786698 0.424166 0.370010
O O3 0.163442 0.197481 0.889062
O O4 0.955765 0.251441 0.933098
O O5 0.093316 0.203645 0.156627
O O6 0.024557 0.000000 0.000000
O O7 0.758014 0.676477 0.154364
O O8 0.653717 0.887495 0.268887
O O9 0.211560 0.724117 0.617912
O O10 0.308014 0.835544 0.840248
O O11 0.881329 0.500000 0.000000
O O12 0.500000 0.913656 0.750000
O O13 0.431202 0.000000 0.000000
#
# Coordination Sequence:
#
# PCOD8155554 Si02
#       6
#     2   4   4   4   4   4
#     4  10  20  42  74  84 134 188 196 266 344 382
#     4  11  23  42  64  93 135 184 223 264 324 394
#     4  11  23  45  67  95 139 174 218 277 331 387
#     4  11  23  45  67  95 139 174 218 277 331 387
#     4  12  27  37  63 107 137 176 229 261 317 398
#     4  12  26  48  75  99 124 172 229 279 341 394
#
# _framework density 21.120118000000002
#
# number of rings (size 3 to 8) (size 9 to 14) (size 15 to 20)
#    0.000    0.727    7.273    1.091   10.182    2.909 
#    0.000    0.909    4.000    0.000    0.000    0.000 
#    0.000    0.000    0.000    0.000    0.000    0.000 
#
# Total GULP energy -272628.576731 kJ/mol
# GULP energy per Si atom -12392.208033 kJ/mol
# Density = 2.107205 g / cm^3
# Si number density = 21.120118 Si / 1000 Ang^3
#
#
#
# Elastic Constant Matrix: (Units=GPa)
#
#
# Indices 1 2 3 4 5 6 
#
# 1 48.6204 14.7784 13.0629 0.0000 0.0000 0.0000
# 2 14.7784 124.4190 18.6432 0.0000 0.0000 0.0000
# 3 13.0629 18.6432 115.8511 0.0000 0.0000 0.0000
# 4 0.0000 0.0000 0.0000 31.8126 0.0000 0.0000
# 5 0.0000 0.0000 0.0000 0.0000 23.2277 0.0000
# 6 0.0000 0.0000 0.0000 0.0000 0.0000 -0.1299
#
#
#
# Elastic Compliance Matrix: (Units=1/GPa)
#
#
# Indices 1 2 3 4 5 6 
#
# 1 0.021823 -0.002278 -0.002094 0.000000 0.000000 0.000000
# 2 -0.002278 0.008474 -0.001107 0.000000 0.000000 0.000000
# 3 -0.002094 -0.001107 0.009046 0.000000 0.000000 0.000000
# 4 0.000000 0.000000 0.000000 0.031434 0.000000 0.000000
# 5 0.000000 0.000000 0.000000 0.000000 0.043052 0.000000
# 6 0.000000 0.000000 0.000000 0.000000 0.000000 -7.698136
#
#
# Mechanical properties :
#
#
# Convention : Reuss Voigt Hill
#
# Bulk Modulus (GPa) = 35.23078 42.42886 38.82982
# Shear Modulus (GPa) = -0.66104 27.14248 13.24072
#
# Velocity S-wave (km/s) = -0.56006 3.58879 2.50656
# Velocity P-wave (km/s) = 4.03722 6.10782 5.17709
#
# Compressibility (1/GPa) = 0.02838427
#
# Stress axis : x y z
#
# Youngs Moduli (GPa) = 45.82410 118.01067 110.54633
#
# Poissons Ratio (x) = 0.26886 0.23148
# Poissons Ratio (y) = 0.10440 0.12235
# Poissons Ratio (z) = 0.09596 0.13061
#
# Static dielectric constant tensor:
#      x y z
#    x 3.323210 0.000000 0.000000 
#    y 0.000000 4.135900 0.000000 
#    z 0.000000 0.000000 4.180050 
# 
# 
# High freq. dielectric constant tensor:
#      x y z
#    x 1.776810 0.000000 0.000000 
#    y 0.000000 1.851390 0.000000 
#    z 0.000000 0.000000 1.847400 
# 
# From -- ./inp_files/5106.got.cif
#   From: 2010.03.12/outbox.cif.g09.slc.cpg/sg17_3_cif.got.tgz:5106.got - 2010.04.10 18:46:23.
