data_PCOD8155551
_publ_section_title
;
Structure prediction by ZEFSAII (Michael W. Deem and Ramdas Pophale) SiO2 
 PCOD8155551
Probable space group: P 2 2 21
;
_chemical_formula_sum "Si O2"
_cell_formula_units_Z 32
_cell_length_a 12.168915
_cell_length_b 8.822210
_cell_length_c 13.920922
_cell_angle_alpha 90.000000
_cell_angle_beta 90.000000
_cell_angle_gamma 90.000000
_cell_volume 1494.504575
_symmetry_space_group_name_H-M "P 2 2 21"
_symmetry_group_IT_number 17
_symmetry_cell_setting 'orthorhombic'
loop_
_space_group_symop_operation_xyz
x,y,z
-x,-y,1/2+z
x,-y,-z
-x,y,1/2-z
loop_
_atom_site_type_symbol
_atom_site_label
_atom_site_fract_x
_atom_site_fract_y
_atom_site_fract_z
Si Si1 0.607442 0.328416 0.297646
Si Si2 0.268451 0.325470 0.593373
Si Si3 0.664742 0.179256 0.496322
Si Si4 0.111705 0.676779 0.007633
Si Si5 0.234699 0.657146 0.617010
Si Si6 0.018290 0.156000 0.360604
Si Si7 0.494042 0.601181 0.093246
Si Si8 0.052240 0.820098 0.354087
O O1 0.500000 0.251345 0.250000
O O2 0.652905 0.231863 0.386213
O O3 0.696644 0.324513 0.213784
O O4 0.575887 0.499145 0.332231
O O5 0.201959 0.481970 0.605839
O O6 0.295068 0.287997 0.481098
O O7 0.390030 0.343507 0.641317
O O8 0.185410 0.204973 0.643716
O O9 0.778524 0.238365 0.542491
O O10 0.570885 0.248379 0.563908
O O11 0.657480 0.000000 0.500000
O O12 0.083103 0.752053 0.905330
O O13 0.139151 0.500000 0.000000
O O14 0.009114 0.699211 0.078521
O O15 0.127524 0.755606 0.618430
O O16 0.000000 0.142753 0.250000
O O17 0.027920 0.984560 0.399900
O O18 0.522186 0.500000 0.000000
O O19 0.000000 0.800000 0.250000
#
# Coordination Sequence:
#
# PCOD8155551 Si02
#       8
#     4   4   4   4   4   4   4   4
#     4  11  21  42  70  99 131 181 239 281 340 418
#     4  11  21  41  65  99 135 172 228 292 341 407
#     4  11  25  44  68  98 140 185 228 287 359 419
#     4  12  24  44  70  97 133 181 232 285 337 412
#     4  11  21  37  67  97 130 172 226 285 339 405
#     4  11  24  42  65 100 139 182 224 279 353 421
#     4  10  20  42  67  96 133 180 227 287 348 407
#     4  11  26  44  66 100 142 184 226 282 354 420
#
# _framework density 21.411777000000001
#
# number of rings (size 3 to 8) (size 9 to 14) (size 15 to 20)
#    0.000    1.000    3.750    4.500    0.000    5.000 
#    4.500    0.625    0.000    0.000    0.000    0.000 
#    0.000    0.000    0.000    0.000    0.000    0.000 
#
# Total GULP energy -396650.571257 kJ/mol
# GULP energy per Si atom -12395.330352 kJ/mol
# Density = 2.136304 g / cm^3
# Si number density = 21.411777 Si / 1000 Ang^3
#
#
#
# Elastic Constant Matrix: (Units=GPa)
#
#
# Indices 1 2 3 4 5 6 
#
# 1 105.0054 54.3665 26.5610 0.0000 0.0000 0.0000
# 2 54.3665 136.6383 29.5275 0.0000 0.0000 0.0000
# 3 26.5610 29.5275 85.9835 0.0000 0.0000 0.0000
# 4 0.0000 0.0000 0.0000 27.0796 0.0000 0.0000
# 5 0.0000 0.0000 0.0000 0.0000 29.9887 0.0000
# 6 0.0000 0.0000 0.0000 0.0000 0.0000 -46.6139
#
#
#
# Elastic Compliance Matrix: (Units=1/GPa)
#
#
# Indices 1 2 3 4 5 6 
#
# 1 0.012404 -0.004437 -0.002308 0.000000 0.000000 0.000000
# 2 -0.004437 0.009492 -0.001889 0.000000 0.000000 0.000000
# 3 -0.002308 -0.001889 0.012992 0.000000 0.000000 0.000000
# 4 0.000000 0.000000 0.000000 0.036928 0.000000 0.000000
# 5 0.000000 0.000000 0.000000 0.000000 0.033346 0.000000
# 6 0.000000 0.000000 0.000000 0.000000 0.000000 -0.021453
#
#
# Mechanical properties :
#
#
# Convention : Reuss Voigt Hill
#
# Bulk Modulus (GPa) = 56.75284 60.94858 58.85071
# Shear Modulus (GPa) = 46.79409 16.56900 31.68155
#
# Velocity S-wave (km/s) = 4.67994 2.78479 3.85077
# Velocity P-wave (km/s) = 7.46762 6.23433 6.87867
#
# Compressibility (1/GPa) = 0.01762026
#
# Stress axis : x y z
#
# Youngs Moduli (GPa) = 80.61740 105.35029 76.97097
#
# Poissons Ratio (x) = 0.46741 0.17766
# Poissons Ratio (y) = 0.35767 0.14541
# Poissons Ratio (z) = 0.18608 0.19902
#
# Static dielectric constant tensor:
#      x y z
#    x 4.156230 0.000000 0.000000 
#    y 0.000000 3.990490 0.000000 
#    z 0.000000 0.000000 4.159150 
# 
# 
# High freq. dielectric constant tensor:
#      x y z
#    x 1.851110 0.000000 0.000000 
#    y 0.000000 1.826350 0.000000 
#    z 0.000000 0.000000 1.844700 
# 
# From -- ./inp_files/8539.got.cif
#   From: 2010.03.12/outbox.cif.g09.slc.cpg/sg17_5_cif.got.tgz:8539.got - 2010.04.10 18:46:23.
