data_PCOD8155688
_publ_section_title
;
Structure prediction by ZEFSAII (Michael W. Deem and Ramdas Pophale) SiO2 
 PCOD8155688
Probable space group: P 2 2 21
;
_chemical_formula_sum "Si O2"
_cell_formula_units_Z 16
_cell_length_a 5.319661
_cell_length_b 21.397521
_cell_length_c 5.400030
_cell_angle_alpha 90.000000
_cell_angle_beta 90.000000
_cell_angle_gamma 90.000000
_cell_volume 614.672228
_symmetry_space_group_name_H-M "P 2 2 21"
_symmetry_group_IT_number 17
_symmetry_cell_setting 'orthorhombic'
loop_
_space_group_symop_operation_xyz
x,y,z
-x,-y,1/2+z
x,-y,-z
-x,y,1/2-z
loop_
_atom_site_type_symbol
_atom_site_label
_atom_site_fract_x
_atom_site_fract_y
_atom_site_fract_z
Si Si1 0.754283 0.738790 0.886645
Si Si2 0.257513 0.132415 0.599569
Si Si3 0.500000 0.659616 0.250000
Si Si4 0.156458 0.000000 0.500000
Si Si5 0.154875 0.428730 0.999716
O O1 0.500000 0.720676 0.750000
O O2 0.000000 0.711566 0.750000
O O3 0.783077 0.814010 0.896915
O O4 0.727372 0.704481 0.152269
O O5 0.500000 0.154734 0.750000
O O6 0.000000 0.127739 0.750000
O O7 0.320966 0.063763 0.485468
O O8 0.602863 0.616365 0.475904
O O9 0.000000 0.001250 0.750000
O O10 0.000000 0.416403 0.750000
O O11 0.251676 0.500000 0.000000
O O12 0.000000 0.413327 0.250000
#
# Coordination Sequence:
#
# PCOD8155688 Si02
#       5
#     4   4   2   2   4
#     4  12  29  49  78 114 161 214 273 336 411 489
#     4  11  24  47  75 110 156 205 270 335 409 480
#     4  12  30  48  78 116 168 206 282 328 422 486
#     4  10  24  46  76 114 152 210 266 336 408 486
#     4  10  26  51  81 117 162 212 268 337 411 492
#
# _framework density 26.030132999999999
#
# number of rings (size 3 to 8) (size 9 to 14) (size 15 to 20)
#    0.000    1.000    1.250    2.250    7.000   10.000 
#    0.000    0.000    0.000    0.000    0.000    0.000 
#    0.000    0.000    0.000    0.000    0.000    0.000 
#
# Total GULP energy -198342.823142 kJ/mol
# GULP energy per Si atom -12396.426446 kJ/mol
# Density = 2.597089 g / cm^3
# Si number density = 26.030133 Si / 1000 Ang^3
#
#
#
# Elastic Constant Matrix: (Units=GPa)
#
#
# Indices 1 2 3 4 5 6 
#
# 1 158.2566 45.1605 50.7230 0.0000 0.0000 0.0000
# 2 45.1605 187.7336 45.9067 0.0000 0.0000 0.0000
# 3 50.7230 45.9067 144.7739 0.0000 0.0000 0.0000
# 4 0.0000 0.0000 0.0000 32.9245 0.0000 0.0000
# 5 0.0000 0.0000 0.0000 0.0000 48.6470 0.0000
# 6 0.0000 0.0000 0.0000 0.0000 0.0000 60.8339
#
#
#
# Elastic Compliance Matrix: (Units=1/GPa)
#
#
# Indices 1 2 3 4 5 6 
#
# 1 0.007374 -0.001238 -0.002191 0.000000 0.000000 0.000000
# 2 -0.001238 0.005982 -0.001463 0.000000 0.000000 0.000000
# 3 -0.002191 -0.001463 0.008139 0.000000 0.000000 0.000000
# 4 0.000000 0.000000 0.000000 0.030373 0.000000 0.000000
# 5 0.000000 0.000000 0.000000 0.000000 0.020556 0.000000
# 6 0.000000 0.000000 0.000000 0.000000 0.000000 0.016438
#
#
# Mechanical properties :
#
#
# Convention : Reuss Voigt Hill
#
# Bulk Modulus (GPa) = 85.39058 86.03828 85.71443
# Shear Modulus (GPa) = 48.75615 51.74602 50.25108
#
# Velocity S-wave (km/s) = 4.33259 4.46345 4.39851
# Velocity P-wave (km/s) = 7.60948 7.72582 7.66787
#
# Compressibility (1/GPa) = 0.01171089
#
# Stress axis : x y z
#
# Youngs Moduli (GPa) = 135.60326 167.15889 122.86605
#
# Poissons Ratio (x) = 0.20697 0.26921
# Poissons Ratio (y) = 0.16790 0.17977
# Poissons Ratio (z) = 0.29712 0.24458
#
# Static dielectric constant tensor:
#      x y z
#    x 4.424160 0.000000 0.000000 
#    y 0.000000 5.455220 0.000000 
#    z 0.000000 0.000000 1.875510 
# 
# 
# High freq. dielectric constant tensor:
#      x y z
#    x 2.028850 0.000000 0.000000 
#    y 0.000000 2.080840 0.000000 
#    z 0.000000 0.000000 2.033030 
# 
# From -- ./inp_files/235.got.cif
#   From: 2010.03.12/outbox.cif.g09.slc.cpg/sg17_1_cif.got.tgz:235.got - 2010.04.10 18:46:23.
