data_PCOD8155583
_publ_section_title
;
Structure prediction by ZEFSAII (Michael W. Deem and Ramdas Pophale) SiO2 
 PCOD8155583
Probable space group: P 2 2 21
;
_chemical_formula_sum "Si O2"
_cell_formula_units_Z 32
_cell_length_a 13.756022
_cell_length_b 12.072532
_cell_length_c 8.761470
_cell_angle_alpha 90.000000
_cell_angle_beta 90.000000
_cell_angle_gamma 90.000000
_cell_volume 1455.017461
_symmetry_space_group_name_H-M "P 2 2 21"
_symmetry_group_IT_number 17
_symmetry_cell_setting 'orthorhombic'
loop_
_space_group_symop_operation_xyz
x,y,z
-x,-y,1/2+z
x,-y,-z
-x,y,1/2-z
loop_
_atom_site_type_symbol
_atom_site_label
_atom_site_fract_x
_atom_site_fract_y
_atom_site_fract_z
Si Si1 0.175105 0.512537 0.177980
Si Si2 0.129797 0.341657 0.428690
Si Si3 0.598112 0.181616 0.914897
Si Si4 0.318432 0.586085 0.390855
Si Si5 0.949987 0.712004 0.393404
Si Si6 0.780756 0.890522 0.905145
Si Si7 0.192680 0.120996 0.050705
Si Si8 0.610223 0.116011 0.582466
O O1 0.131615 0.402572 0.262630
O O2 0.287511 0.531353 0.230656
O O3 0.114058 0.624726 0.203987
O O4 0.178421 0.500000 0.000000
O O5 0.214219 0.394075 0.529315
O O6 0.144057 0.208955 0.431579
O O7 0.023962 0.359167 0.501801
O O8 0.617513 0.306705 0.862725
O O9 0.611460 0.103362 0.766575
O O10 0.486813 0.179848 0.972867
O O11 0.670955 0.141891 0.045838
O O12 0.377123 0.500000 0.500000
O O13 0.892406 0.793613 0.508177
O O14 0.000000 0.778594 0.250000
O O15 0.781204 0.903753 0.725244
O O16 0.814382 0.000000 0.000000
O O17 0.288975 0.172878 0.969529
O O18 0.159535 0.000000 0.000000
O O19 0.608220 0.000000 0.500000
#
# Coordination Sequence:
#
# PCOD8155583 Si02
#       8
#     4   4   4   4   4   4   4   4
#     4  11  23  37  64  95 135 172 223 285 336 398
#     4  10  24  41  60  96 128 168 229 271 333 411
#     4  10  21  39  67  99 130 174 219 273 347 404
#     4   9  19  39  64  93 128 175 220 268 332 410
#     4  12  26  41  68  95 132 182 227 293 351 408
#     4  11  23  41  67  92 134 179 215 276 346 419
#     4  11  26  44  64  96 133 173 228 279 345 426
#     4  10  21  38  66  99 129 166 223 281 334 417
#
# _framework density 21.992864000000001
#
# number of rings (size 3 to 8) (size 9 to 14) (size 15 to 20)
#    0.000    1.500    1.250    3.375    5.250    4.500 
#    0.000    0.000    0.000   17.250    0.000    0.000 
#    0.000    0.000    0.000    0.000    0.000    0.000 
#
# Total GULP energy -396492.817639 kJ/mol
# GULP energy per Si atom -12390.400551 kJ/mol
# Density = 2.194281 g / cm^3
# Si number density = 21.992864 Si / 1000 Ang^3
#
#
#
# Elastic Constant Matrix: (Units=GPa)
#
#
# Indices 1 2 3 4 5 6 
#
# 1 70.9442 27.5801 33.4801 0.0000 0.0000 0.0000
# 2 27.5801 116.2933 35.1773 0.0000 0.0000 0.0000
# 3 33.4801 35.1773 129.7530 0.0000 0.0000 0.0000
# 4 0.0000 0.0000 0.0000 38.4475 0.0000 0.0000
# 5 0.0000 0.0000 0.0000 0.0000 19.4553 0.0000
# 6 0.0000 0.0000 0.0000 0.0000 0.0000 16.6816
#
#
#
# Elastic Compliance Matrix: (Units=1/GPa)
#
#
# Indices 1 2 3 4 5 6 
#
# 1 0.016921 -0.002933 -0.003571 0.000000 0.000000 0.000000
# 2 -0.002933 0.009875 -0.001921 0.000000 0.000000 0.000000
# 3 -0.003571 -0.001921 0.009149 0.000000 0.000000 0.000000
# 4 0.000000 0.000000 0.000000 0.026009 0.000000 0.000000
# 5 0.000000 0.000000 0.000000 0.000000 0.051400 0.000000
# 6 0.000000 0.000000 0.000000 0.000000 0.000000 0.059946
#
#
# Mechanical properties :
#
#
# Convention : Reuss Voigt Hill
#
# Bulk Modulus (GPa) = 52.36501 56.60727 54.48614
# Shear Modulus (GPa) = 25.44327 29.63373 27.53850
#
# Velocity S-wave (km/s) = 3.40499 3.67471 3.54242
# Velocity P-wave (km/s) = 6.27059 6.61812 6.44670
#
# Compressibility (1/GPa) = 0.01909672
#
# Stress axis : x y z
#
# Youngs Moduli (GPa) = 59.09835 101.26126 109.30080
#
# Poissons Ratio (x) = 0.29698 0.39031
# Poissons Ratio (y) = 0.17332 0.20992
# Poissons Ratio (z) = 0.21104 0.19448
#
# Static dielectric constant tensor:
#      x y z
#    x 4.230070 0.000000 0.000000 
#    y 0.000000 4.192150 0.000000 
#    z 0.000000 0.000000 4.123570 
# 
# 
# High freq. dielectric constant tensor:
#      x y z
#    x 1.850880 0.000000 0.000000 
#    y 0.000000 1.861110 0.000000 
#    z 0.000000 0.000000 1.878650 
# 
# From -- ./inp_files/5254.got.cif
#   From: 2010.03.12/outbox.cif.g09.slc.cpg/sg17_3_cif.got.tgz:5254.got - 2010.04.10 18:46:23.
