data_PCOD8155330
_publ_section_title
;
Structure prediction by ZEFSAII (Michael W. Deem and Ramdas Pophale) SiO2 
 PCOD8155330
Probable space group: P 2 2 2
;
_chemical_formula_sum "Si O2"
_cell_formula_units_Z 16
_cell_length_a 5.731065
_cell_length_b 22.108421
_cell_length_c 5.008136
_cell_angle_alpha 90.000000
_cell_angle_beta 90.000000
_cell_angle_gamma 90.000000
_cell_volume 634.554859
_symmetry_space_group_name_H-M "P 2 2 2"
_symmetry_group_IT_number 16
_symmetry_cell_setting 'orthorhombic'
loop_
_space_group_symop_operation_xyz
x,y,z
-x,-y,z
x,-y,-z
-x,y,-z
loop_
_atom_site_type_symbol
_atom_site_label
_atom_site_fract_x
_atom_site_fract_y
_atom_site_fract_z
Si Si1 0.343812 0.588519 0.742141
Si Si2 0.339233 0.906049 0.245688
Si Si3 0.000000 0.500000 0.000000
Si Si4 0.000000 0.809437 0.000000
Si Si5 0.000000 0.000000 0.500000
Si Si6 0.657952 0.276273 0.740806
O O1 0.500000 0.563930 0.500000
O O2 0.246773 0.655941 0.678863
O O3 0.137814 0.541985 0.793768
O O4 0.500000 0.591151 0.000000
O O5 0.500000 0.889650 0.500000
O O6 0.190456 0.848135 0.159382
O O7 0.500000 0.927262 0.000000
O O8 0.162759 0.960003 0.310587
O O9 0.877499 0.767791 0.222662
O O10 0.500000 0.251815 0.500000
O O11 0.500000 0.275687 0.000000
#
# Coordination Sequence:
#
# PCOD8155330 Si02
#       6
#     4   4   1   2   1   4
#     4  10  24  45  68 104 145 188 245 303 362 435
#     4  12  30  51  76 113 151 189 244 304 357 429
#     4  12  24  42  76 104 142 198 242 304 376 436
#     4  12  27  47  78 113 145 194 244 298 372 436
#     4  12  30  54  80 104 148 206 242 288 368 436
#     4  10  24  46  72 103 146 192 241 301 363 435
#
# _framework density 25.214525999999999
#
# number of rings (size 3 to 8) (size 9 to 14) (size 15 to 20)
#    0.000    1.000    0.000    3.750    0.000   22.500 
#    0.000    7.500    0.000    4.500    0.000    0.000 
#    0.000    0.000    0.000    0.000    0.000    0.000 
#
# Total GULP energy -198490.047821 kJ/mol
# GULP energy per Si atom -12405.627989 kJ/mol
# Density = 2.515714 g / cm^3
# Si number density = 25.214526 Si / 1000 Ang^3
#
#
#
# Elastic Constant Matrix: (Units=GPa)
#
#
# Indices 1 2 3 4 5 6 
#
# 1 180.2813 113.5305 91.8858 0.0000 0.0000 0.0000
# 2 113.5305 180.2079 65.6406 0.0000 0.0000 0.0000
# 3 91.8858 65.6406 189.8375 0.0000 0.0000 0.0000
# 4 0.0000 0.0000 0.0000 -13.0249 0.0000 0.0000
# 5 0.0000 0.0000 0.0000 0.0000 46.4240 0.0000
# 6 0.0000 0.0000 0.0000 0.0000 0.0000 50.6683
#
#
#
# Elastic Compliance Matrix: (Units=1/GPa)
#
#
# Indices 1 2 3 4 5 6 
#
# 1 0.010710 -0.005559 -0.003262 0.000000 0.000000 0.000000
# 2 -0.005559 0.009234 -0.000502 0.000000 0.000000 0.000000
# 3 -0.003262 -0.000502 0.007020 0.000000 0.000000 0.000000
# 4 0.000000 0.000000 0.000000 -0.076776 0.000000 0.000000
# 5 0.000000 0.000000 0.000000 0.000000 0.021541 0.000000
# 6 0.000000 0.000000 0.000000 0.000000 0.000000 0.019736
#
#
# Mechanical properties :
#
#
# Convention : Reuss Voigt Hill
#
# Bulk Modulus (GPa) = 120.21765 121.38227 120.79996
# Shear Modulus (GPa) = 388.05093 35.43148 211.74121
#
# Velocity S-wave (km/s) = 12.41909 3.75267 9.17378
# Velocity P-wave (km/s) = 15.91938 8.18664 12.65795
#
# Compressibility (1/GPa) = 0.00831825
#
# Stress axis : x y z
#
# Youngs Moduli (GPa) = 93.36805 108.29023 142.44893
#
# Poissons Ratio (x) = 0.60203 0.46463
# Poissons Ratio (y) = 0.51907 0.07153
# Poissons Ratio (z) = 0.30454 0.05438
#
# Static dielectric constant tensor:
#      x y z
#    x 4.670980 0.000000 0.000000 
#    y 0.000000 5.176430 0.000000 
#    z 0.000000 0.000000 4.522220 
# 
# 
# High freq. dielectric constant tensor:
#      x y z
#    x 2.008850 0.000000 0.000000 
#    y 0.000000 2.026100 0.000000 
#    z 0.000000 0.000000 2.021260 
# 
# From -- ./inp_files/296.got.cif
#   From: 2010.03.12/outbox.cif.g09.slc.cpg/sg16_1_cif.got.tgz:296.got - 2010.03.31 00:51:45.
