data_PCOD8155301
_publ_section_title
;
Structure prediction by ZEFSAII (Michael W. Deem and Ramdas Pophale) SiO2 
 PCOD8155301
Probable space group: P 2 2 2
;
_chemical_formula_sum "Si O2"
_cell_formula_units_Z 32
_cell_length_a 11.645213
_cell_length_b 9.214242
_cell_length_c 14.651616
_cell_angle_alpha 90.000000
_cell_angle_beta 90.000000
_cell_angle_gamma 90.000000
_cell_volume 1572.144927
_symmetry_space_group_name_H-M "P 2 2 2"
_symmetry_group_IT_number 16
_symmetry_cell_setting 'orthorhombic'
loop_
_space_group_symop_operation_xyz
x,y,z
-x,-y,z
x,-y,-z
-x,y,-z
loop_
_atom_site_type_symbol
_atom_site_label
_atom_site_fract_x
_atom_site_fract_y
_atom_site_fract_z
Si Si1 0.507679 0.331427 0.775482
Si Si2 0.133198 0.829339 0.011907
Si Si3 0.198878 0.161372 0.473306
Si Si4 0.754066 0.340250 0.850579
Si Si5 0.452772 0.162274 0.407193
Si Si6 0.100725 0.329947 0.324038
Si Si7 0.265271 0.674877 0.164799
Si Si8 0.159466 0.641195 0.351359
O O1 0.500000 0.500000 0.750255
O O2 0.624278 0.293468 0.828272
O O3 0.503227 0.247853 0.680140
O O4 0.401610 0.289127 0.843018
O O5 0.183866 0.786333 0.110777
O O6 0.210733 0.743125 0.940924
O O7 0.000000 0.784295 0.000000
O O8 0.148773 0.000000 0.000000
O O9 0.316648 0.166118 0.417171
O O10 0.104550 0.204185 0.399200
O O11 0.191588 0.268536 0.559529
O O12 0.167745 0.000000 0.500000
O O13 0.839283 0.288416 0.770727
O O14 0.763925 0.512194 0.868457
O O15 0.500000 0.235627 0.500000
O O16 0.500000 0.000000 0.398643
O O17 0.167498 0.468107 0.369486
O O18 0.966407 0.345226 0.307003
O O19 0.245628 0.691719 0.272955
#
# Coordination Sequence:
#
# PCOD8155301 Si02
#       8
#     4   4   4   4   4   4   4   4
#     4  10  22  41  65  95 120 153 206 255 304 361
#     4  11  25  43  65  95 127 162 204 247 299 366
#     4  12  23  37  57  85 121 164 211 250 308 366
#     4  10  21  41  67  93 125 158 201 257 309 364
#     4  11  22  39  56  82 121 167 206 252 302 361
#     4  10  21  40  62  89 121 162 207 261 313 362
#     4  10  22  40  66  95 122 159 203 253 310 363
#     4  10  22  39  62  89 122 160 210 260 310 367
#
# _framework density 20.354358000000001
#
# number of rings (size 3 to 8) (size 9 to 14) (size 15 to 20)
#    0.000    1.500    2.500    2.625    0.000    6.750 
#    2.250    2.500    0.000    0.000    0.000    0.000 
#    0.000    0.000    0.000    0.000    0.000    0.000 
#
# Total GULP energy -396749.851864 kJ/mol
# GULP energy per Si atom -12398.432871 kJ/mol
# Density = 2.030803 g / cm^3
# Si number density = 20.354358 Si / 1000 Ang^3
#
#
#
# Elastic Constant Matrix: (Units=GPa)
#
#
# Indices 1 2 3 4 5 6 
#
# 1 107.8096 25.7516 32.3410 0.0000 0.0000 0.0000
# 2 25.7516 66.5661 34.9860 0.0000 0.0000 0.0000
# 3 32.3410 34.9860 75.2020 0.0000 0.0000 0.0000
# 4 0.0000 0.0000 0.0000 40.8232 0.0000 0.0000
# 5 0.0000 0.0000 0.0000 0.0000 75.2238 0.0000
# 6 0.0000 0.0000 0.0000 0.0000 0.0000 26.2010
#
#
#
# Elastic Compliance Matrix: (Units=1/GPa)
#
#
# Indices 1 2 3 4 5 6 
#
# 1 0.010914 -0.002323 -0.003613 0.000000 0.000000 0.000000
# 2 -0.002323 0.020379 -0.008482 0.000000 0.000000 0.000000
# 3 -0.003613 -0.008482 0.018797 0.000000 0.000000 0.000000
# 4 0.000000 0.000000 0.000000 0.024496 0.000000 0.000000
# 5 0.000000 0.000000 0.000000 0.000000 0.013294 0.000000
# 6 0.000000 0.000000 0.000000 0.000000 0.000000 0.038166
#
#
# Mechanical properties :
#
#
# Convention : Reuss Voigt Hill
#
# Bulk Modulus (GPa) = 47.04837 48.41501 47.73169
# Shear Modulus (GPa) = 30.87023 38.88285 34.87654
#
# Velocity S-wave (km/s) = 3.89863 4.37544 4.14390
# Velocity P-wave (km/s) = 6.59019 7.02592 6.81154
#
# Compressibility (1/GPa) = 0.02125472
#
# Stress axis : x y z
#
# Youngs Moduli (GPa) = 91.62207 49.06908 53.19932
#
# Poissons Ratio (x) = 0.11401 0.19220
# Poissons Ratio (y) = 0.21288 0.45123
# Poissons Ratio (z) = 0.33102 0.41620
#
# Static dielectric constant tensor:
#      x y z
#    x 3.904900 0.000000 0.000000 
#    y 0.000000 3.244680 0.000000 
#    z 0.000000 0.000000 3.565850 
# 
# 
# High freq. dielectric constant tensor:
#      x y z
#    x 1.813480 0.000000 0.000000 
#    y 0.000000 1.785290 0.000000 
#    z 0.000000 0.000000 1.792900 
# 
# From -- ./inp_files/6636.got.cif
#   From: 2010.03.12/outbox.cif.g09.slc.cpg/sg16_4_cif.got.tgz:6636.got - 2010.03.31 00:51:45.
