data_PCOD8155913
_publ_section_title
;
Structure prediction by ZEFSAII (Michael W. Deem and Ramdas Pophale) SiO2 
 PCOD8155913
Probable space group: P 21 21 2
;
_chemical_formula_sum "Si O2"
_cell_formula_units_Z 24
_cell_length_a 14.861507
_cell_length_b 9.477421
_cell_length_c 9.042301
_cell_angle_alpha 90.000000
_cell_angle_beta 90.000000
_cell_angle_gamma 90.000000
_cell_volume 1273.596870
_symmetry_space_group_name_H-M "P 21 21 2"
_symmetry_group_IT_number 18
_symmetry_cell_setting 'orthorhombic'
loop_
_space_group_symop_operation_xyz
x,y,z
-x,-y,z
1/2+x,1/2-y,-z
1/2-x,1/2+y,-z
loop_
_atom_site_type_symbol
_atom_site_label
_atom_site_fract_x
_atom_site_fract_y
_atom_site_fract_z
Si Si1 0.759487 0.967577 0.848423
Si Si2 0.818278 0.754394 0.085498
Si Si3 0.930120 0.876343 0.664911
Si Si4 0.979774 0.656642 0.898650
Si Si5 0.546112 0.350013 0.665694
Si Si6 0.434098 0.132873 0.814600
O O1 0.837150 0.927153 0.734753
O O2 0.666585 0.912882 0.777634
O O3 0.756209 0.138069 0.865874
O O4 0.773919 0.888474 0.004587
O O5 0.872512 0.820346 0.222261
O O6 0.882276 0.665836 0.976076
O O7 0.979826 0.753944 0.755428
O O8 0.912161 0.829056 0.496925
O O9 0.000000 0.000000 0.663557
O O10 0.000000 0.500000 0.840913
O O11 0.054688 0.704188 0.021302
O O12 0.500000 0.500000 0.694433
O O13 0.465228 0.238860 0.686993
O O14 0.500000 0.000000 0.818302
#
# Coordination Sequence:
#
# PCOD8155913 Si02
#       6
#     4   4   4   4   4   4
#     4  11  22  39  62  95 118 158 204 257 304 362
#     4  10  22  37  63  90 118 153 207 248 307 362
#     4  10  24  40  57  88 128 161 199 245 306 368
#     4   9  17  36  58  85 116 147 201 252 292 350
#     4  10  22  43  58  85 125 166 202 244 306 365
#     4  10  19  39  65  87 119 156 208 256 298 359
#
# _framework density 18.844266999999999
#
# number of rings (size 3 to 8) (size 9 to 14) (size 15 to 20)
#    0.000    2.000    5.000    0.000    4.667    5.333 
#    6.000    0.000    0.000    0.000    0.000    0.000 
#    0.000    0.000    0.000    0.000    0.000    0.000 
#
# Total GULP energy -297515.276669 kJ/mol
# GULP energy per Si atom -12396.469861 kJ/mol
# Density = 1.880138 g / cm^3
# Si number density = 18.844267 Si / 1000 Ang^3
#
#
#
# Elastic Constant Matrix: (Units=GPa)
#
#
# Indices 1 2 3 4 5 6 
#
# 1 83.2634 13.6554 42.5560 0.0000 0.0000 0.0000
# 2 13.6554 75.9970 64.9096 0.0000 0.0000 0.0000
# 3 42.5560 64.9096 128.5877 0.0000 0.0000 0.0000
# 4 0.0000 0.0000 0.0000 6.3996 0.0000 0.0000
# 5 0.0000 0.0000 0.0000 0.0000 21.6063 0.0000
# 6 0.0000 0.0000 0.0000 0.0000 0.0000 34.3939
#
#
#
# Elastic Compliance Matrix: (Units=1/GPa)
#
#
# Indices 1 2 3 4 5 6 
#
# 1 0.014757 0.002672 -0.006233 0.000000 0.000000 0.000000
# 2 0.002672 0.023615 -0.012805 0.000000 0.000000 0.000000
# 3 -0.006233 -0.012805 0.016303 0.000000 0.000000 0.000000
# 4 0.000000 0.000000 0.000000 0.156261 0.000000 0.000000
# 5 0.000000 0.000000 0.000000 0.000000 0.046283 0.000000
# 6 0.000000 0.000000 0.000000 0.000000 0.000000 0.029075
#
#
# Mechanical properties :
#
#
# Convention : Reuss Voigt Hill
#
# Bulk Modulus (GPa) = 45.57025 58.89890 52.23457
# Shear Modulus (GPa) = 15.32143 23.59508 19.45825
#
# Velocity S-wave (km/s) = 2.85451 3.54235 3.21687
# Velocity P-wave (km/s) = 5.92447 6.93214 6.44802
#
# Compressibility (1/GPa) = 0.02194414
#
# Stress axis : x y z
#
# Youngs Moduli (GPa) = 67.76268 42.34601 61.33791
#
# Poissons Ratio (x) = -0.11313 0.38229
# Poissons Ratio (y) = -0.18103 0.78542
# Poissons Ratio (z) = 0.42233 0.54223
#
# Static dielectric constant tensor:
#      x y z
#    x 6.918760 0.000000 0.000000 
#    y 0.000000 3.666830 0.000000 
#    z 0.000000 0.000000 3.633650 
# 
# 
# High freq. dielectric constant tensor:
#      x y z
#    x 1.729670 0.000000 0.000000 
#    y 0.000000 1.741720 0.000000 
#    z 0.000000 0.000000 1.718840 
# 
# From -- ./inp_files/4477.got.cif
#   From: 2010.03.12/outbox.cif.g09.slc.cpg/sg18_3_cif.got.tgz:4477.got - 2010.04.10 18:53:55.
