data_PCOD8155419
_publ_section_title
;
Structure prediction by ZEFSAII (Michael W. Deem and Ramdas Pophale) SiO2 
 PCOD8155419
Probable space group: P 2 2 21
;
_chemical_formula_sum "Si O2"
_cell_formula_units_Z 32
_cell_length_a 21.094007
_cell_length_b 16.299938
_cell_length_c 5.009152
_cell_angle_alpha 90.000000
_cell_angle_beta 90.000000
_cell_angle_gamma 90.000000
_cell_volume 1722.301773
_symmetry_space_group_name_H-M "P 2 2 21"
_symmetry_group_IT_number 17
_symmetry_cell_setting 'orthorhombic'
loop_
_space_group_symop_operation_xyz
x,y,z
-x,-y,1/2+z
x,-y,-z
-x,y,1/2-z
loop_
_atom_site_type_symbol
_atom_site_label
_atom_site_fract_x
_atom_site_fract_y
_atom_site_fract_z
Si Si1 0.672935 0.185213 0.392793
Si Si2 0.573698 0.054555 0.252575
Si Si3 0.246232 0.554377 0.240497
Si Si4 0.959922 0.288079 0.978209
Si Si5 0.290382 0.725542 0.392057
Si Si6 0.104798 0.445748 0.756371
Si Si7 0.803379 0.093419 0.415262
Si Si8 0.839985 0.817091 0.084856
O O1 0.611359 0.139176 0.280600
O O2 0.665083 0.223511 0.687168
O O3 0.730645 0.121628 0.412063
O O4 0.683954 0.261039 0.190429
O O5 0.500000 0.078144 0.250000
O O6 0.592693 0.000000 0.500000
O O7 0.593916 0.000000 0.000000
O O8 0.243015 0.500000 0.500000
O O9 0.291694 0.631187 0.301514
O O10 0.175243 0.585016 0.156446
O O11 0.275234 0.500000 0.000000
O O12 0.940438 0.371369 0.823367
O O13 0.899121 0.232748 0.034487
O O14 0.000000 0.240617 0.750000
O O15 0.000000 0.303852 0.250000
O O16 0.218125 0.754898 0.397839
O O17 0.113540 0.500000 0.500000
O O18 0.075034 0.500000 0.000000
O O19 0.847507 0.144905 0.620482
O O20 0.806368 0.000000 0.500000
O O21 0.829514 0.107363 0.118147
#
# Coordination Sequence:
#
# PCOD8155419 Si02
#       8
#     4   4   4   4   4   4   4   4
#     4  10  20  31  53  81 111 142 178 223 257 310
#     4  10  20  34  52  77 117 161 192 218 256 315
#     4  10  19  32  53  76 106 140 168 207 267 331
#     4  12  24  38  57  75 100 136 173 214 256 322
#     4  10  19  34  52  78 109 137 175 223 268 311
#     4  10  21  36  54  76 101 132 166 205 252 315
#     4  10  20  34  57  79 101 132 166 220 270 316
#     4  10  21  37  53  76 104 128 170 212 270 326
#
# _framework density 18.579785000000001
#
# number of rings (size 3 to 8) (size 9 to 14) (size 15 to 20)
#    0.000    1.750    1.250    3.750    0.000    3.000 
#    0.000    0.000    0.000    7.500    0.000    0.000 
#    0.000   10.000    0.000    0.000    0.000    0.000 
#
# Total GULP energy -396654.766487 kJ/mol
# GULP energy per Si atom -12395.461453 kJ/mol
# Density = 1.853750 g / cm^3
# Si number density = 18.579785 Si / 1000 Ang^3
#
#
#
# Elastic Constant Matrix: (Units=GPa)
#
#
# Indices 1 2 3 4 5 6 
#
# 1 55.7220 35.4032 23.9197 0.0000 0.0000 0.0000
# 2 35.4032 94.6563 33.2350 0.0000 0.0000 0.0000
# 3 23.9197 33.2350 117.9554 0.0000 0.0000 0.0000
# 4 0.0000 0.0000 0.0000 21.3976 0.0000 0.0000
# 5 0.0000 0.0000 0.0000 0.0000 26.2345 0.0000
# 6 0.0000 0.0000 0.0000 0.0000 0.0000 22.6357
#
#
#
# Elastic Compliance Matrix: (Units=1/GPa)
#
#
# Indices 1 2 3 4 5 6 
#
# 1 0.024249 -0.008149 -0.002621 0.000000 0.000000 0.000000
# 2 -0.008149 0.014463 -0.002423 0.000000 0.000000 0.000000
# 3 -0.002621 -0.002423 0.009692 0.000000 0.000000 0.000000
# 4 0.000000 0.000000 0.000000 0.046734 0.000000 0.000000
# 5 0.000000 0.000000 0.000000 0.000000 0.038118 0.000000
# 6 0.000000 0.000000 0.000000 0.000000 0.000000 0.044178
#
#
# Mechanical properties :
#
#
# Convention : Reuss Voigt Hill
#
# Bulk Modulus (GPa) = 45.41739 50.38326 47.90033
# Shear Modulus (GPa) = 23.67878 25.77195 24.72537
#
# Velocity S-wave (km/s) = 3.57380 3.72841 3.65193
# Velocity P-wave (km/s) = 6.44414 6.76098 6.60446
#
# Compressibility (1/GPa) = 0.02201800
#
# Stress axis : x y z
#
# Youngs Moduli (GPa) = 41.23862 69.14147 103.17885
#
# Poissons Ratio (x) = 0.56345 0.27046
# Poissons Ratio (y) = 0.33606 0.24996
# Poissons Ratio (z) = 0.10810 0.16750
#
# Static dielectric constant tensor:
#      x y z
#    x 3.223700 0.000000 0.000000 
#    y 0.000000 3.162790 0.000000 
#    z 0.000000 0.000000 3.715200 
# 
# 
# High freq. dielectric constant tensor:
#      x y z
#    x 1.680320 0.000000 0.000000 
#    y 0.000000 1.709210 0.000000 
#    z 0.000000 0.000000 1.747700 
# 
# From -- ./inp_files/2725.got.cif
#   From: 2010.03.12/outbox.cif.g09.slc.cpg/sg17_2_cif.got.tgz:2725.got - 2010.04.10 18:46:23.
