data_PCOD8155712
_publ_section_title
;
Structure prediction by ZEFSAII (Michael W. Deem and Ramdas Pophale) SiO2 
 PCOD8155712
Probable space group: P 2 2 21
;
_chemical_formula_sum "Si O2"
_cell_formula_units_Z 30
_cell_length_a 10.742523
_cell_length_b 6.508731
_cell_length_c 19.940560
_cell_angle_alpha 90.000000
_cell_angle_beta 90.000000
_cell_angle_gamma 90.000000
_cell_volume 1394.247793
_symmetry_space_group_name_H-M "P 2 2 21"
_symmetry_group_IT_number 17
_symmetry_cell_setting 'orthorhombic'
loop_
_space_group_symop_operation_xyz
x,y,z
-x,-y,1/2+z
x,-y,-z
-x,y,1/2-z
loop_
_atom_site_type_symbol
_atom_site_label
_atom_site_fract_x
_atom_site_fract_y
_atom_site_fract_z
Si Si1 0.256291 0.645892 0.562514
Si Si2 0.500000 0.523334 0.250000
Si Si3 0.948977 0.974634 0.929956
Si Si4 0.344866 0.194715 0.184381
Si Si5 0.889067 0.351265 0.849325
Si Si6 0.665657 0.131931 0.803009
Si Si7 0.527754 0.080122 0.076271
Si Si8 0.060533 0.293784 0.183942
O O1 0.231551 0.500000 0.500000
O O2 0.182622 0.861775 0.555715
O O3 0.208211 0.526823 0.628049
O O4 0.402225 0.700177 0.569835
O O5 0.435342 0.384517 0.194408
O O6 0.402336 0.657512 0.289559
O O7 0.029095 0.839243 0.880263
O O8 0.938513 0.211090 0.908790
O O9 0.022221 0.000000 0.000000
O O10 0.392498 0.097278 0.113490
O O11 0.208607 0.292861 0.185293
O O12 0.360179 0.032481 0.244795
O O13 0.813225 0.190148 0.802032
O O14 0.007246 0.471548 0.817794
O O15 0.618843 0.056962 0.876189
O O16 0.508248 0.000000 0.000000
O O17 0.000000 0.188728 0.250000
#
# Coordination Sequence:
#
# PCOD8155712 Si02
#       8
#     4   2   4   4   4   4   4   4
#     4  11  21  39  69 107 141 176 232 296 352 419
#     4  12  22  44  76  94 134 188 244 278 366 424
#     4  11  22  42  71  99 141 184 240 293 351 423
#     4  12  26  48  69 102 147 184 242 301 357 439
#     4  11  23  39  71 102 134 181 236 293 358 406
#     4  12  23  44  74 102 136 191 238 294 353 422
#     4  12  24  43  70 109 145 184 230 291 365 430
#     4  11  27  44  66 102 140 189 240 300 356 430
#
# _framework density 21.516981000000001
#
# number of rings (size 3 to 8) (size 9 to 14) (size 15 to 20)
#    0.000    0.533    5.333    3.600    1.867    3.200 
#    0.000    0.000    5.867    0.000    0.000    0.000 
#    0.000    0.000    0.000    0.000    0.000    0.000 
#
# Total GULP energy -371751.250991 kJ/mol
# GULP energy per Si atom -12391.708366 kJ/mol
# Density = 2.146801 g / cm^3
# Si number density = 21.516981 Si / 1000 Ang^3
#
#
#
# Elastic Constant Matrix: (Units=GPa)
#
#
# Indices 1 2 3 4 5 6 
#
# 1 119.2312 39.9610 43.5934 0.0000 0.0000 0.0000
# 2 39.9610 108.0322 49.3857 0.0000 0.0000 0.0000
# 3 43.5934 49.3857 141.2259 0.0000 0.0000 0.0000
# 4 0.0000 0.0000 0.0000 25.8357 0.0000 0.0000
# 5 0.0000 0.0000 0.0000 0.0000 24.8376 0.0000
# 6 0.0000 0.0000 0.0000 0.0000 0.0000 -156.5463
#
#
#
# Elastic Compliance Matrix: (Units=1/GPa)
#
#
# Indices 1 2 3 4 5 6 
#
# 1 0.010097 -0.002750 -0.002155 0.000000 0.000000 0.000000
# 2 -0.002750 0.011767 -0.003266 0.000000 0.000000 0.000000
# 3 -0.002155 -0.003266 0.008888 0.000000 0.000000 0.000000
# 4 0.000000 0.000000 0.000000 0.038706 0.000000 0.000000
# 5 0.000000 0.000000 0.000000 0.000000 0.040262 0.000000
# 6 0.000000 0.000000 0.000000 0.000000 0.000000 -0.006388
#
#
# Mechanical properties :
#
#
# Convention : Reuss Voigt Hill
#
# Bulk Modulus (GPa) = 69.39582 70.48551 69.94067
# Shear Modulus (GPa) = 40.16856 -5.47131 17.34862
#
# Velocity S-wave (km/s) = 4.32537 -1.59634 2.84258
# Velocity P-wave (km/s) = 7.56748 5.42508 6.58400
#
# Compressibility (1/GPa) = 0.01441009
#
# Stress axis : x y z
#
# Youngs Moduli (GPa) = 99.04395 84.98675 112.50918
#
# Poissons Ratio (x) = 0.23367 0.24247
# Poissons Ratio (y) = 0.27232 0.36745
# Poissons Ratio (z) = 0.21345 0.27756
#
# Static dielectric constant tensor:
#      x y z
#    x 3.870800 0.000000 0.000000 
#    y 0.000000 4.046210 0.000000 
#    z 0.000000 0.000000 4.275380 
# 
# 
# High freq. dielectric constant tensor:
#      x y z
#    x 1.828470 0.000000 0.000000 
#    y 0.000000 1.856300 0.000000 
#    z 0.000000 0.000000 1.849210 
# 
# From -- ./inp_files/10249.got.cif
#   From: 2010.03.12/outbox.cif.g09.slc.cpg/sg17_6_cif.got.tgz:10249.got - 2010.04.10 18:46:23.
