data_PCOD8155793
_publ_section_title
;
Structure prediction by ZEFSAII (Michael W. Deem and Ramdas Pophale) SiO2 
 PCOD8155793
Probable space group: P 21 21 2
;
_chemical_formula_sum "Si O2"
_cell_formula_units_Z 32
_cell_length_a 17.217204
_cell_length_b 10.193070
_cell_length_c 9.060207
_cell_angle_alpha 90.000000
_cell_angle_beta 90.000000
_cell_angle_gamma 90.000000
_cell_volume 1590.031588
_symmetry_space_group_name_H-M "P 21 21 2"
_symmetry_group_IT_number 18
_symmetry_cell_setting 'orthorhombic'
loop_
_space_group_symop_operation_xyz
x,y,z
-x,-y,z
1/2+x,1/2-y,-z
1/2-x,1/2+y,-z
loop_
_atom_site_type_symbol
_atom_site_label
_atom_site_fract_x
_atom_site_fract_y
_atom_site_fract_z
Si Si1 0.015655 0.846950 0.835648
Si Si2 0.358466 0.716729 0.260536
Si Si3 0.317543 0.412275 0.236941
Si Si4 0.749999 0.249999 0.513776
Si Si5 0.817543 0.912273 0.236942
Si Si6 0.858465 0.216727 0.260536
Si Si7 0.750000 0.249999 0.009840
Si Si8 0.984345 0.846950 0.164350
O O1 0.102697 0.825521 0.775453
O O2 0.952073 0.773598 0.732210
O O3 0.000001 0.792584 0.999999
O O4 0.000000 0.000000 0.833830
O O5 0.332082 0.565497 0.244838
O O6 0.323775 0.782004 0.408327
O O7 0.323359 0.786904 0.115028
O O8 0.270927 0.373840 0.384412
O O9 0.267261 0.376488 0.092551
O O10 0.729070 0.373839 0.615584
O O11 0.823775 0.281999 0.408330
O O12 0.767260 0.876483 0.092555
O O13 0.897304 0.825519 0.224544
O O14 0.832082 0.065495 0.244836
O O15 0.952072 0.226401 0.267790
O O16 0.823357 0.286904 0.115031
O O17 0.000000 0.000000 0.166170
#
# Coordination Sequence:
#
# PCOD8155793 Si02
#       8
#     4   4   4   4   4   4   4   4
#     4   9  16  29  53  79 102 126 157 216 277 301
#     4  10  19  33  51  77 107 131 166 210 253 305
#     4  10  19  33  51  77 107 131 166 210 253 305
#     4  10  22  32  46  76 106 144 170 188 256 312
#     4  10  19  33  51  77 107 131 166 210 253 305
#     4  10  19  33  51  77 107 131 166 210 253 305
#     4  10  18  28  50  80 102 136 166 196 260 308
#     4   9  16  29  53  79 102 126 157 216 277 301
#
# _framework density 20.125388000000001
#
# number of rings (size 3 to 8) (size 9 to 14) (size 15 to 20)
#    0.000    2.250    2.500    1.500    0.000    1.000 
#    0.000    3.750    0.000    0.000    0.000  122.500 
#    0.000    0.000    0.000    0.000    0.000    0.000 
#
# Total GULP energy -396516.467074 kJ/mol
# GULP energy per Si atom -12391.139596 kJ/mol
# Density = 2.007958 g / cm^3
# Si number density = 20.125388 Si / 1000 Ang^3
#
#
#
# Elastic Constant Matrix: (Units=GPa)
#
#
# Indices 1 2 3 4 5 6 
#
# 1 137.6121 35.2204 56.2941 0.0000 0.0000 0.0000
# 2 35.2204 28.3886 19.7440 0.0000 0.0000 0.0000
# 3 56.2941 19.7440 137.0866 0.0000 0.0000 0.0000
# 4 0.0000 0.0000 0.0000 20.8223 0.0000 0.0000
# 5 0.0000 0.0000 0.0000 0.0000 27.2870 0.0000
# 6 0.0000 0.0000 0.0000 0.0000 0.0000 27.1497
#
#
#
# Elastic Compliance Matrix: (Units=1/GPa)
#
#
# Indices 1 2 3 4 5 6 
#
# 1 0.011666 -0.012382 -0.003007 0.000000 0.000000 0.000000
# 2 -0.012382 0.052289 -0.002446 0.000000 0.000000 0.000000
# 3 -0.003007 -0.002446 0.008882 0.000000 0.000000 0.000000
# 4 0.000000 0.000000 0.000000 0.048025 0.000000 0.000000
# 5 0.000000 0.000000 0.000000 0.000000 0.036647 0.000000
# 6 0.000000 0.000000 0.000000 0.000000 0.000000 0.036833
#
#
# Mechanical properties :
#
#
# Convention : Reuss Voigt Hill
#
# Bulk Modulus (GPa) = 26.90674 58.40048 42.65361
# Shear Modulus (GPa) = 20.62690 27.84040 24.23365
#
# Velocity S-wave (km/s) = 3.20491 3.72337 3.47383
# Velocity P-wave (km/s) = 5.20517 6.89681 6.10982
#
# Compressibility (1/GPa) = 0.03716541
#
# Stress axis : x y z
#
# Youngs Moduli (GPa) = 85.71860 19.12462 112.58821
#
# Poissons Ratio (x) = 0.23680 0.33859
# Poissons Ratio (y) = 1.06137 0.27542
# Poissons Ratio (z) = 0.25778 0.04678
#
# Static dielectric constant tensor:
#      x y z
#    x 4.184930 0.000000 0.000000 
#    y 0.000000 3.129380 0.000000 
#    z 0.000000 0.000000 3.869910 
# 
# 
# High freq. dielectric constant tensor:
#      x y z
#    x 1.789250 0.000000 0.000000 
#    y 0.000000 1.723640 0.000000 
#    z 0.000000 0.000000 1.795800 
# 
# From -- ./inp_files/4308.got.cif
#   From: 2010.03.12/outbox.cif.g09.slc.cpg/sg18_3_cif.got.tgz:4308.got - 2010.04.10 18:53:55.
