data_PCOD8155049
_publ_section_title
;
Structure prediction by ZEFSAII (Michael W. Deem and Ramdas Pophale) SiO2 
 PCOD8155049
Probable space group: C 2/C
;
_chemical_formula_sum "Si O2"
_cell_formula_units_Z 44
_cell_length_a 11.608835
_cell_length_b 14.415499
_cell_length_c 12.371919
_cell_angle_alpha 90.000000
_cell_angle_beta 71.744627
_cell_angle_gamma 90.000000
_cell_volume 1966.201366
_symmetry_space_group_name_H-M "C 2/C"
_symmetry_group_IT_number 15
_symmetry_cell_setting 'monoclinic'
loop_
_space_group_symop_operation_xyz
x,y,z
-x,y,1/2-z
-x,-y,-z
x,-y,1/2+z
1/2+x,1/2+y,z
1/2-x,1/2+y,1/2-z
1/2-x,1/2-y,-z
1/2+x,1/2-y,1/2+z
loop_
_atom_site_type_symbol
_atom_site_label
_atom_site_fract_x
_atom_site_fract_y
_atom_site_fract_z
Si Si1 0.614926 0.653983 0.789651
Si Si2 0.891165 0.241234 0.481915
Si Si3 0.723299 0.542620 0.267876
Si Si4 0.193877 0.312225 0.610532
Si Si5 0.534652 0.910473 0.925583
Si Si6 0.500000 0.356248 0.750000
O O1 0.500000 0.624417 0.750000
O O2 0.707285 0.568099 0.779891
O O3 0.679524 0.743289 0.717442
O O4 0.575310 0.681198 0.921837
O O5 0.750000 0.250000 0.500000
O O6 0.928600 0.346153 0.486816
O O7 0.976431 0.206209 0.360980
O O8 0.717017 0.601629 0.382677
O O9 0.855786 0.565957 0.185729
O O10 0.617538 0.579140 0.222255
O O11 0.250000 0.250000 0.500000
O O12 0.068343 0.359397 0.613476
O O13 0.500000 0.000000 0.000000
#
# Coordination Sequence:
#
# PCOD8155049 Si02
#       6
#     8   8   8   8   8   4
#     4  12  25  48  77 108 155 206 252 327 397 468
#     4  12  26  49  78 109 160 201 261 323 391 466
#     4  12  26  46  76 115 151 201 265 319 392 472
#     4  12  25  49  77 111 157 208 260 325 399 470
#     4  12  26  48  75 114 154 199 263 321 393 468
#     4  12  26  48  74 114 150 202 260 318 384 460
#
# _framework density 22.378174999999999
#
# number of rings (size 3 to 8) (size 9 to 14) (size 15 to 20)
#    0.000    0.000    6.364    2.727    2.545    3.636 
#    0.000    0.000    0.000    0.000    0.000    0.000 
#    0.000    0.000    0.000    0.000    0.000    0.000 
#
# Total GULP energy -272711.090344 kJ/mol
# GULP energy per Si atom -12395.958652 kJ/mol
# Density = 2.232724 g / cm^3
# Si number density = 22.378175 Si / 1000 Ang^3
#
#
#
# Elastic Constant Matrix: (Units=GPa)
#
#
# Indices 1 2 3 4 5 6 
#
# 1 126.0899 63.8539 39.6515 0.0000 6.9661 0.0000
# 2 63.8539 194.2760 70.4256 0.0000 5.4068 0.0000
# 3 39.6515 70.4256 155.8609 0.0000 -0.4592 0.0000
# 4 0.0000 0.0000 0.0000 32.6090 0.0000 0.6008
# 5 6.9661 5.4068 -0.4592 0.0000 35.2536 0.0000
# 6 0.0000 0.0000 0.0000 0.6008 0.0000 48.4681
#
#
#
# Elastic Compliance Matrix: (Units=1/GPa)
#
#
# Indices 1 2 3 4 5 6 
#
# 1 0.009789 -0.002715 -0.001268 0.000000 -0.001534 0.000000
# 2 -0.002715 0.006943 -0.002448 0.000000 -0.000560 0.000000
# 3 -0.001268 -0.002448 0.007847 0.000000 0.000728 0.000000
# 4 0.000000 0.000000 0.000000 0.030673 0.000000 -0.000380
# 5 -0.001534 -0.000560 0.000728 0.000000 0.028765 0.000000
# 6 0.000000 0.000000 0.000000 -0.000380 0.000000 0.020637
#
#
# Mechanical properties :
#
#
# Convention : Reuss Voigt Hill
#
# Bulk Modulus (GPa) = 85.34991 91.56541 88.45766
# Shear Modulus (GPa) = 41.17882 43.41921 42.29902
#
# Velocity S-wave (km/s) = 4.29433 4.40960 4.35235
# Velocity P-wave (km/s) = 7.92534 8.18121 8.05429
#
# Compressibility (1/GPa) = 0.01171647
#
# Stress axis : x y z
#
# Youngs Moduli (GPa) = 102.15127 144.03625 127.43965
#
# Poissons Ratio (x) = 0.39108 0.16161
# Poissons Ratio (y) = 0.27735 0.31197
# Poissons Ratio (z) = 0.12954 0.35260
#
# Static dielectric constant tensor:
#      x y z
#    x 4.132800 0.000000 -0.086600 
#    y 0.000000 4.847650 0.000000 
#    z -0.086600 0.000000 3.589250 
# 
# 
# High freq. dielectric constant tensor:
#      x y z
#    x 1.894950 0.000000 0.008040 
#    y 0.000000 1.901740 0.000000 
#    z 0.008040 0.000000 1.881550 
# 
# From -- ./inp_files/86079.got.cif
#   From: 2010.06.25/outbox.cif.g09.slc.cpg/sg15_44_cif.got.tgz:86079.got - 2010.06.28 07:06:18.
