data_PCOD8155258
_publ_section_title
;
Structure prediction by ZEFSAII (Michael W. Deem and Ramdas Pophale) SiO2 
 PCOD8155258
Probable space group: P 2 2 2
;
_chemical_formula_sum "Si O2"
_cell_formula_units_Z 30
_cell_length_a 5.121124
_cell_length_b 13.149082
_cell_length_c 21.170812
_cell_angle_alpha 90.000000
_cell_angle_beta 90.000000
_cell_angle_gamma 90.000000
_cell_volume 1425.601820
_symmetry_space_group_name_H-M "P 2 2 2"
_symmetry_group_IT_number 16
_symmetry_cell_setting 'orthorhombic'
loop_
_space_group_symop_operation_xyz
x,y,z
-x,-y,z
x,-y,-z
-x,y,-z
loop_
_atom_site_type_symbol
_atom_site_label
_atom_site_fract_x
_atom_site_fract_y
_atom_site_fract_z
Si Si1 0.000000 0.000000 0.229973
Si Si2 0.899581 0.817936 0.697136
Si Si3 0.528963 0.390225 0.426601
Si Si4 0.743172 0.567297 0.151350
Si Si5 0.365527 0.105737 0.137474
Si Si6 0.577603 0.741154 0.238103
Si Si7 0.251266 0.271394 0.042390
Si Si8 0.024993 0.265250 0.427272
O O1 0.180476 0.930338 0.276263
O O2 0.868824 0.919527 0.183978
O O3 0.668392 0.737737 0.713887
O O4 0.172878 0.785397 0.726941
O O5 0.945718 0.824762 0.621309
O O6 0.500000 0.500000 0.392055
O O7 0.500000 0.408072 0.500000
O O8 0.309145 0.307661 0.407159
O O9 0.821057 0.354538 0.412913
O O10 0.500000 0.500000 0.129049
O O11 0.653345 0.628848 0.213760
O O12 0.806903 0.644571 0.095066
O O13 0.000000 0.500000 0.165886
O O14 0.526721 0.188757 0.178863
O O15 0.281398 0.159377 0.072794
O O16 0.500000 0.000000 0.119378
O O17 0.500000 0.300336 0.000000
O O18 0.000000 0.265109 0.000000
O O19 0.000000 0.226560 0.500000
#
# Coordination Sequence:
#
# PCOD8155258 Si02
#       8
#     2   4   4   4   4   4   4   4
#     4  10  22  38  66  86 112 158 214 242 312 380
#     4  11  21  38  60  87 118 153 199 259 304 369
#     4   9  17  32  53  75 105 149 193 227 275 357
#     4  11  23  42  68  89 122 171 211 252 305 362
#     4  10  21  40  64  88 120 158 199 251 315 368
#     4  10  22  39  62  89 119 150 208 259 305 354
#     4  11  26  42  61  95 132 162 203 255 304 371
#     4  10  20  34  54  83 119 156 191 239 307 364
#
# _framework density 21.043745999999999
#
# number of rings (size 3 to 8) (size 9 to 14) (size 15 to 20)
#    0.000    1.733    1.333    2.800    1.867    5.600 
#    0.000    7.000    0.000    0.000    0.000    4.667 
#    0.000    0.000    0.000    0.000    0.000    0.000 
#
# Total GULP energy -371716.486503 kJ/mol
# GULP energy per Si atom -12390.549550 kJ/mol
# Density = 2.099585 g / cm^3
# Si number density = 21.043746 Si / 1000 Ang^3
#
#
#
# Elastic Constant Matrix: (Units=GPa)
#
#
# Indices 1 2 3 4 5 6 
#
# 1 117.2214 22.3952 38.4447 0.0000 0.0000 0.0000
# 2 22.3952 84.2888 34.8356 0.0000 0.0000 0.0000
# 3 38.4447 34.8356 98.9744 0.0000 0.0000 0.0000
# 4 0.0000 0.0000 0.0000 -16.1926 0.0000 0.0000
# 5 0.0000 0.0000 0.0000 0.0000 30.9894 0.0000
# 6 0.0000 0.0000 0.0000 0.0000 0.0000 31.1816
#
#
#
# Elastic Compliance Matrix: (Units=1/GPa)
#
#
# Indices 1 2 3 4 5 6 
#
# 1 0.009882 -0.001216 -0.003410 0.000000 0.000000 0.000000
# 2 -0.001216 0.014033 -0.004467 0.000000 0.000000 0.000000
# 3 -0.003410 -0.004467 0.013000 0.000000 0.000000 0.000000
# 4 0.000000 0.000000 0.000000 -0.061756 0.000000 0.000000
# 5 0.000000 0.000000 0.000000 0.000000 0.032269 0.000000
# 6 0.000000 0.000000 0.000000 0.000000 0.000000 0.032070
#
#
# Mechanical properties :
#
#
# Convention : Reuss Voigt Hill
#
# Bulk Modulus (GPa) = 53.39360 54.64841 54.02100
# Shear Modulus (GPa) = 78.21351 22.84961 50.53156
#
# Velocity S-wave (km/s) = 6.10310 3.29875 4.90558
# Velocity P-wave (km/s) = 8.66553 6.36665 7.60348
#
# Compressibility (1/GPa) = 0.01872884
#
# Stress axis : x y z
#
# Youngs Moduli (GPa) = 101.19743 71.25980 76.92032
#
# Poissons Ratio (x) = 0.08666 0.26232
# Poissons Ratio (y) = 0.12306 0.34359
# Poissons Ratio (z) = 0.34512 0.31830
#
# Static dielectric constant tensor:
#      x y z
#    x 4.199840 0.000000 0.000000 
#    y 0.000000 4.945220 0.000000 
#    z 0.000000 0.000000 3.882750 
# 
# 
# High freq. dielectric constant tensor:
#      x y z
#    x 1.827450 0.000000 0.000000 
#    y 0.000000 1.813680 0.000000 
#    z 0.000000 0.000000 1.822330 
# 
# From -- ./inp_files/9245.got.cif
#   From: 2010.03.12/outbox.cif.g09.slc.cpg/sg16_5_cif.got.tgz:9245.got - 2010.03.31 00:51:45.
