data_PCOD8155085
_publ_section_title
;
Structure prediction by ZEFSAII (Michael W. Deem and Ramdas Pophale) SiO2 
 PCOD8155085
Probable space group: C 2/C
;
_chemical_formula_sum "Si O2"
_cell_formula_units_Z 24
_cell_length_a 17.379597
_cell_length_b 6.874385
_cell_length_c 8.375481
_cell_angle_alpha 90.000000
_cell_angle_beta 102.092313
_cell_angle_gamma 90.000000
_cell_volume 978.449431
_symmetry_space_group_name_H-M "C 2/C"
_symmetry_group_IT_number 15
_symmetry_cell_setting 'monoclinic'
loop_
_space_group_symop_operation_xyz
x,y,z
-x,y,1/2-z
-x,-y,-z
x,-y,1/2+z
1/2+x,1/2+y,z
1/2-x,1/2+y,1/2-z
1/2-x,1/2-y,-z
1/2+x,1/2-y,1/2+z
loop_
_atom_site_type_symbol
_atom_site_label
_atom_site_fract_x
_atom_site_fract_y
_atom_site_fract_z
Si Si1 0.197042 0.328670 0.621318
Si Si2 0.090146 0.066999 0.759725
Si Si3 0.337332 0.731636 0.397299
O O1 0.250000 0.250000 0.500000
O O2 0.122863 0.187779 0.621208
O O3 0.250909 0.341040 0.804481
O O4 0.159040 0.538902 0.572826
O O5 0.000000 0.119809 0.750000
O O6 0.100907 0.839593 0.714001
O O7 0.144170 0.119508 0.932140
#
# Coordination Sequence:
#
# PCOD8155085 Si02
#       3
#     8   8   8
#     4  12  26  46  79 110 144 197 258 304 363 449
#     4  12  28  47  72 112 154 193 243 317 374 433
#     4  12  26  46  76 107 146 197 250 301 369 446
#
# _framework density 24.528607000000001
#
# number of rings (size 3 to 8) (size 9 to 14) (size 15 to 20)
#    0.000    0.000    3.333    6.000    0.000    2.667 
#    0.000    0.000    0.000    0.000    0.000    0.000 
#    0.000    0.000    0.000    0.000    0.000    0.000 
#
# Total GULP energy -148783.539204 kJ/mol
# GULP energy per Si atom -12398.628267 kJ/mol
# Density = 2.447278 g / cm^3
# Si number density = 24.528607 Si / 1000 Ang^3
#
#
#
# Elastic Constant Matrix: (Units=GPa)
#
#
# Indices 1 2 3 4 5 6 
#
# 1 195.3710 78.7312 56.9186 0.0000 -39.9942 0.0000
# 2 78.7312 184.2039 73.0084 0.0000 -24.1563 0.0000
# 3 56.9186 73.0084 95.1934 0.0000 -8.3229 0.0000
# 4 0.0000 0.0000 0.0000 30.1737 0.0000 -13.0806
# 5 -39.9942 -24.1563 -8.3229 0.0000 24.3560 0.0000
# 6 0.0000 0.0000 0.0000 -13.0806 0.0000 42.9603
#
#
#
# Elastic Compliance Matrix: (Units=1/GPa)
#
#
# Indices 1 2 3 4 5 6 
#
# 1 0.009193 -0.000699 -0.003815 0.000000 0.013098 0.000000
# 2 -0.000699 0.008761 -0.005815 0.000000 0.005553 0.000000
# 3 -0.003815 -0.005815 0.016693 0.000000 -0.006328 0.000000
# 4 0.000000 0.000000 0.000000 0.038181 0.000000 0.011626
# 5 0.013098 0.005553 -0.006328 0.000000 0.065911 0.000000
# 6 0.000000 0.000000 0.000000 0.011626 0.000000 0.026817
#
#
# Mechanical properties :
#
#
# Convention : Reuss Voigt Hill
#
# Bulk Modulus (GPa) = 71.49518 99.12054 85.30786
# Shear Modulus (GPa) = 26.19458 37.23865 31.71662
#
# Velocity S-wave (km/s) = 3.27145 3.90060 3.59980
# Velocity P-wave (km/s) = 6.59400 7.79642 7.22028
#
# Compressibility (1/GPa) = 0.01398696
#
# Stress axis : x y z
#
# Youngs Moduli (GPa) = 108.77607 114.14389 59.90554
#
# Poissons Ratio (x) = 0.07984 0.22855
# Poissons Ratio (y) = 0.07608 0.34837
# Poissons Ratio (z) = 0.41500 0.66379
#
# Static dielectric constant tensor:
#      x y z
#    x 4.371310 0.000000 -0.254210 
#    y 0.000000 4.813300 0.000000 
#    z -0.254210 0.000000 4.666300 
# 
# 
# High freq. dielectric constant tensor:
#      x y z
#    x 1.956450 0.000000 -0.023780 
#    y 0.000000 1.986700 0.000000 
#    z -0.023780 0.000000 1.991660 
# 
# From -- ./inp_files/53128.got.cif
#   From: 2010.06.25/outbox.cif.g09.slc.cpg/sg15_27_cif.got.tgz:53128.got - 2010.06.28 07:06:18.
