data_PCOD8155882
_publ_section_title
;
Structure prediction by ZEFSAII (Michael W. Deem and Ramdas Pophale) SiO2 
 PCOD8155882
Probable space group: P 21 21 2
;
_chemical_formula_sum "Si O2"
_cell_formula_units_Z 20
_cell_length_a 13.948040
_cell_length_b 9.673511
_cell_length_c 6.880765
_cell_angle_alpha 90.000000
_cell_angle_beta 90.000000
_cell_angle_gamma 90.000000
_cell_volume 928.397665
_symmetry_space_group_name_H-M "P 21 21 2"
_symmetry_group_IT_number 18
_symmetry_cell_setting 'orthorhombic'
loop_
_space_group_symop_operation_xyz
x,y,z
-x,-y,z
1/2+x,1/2-y,-z
1/2-x,1/2+y,-z
loop_
_atom_site_type_symbol
_atom_site_label
_atom_site_fract_x
_atom_site_fract_y
_atom_site_fract_z
Si Si1 0.079479 0.240361 0.802197
Si Si2 0.590203 0.698753 0.941620
Si Si3 0.606976 0.001310 0.951282
Si Si4 0.199057 0.980442 0.783666
Si Si5 0.056218 0.859420 0.490209
O O1 0.012859 0.244751 0.609443
O O2 0.171509 0.142516 0.767877
O O3 0.112490 0.393847 0.864979
O O4 0.016528 0.170809 0.975001
O O5 0.587168 0.710350 0.709492
O O6 0.628045 0.846065 0.027118
O O7 0.660901 0.578000 0.010017
O O8 0.685734 0.038830 0.786287
O O9 0.500000 0.000000 0.857591
O O10 0.153223 0.891606 0.610175
O O11 0.000000 0.000000 0.448142
#
# Coordination Sequence:
#
# PCOD8155882 Si02
#       5
#     4   4   4   4   4
#     4   9  19  36  58  82 112 144 182 234 284 338
#     4  10  19  36  60  84 113 146 186 234 285 340
#     4  10  21  37  53  79 118 151 181 227 284 333
#     4  10  19  36  59  82 110 148 194 233 275 335
#     4   9  18  35  61  87 108 143 195 240 280 332
#
# _framework density 21.542493
#
# number of rings (size 3 to 8) (size 9 to 14) (size 15 to 20)
#    0.000    2.400    0.000    4.200    0.000    0.000 
#    0.000   35.000    0.000    0.000    0.000    0.000 
#    0.000    0.000    0.000    0.000    0.000    0.000 
#
# Total GULP energy -247895.184777 kJ/mol
# GULP energy per Si atom -12394.759239 kJ/mol
# Density = 2.149346 g / cm^3
# Si number density = 21.542493 Si / 1000 Ang^3
#
#
#
# Elastic Constant Matrix: (Units=GPa)
#
#
# Indices 1 2 3 4 5 6 
#
# 1 93.3558 20.3681 27.1473 0.0000 0.0000 0.0000
# 2 20.3681 100.0948 33.3658 0.0000 0.0000 0.0000
# 3 27.1473 33.3658 121.0802 0.0000 0.0000 0.0000
# 4 0.0000 0.0000 0.0000 19.7327 0.0000 0.0000
# 5 0.0000 0.0000 0.0000 0.0000 12.4869 0.0000
# 6 0.0000 0.0000 0.0000 0.0000 0.0000 19.3525
#
#
#
# Elastic Compliance Matrix: (Units=1/GPa)
#
#
# Indices 1 2 3 4 5 6 
#
# 1 0.011704 -0.001659 -0.002167 0.000000 0.000000 0.000000
# 2 -0.001659 0.011236 -0.002724 0.000000 0.000000 0.000000
# 3 -0.002167 -0.002724 0.009496 0.000000 0.000000 0.000000
# 4 0.000000 0.000000 0.000000 0.050677 0.000000 0.000000
# 5 0.000000 0.000000 0.000000 0.000000 0.080084 0.000000
# 6 0.000000 0.000000 0.000000 0.000000 0.000000 0.051673
#
#
# Mechanical properties :
#
#
# Convention : Reuss Voigt Hill
#
# Bulk Modulus (GPa) = 51.72038 52.92145 52.32091
# Shear Modulus (GPa) = 21.32964 25.89106 23.61035
#
# Velocity S-wave (km/s) = 3.15003 3.47055 3.31417
# Velocity P-wave (km/s) = 6.10663 6.37801 6.24379
#
# Compressibility (1/GPa) = 0.01933474
#
# Stress axis : x y z
#
# Youngs Moduli (GPa) = 85.44205 88.99723 105.31237
#
# Poissons Ratio (x) = 0.14767 0.22820
# Poissons Ratio (y) = 0.14177 0.28691
# Poissons Ratio (z) = 0.18514 0.24246
#
# Static dielectric constant tensor:
#      x y z
#    x 3.888930 0.000000 0.000000 
#    y 0.000000 3.909710 0.000000 
#    z 0.000000 0.000000 3.552690 
# 
# 
# High freq. dielectric constant tensor:
#      x y z
#    x 1.841100 0.000000 0.000000 
#    y 0.000000 1.847700 0.000000 
#    z 0.000000 0.000000 1.811100 
# 
# From -- ./inp_files/1017.got.cif
#   From: 2010.03.12/outbox.cif.g09.slc.cpg/sg18_1_cif.got.tgz:1017.got - 2010.04.10 18:53:55.
