data_PCOD8155217
_publ_section_title
;
Structure prediction by ZEFSAII (Michael W. Deem and Ramdas Pophale) SiO2 
 PCOD8155217
Probable space group: P 2 2 2
;
_chemical_formula_sum "Si O2"
_cell_formula_units_Z 22
_cell_length_a 14.841150
_cell_length_b 9.360378
_cell_length_c 8.222130
_cell_angle_alpha 90.000000
_cell_angle_beta 90.000000
_cell_angle_gamma 90.000000
_cell_volume 1142.208219
_symmetry_space_group_name_H-M "P 2 2 2"
_symmetry_group_IT_number 16
_symmetry_cell_setting 'orthorhombic'
loop_
_space_group_symop_operation_xyz
x,y,z
-x,-y,z
x,-y,-z
-x,y,-z
loop_
_atom_site_type_symbol
_atom_site_label
_atom_site_fract_x
_atom_site_fract_y
_atom_site_fract_z
Si Si1 0.351911 0.043312 0.262262
Si Si2 0.804577 0.000000 0.500000
Si Si3 0.500000 0.000000 0.500000
Si Si4 0.000000 0.500000 0.000000
Si Si5 0.148089 0.456688 0.237738
Si Si6 0.103964 0.289321 0.541892
Si Si7 0.695423 0.500000 0.000000
Si Si8 0.603964 0.789321 0.958107
O O1 0.256560 0.051800 0.351289
O O2 0.432816 0.092833 0.384501
O O3 0.373057 0.880931 0.202795
O O4 0.341701 0.148791 0.111402
O O5 0.868016 0.125961 0.432568
O O6 0.932816 0.407167 0.884501
O O7 0.158299 0.351209 0.388598
O O8 0.126943 0.619069 0.297205
O O9 0.243439 0.448200 0.148711
O O10 0.000000 0.305039 0.500000
O O11 0.631985 0.625961 0.932567
O O12 0.500000 0.805037 0.000000
#
# Coordination Sequence:
#
# PCOD8155217 Si02
#       8
#     4   2   1   1   4   4   2   4
#     4  10  20  36  59  79 106 148 188 213 259 335
#     4  11  23  33  57  86 116 134 175 235 279 303
#     4  10  16  34  58  82  90 142 198 218 236 320
#     4  10  16  34  58  82  90 142 198 218 236 320
#     4  10  20  36  59  79 106 148 188 213 259 335
#     4  11  20  38  57  82 110 144 181 222 271 321
#     4  11  23  33  57  86 116 134 175 235 279 303
#     4  11  20  38  57  82 110 144 181 222 271 321
#
# _framework density 19.260936999999998
#
# number of rings (size 3 to 8) (size 9 to 14) (size 15 to 20)
#    0.000    1.455    3.636    3.818    0.000    0.000 
#    0.000    0.000    0.000    2.182    0.000    0.000 
#    0.000    0.000    0.000    0.000    0.000    0.000 
#
# Total GULP energy -272762.336417 kJ/mol
# GULP energy per Si atom -12398.288019 kJ/mol
# Density = 1.921710 g / cm^3
# Si number density = 19.260937 Si / 1000 Ang^3
#
#
#
# Elastic Constant Matrix: (Units=GPa)
#
#
# Indices 1 2 3 4 5 6 
#
# 1 36.2704 15.8783 8.7690 0.0000 0.0000 0.0000
# 2 15.8783 90.4417 8.6581 0.0000 0.0000 0.0000
# 3 8.7690 8.6581 79.5425 0.0000 0.0000 0.0000
# 4 0.0000 0.0000 0.0000 16.0831 0.0000 0.0000
# 5 0.0000 0.0000 0.0000 0.0000 23.8403 0.0000
# 6 0.0000 0.0000 0.0000 0.0000 0.0000 23.7100
#
#
#
# Elastic Compliance Matrix: (Units=1/GPa)
#
#
# Indices 1 2 3 4 5 6 
#
# 1 0.030474 -0.005081 -0.002806 0.000000 0.000000 0.000000
# 2 -0.005081 0.012021 -0.000748 0.000000 0.000000 0.000000
# 3 -0.002806 -0.000748 0.012963 0.000000 0.000000 0.000000
# 4 0.000000 0.000000 0.000000 0.062177 0.000000 0.000000
# 5 0.000000 0.000000 0.000000 0.000000 0.041946 0.000000
# 6 0.000000 0.000000 0.000000 0.000000 0.000000 0.042176
#
#
# Mechanical properties :
#
#
# Convention : Reuss Voigt Hill
#
# Bulk Modulus (GPa) = 26.18836 30.31838 28.25337
# Shear Modulus (GPa) = 21.57435 24.25662 22.91549
#
# Velocity S-wave (km/s) = 3.35043 3.55261 3.45300
# Velocity P-wave (km/s) = 5.34727 5.70991 5.53156
#
# Compressibility (1/GPa) = 0.03818491
#
# Stress axis : x y z
#
# Youngs Moduli (GPa) = 32.81517 83.19056 77.14429
#
# Poissons Ratio (x) = 0.42273 0.21650
# Poissons Ratio (y) = 0.16675 0.05772
# Poissons Ratio (z) = 0.09209 0.06225
#
# Static dielectric constant tensor:
#      x y z
#    x 3.443550 0.000000 0.000000 
#    y 0.000000 3.289070 0.000000 
#    z 0.000000 0.000000 3.731490 
# 
# 
# High freq. dielectric constant tensor:
#      x y z
#    x 1.755370 0.000000 0.000000 
#    y 0.000000 1.718100 0.000000 
#    z 0.000000 0.000000 1.760560 
# 
# From -- ./inp_files/4117.got.cif
#   From: 2010.03.12/outbox.cif.g09.slc.cpg/sg16_3_cif.got.tgz:4117.got - 2010.03.31 00:51:45.
