data_PCOD8155501
_publ_section_title
;
Structure prediction by ZEFSAII (Michael W. Deem and Ramdas Pophale) SiO2 
 PCOD8155501
Probable space group: P 2 2 21
;
_chemical_formula_sum "Si O2"
_cell_formula_units_Z 20
_cell_length_a 10.312460
_cell_length_b 8.889179
_cell_length_c 11.587968
_cell_angle_alpha 90.000000
_cell_angle_beta 90.000000
_cell_angle_gamma 90.000000
_cell_volume 1062.260948
_symmetry_space_group_name_H-M "P 2 2 21"
_symmetry_group_IT_number 17
_symmetry_cell_setting 'orthorhombic'
loop_
_space_group_symop_operation_xyz
x,y,z
-x,-y,1/2+z
x,-y,-z
-x,y,1/2-z
loop_
_atom_site_type_symbol
_atom_site_label
_atom_site_fract_x
_atom_site_fract_y
_atom_site_fract_z
Si Si1 0.254274 0.590812 0.720178
Si Si2 0.588462 0.658790 0.348754
Si Si3 0.000000 0.409488 0.750000
Si Si4 0.602676 0.500000 0.000000
Si Si5 0.150701 0.811293 0.094739
Si Si6 0.123902 0.860794 0.828414
O O1 0.349513 0.497070 0.802969
O O2 0.114989 0.513733 0.706216
O O3 0.311678 0.591612 0.592002
O O4 0.239559 0.758978 0.773825
O O5 0.500000 0.737655 0.250000
O O6 0.488165 0.629161 0.450016
O O7 0.699825 0.763965 0.398494
O O8 0.050409 0.307436 0.854177
O O9 0.150724 0.961683 0.172529
O O10 0.103824 0.821869 0.963057
O O11 0.000000 0.824906 0.750000
#
# Coordination Sequence:
#
# PCOD8155501 Si02
#       6
#     4   4   2   2   4   4
#     4  10  21  34  60  90 118 151 202 248 303 359
#     4   9  19  39  59  82 117 159 203 246 301 356
#     4  10  20  36  58  90 116 158 188 244 312 354
#     4  10  20  36  60  90 118 152 204 258 286 352
#     4  10  22  39  60  81 125 162 196 247 303 358
#     4  11  22  38  56  90 122 157 199 243 305 364
#
# _framework density 18.827766
#
# number of rings (size 3 to 8) (size 9 to 14) (size 15 to 20)
#    0.000    2.000    2.000    1.200    2.800    2.400 
#    0.000    7.000    0.000    0.000    0.000    0.000 
#    0.000    0.000    0.000    0.000    0.000    0.000 
#
# Total GULP energy -247868.849203 kJ/mol
# GULP energy per Si atom -12393.442460 kJ/mol
# Density = 1.878491 g / cm^3
# Si number density = 18.827766 Si / 1000 Ang^3
#
#
#
# Elastic Constant Matrix: (Units=GPa)
#
#
# Indices 1 2 3 4 5 6 
#
# 1 115.6235 36.8682 57.7001 0.0000 0.0000 0.0000
# 2 36.8682 88.8497 42.2016 0.0000 0.0000 0.0000
# 3 57.7001 42.2016 106.6845 0.0000 0.0000 0.0000
# 4 0.0000 0.0000 0.0000 25.7216 0.0000 0.0000
# 5 0.0000 0.0000 0.0000 0.0000 35.7314 0.0000
# 6 0.0000 0.0000 0.0000 0.0000 0.0000 20.3394
#
#
#
# Elastic Compliance Matrix: (Units=1/GPa)
#
#
# Indices 1 2 3 4 5 6 
#
# 1 0.012242 -0.002383 -0.005679 0.000000 0.000000 0.000000
# 2 -0.002383 0.014323 -0.004377 0.000000 0.000000 0.000000
# 3 -0.005679 -0.004377 0.014176 0.000000 0.000000 0.000000
# 4 0.000000 0.000000 0.000000 0.038878 0.000000 0.000000
# 5 0.000000 0.000000 0.000000 0.000000 0.027987 0.000000
# 6 0.000000 0.000000 0.000000 0.000000 0.000000 0.049166
#
#
# Mechanical properties :
#
#
# Convention : Reuss Voigt Hill
#
# Bulk Modulus (GPa) = 63.03434 64.96638 64.00036
# Shear Modulus (GPa) = 26.74707 27.98432 27.36570
#
# Velocity S-wave (km/s) = 3.77320 3.85948 3.81658
# Velocity P-wave (km/s) = 7.24809 7.37844 7.31355
#
# Compressibility (1/GPa) = 0.01586437
#
# Stress axis : x y z
#
# Youngs Moduli (GPa) = 81.68321 69.81950 70.54078
#
# Poissons Ratio (x) = 0.16636 0.40058
# Poissons Ratio (y) = 0.19463 0.30876
# Poissons Ratio (z) = 0.46386 0.30560
#
# Static dielectric constant tensor:
#      x y z
#    x 3.636600 0.000000 0.000000 
#    y 0.000000 3.441280 0.000000 
#    z 0.000000 0.000000 3.373550 
# 
# 
# High freq. dielectric constant tensor:
#      x y z
#    x 1.740050 0.000000 0.000000 
#    y 0.000000 1.716550 0.000000 
#    z 0.000000 0.000000 1.741200 
# 
# From -- ./inp_files/6906.got.cif
#   From: 2010.03.12/outbox.cif.g09.slc.cpg/sg17_4_cif.got.tgz:6906.got - 2010.04.10 18:46:23.
