data_PCOD8155938
_publ_section_title
;
Structure prediction by ZEFSAII (Michael W. Deem and Ramdas Pophale) SiO2 
 PCOD8155938
Probable space group: P 21 21 2
;
_chemical_formula_sum "Si O2"
_cell_formula_units_Z 32
_cell_length_a 7.956580
_cell_length_b 23.167817
_cell_length_c 8.721252
_cell_angle_alpha 90.000000
_cell_angle_beta 90.000000
_cell_angle_gamma 90.000000
_cell_volume 1607.645849
_symmetry_space_group_name_H-M "P 21 21 2"
_symmetry_group_IT_number 18
_symmetry_cell_setting 'orthorhombic'
loop_
_space_group_symop_operation_xyz
x,y,z
-x,-y,z
1/2+x,1/2-y,-z
1/2-x,1/2+y,-z
loop_
_atom_site_type_symbol
_atom_site_label
_atom_site_fract_x
_atom_site_fract_y
_atom_site_fract_z
Si Si1 0.871985 0.820647 0.026546
Si Si2 0.589789 0.268733 0.469021
Si Si3 0.494178 0.371816 0.682382
Si Si4 0.181324 0.428193 0.547535
Si Si5 0.798892 0.437262 0.536651
Si Si6 0.399301 0.253826 0.172864
Si Si7 0.794118 0.354089 0.271108
Si Si8 0.337388 0.834596 0.692034
O O1 0.994797 0.855399 0.138593
O O2 0.715467 0.800019 0.128708
O O3 0.814035 0.860155 0.883761
O O4 0.961608 0.763525 0.958309
O O5 0.491735 0.315492 0.573483
O O6 0.471477 0.239535 0.340792
O O7 0.740252 0.300690 0.379073
O O8 0.661956 0.217347 0.569057
O O9 0.314968 0.404182 0.670590
O O10 0.653355 0.412874 0.645924
O O11 0.221005 0.494719 0.520557
O O12 0.215271 0.394296 0.388629
O O13 0.985890 0.419710 0.599759
O O14 0.775037 0.413213 0.364784
O O15 0.299436 0.315415 0.182278
O O16 0.985340 0.341937 0.223624
#
# Coordination Sequence:
#
# PCOD8155938 Si02
#       8
#     4   4   4   4   4   4   4   4
#     4  11  24  37  55  88 129 172 195 241 323 383
#     4  10  20  34  58  88 119 155 205 248 300 365
#     4  11  21  38  62  89 125 162 204 262 311 365
#     4  10  21  37  68  93 112 154 216 266 310 353
#     4   9  21  42  65  91 117 152 216 273 305 355
#     4  11  22  37  53  84 131 157 200 239 299 391
#     4   9  21  37  57  85 122 159 197 247 312 367
#     4  11  19  34  60  91 115 159 201 254 300 362
#
# _framework density 19.904883000000002
#
# number of rings (size 3 to 8) (size 9 to 14) (size 15 to 20)
#    0.000    1.750    2.500    1.875    3.500    1.000 
#    2.250    0.000    5.500    1.500    0.000    0.000 
#    0.000    0.000    0.000    0.000    0.000    0.000 
#
# Total GULP energy -396731.376811 kJ/mol
# GULP energy per Si atom -12397.855525 kJ/mol
# Density = 1.985958 g / cm^3
# Si number density = 19.904883 Si / 1000 Ang^3
#
#
#
# Elastic Constant Matrix: (Units=GPa)
#
#
# Indices 1 2 3 4 5 6 
#
# 1 87.3729 23.5277 35.2087 0.0000 0.0000 0.0000
# 2 23.5277 90.9360 37.5356 0.0000 0.0000 0.0000
# 3 35.2087 37.5356 94.9521 0.0000 0.0000 0.0000
# 4 0.0000 0.0000 0.0000 18.2980 0.0000 0.0000
# 5 0.0000 0.0000 0.0000 0.0000 23.0030 0.0000
# 6 0.0000 0.0000 0.0000 0.0000 0.0000 29.8189
#
#
#
# Elastic Compliance Matrix: (Units=1/GPa)
#
#
# Indices 1 2 3 4 5 6 
#
# 1 0.013679 -0.001727 -0.004389 0.000000 0.000000 0.000000
# 2 -0.001727 0.013359 -0.004640 0.000000 0.000000 0.000000
# 3 -0.004389 -0.004640 0.013994 0.000000 0.000000 0.000000
# 4 0.000000 0.000000 0.000000 0.054651 0.000000 0.000000
# 5 0.000000 0.000000 0.000000 0.000000 0.043473 0.000000
# 6 0.000000 0.000000 0.000000 0.000000 0.000000 0.033536
#
#
# Mechanical properties :
#
#
# Convention : Reuss Voigt Hill
#
# Bulk Modulus (GPa) = 51.23642 51.75611 51.49627
# Shear Modulus (GPa) = 24.91138 26.02324 25.46731
#
# Velocity S-wave (km/s) = 3.54152 3.61969 3.58082
# Velocity P-wave (km/s) = 6.52071 6.59756 6.55925
#
# Compressibility (1/GPa) = 0.01951737
#
# Stress axis : x y z
#
# Youngs Moduli (GPa) = 73.10387 74.85522 71.46079
#
# Poissons Ratio (x) = 0.12930 0.31367
# Poissons Ratio (y) = 0.12628 0.33161
# Poissons Ratio (z) = 0.32089 0.34736
#
# Static dielectric constant tensor:
#      x y z
#    x 4.004970 0.000000 0.000000 
#    y 0.000000 3.469040 0.000000 
#    z 0.000000 0.000000 3.447590 
# 
# 
# High freq. dielectric constant tensor:
#      x y z
#    x 1.798730 0.000000 0.000000 
#    y 0.000000 1.754180 0.000000 
#    z 0.000000 0.000000 1.756540 
# 
# From -- ./inp_files/3529.got.cif
#   From: 2010.03.12/outbox.cif.g09.slc.cpg/sg18_2_cif.got.tgz:3529.got - 2010.04.10 18:53:55.
