data_PCOD8155336
_publ_section_title
;
Structure prediction by ZEFSAII (Michael W. Deem and Ramdas Pophale) SiO2 
 PCOD8155336
Probable space group: P 2 2 2
;
_chemical_formula_sum "Si O2"
_cell_formula_units_Z 25
_cell_length_a 9.340630
_cell_length_b 11.216789
_cell_length_c 10.401026
_cell_angle_alpha 90.000000
_cell_angle_beta 90.000000
_cell_angle_gamma 90.000000
_cell_volume 1089.735005
_symmetry_space_group_name_H-M "P 2 2 2"
_symmetry_group_IT_number 16
_symmetry_cell_setting 'orthorhombic'
loop_
_space_group_symop_operation_xyz
x,y,z
-x,-y,z
x,-y,-z
-x,y,-z
loop_
_atom_site_type_symbol
_atom_site_label
_atom_site_fract_x
_atom_site_fract_y
_atom_site_fract_z
Si Si1 0.628310 0.423812 0.816478
Si Si2 0.145268 0.846800 0.216854
Si Si3 0.668230 0.795025 0.029198
Si Si4 0.822465 0.113302 0.738020
Si Si5 0.373845 0.732087 0.578068
Si Si6 0.767792 0.617525 0.645398
Si Si7 0.000000 0.500000 0.500000
O O1 0.500000 0.500000 0.876009
O O2 0.696543 0.345161 0.932382
O O3 0.567639 0.331336 0.708288
O O4 0.735821 0.516000 0.750546
O O5 0.230155 0.748739 0.296079
O O6 0.972655 0.827400 0.213891
O O7 0.165771 0.972965 0.288606
O O8 0.219062 0.839444 0.077311
O O9 0.703702 0.875530 0.151494
O O10 0.500000 0.814725 0.000000
O O11 0.760065 0.180853 0.611518
O O12 0.500000 0.802176 0.500000
O O13 0.330961 0.623590 0.482003
O O14 0.922570 0.588793 0.595084
#
# Coordination Sequence:
#
# PCOD8155336 Si02
#       7
#     4   4   4   4   4   4   1
#     4  11  22  41  68  97 140 180 225 284 360 423
#     4  11  25  46  71 100 140 187 230 291 355 419
#     4  11  25  44  70 103 134 179 240 293 351 416
#     4  10  25  48  71  98 139 187 236 286 356 423
#     4  11  22  42  71 105 137 182 234 286 354 429
#     4  12  24  39  68 100 137 181 226 287 349 421
#     4  12  24  40  62 100 144 180 232 282 344 440
#
# _framework density 22.941357
#
# number of rings (size 3 to 8) (size 9 to 14) (size 15 to 20)
#    0.000    0.960    3.200    2.880    4.480    5.440 
#    0.000    2.400    0.000    0.000    0.000    0.000 
#    0.000    0.000    0.000    0.000    0.000    0.000 
#
# Total GULP energy -309750.110142 kJ/mol
# GULP energy per Si atom -12390.004406 kJ/mol
# Density = 2.288914 g / cm^3
# Si number density = 22.941357 Si / 1000 Ang^3
#
#
#
# Elastic Constant Matrix: (Units=GPa)
#
#
# Indices 1 2 3 4 5 6 
#
# 1 130.6461 29.9004 37.5897 0.0000 0.0000 0.0000
# 2 29.9004 103.7046 20.4151 0.0000 0.0000 0.0000
# 3 37.5897 20.4151 62.1080 0.0000 0.0000 0.0000
# 4 0.0000 0.0000 0.0000 35.0631 0.0000 0.0000
# 5 0.0000 0.0000 0.0000 0.0000 36.7721 0.0000
# 6 0.0000 0.0000 0.0000 0.0000 0.0000 40.7771
#
#
#
# Elastic Compliance Matrix: (Units=1/GPa)
#
#
# Indices 1 2 3 4 5 6 
#
# 1 0.009549 -0.001727 -0.005212 0.000000 0.000000 0.000000
# 2 -0.001727 0.010622 -0.002446 0.000000 0.000000 0.000000
# 3 -0.005212 -0.002446 0.020059 0.000000 0.000000 0.000000
# 4 0.000000 0.000000 0.000000 0.028520 0.000000 0.000000
# 5 0.000000 0.000000 0.000000 0.000000 0.027195 0.000000
# 6 0.000000 0.000000 0.000000 0.000000 0.000000 0.024524
#
#
# Mechanical properties :
#
#
# Convention : Reuss Voigt Hill
#
# Bulk Modulus (GPa) = 46.59723 52.47435 49.53579
# Shear Modulus (GPa) = 34.15472 36.42601 35.29037
#
# Velocity S-wave (km/s) = 3.86266 3.98903 3.92635
# Velocity P-wave (km/s) = 6.34422 6.64375 6.49571
#
# Compressibility (1/GPa) = 0.02146050
#
# Stress axis : x y z
#
# Youngs Moduli (GPa) = 104.72208 94.14127 49.85209
#
# Poissons Ratio (x) = 0.16261 0.25981
# Poissons Ratio (y) = 0.18088 0.12195
# Poissons Ratio (z) = 0.54578 0.23029
#
# Static dielectric constant tensor:
#      x y z
#    x 4.243410 0.000000 0.000000 
#    y 0.000000 4.390460 0.000000 
#    z 0.000000 0.000000 4.203620 
# 
# 
# High freq. dielectric constant tensor:
#      x y z
#    x 1.903590 0.000000 0.000000 
#    y 0.000000 1.906350 0.000000 
#    z 0.000000 0.000000 1.909210 
# 
# From -- ./inp_files/6548.got.cif
#   From: 2010.03.12/outbox.cif.g09.slc.cpg/sg16_4_cif.got.tgz:6548.got - 2010.03.31 00:51:45.
