data_PCOD8155579
_publ_section_title
;
Structure prediction by ZEFSAII (Michael W. Deem and Ramdas Pophale) SiO2 
 PCOD8155579
Probable space group: P 2 2 21
;
_chemical_formula_sum "Si O2"
_cell_formula_units_Z 24
_cell_length_a 9.582043
_cell_length_b 8.761551
_cell_length_c 14.440491
_cell_angle_alpha 90.000000
_cell_angle_beta 90.000000
_cell_angle_gamma 90.000000
_cell_volume 1212.330605
_symmetry_space_group_name_H-M "P 2 2 21"
_symmetry_group_IT_number 17
_symmetry_cell_setting 'orthorhombic'
loop_
_space_group_symop_operation_xyz
x,y,z
-x,-y,1/2+z
x,-y,-z
-x,y,1/2-z
loop_
_atom_site_type_symbol
_atom_site_label
_atom_site_fract_x
_atom_site_fract_y
_atom_site_fract_z
Si Si1 0.780928 0.320320 0.497904
Si Si2 0.538416 0.680285 0.012956
Si Si3 0.635799 0.152046 0.804722
Si Si4 0.259595 0.112979 0.416352
Si Si5 0.881602 0.816010 0.318831
Si Si6 0.962225 0.835883 0.649702
O O1 0.782321 0.500000 0.500000
O O2 0.621409 0.260352 0.507018
O O3 0.879574 0.262978 0.581112
O O4 0.843161 0.262468 0.400579
O O5 0.605940 0.733779 0.110129
O O6 0.546570 0.500000 0.000000
O O7 0.629436 0.750280 0.928828
O O8 0.500000 0.108060 0.750000
O O9 0.739229 0.231458 0.732308
O O10 0.706137 0.988845 0.827168
O O11 0.101997 0.173331 0.412168
O O12 0.280339 0.000000 0.500000
O O13 0.000000 0.751319 0.250000
O O14 0.904691 0.994075 0.338206
O O15 0.000000 0.764417 0.750000
#
# Coordination Sequence:
#
# PCOD8155579 Si02
#       6
#     4   4   4   4   4   4
#     4  11  25  43  61  89 131 169 207 253 313 378
#     4  10  24  43  60  90 129 172 206 254 315 374
#     4  11  21  39  65  94 121 161 215 258 310 372
#     4  10  21  38  63  90 122 156 205 254 309 365
#     4  11  22  41  67  93 125 161 206 267 312 363
#     4  11  23  41  64  94 122 159 207 261 307 370
#
# _framework density 19.796581
#
# number of rings (size 3 to 8) (size 9 to 14) (size 15 to 20)
#    0.000    1.333    5.000    1.500    4.667    2.667 
#    3.000    0.833    0.000    0.000    0.000    0.000 
#    0.000    0.000    0.000    0.000    0.000    0.000 
#
# Total GULP energy -297557.291389 kJ/mol
# GULP energy per Si atom -12398.220475 kJ/mol
# Density = 1.975152 g / cm^3
# Si number density = 19.796581 Si / 1000 Ang^3
#
#
#
# Elastic Constant Matrix: (Units=GPa)
#
#
# Indices 1 2 3 4 5 6 
#
# 1 126.5485 34.9442 34.9657 0.0000 0.0000 0.0000
# 2 34.9442 64.3098 29.8989 0.0000 0.0000 0.0000
# 3 34.9657 29.8989 89.7714 0.0000 0.0000 0.0000
# 4 0.0000 0.0000 0.0000 14.2835 0.0000 0.0000
# 5 0.0000 0.0000 0.0000 0.0000 47.2803 0.0000
# 6 0.0000 0.0000 0.0000 0.0000 0.0000 25.1811
#
#
#
# Elastic Compliance Matrix: (Units=1/GPa)
#
#
# Indices 1 2 3 4 5 6 
#
# 1 0.009714 -0.004164 -0.002397 0.000000 0.000000 0.000000
# 2 -0.004164 0.020184 -0.005100 0.000000 0.000000 0.000000
# 3 -0.002397 -0.005100 0.013772 0.000000 0.000000 0.000000
# 4 0.000000 0.000000 0.000000 0.070011 0.000000 0.000000
# 5 0.000000 0.000000 0.000000 0.000000 0.021150 0.000000
# 6 0.000000 0.000000 0.000000 0.000000 0.000000 0.039712
#
#
# Mechanical properties :
#
#
# Convention : Reuss Voigt Hill
#
# Bulk Modulus (GPa) = 49.14733 53.36079 51.25406
# Shear Modulus (GPa) = 24.43217 29.40370 26.91794
#
# Velocity S-wave (km/s) = 3.51687 3.85813 3.69145
# Velocity P-wave (km/s) = 6.43205 6.84543 6.64196
#
# Compressibility (1/GPa) = 0.02034699
#
# Stress axis : x y z
#
# Youngs Moduli (GPa) = 102.94217 49.54499 72.61295
#
# Poissons Ratio (x) = 0.20631 0.17404
# Poissons Ratio (y) = 0.42866 0.37035
# Poissons Ratio (z) = 0.24673 0.25270
#
# Static dielectric constant tensor:
#      x y z
#    x 3.768380 0.000000 0.000000 
#    y 0.000000 3.409780 0.000000 
#    z 0.000000 0.000000 3.886770 
# 
# 
# High freq. dielectric constant tensor:
#      x y z
#    x 1.790800 0.000000 0.000000 
#    y 0.000000 1.745930 0.000000 
#    z 0.000000 0.000000 1.782050 
# 
# From -- ./inp_files/8091.got.cif
#   From: 2010.03.12/outbox.cif.g09.slc.cpg/sg17_5_cif.got.tgz:8091.got - 2010.04.10 18:46:23.
