data_PCOD8155987
_publ_section_title
;
Structure prediction by ZEFSAII (Michael W. Deem and Ramdas Pophale) SiO2 
 PCOD8155987
Probable space group: P 21 21 2
;
_chemical_formula_sum "Si O2"
_cell_formula_units_Z 32
_cell_length_a 15.581681
_cell_length_b 11.753950
_cell_length_c 8.243984
_cell_angle_alpha 90.000000
_cell_angle_beta 90.000000
_cell_angle_gamma 90.000000
_cell_volume 1509.855162
_symmetry_space_group_name_H-M "P 21 21 2"
_symmetry_group_IT_number 18
_symmetry_cell_setting 'orthorhombic'
loop_
_space_group_symop_operation_xyz
x,y,z
-x,-y,z
1/2+x,1/2-y,-z
1/2-x,1/2+y,-z
loop_
_atom_site_type_symbol
_atom_site_label
_atom_site_fract_x
_atom_site_fract_y
_atom_site_fract_z
Si Si1 0.809292 0.022702 0.464958
Si Si2 0.277288 0.159871 0.251816
Si Si3 0.668195 0.333524 0.294029
Si Si4 0.872009 0.617908 0.534213
Si Si5 0.860306 0.729780 0.032651
Si Si6 0.902206 0.508329 0.858064
Si Si7 0.507455 0.124581 0.756356
Si Si8 0.652269 0.758539 0.590013
O O1 0.726067 0.095785 0.514800
O O2 0.872902 0.123343 0.403044
O O3 0.788918 0.935267 0.320025
O O4 0.844440 0.958043 0.625889
O O5 0.218095 0.251081 0.157894
O O6 0.330567 0.211336 0.401681
O O7 0.346472 0.107951 0.122335
O O8 0.612244 0.246091 0.401931
O O9 0.766457 0.291662 0.299826
O O10 0.637340 0.328825 0.105740
O O11 0.903303 0.527805 0.665900
O O12 0.922915 0.593642 0.375072
O O13 0.952839 0.720617 0.123180
O O14 0.847720 0.607767 0.945484
O O15 0.000000 0.500000 0.920264
O O16 0.423148 0.169673 0.669909
O O17 0.500000 0.000000 0.845382
#
# Coordination Sequence:
#
# PCOD8155987 Si02
#       8
#     4   4   4   4   4   4   4   4
#     4   9  17  36  61  82 111 156 204 242 287 349
#     4  10  21  38  61  88 118 159 201 248 297 351
#     4   9  19  37  58  82 119 157 189 237 294 357
#     4   9  18  34  59  87 113 146 197 247 293 346
#     4  11  24  36  55  90 127 159 190 234 308 376
#     4  10  20  38  61  88 123 158 196 251 302 344
#     4  12  22  36  60  91 119 148 194 257 304 345
#     4  10  21  37  62  90 110 149 209 250 285 348
#
# _framework density 21.194084
#
# number of rings (size 3 to 8) (size 9 to 14) (size 15 to 20)
#    0.000    2.000    0.000    6.750    0.000    4.000 
#    0.000    2.500    0.000    4.500    0.000    1.750 
#    0.000    0.000    0.000    0.000    0.000    0.000 
#
# Total GULP energy -396481.806100 kJ/mol
# GULP energy per Si atom -12390.056441 kJ/mol
# Density = 2.114585 g / cm^3
# Si number density = 21.194084 Si / 1000 Ang^3
#
#
#
# Elastic Constant Matrix: (Units=GPa)
#
#
# Indices 1 2 3 4 5 6 
#
# 1 73.2331 41.9766 32.0156 0.0000 0.0000 0.0000
# 2 41.9766 108.0003 38.3510 0.0000 0.0000 0.0000
# 3 32.0156 38.3510 100.5601 0.0000 0.0000 0.0000
# 4 0.0000 0.0000 0.0000 20.9247 0.0000 0.0000
# 5 0.0000 0.0000 0.0000 0.0000 -19.8391 0.0000
# 6 0.0000 0.0000 0.0000 0.0000 0.0000 36.4362
#
#
#
# Elastic Compliance Matrix: (Units=1/GPa)
#
#
# Indices 1 2 3 4 5 6 
#
# 1 0.018674 -0.005953 -0.003675 0.000000 0.000000 0.000000
# 2 -0.005953 0.012607 -0.002913 0.000000 0.000000 0.000000
# 3 -0.003675 -0.002913 0.012225 0.000000 0.000000 0.000000
# 4 0.000000 0.000000 0.000000 0.047790 0.000000 0.000000
# 5 0.000000 0.000000 0.000000 0.000000 -0.050406 0.000000
# 6 0.000000 0.000000 0.000000 0.000000 0.000000 0.027445
#
#
# Mechanical properties :
#
#
# Convention : Reuss Voigt Hill
#
# Bulk Modulus (GPa) = 54.27462 56.27555 55.27508
# Shear Modulus (GPa) = 50.22122 18.80106 34.51114
#
# Velocity S-wave (km/s) = 4.87312 2.98164 4.03965
# Velocity P-wave (km/s) = 7.57146 6.20191 6.92065
#
# Compressibility (1/GPa) = 0.01842482
#
# Stress axis : x y z
#
# Youngs Moduli (GPa) = 53.55088 79.31884 81.79842
#
# Poissons Ratio (x) = 0.47219 0.30060
# Poissons Ratio (y) = 0.31879 0.23826
# Poissons Ratio (z) = 0.19680 0.23104
#
# Static dielectric constant tensor:
#      x y z
#    x 3.833770 0.000000 0.000000 
#    y 0.000000 4.160920 0.000000 
#    z 0.000000 0.000000 3.880950 
# 
# 
# High freq. dielectric constant tensor:
#      x y z
#    x 1.800500 0.000000 0.000000 
#    y 0.000000 1.825990 0.000000 
#    z 0.000000 0.000000 1.839840 
# 
# From -- ./inp_files/4321.got.cif
#   From: 2010.03.12/outbox.cif.g09.slc.cpg/sg18_3_cif.got.tgz:4321.got - 2010.04.10 18:53:55.
