data_PCOD8155594
_publ_section_title
;
Structure prediction by ZEFSAII (Michael W. Deem and Ramdas Pophale) SiO2 
 PCOD8155594
Probable space group: P 2 2 21
;
_chemical_formula_sum "Si O2"
_cell_formula_units_Z 24
_cell_length_a 12.653236
_cell_length_b 11.460104
_cell_length_c 8.208858
_cell_angle_alpha 90.000000
_cell_angle_beta 90.000000
_cell_angle_gamma 90.000000
_cell_volume 1190.345160
_symmetry_space_group_name_H-M "P 2 2 21"
_symmetry_group_IT_number 17
_symmetry_cell_setting 'orthorhombic'
loop_
_space_group_symop_operation_xyz
x,y,z
-x,-y,1/2+z
x,-y,-z
-x,y,1/2-z
loop_
_atom_site_type_symbol
_atom_site_label
_atom_site_fract_x
_atom_site_fract_y
_atom_site_fract_z
Si Si1 0.721753 0.702700 0.568689
Si Si2 0.106716 0.134077 0.955104
Si Si3 0.487416 0.628907 0.057854
Si Si4 0.104071 0.243161 0.601749
Si Si5 0.715771 0.631043 0.934673
Si Si6 0.154105 0.500000 0.000000
Si Si7 0.000000 0.457287 0.750000
O O1 0.794517 0.817326 0.561906
O O2 0.602382 0.720826 0.503004
O O3 0.723687 0.636120 0.740653
O O4 0.777515 0.611081 0.444314
O O5 0.125171 0.165393 0.763971
O O6 0.990137 0.182785 0.003834
O O7 0.106875 0.000000 0.000000
O O8 0.500000 0.632116 0.250000
O O9 0.452898 0.500000 0.000000
O O10 0.596897 0.667284 0.978455
O O11 0.211884 0.263243 0.503021
O O12 0.066301 0.374534 0.631540
O O13 0.741622 0.500000 0.000000
O O14 0.079571 0.539495 0.849453
#
# Coordination Sequence:
#
# PCOD8155594 Si02
#       7
#     4   4   4   4   4   2   2
#     4  12  23  37  62  88 125 161 208 253 309 372
#     4  10  23  42  64  88 119 165 213 260 304 359
#     4  11  22  37  59  88 127 165 202 248 312 381
#     4  10  21  41  57  86 123 158 205 251 307 359
#     4  11  24  36  60  94 130 163 199 247 317 383
#     4  12  22  34  58  86 130 162 196 246 316 378
#     4  10  22  34  50  84 126 160 192 244 298 380
#
# _framework density 20.162219
#
# number of rings (size 3 to 8) (size 9 to 14) (size 15 to 20)
#    0.000    1.333    4.167    4.500    3.500    3.333 
#    0.000    0.000    0.000    7.000    0.000    0.000 
#    0.000    0.000    0.000    0.000    0.000    0.000 
#
# Total GULP energy -297382.068806 kJ/mol
# GULP energy per Si atom -12390.919534 kJ/mol
# Density = 2.011633 g / cm^3
# Si number density = 20.162219 Si / 1000 Ang^3
#
#
#
# Elastic Constant Matrix: (Units=GPa)
#
#
# Indices 1 2 3 4 5 6 
#
# 1 171.8560 66.7483 50.3999 0.0000 0.0000 0.0000
# 2 66.7483 84.5885 28.9541 0.0000 0.0000 0.0000
# 3 50.3999 28.9541 87.5120 0.0000 0.0000 0.0000
# 4 0.0000 0.0000 0.0000 16.7723 0.0000 0.0000
# 5 0.0000 0.0000 0.0000 0.0000 25.3341 0.0000
# 6 0.0000 0.0000 0.0000 0.0000 0.0000 5.9809
#
#
#
# Elastic Compliance Matrix: (Units=1/GPa)
#
#
# Indices 1 2 3 4 5 6 
#
# 1 0.009141 -0.006102 -0.003245 0.000000 0.000000 0.000000
# 2 -0.006102 0.017405 -0.002244 0.000000 0.000000 0.000000
# 3 -0.003245 -0.002244 0.014039 0.000000 0.000000 0.000000
# 4 0.000000 0.000000 0.000000 0.059622 0.000000 0.000000
# 5 0.000000 0.000000 0.000000 0.000000 0.039472 0.000000
# 6 0.000000 0.000000 0.000000 0.000000 0.000000 0.167198
#
#
# Mechanical properties :
#
#
# Convention : Reuss Voigt Hill
#
# Bulk Modulus (GPa) = 57.46802 70.68457 64.07630
# Shear Modulus (GPa) = 14.88715 22.80776 18.84746
#
# Velocity S-wave (km/s) = 2.72024 3.36700 3.06075
# Velocity P-wave (km/s) = 6.19927 7.08870 6.65885
#
# Compressibility (1/GPa) = 0.01740098
#
# Stress axis : x y z
#
# Youngs Moduli (GPa) = 109.40281 57.45420 71.23179
#
# Poissons Ratio (x) = 0.35058 0.23117
# Poissons Ratio (y) = 0.66756 0.15988
# Poissons Ratio (z) = 0.35505 0.12895
#
# Static dielectric constant tensor:
#      x y z
#    x 4.238100 0.000000 0.000000 
#    y 0.000000 3.246890 0.000000 
#    z 0.000000 0.000000 3.781610 
# 
# 
# High freq. dielectric constant tensor:
#      x y z
#    x 1.810090 0.000000 0.000000 
#    y 0.000000 1.731920 0.000000 
#    z 0.000000 0.000000 1.787690 
# 
# From -- ./inp_files/4796.got.cif
#   From: 2010.03.12/outbox.cif.g09.slc.cpg/sg17_3_cif.got.tgz:4796.got - 2010.04.10 18:46:23.
