data_PCOD8155981
_publ_section_title
;
Structure prediction by ZEFSAII (Michael W. Deem and Ramdas Pophale) SiO2 
 PCOD8155981
Probable space group: P 21 21 2
;
_chemical_formula_sum "Si O2"
_cell_formula_units_Z 26
_cell_length_a 8.021735
_cell_length_b 16.427345
_cell_length_c 9.501635
_cell_angle_alpha 90.000000
_cell_angle_beta 90.000000
_cell_angle_gamma 90.000000
_cell_volume 1252.085633
_symmetry_space_group_name_H-M "P 21 21 2"
_symmetry_group_IT_number 18
_symmetry_cell_setting 'orthorhombic'
loop_
_space_group_symop_operation_xyz
x,y,z
-x,-y,z
1/2+x,1/2-y,-z
1/2-x,1/2+y,-z
loop_
_atom_site_type_symbol
_atom_site_label
_atom_site_fract_x
_atom_site_fract_y
_atom_site_fract_z
Si Si1 0.918558 0.917807 0.287615
Si Si2 0.000000 0.500000 0.261802
Si Si3 0.977525 0.327377 0.155305
Si Si4 0.652055 0.717242 0.614465
Si Si5 0.841404 0.944833 0.601098
Si Si6 0.013833 0.222756 0.674871
Si Si7 0.730525 0.791532 0.104654
O O1 0.821589 0.931483 0.433974
O O2 0.791103 0.874190 0.181524
O O3 0.077769 0.862183 0.315107
O O4 0.000000 0.000000 0.223628
O O5 0.968297 0.578514 0.163954
O O6 0.168129 0.514279 0.351870
O O7 0.929373 0.296472 0.311362
O O8 0.127486 0.275642 0.090848
O O9 0.820263 0.317013 0.052031
O O10 0.623860 0.720130 0.447524
O O11 0.849477 0.709293 0.636538
O O12 0.881140 0.861421 0.684589
O O13 0.000000 0.000000 0.635313
O O14 0.924220 0.248091 0.817771
#
# Coordination Sequence:
#
# PCOD8155981 Si02
#       7
#     4   2   4   4   4   4   4
#     4   9  21  43  62  99 134 166 216 275 342 394
#     4  12  24  42  68 102 134 174 226 278 340 424
#     4  11  24  43  63  95 131 175 225 271 333 403
#     4  10  20  37  66  92 128 172 212 267 324 403
#     4  10  21  39  66 102 137 168 215 284 341 397
#     4  11  20  39  65  98 129 170 224 266 335 397
#     4  11  24  44  68  90 132 183 221 277 333 403
#
# _framework density 20.765352
#
# number of rings (size 3 to 8) (size 9 to 14) (size 15 to 20)
#    0.000    1.538    1.538    4.615    0.000    2.462 
#    8.308    0.000    0.000    0.000    0.000    0.000 
#    0.000    0.000    0.000    0.000    0.000    0.000 
#
# Total GULP energy -322390.695459 kJ/mol
# GULP energy per Si atom -12399.642133 kJ/mol
# Density = 2.071809 g / cm^3
# Si number density = 20.765352 Si / 1000 Ang^3
#
#
#
# Elastic Constant Matrix: (Units=GPa)
#
#
# Indices 1 2 3 4 5 6 
#
# 1 121.2359 41.6217 21.1679 0.0000 0.0000 0.0000
# 2 41.6217 136.8427 37.2836 0.0000 0.0000 0.0000
# 3 21.1679 37.2836 49.1969 0.0000 0.0000 0.0000
# 4 0.0000 0.0000 0.0000 24.6309 0.0000 0.0000
# 5 0.0000 0.0000 0.0000 0.0000 35.6013 0.0000
# 6 0.0000 0.0000 0.0000 0.0000 0.0000 36.5335
#
#
#
# Elastic Compliance Matrix: (Units=1/GPa)
#
#
# Indices 1 2 3 4 5 6 
#
# 1 0.009425 -0.002220 -0.002373 0.000000 0.000000 0.000000
# 2 -0.002220 0.009732 -0.006420 0.000000 0.000000 0.000000
# 3 -0.002373 -0.006420 0.026213 0.000000 0.000000 0.000000
# 4 0.000000 0.000000 0.000000 0.040599 0.000000 0.000000
# 5 0.000000 0.000000 0.000000 0.000000 0.028089 0.000000
# 6 0.000000 0.000000 0.000000 0.000000 0.000000 0.027372
#
#
# Mechanical properties :
#
#
# Convention : Reuss Voigt Hill
#
# Bulk Modulus (GPa) = 42.83794 56.38022 49.60908
# Shear Modulus (GPa) = 29.19916 33.16661 31.18288
#
# Velocity S-wave (km/s) = 3.75393 4.00085 3.87935
# Velocity P-wave (km/s) = 6.28201 6.96795 6.63385
#
# Compressibility (1/GPa) = 0.02334379
#
# Stress axis : x y z
#
# Youngs Moduli (GPa) = 106.10223 102.75200 38.14923
#
# Poissons Ratio (x) = 0.22813 0.09052
# Poissons Ratio (y) = 0.23557 0.24493
# Poissons Ratio (z) = 0.25175 0.65969
#
# Static dielectric constant tensor:
#      x y z
#    x 3.872540 0.000000 0.000000 
#    y 0.000000 4.059320 0.000000 
#    z 0.000000 0.000000 3.604270 
# 
# 
# High freq. dielectric constant tensor:
#      x y z
#    x 1.825850 0.000000 0.000000 
#    y 0.000000 1.816190 0.000000 
#    z 0.000000 0.000000 1.798120 
# 
# From -- ./inp_files/3360.got.cif
#   From: 2010.03.12/outbox.cif.g09.slc.cpg/sg18_2_cif.got.tgz:3360.got - 2010.04.10 18:53:55.
