data_PCOD8155966
_publ_section_title
;
Structure prediction by ZEFSAII (Michael W. Deem and Ramdas Pophale) SiO2 
 PCOD8155966
Probable space group: P 21 21 2
;
_chemical_formula_sum "Si O2"
_cell_formula_units_Z 30
_cell_length_a 9.822452
_cell_length_b 15.652100
_cell_length_c 11.105950
_cell_angle_alpha 90.000000
_cell_angle_beta 90.000000
_cell_angle_gamma 90.000000
_cell_volume 1707.450975
_symmetry_space_group_name_H-M "P 21 21 2"
_symmetry_group_IT_number 18
_symmetry_cell_setting 'orthorhombic'
loop_
_space_group_symop_operation_xyz
x,y,z
-x,-y,z
1/2+x,1/2-y,-z
1/2-x,1/2+y,-z
loop_
_atom_site_type_symbol
_atom_site_label
_atom_site_fract_x
_atom_site_fract_y
_atom_site_fract_z
Si Si1 0.041609 0.678731 0.594641
Si Si2 0.055551 0.916405 0.348367
Si Si3 0.248504 0.985162 0.152127
Si Si4 0.183128 0.793698 0.766080
Si Si5 0.000000 0.500000 0.694015
Si Si6 0.253955 0.301136 0.493175
Si Si7 0.078263 0.911390 0.967157
Si Si8 0.121871 0.157790 0.156983
O O1 0.052084 0.576218 0.607867
O O2 0.896242 0.710661 0.545662
O O3 0.069332 0.723921 0.723866
O O4 0.161658 0.710987 0.503472
O O5 0.119988 0.958280 0.230417
O O6 0.165639 0.870014 0.428917
O O7 0.940247 0.853018 0.293402
O O8 0.000000 0.000000 0.421772
O O9 0.386637 0.959861 0.218760
O O10 0.238479 0.086840 0.132957
O O11 0.225584 0.933619 0.027458
O O12 0.250763 0.834767 0.645252
O O13 0.107536 0.866625 0.840783
O O14 0.301317 0.748740 0.845593
O O15 0.000000 0.000000 0.944290
O O16 0.990973 0.846806 0.051562
#
# Coordination Sequence:
#
# PCOD8155966 Si02
#       8
#     4   4   4   4   2   4   4   4
#     4  10  23  35  57  82 119 152 194 247 286 340
#     4   9  17  30  57  83 105 151 192 233 294 341
#     4   9  17  32  56  80 107 138 189 244 282 326
#     4  10  21  35  56  82 115 151 194 234 291 348
#     4  12  18  34  58  90 108 140 206 250 282 324
#     4  10  20  37  52  82 121 149 191 243 290 344
#     4   9  20  37  57  81 115 153 185 233 290 359
#     4   9  17  35  53  78 110 141 193 245 276 333
#
# _framework density 17.570050999999999
#
# number of rings (size 3 to 8) (size 9 to 14) (size 15 to 20)
#    0.800    1.600    2.667    2.400    0.000    1.600 
#    0.000    0.000    0.000    0.800    0.000    0.000 
#    0.000    0.000    0.000    0.000    0.000    0.000 
#
# Total GULP energy -371663.624621 kJ/mol
# GULP energy per Si atom -12388.787487 kJ/mol
# Density = 1.753006 g / cm^3
# Si number density = 17.570051 Si / 1000 Ang^3
#
#
#
# Elastic Constant Matrix: (Units=GPa)
#
#
# Indices 1 2 3 4 5 6 
#
# 1 91.1999 32.9911 33.7507 0.0000 0.0000 0.0000
# 2 32.9911 77.0081 37.0047 0.0000 0.0000 0.0000
# 3 33.7507 37.0047 71.3752 0.0000 0.0000 0.0000
# 4 0.0000 0.0000 0.0000 20.3165 0.0000 0.0000
# 5 0.0000 0.0000 0.0000 0.0000 25.4094 0.0000
# 6 0.0000 0.0000 0.0000 0.0000 0.0000 25.2780
#
#
#
# Elastic Compliance Matrix: (Units=1/GPa)
#
#
# Indices 1 2 3 4 5 6 
#
# 1 0.014067 -0.003769 -0.004698 0.000000 0.000000 0.000000
# 2 -0.003769 0.018304 -0.007708 0.000000 0.000000 0.000000
# 3 -0.004698 -0.007708 0.020228 0.000000 0.000000 0.000000
# 4 0.000000 0.000000 0.000000 0.049221 0.000000 0.000000
# 5 0.000000 0.000000 0.000000 0.000000 0.039356 0.000000
# 6 0.000000 0.000000 0.000000 0.000000 0.000000 0.039560
#
#
# Mechanical properties :
#
#
# Convention : Reuss Voigt Hill
#
# Bulk Modulus (GPa) = 49.38207 49.67514 49.52860
# Shear Modulus (GPa) = 22.74445 23.25656 23.00050
#
# Velocity S-wave (km/s) = 3.60182 3.64214 3.62204
# Velocity P-wave (km/s) = 6.74272 6.78387 6.76333
#
# Compressibility (1/GPa) = 0.02025027
#
# Stress axis : x y z
#
# Youngs Moduli (GPa) = 71.08924 54.63270 49.43685
#
# Poissons Ratio (x) = 0.20591 0.23224
# Poissons Ratio (y) = 0.26794 0.38104
# Poissons Ratio (z) = 0.33395 0.42109
#
# Static dielectric constant tensor:
#      x y z
#    x 3.205110 0.000000 0.000000 
#    y 0.000000 3.107490 0.000000 
#    z 0.000000 0.000000 3.046750 
# 
# 
# High freq. dielectric constant tensor:
#      x y z
#    x 1.678950 0.000000 0.000000 
#    y 0.000000 1.666650 0.000000 
#    z 0.000000 0.000000 1.654280 
# 
# From -- ./inp_files/5975.got.cif
#   From: 2010.03.12/outbox.cif.g09.slc.cpg/sg18_3_cif.got.tgz:5975.got - 2010.04.10 18:53:55.
