data_PCOD8155109
_publ_section_title
;
Structure prediction by ZEFSAII (Michael W. Deem and Ramdas Pophale) SiO2 
 PCOD8155109
Probable space group: C 2/C
;
_chemical_formula_sum "Si O2"
_cell_formula_units_Z 44
_cell_length_a 6.856757
_cell_length_b 17.549091
_cell_length_c 19.017943
_cell_angle_alpha 90.000000
_cell_angle_beta 114.886941
_cell_angle_gamma 90.000000
_cell_volume 2075.922908
_symmetry_space_group_name_H-M "C 2/C"
_symmetry_group_IT_number 15
_symmetry_cell_setting 'monoclinic'
loop_
_space_group_symop_operation_xyz
x,y,z
-x,y,1/2-z
-x,-y,-z
x,-y,1/2+z
1/2+x,1/2+y,z
1/2-x,1/2+y,1/2-z
1/2-x,1/2-y,-z
1/2+x,1/2-y,1/2+z
loop_
_atom_site_type_symbol
_atom_site_label
_atom_site_fract_x
_atom_site_fract_y
_atom_site_fract_z
Si Si1 0.863174 0.573721 0.489455
Si Si2 0.249287 0.685730 0.557405
Si Si3 0.000000 0.327911 0.250000
Si Si4 0.263993 0.780385 0.698746
Si Si5 0.013329 0.934025 0.668770
Si Si6 0.667670 0.419437 0.110181
O O1 0.723448 0.579072 0.397619
O O2 0.712495 0.564687 0.535083
O O3 0.000000 0.500000 0.500000
O O4 0.018959 0.645489 0.517874
O O5 0.250000 0.750000 0.500000
O O6 0.261847 0.726284 0.632594
O O7 0.449168 0.628719 0.580632
O O8 0.816603 0.272768 0.250975
O O9 0.879813 0.378844 0.173550
O O10 0.500000 0.810387 0.750000
O O11 0.128010 0.855710 0.667591
O O12 0.000000 0.950769 0.750000
O O13 0.135147 0.003080 0.648853
#
# Coordination Sequence:
#
# PCOD8155109 Si02
#       6
#     8   8   4   8   8   8
#     4  12  28  50  75 106 149 194 246 304 365 443
#     4  12  28  47  80 105 144 196 248 304 369 432
#     4  12  26  48  76 108 146 194 250 302 362 440
#     4  12  27  49  72 110 150 191 246 306 366 433
#     4  12  30  47  76 111 151 195 244 302 375 442
#     4  12  28  50  75 109 149 195 248 301 367 443
#
# _framework density 21.195392999999999
#
# number of rings (size 3 to 8) (size 9 to 14) (size 15 to 20)
#    0.000    0.000    6.364    1.636   14.000    1.455 
#    0.000    0.000    0.000    0.000    0.000    0.000 
#    0.000    0.000    0.000    0.000    0.000    0.000 
#
# Total GULP energy -272860.545923 kJ/mol
# GULP energy per Si atom -12402.752087 kJ/mol
# Density = 2.114715 g / cm^3
# Si number density = 21.195393 Si / 1000 Ang^3
#
#
#
# Elastic Constant Matrix: (Units=GPa)
#
#
# Indices 1 2 3 4 5 6 
#
# 1 118.4928 61.5693 70.8173 0.0000 -3.6970 0.0000
# 2 61.5693 134.7891 45.4899 0.0000 -3.1237 0.0000
# 3 70.8173 45.4899 144.7386 0.0000 4.0779 0.0000
# 4 0.0000 0.0000 0.0000 17.6773 0.0000 2.5991
# 5 -3.6970 -3.1237 4.0779 0.0000 52.9579 0.0000
# 6 0.0000 0.0000 0.0000 2.5991 0.0000 53.4721
#
#
#
# Elastic Compliance Matrix: (Units=1/GPa)
#
#
# Indices 1 2 3 4 5 6 
#
# 1 0.014150 -0.004575 -0.005517 0.000000 0.001143 0.000000
# 2 -0.004575 0.009804 -0.000852 0.000000 0.000325 0.000000
# 3 -0.005517 -0.000852 0.009910 0.000000 -0.001199 0.000000
# 4 0.000000 0.000000 0.000000 0.056977 0.000000 -0.002769
# 5 0.001143 0.000325 -0.001199 0.000000 0.019074 0.000000
# 6 0.000000 0.000000 0.000000 -0.002769 0.000000 0.018836
#
#
# Mechanical properties :
#
#
# Convention : Reuss Voigt Hill
#
# Bulk Modulus (GPa) = 83.50757 83.75260 83.63009
# Shear Modulus (GPa) = 32.33519 39.49774 35.91647
#
# Velocity S-wave (km/s) = 3.91010 4.32152 4.12095
# Velocity P-wave (km/s) = 7.73755 8.03125 7.88577
#
# Compressibility (1/GPa) = 0.01197496
#
# Stress axis : x y z
#
# Youngs Moduli (GPa) = 70.67373 102.00214 100.90679
#
# Poissons Ratio (x) = 0.46663 0.55675
# Poissons Ratio (y) = 0.32331 0.08598
# Poissons Ratio (z) = 0.38994 0.08691
#
# Static dielectric constant tensor:
#      x y z
#    x 2.791430 0.000000 -0.422730 
#    y 0.000000 3.318740 0.000000 
#    z -0.422730 0.000000 3.830170 
# 
# 
# High freq. dielectric constant tensor:
#      x y z
#    x 1.847880 0.000000 0.002850 
#    y 0.000000 1.851480 0.000000 
#    z 0.002850 0.000000 1.849780 
# 
# From -- ./inp_files/227048.got.cif
#   From: 2010.06.25/outbox.cif.g09.slc.cpg/sg15_114_cif.got.tgz:227048.got - 2010.06.28 07:06:18.
