data_PCOD8155920
_publ_section_title
;
Structure prediction by ZEFSAII (Michael W. Deem and Ramdas Pophale) SiO2 
 PCOD8155920
Probable space group: P 21 21 2
;
_chemical_formula_sum "Si O2"
_cell_formula_units_Z 24
_cell_length_a 11.194755
_cell_length_b 8.907087
_cell_length_c 11.415553
_cell_angle_alpha 90.000000
_cell_angle_beta 90.000000
_cell_angle_gamma 90.000000
_cell_volume 1138.275118
_symmetry_space_group_name_H-M "P 21 21 2"
_symmetry_group_IT_number 18
_symmetry_cell_setting 'orthorhombic'
loop_
_space_group_symop_operation_xyz
x,y,z
-x,-y,z
1/2+x,1/2-y,-z
1/2-x,1/2+y,-z
loop_
_atom_site_type_symbol
_atom_site_label
_atom_site_fract_x
_atom_site_fract_y
_atom_site_fract_z
Si Si1 0.770536 0.067897 0.822137
Si Si2 0.562551 0.282271 0.823314
Si Si3 0.434673 0.341460 0.600098
Si Si4 0.710357 0.240700 0.258611
Si Si5 0.036960 0.827088 0.659538
Si Si6 0.158838 0.919525 0.079534
O O1 0.644204 0.141310 0.855315
O O2 0.849560 0.186997 0.746859
O O3 0.752349 0.915721 0.749702
O O4 0.833788 0.030424 0.945406
O O5 0.518122 0.250784 0.690553
O O6 0.634376 0.438375 0.836542
O O7 0.447922 0.296610 0.908598
O O8 0.500000 0.500000 0.588420
O O9 0.298594 0.342010 0.648921
O O10 0.429197 0.269545 0.470449
O O11 0.573007 0.224165 0.297289
O O12 0.722974 0.161256 0.131175
O O13 0.000000 0.000000 0.661921
#
# Coordination Sequence:
#
# PCOD8155920 Si02
#       6
#     4   4   4   4   4   4
#     4  11  23  36  63  93 124 153 206 260 302 355
#     4  10  21  38  61  85 119 163 197 243 313 355
#     4  10  19  41  63  85 118 163 204 249 310 373
#     4  10  21  40  64  92 115 163 207 247 307 369
#     4   9  22  37  62  91 122 157 201 257 313 361
#     4  10  21  38  63  85 121 163 195 243 305 380
#
# _framework density 21.084531999999999
#
# number of rings (size 3 to 8) (size 9 to 14) (size 15 to 20)
#    0.000    2.000    3.333    1.000   11.667    2.667 
#    0.000    0.833    3.667    0.000    0.000    0.000 
#    0.000    0.000    0.000    0.000    0.000    0.000 
#
# Total GULP energy -297425.814264 kJ/mol
# GULP energy per Si atom -12392.742261 kJ/mol
# Density = 2.103654 g / cm^3
# Si number density = 21.084532 Si / 1000 Ang^3
#
#
#
# Elastic Constant Matrix: (Units=GPa)
#
#
# Indices 1 2 3 4 5 6 
#
# 1 54.9258 9.9390 34.3365 0.0000 0.0000 0.0000
# 2 9.9390 24.0793 8.1775 0.0000 0.0000 0.0000
# 3 34.3365 8.1775 127.5020 0.0000 0.0000 0.0000
# 4 0.0000 0.0000 0.0000 19.1844 0.0000 0.0000
# 5 0.0000 0.0000 0.0000 0.0000 26.8253 0.0000
# 6 0.0000 0.0000 0.0000 0.0000 0.0000 37.5440
#
#
#
# Elastic Compliance Matrix: (Units=1/GPa)
#
#
# Indices 1 2 3 4 5 6 
#
# 1 0.023182 -0.007614 -0.005754 0.000000 0.000000 0.000000
# 2 -0.007614 0.044955 -0.000833 0.000000 0.000000 0.000000
# 3 -0.005754 -0.000833 0.009446 0.000000 0.000000 0.000000
# 4 0.000000 0.000000 0.000000 0.052126 0.000000 0.000000
# 5 0.000000 0.000000 0.000000 0.000000 0.037278 0.000000
# 6 0.000000 0.000000 0.000000 0.000000 0.000000 0.026635
#
#
# Mechanical properties :
#
#
# Convention : Reuss Voigt Hill
#
# Bulk Modulus (GPa) = 20.33347 34.60147 27.46747
# Shear Modulus (GPa) = 20.97154 26.98101 23.97627
#
# Velocity S-wave (km/s) = 3.15721 3.58111 3.37582
# Velocity P-wave (km/s) = 4.79118 5.79186 5.31512
#
# Compressibility (1/GPa) = 0.04918000
#
# Stress axis : x y z
#
# Youngs Moduli (GPa) = 43.13771 22.24439 105.86360
#
# Poissons Ratio (x) = 0.16937 0.60919
# Poissons Ratio (y) = 0.32846 0.08816
# Poissons Ratio (z) = 0.24824 0.01852
#
# Static dielectric constant tensor:
#      x y z
#    x 3.919910 0.000000 0.000000 
#    y 0.000000 3.432690 0.000000 
#    z 0.000000 0.000000 4.061380 
# 
# 
# High freq. dielectric constant tensor:
#      x y z
#    x 1.824770 0.000000 0.000000 
#    y 0.000000 1.789320 0.000000 
#    z 0.000000 0.000000 1.832170 
# 
# From -- ./inp_files/5834.got.cif
#   From: 2010.03.12/outbox.cif.g09.slc.cpg/sg18_3_cif.got.tgz:5834.got - 2010.04.10 18:53:55.
