data_PCOD8155042
_publ_section_title
;
Structure prediction by ZEFSAII (Michael W. Deem and Ramdas Pophale) SiO2 
 PCOD8155042
Probable space group: C 2/C
;
_chemical_formula_sum "Si O2"
_cell_formula_units_Z 56
_cell_length_a 16.521744
_cell_length_b 9.289856
_cell_length_c 17.733503
_cell_angle_alpha 90.000000
_cell_angle_beta 118.669521
_cell_angle_gamma 90.000000
_cell_volume 2388.128961
_symmetry_space_group_name_H-M "C 2/C"
_symmetry_group_IT_number 15
_symmetry_cell_setting 'monoclinic'
loop_
_space_group_symop_operation_xyz
x,y,z
-x,y,1/2-z
-x,-y,-z
x,-y,1/2+z
1/2+x,1/2+y,z
1/2-x,1/2+y,1/2-z
1/2-x,1/2-y,-z
1/2+x,1/2-y,1/2+z
loop_
_atom_site_type_symbol
_atom_site_label
_atom_site_fract_x
_atom_site_fract_y
_atom_site_fract_z
Si Si1 0.105073 0.035800 0.024524
Si Si2 0.857293 0.389519 0.321206
Si Si3 0.625952 0.873850 0.006159
Si Si4 0.966401 0.634338 0.317565
Si Si5 0.285936 0.601929 0.050998
Si Si6 0.850363 0.104427 0.807218
Si Si7 0.593420 0.640554 0.255665
O O1 0.166445 0.966912 0.118613
O O2 0.135869 0.200875 0.022325
O O3 0.125677 0.949434 0.957211
O O4 0.000000 0.000000 0.000000
O O5 0.901063 0.429833 0.422353
O O6 0.902518 0.493859 0.278896
O O7 0.747388 0.395486 0.277948
O O8 0.882532 0.229423 0.308266
O O9 0.552049 0.904375 0.908758
O O10 0.715244 0.966337 0.020304
O O11 0.000000 0.686406 0.250000
O O12 0.900349 0.742785 0.333812
O O13 0.320201 0.645319 0.149202
O O14 0.250000 0.750000 0.000000
O O15 0.920358 0.018329 0.783862
O O16 0.500000 0.699034 0.250000
#
# Coordination Sequence:
#
# PCOD8155042 Si02
#       7
#     8   8   8   8   8   8   8
#     4  12  26  50  78 113 152 202 251 315 387 459
#     4  12  27  49  76 107 151 199 252 312 385 452
#     4  12  28  50  76 114 154 202 256 314 386 464
#     4  12  30  47  77 112 153 198 254 317 381 455
#     4  12  30  48  79 112 154 198 259 319 381 457
#     4  12  25  48  75 110 150 197 253 308 383 461
#     4  12  26  47  75 110 148 197 252 314 380 451
#
# _framework density 23.44932
#
# number of rings (size 3 to 8) (size 9 to 14) (size 15 to 20)
#    0.000    0.000    4.286    4.286   10.000    0.000 
#    0.000    0.000    0.000    0.000    0.000    0.000 
#    0.000    0.000    0.000    0.000    0.000    0.000 
#
# Total GULP energy -347075.570634 kJ/mol
# GULP energy per Si atom -12395.556094 kJ/mol
# Density = 2.339595 g / cm^3
# Si number density = 23.449320 Si / 1000 Ang^3
#
#
#
# Elastic Constant Matrix: (Units=GPa)
#
#
# Indices 1 2 3 4 5 6 
#
# 1 128.2178 51.3656 48.1378 0.0000 -0.4036 0.0000
# 2 51.3656 116.7480 20.4904 0.0000 4.5415 0.0000
# 3 48.1378 20.4904 112.8320 0.0000 6.8910 0.0000
# 4 0.0000 0.0000 0.0000 32.3579 0.0000 -2.5650
# 5 -0.4036 4.5415 6.8910 0.0000 37.9387 0.0000
# 6 0.0000 0.0000 0.0000 -2.5650 0.0000 37.8635
#
#
#
# Elastic Compliance Matrix: (Units=1/GPa)
#
#
# Indices 1 2 3 4 5 6 
#
# 1 0.010984 -0.004181 -0.004009 0.000000 0.001346 0.000000
# 2 -0.004181 0.010462 -0.000037 0.000000 -0.001290 0.000000
# 3 -0.004009 -0.000037 0.010701 0.000000 -0.001982 0.000000
# 4 0.000000 0.000000 0.000000 0.031071 0.000000 0.002105
# 5 0.001346 -0.001290 -0.001982 0.000000 0.026887 0.000000
# 6 0.000000 0.000000 0.000000 0.002105 0.000000 0.026553
#
#
# Mechanical properties :
#
#
# Convention : Reuss Voigt Hill
#
# Bulk Modulus (GPa) = 63.72813 66.42061 65.07437
# Shear Modulus (GPa) = 36.14214 37.48562 36.81388
#
# Velocity S-wave (km/s) = 3.93018 4.00256 3.96654
# Velocity P-wave (km/s) = 6.91600 7.05318 6.98493
#
# Compressibility (1/GPa) = 0.01569166
#
# Stress axis : x y z
#
# Youngs Moduli (GPa) = 91.04519 95.58611 93.45073
#
# Poissons Ratio (x) = 0.39966 0.37463
# Poissons Ratio (y) = 0.38068 0.00348
# Poissons Ratio (z) = 0.36498 0.00356
#
# Static dielectric constant tensor:
#      x y z
#    x 4.095320 0.000000 -0.142040 
#    y 0.000000 4.315460 0.000000 
#    z -0.142040 0.000000 4.407880 
# 
# 
# High freq. dielectric constant tensor:
#      x y z
#    x 1.927620 0.000000 -0.007380 
#    y 0.000000 1.941990 0.000000 
#    z -0.007380 0.000000 1.941100 
# 
# From -- ./inp_files/209622.got.cif
#   From: 2010.06.25/outbox.cif.g09.slc.cpg/sg15_105_cif.got.tgz:209622.got - 2010.06.28 07:06:18.
