data_PCOD8155314
_publ_section_title
;
Structure prediction by ZEFSAII (Michael W. Deem and Ramdas Pophale) SiO2 
 PCOD8155314
Probable space group: P 2 2 2
;
_chemical_formula_sum "Si O2"
_cell_formula_units_Z 27
_cell_length_a 8.063796
_cell_length_b 9.867310
_cell_length_c 16.358974
_cell_angle_alpha 90.000000
_cell_angle_beta 90.000000
_cell_angle_gamma 90.000000
_cell_volume 1301.650433
_symmetry_space_group_name_H-M "P 2 2 2"
_symmetry_group_IT_number 16
_symmetry_cell_setting 'orthorhombic'
loop_
_space_group_symop_operation_xyz
x,y,z
-x,-y,z
x,-y,-z
-x,y,-z
loop_
_atom_site_type_symbol
_atom_site_label
_atom_site_fract_x
_atom_site_fract_y
_atom_site_fract_z
Si Si1 0.000000 0.500000 0.191025
Si Si2 0.969576 0.223582 0.093081
Si Si3 0.683846 0.781277 0.409502
Si Si4 0.687684 0.517497 0.308114
Si Si5 0.500000 0.000000 0.000000
Si Si6 0.304009 0.255530 0.590544
Si Si7 0.187799 0.018997 0.693553
Si Si8 0.751187 0.982659 0.130819
O O1 0.973380 0.366174 0.138085
O O2 0.829542 0.503360 0.241097
O O3 0.105688 0.126968 0.131834
O O4 0.800201 0.135228 0.100883
O O5 0.000000 0.258029 0.000000
O O6 0.722757 0.662624 0.346626
O O7 0.765203 0.750752 0.498086
O O8 0.488229 0.804039 0.413229
O O9 0.766622 0.917915 0.378486
O O10 0.500000 0.500000 0.270713
O O11 0.704367 0.410368 0.381347
O O12 0.615756 0.078587 0.933463
O O13 0.200587 0.169362 0.656212
O O14 0.305119 0.998086 0.773967
O O15 0.000000 0.000000 0.723507
#
# Coordination Sequence:
#
# PCOD8155314 Si02
#       8
#     2   4   4   4   1   4   4   4
#     4  12  25  42  67  96 136 172 210 278 343 385
#     4  11  21  45  65  89 126 172 204 253 343 399
#     4  10  22  41  62  89 130 174 218 271 327 377
#     4  10  23  43  65  93 121 175 230 267 322 394
#     4  12  24  42  72 106 122 162 228 270 324 382
#     4  10  22  41  62  89 130 174 218 271 327 377
#     4  12  24  38  61  96 130 168 212 267 329 388
#     4  11  23  42  68  95 125 166 213 266 314 401
#
# _framework density 20.742895999999998
#
# number of rings (size 3 to 8) (size 9 to 14) (size 15 to 20)
#    0.000    1.185    2.963    3.778    4.148    4.148 
#    2.667    0.741    0.000    1.778    0.000    0.000 
#    0.000    0.000    0.000    0.000    0.000    0.000 
#
# Total GULP energy -334595.592864 kJ/mol
# GULP energy per Si atom -12392.429365 kJ/mol
# Density = 2.069568 g / cm^3
# Si number density = 20.742896 Si / 1000 Ang^3
#
#
#
# Elastic Constant Matrix: (Units=GPa)
#
#
# Indices 1 2 3 4 5 6 
#
# 1 71.3187 23.3091 37.9174 0.0000 0.0000 0.0000
# 2 23.3091 96.0026 25.3973 0.0000 0.0000 0.0000
# 3 37.9174 25.3973 128.4783 0.0000 0.0000 0.0000
# 4 0.0000 0.0000 0.0000 33.2941 0.0000 0.0000
# 5 0.0000 0.0000 0.0000 0.0000 22.6165 0.0000
# 6 0.0000 0.0000 0.0000 0.0000 0.0000 16.4138
#
#
#
# Elastic Compliance Matrix: (Units=1/GPa)
#
#
# Indices 1 2 3 4 5 6 
#
# 1 0.017428 -0.003029 -0.004545 0.000000 0.000000 0.000000
# 2 -0.003029 0.011518 -0.001383 0.000000 0.000000 0.000000
# 3 -0.004545 -0.001383 0.009398 0.000000 0.000000 0.000000
# 4 0.000000 0.000000 0.000000 0.030035 0.000000 0.000000
# 5 0.000000 0.000000 0.000000 0.000000 0.044216 0.000000
# 6 0.000000 0.000000 0.000000 0.000000 0.000000 0.060924
#
#
# Mechanical properties :
#
#
# Convention : Reuss Voigt Hill
#
# Bulk Modulus (GPa) = 48.94683 52.11636 50.53160
# Shear Modulus (GPa) = 25.22170 28.40993 26.81581
#
# Velocity S-wave (km/s) = 3.49079 3.70486 3.59941
# Velocity P-wave (km/s) = 6.31630 6.59399 6.45664
#
# Compressibility (1/GPa) = 0.02043033
#
# Stress axis : x y z
#
# Youngs Moduli (GPa) = 57.37966 86.82316 106.40565
#
# Poissons Ratio (x) = 0.26300 0.48357
# Poissons Ratio (y) = 0.17381 0.14714
# Poissons Ratio (z) = 0.26077 0.12006
#
# Static dielectric constant tensor:
#      x y z
#    x 4.068270 0.000000 0.000000 
#    y 0.000000 3.769600 0.000000 
#    z 0.000000 0.000000 3.899800 
# 
# 
# High freq. dielectric constant tensor:
#      x y z
#    x 1.800890 0.000000 0.000000 
#    y 0.000000 1.808440 0.000000 
#    z 0.000000 0.000000 1.829220 
# 
# From -- ./inp_files/8937.got.cif
#   From: 2010.03.12/outbox.cif.g09.slc.cpg/sg16_5_cif.got.tgz:8937.got - 2010.03.31 00:51:45.
