data_PCOD8155588
_publ_section_title
;
Structure prediction by ZEFSAII (Michael W. Deem and Ramdas Pophale) SiO2 
 PCOD8155588
Probable space group: P 2 2 21
;
_chemical_formula_sum "Si O2"
_cell_formula_units_Z 12
_cell_length_a 13.104096
_cell_length_b 7.973283
_cell_length_c 4.940732
_cell_angle_alpha 90.000000
_cell_angle_beta 90.000000
_cell_angle_gamma 90.000000
_cell_volume 516.220851
_symmetry_space_group_name_H-M "P 2 2 21"
_symmetry_group_IT_number 17
_symmetry_cell_setting 'orthorhombic'
loop_
_space_group_symop_operation_xyz
x,y,z
-x,-y,1/2+z
x,-y,-z
-x,y,1/2-z
loop_
_atom_site_type_symbol
_atom_site_label
_atom_site_fract_x
_atom_site_fract_y
_atom_site_fract_z
Si Si1 0.602872 0.181973 0.615791
Si Si2 0.070051 0.193480 0.495289
Si Si3 0.711132 0.316448 0.087689
O O1 0.500000 0.261981 0.750000
O O2 0.657546 0.287393 0.377968
O O3 0.576496 0.000000 0.500000
O O4 0.679373 0.175350 0.868265
O O5 0.166902 0.309424 0.427498
O O6 0.000000 0.244199 0.750000
O O7 0.105361 0.000000 0.500000
O O8 0.000000 0.233546 0.250000
O O9 0.673793 0.500000 0.000000
#
# Coordination Sequence:
#
# PCOD8155588 Si02
#       3
#     4   4   4
#     4  12  25  46  71  96 129 177 233 280 329 399
#     4  10  21  39  65  96 131 175 224 271 323 393
#     4  12  26  43  68 102 140 176 216 279 347 402
#
# _framework density 23.245861999999999
#
# number of rings (size 3 to 8) (size 9 to 14) (size 15 to 20)
#    0.000    0.667    0.000    9.000    0.000    6.667 
#    0.000    1.667    0.000    0.000    0.000    0.000 
#    0.000    0.000    0.000    0.000    0.000    0.000 
#
# Total GULP energy -148672.715885 kJ/mol
# GULP energy per Si atom -12389.392990 kJ/mol
# Density = 2.319295 g / cm^3
# Si number density = 23.245862 Si / 1000 Ang^3
#
#
#
# Elastic Constant Matrix: (Units=GPa)
#
#
# Indices 1 2 3 4 5 6 
#
# 1 166.1221 44.0659 89.0232 0.0000 0.0000 0.0000
# 2 44.0659 48.0023 23.0389 0.0000 0.0000 0.0000
# 3 89.0232 23.0389 189.5971 0.0000 0.0000 0.0000
# 4 0.0000 0.0000 0.0000 22.9595 0.0000 0.0000
# 5 0.0000 0.0000 0.0000 0.0000 77.3372 0.0000
# 6 0.0000 0.0000 0.0000 0.0000 0.0000 13.4701
#
#
#
# Elastic Compliance Matrix: (Units=1/GPa)
#
#
# Indices 1 2 3 4 5 6 
#
# 1 0.010013 -0.007365 -0.003807 0.000000 0.000000 0.000000
# 2 -0.007365 0.027540 0.000112 0.000000 0.000000 0.000000
# 3 -0.003807 0.000112 0.007048 0.000000 0.000000 0.000000
# 4 0.000000 0.000000 0.000000 0.043555 0.000000 0.000000
# 5 0.000000 0.000000 0.000000 0.000000 0.012930 0.000000
# 6 0.000000 0.000000 0.000000 0.000000 0.000000 0.074239
#
#
# Mechanical properties :
#
#
# Convention : Reuss Voigt Hill
#
# Bulk Modulus (GPa) = 44.48167 79.55306 62.01737
# Shear Modulus (GPa) = 24.39746 39.25958 31.82852
#
# Velocity S-wave (km/s) = 3.24317 4.11406 3.70430
# Velocity P-wave (km/s) = 5.76204 7.54083 6.71063
#
# Compressibility (1/GPa) = 0.02248117
#
# Stress axis : x y z
#
# Youngs Moduli (GPa) = 99.86687 36.31089 141.88125
#
# Poissons Ratio (x) = 0.26744 0.54009
# Poissons Ratio (y) = 0.73554 -0.01585
# Poissons Ratio (z) = 0.38016 -0.00406
#
# Static dielectric constant tensor:
#      x y z
#    x 4.174960 0.000000 0.000000 
#    y 0.000000 3.695950 0.000000 
#    z 0.000000 0.000000 4.479290 
# 
# 
# High freq. dielectric constant tensor:
#      x y z
#    x 1.937170 0.000000 0.000000 
#    y 0.000000 1.898260 0.000000 
#    z 0.000000 0.000000 1.943830 
# 
# From -- ./inp_files/445.got.cif
#   From: 2010.03.12/outbox.cif.g09.slc.cpg/sg17_1_cif.got.tgz:445.got - 2010.04.10 18:46:23.
