data_PCOD8155353
_publ_section_title
;
Structure prediction by ZEFSAII (Michael W. Deem and Ramdas Pophale) SiO2 
 PCOD8155353
Probable space group: P 2 2 21
;
_chemical_formula_sum "Si O2"
_cell_formula_units_Z 32
_cell_length_a 8.277518
_cell_length_b 5.345833
_cell_length_c 33.331860
_cell_angle_alpha 90.000000
_cell_angle_beta 90.000000
_cell_angle_gamma 90.000000
_cell_volume 1474.942434
_symmetry_space_group_name_H-M "P 2 2 21"
_symmetry_group_IT_number 17
_symmetry_cell_setting 'orthorhombic'
loop_
_space_group_symop_operation_xyz
x,y,z
-x,-y,1/2+z
x,-y,-z
-x,y,1/2-z
loop_
_atom_site_type_symbol
_atom_site_label
_atom_site_fract_x
_atom_site_fract_y
_atom_site_fract_z
Si Si1 0.746909 0.246610 0.651135
Si Si2 0.898067 0.752438 0.867782
Si Si3 0.272757 0.747291 0.887734
Si Si4 0.695944 0.250296 0.480467
Si Si5 0.157010 0.231865 0.274864
Si Si6 0.947516 0.749743 0.013664
Si Si7 0.313481 0.259655 0.755298
Si Si8 0.919447 0.748097 0.105546
O O1 0.659759 0.498516 0.634676
O O2 0.740402 0.238417 0.698833
O O3 0.933133 0.247147 0.637237
O O4 0.659150 0.997425 0.633971
O O5 0.896249 0.759304 0.820512
O O6 0.812847 0.499995 0.884870
O O7 0.079093 0.746580 0.885681
O O8 0.813307 0.001805 0.886065
O O9 0.335307 0.747091 0.933124
O O10 0.617222 0.500000 0.500000
O O11 0.886999 0.249926 0.488609
O O12 0.617587 0.000000 0.500000
O O13 0.223016 0.504227 0.263800
O O14 0.000000 0.164059 0.250000
O O15 0.279747 0.002439 0.267386
O O16 0.986836 0.746717 0.060612
O O17 0.849654 0.500000 0.000000
O O18 0.850155 0.000000 0.000000
O O19 0.500000 0.318640 0.750000
#
# Coordination Sequence:
#
# PCOD8155353 Si02
#       8
#     4   4   4   4   4   4   4   4
#     4  10  18  32  49  67  96 139 184 220 272 344
#     4  10  18  29  46  70  98 131 175 226 271 323
#     4  10  18  29  46  73 105 143 182 227 279 337
#     4  10  16  24  38  62 100 147 176 207 268 344
#     4  12  23  40  64  89 113 149 202 249 292 353
#     4  10  16  23  36  59  96 145 176 205 264 343
#     4  12  26  43  61  86 120 157 195 251 314 363
#     4  10  17  28  44  70 104 141 178 225 280 335
#
# _framework density 21.695764
#
# number of rings (size 3 to 8) (size 9 to 14) (size 15 to 20)
#    0.000    1.500    0.000   12.750    0.000    0.000 
#    0.000    0.000    0.000    0.000    0.000    0.000 
#    0.000    0.000    0.000  274.500    0.000    0.000 
#
# Total GULP energy -396578.665761 kJ/mol
# GULP energy per Si atom -12393.083305 kJ/mol
# Density = 2.164638 g / cm^3
# Si number density = 21.695764 Si / 1000 Ang^3
#
#
#
# Elastic Constant Matrix: (Units=GPa)
#
#
# Indices 1 2 3 4 5 6 
#
# 1 20.8403 1.1925 9.0559 0.0000 0.0000 0.0000
# 2 1.1925 254.7389 60.9765 0.0000 0.0000 0.0000
# 3 9.0559 60.9765 130.7497 0.0000 0.0000 0.0000
# 4 0.0000 0.0000 0.0000 47.7324 0.0000 0.0000
# 5 0.0000 0.0000 0.0000 0.0000 1.9584 0.0000
# 6 0.0000 0.0000 0.0000 0.0000 0.0000 11.3432
#
#
#
# Elastic Compliance Matrix: (Units=1/GPa)
#
#
# Indices 1 2 3 4 5 6 
#
# 1 0.049572 0.000664 -0.003743 0.000000 0.000000 0.000000
# 2 0.000664 0.004428 -0.002111 0.000000 0.000000 0.000000
# 3 -0.003743 -0.002111 0.008892 0.000000 0.000000 0.000000
# 4 0.000000 0.000000 0.000000 0.020950 0.000000 0.000000
# 5 0.000000 0.000000 0.000000 0.000000 0.510615 0.000000
# 6 0.000000 0.000000 0.000000 0.000000 0.000000 0.088159
#
#
# Mechanical properties :
#
#
# Convention : Reuss Voigt Hill
#
# Bulk Modulus (GPa) = 19.04327 60.97539 40.00933
# Shear Modulus (GPa) = 7.03729 34.54706 20.79218
#
# Velocity S-wave (km/s) = 1.80296 3.99474 3.09908
# Velocity P-wave (km/s) = 3.62363 7.03158 5.59347
#
# Compressibility (1/GPa) = 0.05251198
#
# Stress axis : x y z
#
# Youngs Moduli (GPa) = 20.17249 225.84745 112.46192
#
# Poissons Ratio (x) = -0.14994 0.42095
# Poissons Ratio (y) = -0.01339 0.23740
# Poissons Ratio (z) = 0.07551 0.47675
#
# Static dielectric constant tensor:
#      x y z
#    x 2.980720 0.000000 0.000000 
#    y 0.000000 6.688210 0.000000 
#    z 0.000000 0.000000 3.924000 
# 
# 
# High freq. dielectric constant tensor:
#      x y z
#    x 1.747860 0.000000 0.000000 
#    y 0.000000 1.905720 0.000000 
#    z 0.000000 0.000000 1.870120 
# 
# From -- ./inp_files/11253.got.cif
#   From: 2010.03.12/outbox.cif.g09.slc.cpg/sg17_6_cif.got.tgz:11253.got - 2010.04.10 18:46:23.
