data_PCOD8155223
_publ_section_title
;
Structure prediction by ZEFSAII (Michael W. Deem and Ramdas Pophale) SiO2 
 PCOD8155223
Probable space group: P 2 2 2
;
_chemical_formula_sum "Si O2"
_cell_formula_units_Z 28
_cell_length_a 12.994148
_cell_length_b 21.979280
_cell_length_c 4.966774
_cell_angle_alpha 90.000000
_cell_angle_beta 90.000000
_cell_angle_gamma 90.000000
_cell_volume 1418.520674
_symmetry_space_group_name_H-M "P 2 2 2"
_symmetry_group_IT_number 16
_symmetry_cell_setting 'orthorhombic'
loop_
_space_group_symop_operation_xyz
x,y,z
-x,-y,z
x,-y,-z
-x,y,-z
loop_
_atom_site_type_symbol
_atom_site_label
_atom_site_fract_x
_atom_site_fract_y
_atom_site_fract_z
Si Si1 0.812271 0.786888 0.436730
Si Si2 0.113885 0.854157 0.061824
Si Si3 0.257979 0.461430 0.761078
Si Si4 0.614858 0.862235 0.441645
Si Si5 0.310512 0.929621 0.058817
Si Si6 0.619063 0.364514 0.981210
Si Si7 0.256722 0.339266 0.553537
O O1 0.882519 0.824639 0.643157
O O2 0.692294 0.805358 0.470391
O O3 0.822357 0.714284 0.479019
O O4 0.853915 0.800680 0.141250
O O5 0.190494 0.911270 0.032056
O O6 0.000000 0.878775 0.000000
O O7 0.288896 0.500000 0.500000
O O8 0.359365 0.433726 0.911460
O O9 0.195471 0.401703 0.645881
O O10 0.199387 0.500000 0.000000
O O11 0.500000 0.838543 0.500000
O O12 0.647968 0.916023 0.643989
O O13 0.620291 0.890414 0.144726
O O14 0.322881 0.000000 0.000000
O O15 0.675976 0.317862 0.187473
O O16 0.500000 0.349760 0.000000
O O17 0.664224 0.355114 0.685153
#
# Coordination Sequence:
#
# PCOD8155223 Si02
#       7
#     4   4   4   4   4   4   4
#     4  10  21  38  56  78 111 142 178 229 271 321
#     4  10  21  38  61  84 108 138 172 219 284 336
#     4  10  18  32  45  66  98 137 181 225 267 316
#     4  10  21  35  53  78 109 153 193 226 264 303
#     4  10  21  36  55  82 113 144 183 225 268 319
#     4  10  20  31  43  67  96 138 184 220 264 305
#     4  10  20  33  48  68  99 138 174 225 266 314
#
# _framework density 19.738873000000002
#
# number of rings (size 3 to 8) (size 9 to 14) (size 15 to 20)
#    0.857    1.143    1.429    2.571    0.000    3.429 
#    2.571    0.000    0.000    5.143    0.000    0.000 
#    0.000    8.571    0.000    0.000    0.000    0.000 
#
# Total GULP energy -346914.418121 kJ/mol
# GULP energy per Si atom -12389.800647 kJ/mol
# Density = 1.969395 g / cm^3
# Si number density = 19.738873 Si / 1000 Ang^3
#
#
#
# Elastic Constant Matrix: (Units=GPa)
#
#
# Indices 1 2 3 4 5 6 
#
# 1 68.3598 -8.0838 -1.5577 0.0000 0.0000 0.0000
# 2 -8.0838 56.3146 5.1315 0.0000 0.0000 0.0000
# 3 -1.5577 5.1315 84.7199 0.0000 0.0000 0.0000
# 4 0.0000 0.0000 0.0000 24.3493 0.0000 0.0000
# 5 0.0000 0.0000 0.0000 0.0000 16.1316 0.0000
# 6 0.0000 0.0000 0.0000 0.0000 0.0000 10.3478
#
#
#
# Elastic Compliance Matrix: (Units=1/GPa)
#
#
# Indices 1 2 3 4 5 6 
#
# 1 0.014883 0.002123 0.000145 0.000000 0.000000 0.000000
# 2 0.002123 0.018159 -0.001061 0.000000 0.000000 0.000000
# 3 0.000145 -0.001061 0.011871 0.000000 0.000000 0.000000
# 4 0.000000 0.000000 0.000000 0.041069 0.000000 0.000000
# 5 0.000000 0.000000 0.000000 0.000000 0.061990 0.000000
# 6 0.000000 0.000000 0.000000 0.000000 0.000000 0.096639
#
#
# Mechanical properties :
#
#
# Convention : Reuss Voigt Hill
#
# Bulk Modulus (GPa) = 21.12962 22.26382 21.69672
# Shear Modulus (GPa) = 19.38204 24.42605 21.90404
#
# Velocity S-wave (km/s) = 3.13696 3.52157 3.33482
# Velocity P-wave (km/s) = 4.88350 5.27626 5.08367
#
# Compressibility (1/GPa) = 0.04732694
#
# Stress axis : x y z
#
# Youngs Moduli (GPa) = 67.19142 55.06964 84.24229
#
# Poissons Ratio (x) = -0.11692 -0.01222
# Poissons Ratio (y) = -0.14266 0.08937
# Poissons Ratio (z) = -0.00975 0.05842
#
# Static dielectric constant tensor:
#      x y z
#    x 3.138560 0.000000 0.000000 
#    y 0.000000 3.446670 0.000000 
#    z 0.000000 0.000000 3.898390 
# 
# 
# High freq. dielectric constant tensor:
#      x y z
#    x 1.716530 0.000000 0.000000 
#    y 0.000000 1.759950 0.000000 
#    z 0.000000 0.000000 1.799730 
# 
# From -- ./inp_files/1656.got.cif
#   From: 2010.03.12/outbox.cif.g09.slc.cpg/sg16_1_cif.got.tgz:1656.got - 2010.03.31 00:51:45.
