data_PCOD8155259
_publ_section_title
;
Structure prediction by ZEFSAII (Michael W. Deem and Ramdas Pophale) SiO2 
 PCOD8155259
Probable space group: P 2 2 2
;
_chemical_formula_sum "Si O2"
_cell_formula_units_Z 32
_cell_length_a 8.704689
_cell_length_b 16.770500
_cell_length_c 11.207643
_cell_angle_alpha 90.000000
_cell_angle_beta 90.000000
_cell_angle_gamma 90.000000
_cell_volume 1636.113993
_symmetry_space_group_name_H-M "P 2 2 2"
_symmetry_group_IT_number 16
_symmetry_cell_setting 'orthorhombic'
loop_
_space_group_symop_operation_xyz
x,y,z
-x,-y,z
x,-y,-z
-x,y,-z
loop_
_atom_site_type_symbol
_atom_site_label
_atom_site_fract_x
_atom_site_fract_y
_atom_site_fract_z
Si Si1 0.653720 0.252578 0.171063
Si Si2 0.825674 0.664874 0.042109
Si Si3 0.687081 0.768297 0.230878
Si Si4 0.178457 0.094770 0.870720
Si Si5 0.307016 0.369313 0.395219
Si Si6 0.822509 0.082206 0.852629
Si Si7 0.649149 0.609221 0.663029
Si Si8 0.171544 0.527665 0.789731
O O1 0.471725 0.240181 0.158344
O O2 0.734282 0.167280 0.192331
O O3 0.684348 0.302595 0.290114
O O4 0.713622 0.305406 0.061394
O O5 0.818586 0.727149 0.150802
O O6 0.773975 0.577046 0.091842
O O7 0.000000 0.662199 0.000000
O O8 0.685872 0.725466 0.361481
O O9 0.729750 0.861638 0.239779
O O10 0.002340 0.093863 0.830942
O O11 0.239708 0.007558 0.831005
O O12 0.207238 0.107310 0.010904
O O13 0.273961 0.389369 0.532344
O O14 0.467862 0.408315 0.351077
O O15 0.171609 0.412138 0.322607
O O16 0.719743 0.546635 0.757182
O O17 0.000000 0.500000 0.813802
#
# Coordination Sequence:
#
# PCOD8155259 Si02
#       8
#     4   4   4   4   4   4   4   4
#     4  11  21  33  54  83 110 138 180 222 259 316
#     4  11  22  36  52  73 111 147 170 208 273 332
#     4  10  20  34  55  82 107 138 181 227 262 305
#     4   9  18  31  52  79 110 149 178 207 256 321
#     4   9  21  40  59  77 103 140 180 224 276 318
#     4   9  17  32  52  78 112 147 179 207 258 318
#     4  10  21  39  59  77 104 142 178 221 275 324
#     4  11  23  37  55  80 103 134 182 228 265 312
#
# _framework density 19.558539
#
# number of rings (size 3 to 8) (size 9 to 14) (size 15 to 20)
#    0.000    2.000    1.250    3.375    0.000    5.250 
#    0.000    2.500    0.000    9.750    0.000    5.250 
#    0.000    0.000    0.000    0.000    0.000    0.000 
#
# Total GULP energy -396536.304427 kJ/mol
# GULP energy per Si atom -12391.759513 kJ/mol
# Density = 1.951402 g / cm^3
# Si number density = 19.558539 Si / 1000 Ang^3
#
#
#
# Elastic Constant Matrix: (Units=GPa)
#
#
# Indices 1 2 3 4 5 6 
#
# 1 49.3843 47.9641 24.7270 0.0000 0.0000 0.0000
# 2 47.9641 144.8036 36.3984 0.0000 0.0000 0.0000
# 3 24.7270 36.3984 40.8095 0.0000 0.0000 0.0000
# 4 0.0000 0.0000 0.0000 21.0031 0.0000 0.0000
# 5 0.0000 0.0000 0.0000 0.0000 18.6460 0.0000
# 6 0.0000 0.0000 0.0000 0.0000 0.0000 36.5743
#
#
#
# Elastic Compliance Matrix: (Units=1/GPa)
#
#
# Indices 1 2 3 4 5 6 
#
# 1 0.035179 -0.008114 -0.014079 0.000000 0.000000 0.000000
# 2 -0.008114 0.010773 -0.004692 0.000000 0.000000 0.000000
# 3 -0.014079 -0.004692 0.037220 0.000000 0.000000 0.000000
# 4 0.000000 0.000000 0.000000 0.047612 0.000000 0.000000
# 5 0.000000 0.000000 0.000000 0.000000 0.053631 0.000000
# 6 0.000000 0.000000 0.000000 0.000000 0.000000 0.027342
#
#
# Mechanical properties :
#
#
# Convention : Reuss Voigt Hill
#
# Bulk Modulus (GPa) = 34.01107 50.35295 42.18201
# Shear Modulus (GPa) = 18.16028 23.63854 20.89941
#
# Velocity S-wave (km/s) = 3.05045 3.48027 3.27243
# Velocity P-wave (km/s) = 5.46206 6.47691 5.99101
#
# Compressibility (1/GPa) = 0.02940219
#
# Stress axis : x y z
#
# Youngs Moduli (GPa) = 28.42612 92.82551 26.86746
#
# Poissons Ratio (x) = 0.75315 0.37826
# Poissons Ratio (y) = 0.23064 0.12607
# Poissons Ratio (z) = 0.40020 0.43557
#
# Static dielectric constant tensor:
#      x y z
#    x 3.445060 0.000000 0.000000 
#    y 0.000000 3.867090 0.000000 
#    z 0.000000 0.000000 3.344290 
# 
# 
# High freq. dielectric constant tensor:
#      x y z
#    x 1.752610 0.000000 0.000000 
#    y 0.000000 1.775980 0.000000 
#    z 0.000000 0.000000 1.727160 
# 
# From -- ./inp_files/6671.got.cif
#   From: 2010.03.12/outbox.cif.g09.slc.cpg/sg16_4_cif.got.tgz:6671.got - 2010.03.31 00:51:45.
