data_PCOD8155263
_publ_section_title
;
Structure prediction by ZEFSAII (Michael W. Deem and Ramdas Pophale) SiO2 
 PCOD8155263
Probable space group: P 2 2 2
;
_chemical_formula_sum "Si O2"
_cell_formula_units_Z 30
_cell_length_a 14.659373
_cell_length_b 9.456830
_cell_length_c 11.547279
_cell_angle_alpha 90.000000
_cell_angle_beta 90.000000
_cell_angle_gamma 90.000000
_cell_volume 1600.813126
_symmetry_space_group_name_H-M "P 2 2 2"
_symmetry_group_IT_number 16
_symmetry_cell_setting 'orthorhombic'
loop_
_space_group_symop_operation_xyz
x,y,z
-x,-y,z
x,-y,-z
-x,y,-z
loop_
_atom_site_type_symbol
_atom_site_label
_atom_site_fract_x
_atom_site_fract_y
_atom_site_fract_z
Si Si1 0.393520 0.161338 0.012694
Si Si2 0.164398 0.845196 0.358871
Si Si3 0.393326 0.489978 0.628694
Si Si4 0.643999 0.786931 0.276165
Si Si5 0.500000 0.000000 0.286830
Si Si6 0.998082 0.659871 0.362062
Si Si7 0.832654 0.158320 0.621047
Si Si8 0.655215 0.785138 0.775865
O O1 0.367352 0.211911 0.139441
O O2 0.500000 0.187436 0.000000
O O3 0.339313 0.252551 0.912925
O O4 0.363671 0.000000 0.000000
O O5 0.085673 0.741529 0.310466
O O6 0.192906 0.798586 0.488993
O O7 0.249953 0.844078 0.272305
O O8 0.123171 0.002696 0.368618
O O9 0.500000 0.500000 0.619713
O O10 0.350061 0.500000 0.500000
O O11 0.354286 0.623083 0.695013
O O12 0.369136 0.346981 0.695569
O O13 0.740531 0.851039 0.307163
O O14 0.564297 0.878892 0.347029
O O15 0.576053 0.092064 0.218467
O O16 0.000000 0.500000 0.315752
O O17 0.000000 0.668644 0.500000
O O18 0.903804 0.732186 0.321544
#
# Coordination Sequence:
#
# PCOD8155263 Si02
#       8
#     4   4   4   4   2   4   4   4
#     4  11  18  35  61  84 115 151 203 257 285 330
#     4  10  20  35  55  83 114 148 192 240 293 353
#     4  11  24  39  51  76 120 158 190 239 294 349
#     4  12  22  38  58  85 116 157 200 242 295 341
#     4  12  20  39  59  84 116 160 207 247 284 346
#     4   9  19  35  57  82 109 146 188 240 300 354
#     4  10  20  35  55  83 114 148 192 240 293 353
#     4  12  22  38  58  85 116 157 200 242 295 341
#
# _framework density 18.740476999999998
#
# number of rings (size 3 to 8) (size 9 to 14) (size 15 to 20)
#    0.000    1.200    5.333    1.200    1.867    2.133 
#    0.000    4.000    0.000    0.800    0.000    3.733 
#    0.000    0.000    0.000    0.000    0.000    0.000 
#
# Total GULP energy -371643.042485 kJ/mol
# GULP energy per Si atom -12388.101416 kJ/mol
# Density = 1.869782 g / cm^3
# Si number density = 18.740477 Si / 1000 Ang^3
#
#
#
# Elastic Constant Matrix: (Units=GPa)
#
#
# Indices 1 2 3 4 5 6 
#
# 1 120.3900 41.5643 33.6050 0.0000 0.0000 0.0000
# 2 41.5643 110.2946 37.4983 0.0000 0.0000 0.0000
# 3 33.6050 37.4983 104.3628 0.0000 0.0000 0.0000
# 4 0.0000 0.0000 0.0000 24.1906 0.0000 0.0000
# 5 0.0000 0.0000 0.0000 0.0000 14.8612 0.0000
# 6 0.0000 0.0000 0.0000 0.0000 0.0000 31.3867
#
#
#
# Elastic Compliance Matrix: (Units=1/GPa)
#
#
# Indices 1 2 3 4 5 6 
#
# 1 0.009942 -0.003028 -0.002113 0.000000 0.000000 0.000000
# 2 -0.003028 0.011251 -0.003067 0.000000 0.000000 0.000000
# 3 -0.002113 -0.003067 0.011365 0.000000 0.000000 0.000000
# 4 0.000000 0.000000 0.000000 0.041338 0.000000 0.000000
# 5 0.000000 0.000000 0.000000 0.000000 0.067289 0.000000
# 6 0.000000 0.000000 0.000000 0.000000 0.000000 0.031861
#
#
# Mechanical properties :
#
#
# Convention : Reuss Voigt Hill
#
# Bulk Modulus (GPa) = 61.95983 62.26475 62.11229
# Shear Modulus (GPa) = 25.66176 28.91299 27.28737
#
# Velocity S-wave (km/s) = 3.70445 3.93212 3.81998
# Velocity P-wave (km/s) = 7.17155 7.34250 7.25753
#
# Compressibility (1/GPa) = 0.01613949
#
# Stress axis : x y z
#
# Youngs Moduli (GPa) = 100.58708 88.88419 87.99284
#
# Poissons Ratio (x) = 0.26914 0.18595
# Poissons Ratio (y) = 0.30458 0.26991
# Poissons Ratio (z) = 0.21256 0.27264
#
# Static dielectric constant tensor:
#      x y z
#    x 3.382840 0.000000 0.000000 
#    y 0.000000 3.700130 0.000000 
#    z 0.000000 0.000000 3.305720 
# 
# 
# High freq. dielectric constant tensor:
#      x y z
#    x 1.720100 0.000000 0.000000 
#    y 0.000000 1.739650 0.000000 
#    z 0.000000 0.000000 1.692760 
# 
# From -- ./inp_files/4813.got.cif
#   From: 2010.03.12/outbox.cif.g09.slc.cpg/sg16_3_cif.got.tgz:4813.got - 2010.03.31 00:51:45.
