data_PCOD8155124
_publ_section_title
;
Structure prediction by ZEFSAII (Michael W. Deem and Ramdas Pophale) SiO2 
 PCOD8155124
Probable space group: C 2/C
;
_chemical_formula_sum "Si O2"
_cell_formula_units_Z 32
_cell_length_a 16.378650
_cell_length_b 16.378262
_cell_length_c 4.964973
_cell_angle_alpha 90.000000
_cell_angle_beta 83.313119
_cell_angle_gamma 90.000000
_cell_volume 1322.812696
_symmetry_space_group_name_H-M "C 2/C"
_symmetry_group_IT_number 15
_symmetry_cell_setting 'monoclinic'
loop_
_space_group_symop_operation_xyz
x,y,z
-x,y,1/2-z
-x,-y,-z
x,-y,1/2+z
1/2+x,1/2+y,z
1/2-x,1/2+y,1/2-z
1/2-x,1/2-y,-z
1/2+x,1/2-y,1/2+z
loop_
_atom_site_type_symbol
_atom_site_label
_atom_site_fract_x
_atom_site_fract_y
_atom_site_fract_z
Si Si1 0.000000 0.443043 0.250000
Si Si2 0.140809 0.943421 0.141491
Si Si3 0.608257 0.185320 0.459467
Si Si4 0.000000 0.183001 0.750000
Si Si5 0.706820 0.171481 0.910413
O O1 0.921971 0.386624 0.331033
O O2 0.000000 0.500000 0.500000
O O3 0.072873 0.873638 0.104845
O O4 0.128345 0.983390 0.437263
O O5 0.232229 0.905803 0.103707
O O6 0.541737 0.258931 0.462181
O O7 0.630905 0.154606 0.148701
O O8 0.686235 0.204556 0.616683
O O9 0.750000 0.250000 0.000000
#
# Coordination Sequence:
#
# PCOD8155124 Si02
#       5
#     4   8   8   4   8
#     4  12  27  46  71 112 152 192 250 318 383 440
#     4  12  29  48  76 115 155 202 250 320 394 455
#     4  12  27  47  81 108 146 207 253 313 380 457
#     4  12  27  50  79 114 160 198 262 310 393 474
#     4  12  26  49  76 108 148 197 260 310 370 457
#
# _framework density 24.190878000000001
#
# number of rings (size 3 to 8) (size 9 to 14) (size 15 to 20)
#    0.000    0.000    2.500    6.750    3.500    8.000 
#    0.000    0.000    0.000    0.000    0.000    0.000 
#    0.000    0.000    0.000    0.000    0.000    0.000 
#
# Total GULP energy -198212.181693 kJ/mol
# GULP energy per Si atom -12388.261356 kJ/mol
# Density = 2.413582 g / cm^3
# Si number density = 24.190878 Si / 1000 Ang^3
#
#
#
# Elastic Constant Matrix: (Units=GPa)
#
#
# Indices 1 2 3 4 5 6 
#
# 1 119.5951 57.3327 47.7340 0.0000 6.7838 0.0000
# 2 57.3327 139.9418 50.9337 0.0000 1.3304 0.0000
# 3 47.7340 50.9337 145.6662 0.0000 7.1108 0.0000
# 4 0.0000 0.0000 0.0000 40.5490 0.0000 -11.6472
# 5 6.7838 1.3304 7.1108 0.0000 39.2916 0.0000
# 6 0.0000 0.0000 0.0000 -11.6472 0.0000 59.7710
#
#
#
# Elastic Compliance Matrix: (Units=1/GPa)
#
#
# Indices 1 2 3 4 5 6 
#
# 1 0.011132 -0.003718 -0.002281 0.000000 -0.001383 0.000000
# 2 -0.003718 0.009432 -0.002114 0.000000 0.000705 0.000000
# 3 -0.002281 -0.002114 0.008403 0.000000 -0.001055 0.000000
# 4 0.000000 0.000000 0.000000 0.026124 0.000000 0.005091
# 5 -0.001383 0.000705 -0.001055 0.000000 0.025857 0.000000
# 6 0.000000 0.000000 0.000000 0.005091 0.000000 0.017722
#
#
# Mechanical properties :
#
#
# Convention : Reuss Voigt Hill
#
# Bulk Modulus (GPa) = 78.47692 79.68935 79.08314
# Shear Modulus (GPa) = 41.96665 44.53584 43.25124
#
# Velocity S-wave (km/s) = 4.16963 4.29536 4.23296
# Velocity P-wave (km/s) = 7.46272 7.59036 7.52681
#
# Compressibility (1/GPa) = 0.01274260
#
# Stress axis : x y z
#
# Youngs Moduli (GPa) = 89.82718 106.02602 119.00417
#
# Poissons Ratio (x) = 0.39417 0.27140
# Poissons Ratio (y) = 0.33395 0.25158
# Poissons Ratio (z) = 0.20486 0.22414
#
# Static dielectric constant tensor:
#      x y z
#    x 4.365840 0.000000 -0.154780 
#    y 0.000000 4.454340 0.000000 
#    z -0.154780 0.000000 2.107220 
# 
# 
# High freq. dielectric constant tensor:
#      x y z
#    x 1.971140 0.000000 0.002820 
#    y 0.000000 1.970320 0.000000 
#    z 0.002820 0.000000 1.974920 
# 
# From -- ./inp_files/6549.got.cif
#   From: 2010.06.25/outbox.cif.g09.slc.cpg/sg15_4_cif.got.tgz:6549.got - 2010.06.28 07:06:18.
