data_PCOD8155918
_publ_section_title
;
Structure prediction by ZEFSAII (Michael W. Deem and Ramdas Pophale) SiO2 
 PCOD8155918
Probable space group: P 21 21 2
;
_chemical_formula_sum "Si O2"
_cell_formula_units_Z 26
_cell_length_a 21.332489
_cell_length_b 9.107718
_cell_length_c 6.289241
_cell_angle_alpha 90.000000
_cell_angle_beta 90.000000
_cell_angle_gamma 90.000000
_cell_volume 1221.938483
_symmetry_space_group_name_H-M "P 21 21 2"
_symmetry_group_IT_number 18
_symmetry_cell_setting 'orthorhombic'
loop_
_space_group_symop_operation_xyz
x,y,z
-x,-y,z
1/2+x,1/2-y,-z
1/2-x,1/2+y,-z
loop_
_atom_site_type_symbol
_atom_site_label
_atom_site_fract_x
_atom_site_fract_y
_atom_site_fract_z
Si Si1 0.993305 0.756728 0.442199
Si Si2 0.000000 0.500000 0.110111
Si Si3 0.719679 0.609355 0.330974
Si Si4 0.897502 0.004701 0.415431
Si Si5 0.320701 0.119704 0.564692
Si Si6 0.350351 0.330424 0.947128
Si Si7 0.573244 0.867351 0.232416
O O1 0.989526 0.646938 0.244258
O O2 0.005142 0.666122 0.659541
O O3 0.928859 0.847005 0.451684
O O4 0.053109 0.862777 0.429656
O O5 0.061273 0.518176 0.958752
O O6 0.658957 0.521791 0.418772
O O7 0.724638 0.769101 0.438839
O O8 0.783898 0.527598 0.381620
O O9 0.713276 0.628806 0.075413
O O10 0.871378 0.021243 0.174418
O O11 0.341907 0.196607 0.782594
O O12 0.380143 0.073663 0.417703
O O13 0.399575 0.282408 0.129410
#
# Coordination Sequence:
#
# PCOD8155918 Si02
#       7
#     4   2   4   4   4   4   4
#     4  11  22  42  65  95 131 164 213 262 313 387
#     4  12  24  40  66  94 128 172 206 254 326 392
#     4  10  22  43  67  89 126 168 213 266 323 370
#     4  10  21  42  66  94 126 162 213 266 310 381
#     4  10  22  43  65  92 125 165 216 264 315 377
#     4  10  19  40  66  92 122 167 212 255 321 373
#     4  11  21  42  65  88 132 171 199 259 327 372
#
# _framework density 21.277667000000001
#
# number of rings (size 3 to 8) (size 9 to 14) (size 15 to 20)
#    0.000    1.538    6.154    0.462    0.000    6.154 
#   11.077    0.000    0.000    0.000    0.000    0.000 
#    0.000    0.000    0.000    0.000    0.000    0.000 
#
# Total GULP energy -322240.669198 kJ/mol
# GULP energy per Si atom -12393.871892 kJ/mol
# Density = 2.122924 g / cm^3
# Si number density = 21.277667 Si / 1000 Ang^3
#
#
#
# Elastic Constant Matrix: (Units=GPa)
#
#
# Indices 1 2 3 4 5 6 
#
# 1 47.5729 17.6805 19.9697 0.0000 0.0000 0.0000
# 2 17.6805 55.0496 18.5629 0.0000 0.0000 0.0000
# 3 19.9697 18.5629 112.4870 0.0000 0.0000 0.0000
# 4 0.0000 0.0000 0.0000 20.5110 0.0000 0.0000
# 5 0.0000 0.0000 0.0000 0.0000 27.0847 0.0000
# 6 0.0000 0.0000 0.0000 0.0000 0.0000 39.0214
#
#
#
# Elastic Compliance Matrix: (Units=1/GPa)
#
#
# Indices 1 2 3 4 5 6 
#
# 1 0.024971 -0.006910 -0.003293 0.000000 0.000000 0.000000
# 2 -0.006910 0.021148 -0.002263 0.000000 0.000000 0.000000
# 3 -0.003293 -0.002263 0.009848 0.000000 0.000000 0.000000
# 4 0.000000 0.000000 0.000000 0.048754 0.000000 0.000000
# 5 0.000000 0.000000 0.000000 0.000000 0.036921 0.000000
# 6 0.000000 0.000000 0.000000 0.000000 0.000000 0.025627
#
#
# Mechanical properties :
#
#
# Convention : Reuss Voigt Hill
#
# Bulk Modulus (GPa) = 32.22149 36.39286 34.30718
# Shear Modulus (GPa) = 24.68588 27.91651 26.30119
#
# Velocity S-wave (km/s) = 3.40983 3.62610 3.51963
# Velocity P-wave (km/s) = 5.53885 5.88832 5.71626
#
# Compressibility (1/GPa) = 0.03103518
#
# Stress axis : x y z
#
# Youngs Moduli (GPa) = 40.04722 47.28626 101.54384
#
# Poissons Ratio (x) = 0.32673 0.33436
# Poissons Ratio (y) = 0.27671 0.22982
# Poissons Ratio (z) = 0.13187 0.10702
#
# Static dielectric constant tensor:
#      x y z
#    x 3.749800 0.000000 0.000000 
#    y 0.000000 3.726040 0.000000 
#    z 0.000000 0.000000 4.180910 
# 
# 
# High freq. dielectric constant tensor:
#      x y z
#    x 1.815400 0.000000 0.000000 
#    y 0.000000 1.815460 0.000000 
#    z 0.000000 0.000000 1.854770 
# 
# From -- ./inp_files/2109.got.cif
#   From: 2010.03.12/outbox.cif.g09.slc.cpg/sg18_2_cif.got.tgz:2109.got - 2010.04.10 18:53:55.
