data_PCOD8155028
_publ_section_title
;
Structure prediction by ZEFSAII (Michael W. Deem and Ramdas Pophale) SiO2 
 PCOD8155028
Probable space group: C 2/C
;
_chemical_formula_sum "Si O2"
_cell_formula_units_Z 44
_cell_length_a 16.254015
_cell_length_b 10.910063
_cell_length_c 10.525188
_cell_angle_alpha 90.000000
_cell_angle_beta 87.724979
_cell_angle_gamma 90.000000
_cell_volume 1864.984939
_symmetry_space_group_name_H-M "C 2/C"
_symmetry_group_IT_number 15
_symmetry_cell_setting 'monoclinic'
loop_
_space_group_symop_operation_xyz
x,y,z
-x,y,1/2-z
-x,-y,-z
x,-y,1/2+z
1/2+x,1/2+y,z
1/2-x,1/2+y,1/2-z
1/2-x,1/2-y,-z
1/2+x,1/2-y,1/2+z
loop_
_atom_site_type_symbol
_atom_site_label
_atom_site_fract_x
_atom_site_fract_y
_atom_site_fract_z
Si Si1 0.500000 0.372923 0.250000
Si Si2 0.610410 0.750559 0.542962
Si Si3 0.135413 0.989231 0.418111
Si Si4 0.297308 0.064890 0.300591
Si Si5 0.091312 0.641291 0.783450
Si Si6 0.305049 0.682749 0.395844
O O1 0.464515 0.281866 0.358747
O O2 0.570041 0.459773 0.309843
O O3 0.630962 0.627647 0.466005
O O4 0.684202 0.809937 0.621794
O O5 0.591430 0.852168 0.436892
O O6 0.230308 0.974226 0.368681
O O7 0.123361 0.894962 0.535705
O O8 0.259457 0.093893 0.166881
O O9 0.382052 0.992556 0.268453
O O10 0.151989 0.738899 0.715752
O O11 0.000000 0.671308 0.750000
O O12 0.250000 0.750000 0.500000
#
# Coordination Sequence:
#
# PCOD8155028 Si02
#       6
#     4   8   8   8   8   8
#     4  12  28  48  80 116 154 198 252 318 386 452
#     4  12  28  48  78 110 155 198 257 314 379 453
#     4  12  25  48  80 112 152 197 257 315 377 449
#     4  12  27  49  78 107 150 202 253 311 377 450
#     4  12  29  49  76 111 155 199 252 315 382 452
#     4  12  25  47  77 110 152 199 256 307 381 459
#
# _framework density 23.592684999999999
#
# number of rings (size 3 to 8) (size 9 to 14) (size 15 to 20)
#    0.000    0.000    3.636    5.455    5.091    0.727 
#    0.000    0.000    0.000    0.000    0.000    0.000 
#    0.000    0.000    0.000    0.000    0.000    0.000 
#
# Total GULP energy -272729.996201 kJ/mol
# GULP energy per Si atom -12396.818009 kJ/mol
# Density = 2.353899 g / cm^3
# Si number density = 23.592685 Si / 1000 Ang^3
#
#
#
# Elastic Constant Matrix: (Units=GPa)
#
#
# Indices 1 2 3 4 5 6 
#
# 1 115.3929 36.9017 52.0811 0.0000 2.6961 0.0000
# 2 36.9017 92.5876 48.5683 0.0000 5.4005 0.0000
# 3 52.0811 48.5683 152.8653 0.0000 1.7412 0.0000
# 4 0.0000 0.0000 0.0000 30.1257 0.0000 10.5966
# 5 2.6961 5.4005 1.7412 0.0000 47.4373 0.0000
# 6 0.0000 0.0000 0.0000 10.5966 0.0000 38.4100
#
#
#
# Elastic Compliance Matrix: (Units=1/GPa)
#
#
# Indices 1 2 3 4 5 6 
#
# 1 0.010838 -0.002847 -0.002786 0.000000 -0.000190 0.000000
# 2 -0.002847 0.013792 -0.003397 0.000000 -0.001284 0.000000
# 3 -0.002786 -0.003397 0.008568 0.000000 0.000231 0.000000
# 4 0.000000 0.000000 0.000000 0.036762 0.000000 -0.010142
# 5 -0.000190 -0.001284 0.000231 0.000000 0.021229 0.000000
# 6 0.000000 0.000000 0.000000 -0.010142 0.000000 0.028833
#
#
# Mechanical properties :
#
#
# Convention : Reuss Voigt Hill
#
# Bulk Modulus (GPa) = 66.06191 70.66087 68.36139
# Shear Modulus (GPa) = 34.93360 38.08093 36.50727
#
# Velocity S-wave (km/s) = 3.85216 4.02194 3.93797
# Velocity P-wave (km/s) = 6.91717 7.18216 7.05091
#
# Compressibility (1/GPa) = 0.01513732
#
# Stress axis : x y z
#
# Youngs Moduli (GPa) = 92.26479 72.50332 116.71837
#
# Poissons Ratio (x) = 0.20644 0.32515
# Poissons Ratio (y) = 0.26271 0.39654
# Poissons Ratio (z) = 0.25703 0.24632
#
# Static dielectric constant tensor:
#      x y z
#    x 4.104950 0.000000 -0.124060 
#    y 0.000000 4.263970 0.000000 
#    z -0.124060 0.000000 4.563190 
# 
# 
# High freq. dielectric constant tensor:
#      x y z
#    x 1.929340 0.000000 0.001860 
#    y 0.000000 1.936030 0.000000 
#    z 0.001860 0.000000 1.961180 
# 
# From -- ./inp_files/95005.got.cif
#   From: 2010.06.25/outbox.cif.g09.slc.cpg/sg15_48_cif.got.tgz:95005.got - 2010.06.28 07:06:18.
