data_PCOD8155593
_publ_section_title
;
Structure prediction by ZEFSAII (Michael W. Deem and Ramdas Pophale) SiO2 
 PCOD8155593
Probable space group: P 2 2 21
;
_chemical_formula_sum "Si O2"
_cell_formula_units_Z 30
_cell_length_a 11.250993
_cell_length_b 14.046629
_cell_length_c 9.356122
_cell_angle_alpha 90.000000
_cell_angle_beta 90.000000
_cell_angle_gamma 90.000000
_cell_volume 1478.627716
_symmetry_space_group_name_H-M "P 2 2 21"
_symmetry_group_IT_number 17
_symmetry_cell_setting 'orthorhombic'
loop_
_space_group_symop_operation_xyz
x,y,z
-x,-y,1/2+z
x,-y,-z
-x,y,1/2-z
loop_
_atom_site_type_symbol
_atom_site_label
_atom_site_fract_x
_atom_site_fract_y
_atom_site_fract_z
Si Si1 0.857246 0.092673 0.919079
Si Si2 0.433745 0.500000 0.000000
Si Si3 0.758670 0.280896 0.538825
Si Si4 0.135104 0.606658 0.284835
Si Si5 0.861566 0.087286 0.594130
Si Si6 0.495203 0.305354 0.586256
Si Si7 0.246610 0.285308 0.471157
Si Si8 0.760519 0.413122 0.300409
O O1 0.808195 0.090661 0.755703
O O2 0.824504 0.186035 0.012005
O O3 0.997784 0.086017 0.906219
O O4 0.806243 0.000000 0.000000
O O5 0.519319 0.418774 0.938104
O O6 0.357414 0.536623 0.863786
O O7 0.778318 0.324214 0.695530
O O8 0.818817 0.180638 0.511932
O O9 0.617049 0.271296 0.510050
O O10 0.820561 0.357057 0.432479
O O11 0.174054 0.632421 0.444905
O O12 0.152077 0.494701 0.256850
O O13 0.000000 0.635401 0.250000
O O14 0.811000 0.000000 0.500000
O O15 0.500000 0.276507 0.750000
O O16 0.378820 0.257316 0.521434
O O17 0.262027 0.329246 0.313755
#
# Coordination Sequence:
#
# PCOD8155593 Si02
#       8
#     4   2   4   4   4   4   4   4
#     4  10  22  42  63  94 126 159 211 277 318 376
#     4  10  22  38  58  84 134 166 208 266 284 370
#     4  11  22  41  62  88 128 164 203 262 319 368
#     4  12  23  41  60  86 128 166 207 257 315 376
#     4  10  21  40  69  90 120 167 214 259 328 389
#     4  11  21  36  64  87 122 165 210 251 312 371
#     4  12  25  39  65  97 122 168 218 261 322 381
#     4  11  24  41  58  93 128 169 210 258 310 378
#
# _framework density 20.289082000000001
#
# number of rings (size 3 to 8) (size 9 to 14) (size 15 to 20)
#    0.000    1.067    5.333    1.200    5.600    4.800 
#    0.000    0.667    0.000    0.000    0.000    0.000 
#    0.000    0.000    0.000    0.000    0.000    0.000 
#
# Total GULP energy -371875.213958 kJ/mol
# GULP energy per Si atom -12395.840465 kJ/mol
# Density = 2.024290 g / cm^3
# Si number density = 20.289082 Si / 1000 Ang^3
#
#
#
# Elastic Constant Matrix: (Units=GPa)
#
#
# Indices 1 2 3 4 5 6 
#
# 1 49.7985 4.4920 12.2419 0.0000 0.0000 0.0000
# 2 4.4920 127.8265 28.5530 0.0000 0.0000 0.0000
# 3 12.2419 28.5530 68.8269 0.0000 0.0000 0.0000
# 4 0.0000 0.0000 0.0000 34.3195 0.0000 0.0000
# 5 0.0000 0.0000 0.0000 0.0000 6.0032 0.0000
# 6 0.0000 0.0000 0.0000 0.0000 0.0000 24.1424
#
#
#
# Elastic Compliance Matrix: (Units=1/GPa)
#
#
# Indices 1 2 3 4 5 6 
#
# 1 0.021000 0.000106 -0.003779 0.000000 0.000000 0.000000
# 2 0.000106 0.008623 -0.003596 0.000000 0.000000 0.000000
# 3 -0.003779 -0.003596 0.016693 0.000000 0.000000 0.000000
# 4 0.000000 0.000000 0.000000 0.029138 0.000000 0.000000
# 5 0.000000 0.000000 0.000000 0.000000 0.166579 0.000000
# 6 0.000000 0.000000 0.000000 0.000000 0.000000 0.041421
#
#
# Mechanical properties :
#
#
# Convention : Reuss Voigt Hill
#
# Bulk Modulus (GPa) = 31.46825 37.44729 34.45777
# Shear Modulus (GPa) = 16.20301 26.30401 21.25351
#
# Velocity S-wave (km/s) = 2.82903 3.60455 3.24007
# Velocity P-wave (km/s) = 5.12004 5.98503 5.56936
#
# Compressibility (1/GPa) = 0.03177806
#
# Stress axis : x y z
#
# Youngs Moduli (GPa) = 47.61809 115.97406 59.90457
#
# Poissons Ratio (x) = -0.01232 0.22640
# Poissons Ratio (y) = -0.00506 0.21542
# Poissons Ratio (z) = 0.17996 0.41704
#
# Static dielectric constant tensor:
#      x y z
#    x 3.481120 0.000000 0.000000 
#    y 0.000000 3.680180 0.000000 
#    z 0.000000 0.000000 3.879340 
# 
# 
# High freq. dielectric constant tensor:
#      x y z
#    x 1.773030 0.000000 0.000000 
#    y 0.000000 1.786670 0.000000 
#    z 0.000000 0.000000 1.797800 
# 
# From -- ./inp_files/4915.got.cif
#   From: 2010.03.12/outbox.cif.g09.slc.cpg/sg17_3_cif.got.tgz:4915.got - 2010.04.10 18:46:23.
