data_PCOD8155755
_publ_section_title
;
Structure prediction by ZEFSAII (Michael W. Deem and Ramdas Pophale) SiO2 
 PCOD8155755
Probable space group: P 2 2 21
;
_chemical_formula_sum "Si O2"
_cell_formula_units_Z 20
_cell_length_a 9.907575
_cell_length_b 4.994053
_cell_length_c 18.344609
_cell_angle_alpha 90.000000
_cell_angle_beta 90.000000
_cell_angle_gamma 90.000000
_cell_volume 907.672077
_symmetry_space_group_name_H-M "P 2 2 21"
_symmetry_group_IT_number 17
_symmetry_cell_setting 'orthorhombic'
loop_
_space_group_symop_operation_xyz
x,y,z
-x,-y,1/2+z
x,-y,-z
-x,y,1/2-z
loop_
_atom_site_type_symbol
_atom_site_label
_atom_site_fract_x
_atom_site_fract_y
_atom_site_fract_z
Si Si1 0.094023 0.000000 0.000000
Si Si2 0.156468 0.950215 0.729972
Si Si3 0.759759 0.449274 0.855887
Si Si4 0.472832 0.488195 0.084817
Si Si5 0.087178 0.500000 0.500000
Si Si6 0.695778 0.988524 0.378867
O O1 0.183199 0.081993 0.069222
O O2 0.003253 0.750603 0.021293
O O3 0.185915 0.155227 0.664215
O O4 0.252024 0.026598 0.796933
O O5 0.000000 0.962474 0.750000
O O6 0.196042 0.650681 0.707617
O O7 0.598926 0.433366 0.864770
O O8 0.820848 0.562531 0.930644
O O9 0.351364 0.692873 0.099097
O O10 0.427452 0.193022 0.109544
O O11 0.513516 0.500000 0.000000
#
# Coordination Sequence:
#
# PCOD8155755 Si02
#       6
#     2   4   4   4   2   4
#     4  12  24  42  68 100 130 180 236 276 340 400
#     4  12  27  47  68 103 143 181 225 285 343 409
#     4  12  26  45  71  99 139 183 225 283 346 397
#     4  12  24  46  70 103 138 174 235 288 333 402
#     4  12  24  42  68  98 130 180 234 280 330 412
#     4  12  25  44  71  98 140 179 225 285 340 403
#
# _framework density 22.034389999999998
#
# number of rings (size 3 to 8) (size 9 to 14) (size 15 to 20)
#    0.000    0.000    3.000    7.800    0.000    4.800 
#    0.000    0.000    0.000    0.000    0.000    0.000 
#    0.000    0.000    0.000    0.000    0.000    0.000 
#
# Total GULP energy -248216.900029 kJ/mol
# GULP energy per Si atom -12410.845001 kJ/mol
# Density = 2.198424 g / cm^3
# Si number density = 22.034390 Si / 1000 Ang^3
#
#
#
# Elastic Constant Matrix: (Units=GPa)
#
#
# Indices 1 2 3 4 5 6 
#
# 1 97.2715 17.8696 31.1791 0.0000 0.0000 0.0000
# 2 17.8696 96.6143 7.5515 0.0000 0.0000 0.0000
# 3 31.1791 7.5515 101.0310 0.0000 0.0000 0.0000
# 4 0.0000 0.0000 0.0000 39.1985 0.0000 0.0000
# 5 0.0000 0.0000 0.0000 0.0000 52.7378 0.0000
# 6 0.0000 0.0000 0.0000 0.0000 0.0000 31.5119
#
#
#
# Elastic Compliance Matrix: (Units=1/GPa)
#
#
# Indices 1 2 3 4 5 6 
#
# 1 0.011746 -0.001900 -0.003483 0.000000 0.000000 0.000000
# 2 -0.001900 0.010719 -0.000215 0.000000 0.000000 0.000000
# 3 -0.003483 -0.000215 0.010989 0.000000 0.000000 0.000000
# 4 0.000000 0.000000 0.000000 0.025511 0.000000 0.000000
# 5 0.000000 0.000000 0.000000 0.000000 0.018962 0.000000
# 6 0.000000 0.000000 0.000000 0.000000 0.000000 0.031734
#
#
# Mechanical properties :
#
#
# Convention : Reuss Voigt Hill
#
# Bulk Modulus (GPa) = 44.92814 45.34634 45.13724
# Shear Modulus (GPa) = 38.97859 40.57741 39.77800
#
# Velocity S-wave (km/s) = 4.21050 4.29598 4.25346
# Velocity P-wave (km/s) = 6.63867 6.72546 6.68221
#
# Compressibility (1/GPa) = 0.02225777
#
# Stress axis : x y z
#
# Youngs Moduli (GPa) = 85.13542 93.29494 91.00128
#
# Poissons Ratio (x) = 0.17729 0.31695
# Poissons Ratio (y) = 0.16178 0.01954
# Poissons Ratio (z) = 0.29652 0.02003
#
# Static dielectric constant tensor:
#      x y z
#    x 3.986690 0.000000 0.000000 
#    y 0.000000 3.863360 0.000000 
#    z 0.000000 0.000000 3.994230 
# 
# 
# High freq. dielectric constant tensor:
#      x y z
#    x 1.879350 0.000000 0.000000 
#    y 0.000000 1.876890 0.000000 
#    z 0.000000 0.000000 1.876340 
# 
# From -- ./inp_files/8949.got.cif
#   From: 2010.03.12/outbox.cif.g09.slc.cpg/sg17_5_cif.got.tgz:8949.got - 2010.04.10 18:46:23.
