data_PCOD8155197
_publ_section_title
;
Structure prediction by ZEFSAII (Michael W. Deem and Ramdas Pophale) SiO2 
 PCOD8155197
Probable space group: C 2/C
;
_chemical_formula_sum "Si O2"
_cell_formula_units_Z 48
_cell_length_a 15.020906
_cell_length_b 17.623303
_cell_length_c 13.084489
_cell_angle_alpha 90.000000
_cell_angle_beta 111.956245
_cell_angle_gamma 90.000000
_cell_volume 3212.476167
_symmetry_space_group_name_H-M "C 2/C"
_symmetry_group_IT_number 15
_symmetry_cell_setting 'monoclinic'
loop_
_space_group_symop_operation_xyz
x,y,z
-x,y,1/2-z
-x,-y,-z
x,-y,1/2+z
1/2+x,1/2+y,z
1/2-x,1/2+y,1/2-z
1/2-x,1/2-y,-z
1/2+x,1/2-y,1/2+z
loop_
_atom_site_type_symbol
_atom_site_label
_atom_site_fract_x
_atom_site_fract_y
_atom_site_fract_z
Si Si1 0.958450 0.364627 0.333564
Si Si2 0.343756 0.993177 0.767334
Si Si3 0.151660 0.615697 0.413851
Si Si4 0.763286 0.372378 0.334438
Si Si5 0.603099 0.747017 0.754839
Si Si6 0.446573 0.867790 0.920061
O O1 0.041317 0.359006 0.453969
O O2 0.000000 0.323195 0.250000
O O3 0.936634 0.452401 0.295737
O O4 0.858986 0.327600 0.333808
O O5 0.319126 0.953356 0.648944
O O6 0.365783 0.930219 0.862663
O O7 0.256423 0.045505 0.774053
O O8 0.227077 0.616804 0.539124
O O9 0.155008 0.695560 0.355604
O O10 0.043915 0.602940 0.407753
O O11 0.668662 0.326232 0.266608
O O12 0.500000 0.718849 0.750000
O O13 0.587604 0.787414 0.639325
#
# Coordination Sequence:
#
# PCOD8155197 Si02
#       6
#     8   8   8   8   8   8
#     4   9  17  25  42  66  94 114 137 171 224 270
#     4   9  17  23  43  66  97 107 138 172 228 273
#     4   9  16  28  45  69  89 111 140 189 233 261
#     4   9  19  26  44  67  91 115 147 180 219 268
#     4   9  17  31  46  62  88 118 153 185 215 250
#     4   9  16  27  44  67  90 116 141 180 228 265
#
# _framework density 14.941746
#
# number of rings (size 3 to 8) (size 9 to 14) (size 15 to 20)
#    1.000    2.000    0.000    3.500    2.333    0.000 
#    0.000    0.833    0.000    1.000    0.000    4.667 
#    0.000    0.000    0.000    0.000    0.000    0.000 
#
# Total GULP energy -297340.665577 kJ/mol
# GULP energy per Si atom -12389.194399 kJ/mol
# Density = 1.490774 g / cm^3
# Si number density = 14.941746 Si / 1000 Ang^3
#
#
#
# Elastic Constant Matrix: (Units=GPa)
#
#
# Indices 1 2 3 4 5 6 
#
# 1 56.3063 44.3972 41.2414 0.0000 -3.4963 0.0000
# 2 44.3972 75.5309 38.8176 0.0000 4.5496 0.0000
# 3 41.2414 38.8176 93.5588 0.0000 -13.5680 0.0000
# 4 0.0000 0.0000 0.0000 14.3993 0.0000 5.5109
# 5 -3.4963 4.5496 -13.5680 0.0000 20.1101 0.0000
# 6 0.0000 0.0000 0.0000 5.5109 0.0000 29.6108
#
#
#
# Elastic Compliance Matrix: (Units=1/GPa)
#
#
# Indices 1 2 3 4 5 6 
#
# 1 0.039517 -0.019048 -0.008751 0.000000 0.005275 0.000000
# 2 -0.019048 0.027799 -0.005021 0.000000 -0.012988 0.000000
# 3 -0.008751 -0.005021 0.018371 0.000000 0.012009 0.000000
# 4 0.000000 0.000000 0.000000 0.074774 0.000000 -0.013916
# 5 0.005275 -0.012988 0.012009 0.000000 0.061684 0.000000
# 6 0.000000 0.000000 0.000000 -0.013916 0.000000 0.036361
#
#
# Mechanical properties :
#
#
# Convention : Reuss Voigt Hill
#
# Bulk Modulus (GPa) = 49.88503 52.70093 51.29298
# Shear Modulus (GPa) = 15.11361 19.55337 17.33349
#
# Velocity S-wave (km/s) = 3.18386 3.62144 3.40968
# Velocity P-wave (km/s) = 6.85382 7.26869 7.06430
#
# Compressibility (1/GPa) = 0.02004609
#
# Stress axis : x y z
#
# Youngs Moduli (GPa) = 25.30573 35.97271 54.43479
#
# Poissons Ratio (x) = 0.68522 0.47636
# Poissons Ratio (y) = 0.48203 0.27330
# Poissons Ratio (z) = 0.22145 0.18061
#
# Static dielectric constant tensor:
#      x y z
#    x 2.548260 0.000000 -0.156660 
#    y 0.000000 2.602060 0.000000 
#    z -0.156660 0.000000 2.939920 
# 
# 
# High freq. dielectric constant tensor:
#      x y z
#    x 1.533150 0.000000 -0.016340 
#    y 0.000000 1.544270 0.000000 
#    z -0.016340 0.000000 1.575450 
# 
# From -- ./inp_files/145181.got.cif
#   From: 2010.06.25/outbox.cif.g09.slc.cpg/sg15_73_cif.got.tgz:145181.got - 2010.06.28 07:06:18.
