data_PCOD8155908
_publ_section_title
;
Structure prediction by ZEFSAII (Michael W. Deem and Ramdas Pophale) SiO2 
 PCOD8155908
Probable space group: P 21 21 2
;
_chemical_formula_sum "Si O2"
_cell_formula_units_Z 22
_cell_length_a 25.715125
_cell_length_b 5.763984
_cell_length_c 7.094627
_cell_angle_alpha 90.000000
_cell_angle_beta 90.000000
_cell_angle_gamma 90.000000
_cell_volume 1051.576746
_symmetry_space_group_name_H-M "P 21 21 2"
_symmetry_group_IT_number 18
_symmetry_cell_setting 'orthorhombic'
loop_
_space_group_symop_operation_xyz
x,y,z
-x,-y,z
1/2+x,1/2-y,-z
1/2-x,1/2+y,-z
loop_
_atom_site_type_symbol
_atom_site_label
_atom_site_fract_x
_atom_site_fract_y
_atom_site_fract_z
Si Si1 0.762681 0.557838 0.094427
Si Si2 0.163285 0.943794 0.725245
Si Si3 0.088922 0.710148 0.453325
Si Si4 0.582992 0.171905 0.262542
Si Si5 0.500000 0.500000 0.372563
Si Si6 0.371732 0.124092 0.948135
O O1 0.726361 0.542781 0.283046
O O2 0.824309 0.535519 0.129807
O O3 0.745648 0.321055 0.983098
O O4 0.142685 0.786926 0.554506
O O5 0.137480 0.195276 0.713502
O O6 0.149145 0.840845 0.931988
O O7 0.073572 0.463429 0.541524
O O8 0.095935 0.708753 0.230608
O O9 0.042360 0.885667 0.492522
O O10 0.531745 0.329121 0.233858
O O11 0.587503 0.011574 0.079677
#
# Coordination Sequence:
#
# PCOD8155908 Si02
#       6
#     4   4   4   4   2   4
#     4  10  19  38  65  96 136 179 214 263 326 397
#     4   9  20  39  60  88 129 168 206 258 317 387
#     4  10  22  41  61  92 124 164 217 273 319 391
#     4  10  20  41  63  86 125 167 210 270 321 388
#     4  10  22  42  62  84 128 168 210 274 340 378
#     4  10  21  39  64  92 129 165 216 262 325 389
#
# _framework density 20.920967000000001
#
# number of rings (size 3 to 8) (size 9 to 14) (size 15 to 20)
#    0.000    2.182    1.818    0.545    0.000    2.909 
#    3.273   21.818    0.000    0.000    0.000    0.000 
#    0.000    0.000    0.000    0.000    0.000    0.000 
#
# Total GULP energy -272561.753512 kJ/mol
# GULP energy per Si atom -12389.170614 kJ/mol
# Density = 2.087335 g / cm^3
# Si number density = 20.920967 Si / 1000 Ang^3
#
#
#
# Elastic Constant Matrix: (Units=GPa)
#
#
# Indices 1 2 3 4 5 6 
#
# 1 86.5860 15.4331 26.5521 0.0000 0.0000 0.0000
# 2 15.4331 96.4598 24.8700 0.0000 0.0000 0.0000
# 3 26.5521 24.8700 103.9955 0.0000 0.0000 0.0000
# 4 0.0000 0.0000 0.0000 10.1916 0.0000 0.0000
# 5 0.0000 0.0000 0.0000 0.0000 21.6545 0.0000
# 6 0.0000 0.0000 0.0000 0.0000 0.0000 27.1962
#
#
#
# Elastic Compliance Matrix: (Units=1/GPa)
#
#
# Indices 1 2 3 4 5 6 
#
# 1 0.012675 -0.001272 -0.002932 0.000000 0.000000 0.000000
# 2 -0.001272 0.011176 -0.002348 0.000000 0.000000 0.000000
# 3 -0.002932 -0.002348 0.010926 0.000000 0.000000 0.000000
# 4 0.000000 0.000000 0.000000 0.098120 0.000000 0.000000
# 5 0.000000 0.000000 0.000000 0.000000 0.046180 0.000000
# 6 0.000000 0.000000 0.000000 0.000000 0.000000 0.036770
#
#
# Mechanical properties :
#
#
# Convention : Reuss Voigt Hill
#
# Bulk Modulus (GPa) = 46.14027 46.75019 46.44523
# Shear Modulus (GPa) = 21.17076 26.48753 23.82914
#
# Velocity S-wave (km/s) = 3.18455 3.56206 3.37858
# Velocity P-wave (km/s) = 5.96861 6.26995 6.12113
#
# Compressibility (1/GPa) = 0.02167304
#
# Stress axis : x y z
#
# Youngs Moduli (GPa) = 78.89522 89.47840 91.52581
#
# Poissons Ratio (x) = 0.11382 0.26835
# Poissons Ratio (y) = 0.10035 0.21489
# Poissons Ratio (z) = 0.23132 0.21009
#
# Static dielectric constant tensor:
#      x y z
#    x 4.104820 0.000000 0.000000 
#    y 0.000000 4.071960 0.000000 
#    z 0.000000 0.000000 3.335140 
# 
# 
# High freq. dielectric constant tensor:
#      x y z
#    x 1.828970 0.000000 0.000000 
#    y 0.000000 1.835460 0.000000 
#    z 0.000000 0.000000 1.776960 
# 
# From -- ./inp_files/316.got.cif
#   From: 2010.03.12/outbox.cif.g09.slc.cpg/sg18_1_cif.got.tgz:316.got - 2010.04.10 18:53:55.
