data_PCOD8155190
_publ_section_title
;
Structure prediction by ZEFSAII (Michael W. Deem and Ramdas Pophale) SiO2 
 PCOD8155190
Probable space group: C 2/C
;
_chemical_formula_sum "Si O2"
_cell_formula_units_Z 48
_cell_length_a 14.826829
_cell_length_b 14.764682
_cell_length_c 28.811636
_cell_angle_alpha 90.000000
_cell_angle_beta 150.541088
_cell_angle_gamma 90.000000
_cell_volume 3101.902818
_symmetry_space_group_name_H-M "C 2/C"
_symmetry_group_IT_number 15
_symmetry_cell_setting 'monoclinic'
loop_
_space_group_symop_operation_xyz
x,y,z
-x,y,1/2-z
-x,-y,-z
x,-y,1/2+z
1/2+x,1/2+y,z
1/2-x,1/2+y,1/2-z
1/2-x,1/2-y,-z
1/2+x,1/2-y,1/2+z
loop_
_atom_site_type_symbol
_atom_site_label
_atom_site_fract_x
_atom_site_fract_y
_atom_site_fract_z
Si Si1 0.516766 0.484885 0.432139
Si Si2 0.610828 0.362534 0.554037
Si Si3 0.808564 0.258464 0.951868
Si Si4 0.500000 0.795035 0.250000
Si Si5 0.376471 0.943815 0.264103
Si Si6 0.500000 0.092087 0.250000
Si Si7 0.818918 0.605910 0.534036
O O1 0.587660 0.395224 0.490507
O O2 0.465313 0.559247 0.447093
O O3 0.337548 0.461520 0.321152
O O4 0.675519 0.522490 0.469439
O O5 0.498260 0.269997 0.511822
O O6 0.824519 0.344494 0.661411
O O7 0.646549 0.268818 0.841609
O O8 0.754064 0.181475 0.963715
O O9 0.836680 0.354222 0.990201
O O10 0.388585 0.857223 0.235965
O O11 0.481264 0.927260 0.359475
O O12 0.471348 0.029396 0.282122
#
# Coordination Sequence:
#
# PCOD8155190 Si02
#       7
#     8   8   8   4   8   4   8
#     4   9  14  22  35  54  80 106 137 169 207 243
#     4   9  14  22  34  56  78 108 136 170 201 248
#     4   9  16  24  35  54  84 111 136 164 210 254
#     4   9  14  22  36  54  76 109 138 164 202 249
#     4   9  14  21  36  55  78 107 134 167 208 240
#     4   9  14  20  36  56  80 103 136 168 202 241
#     4   9  16  24  34  56  84 109 134 171 207 248
#
# _framework density 15.474373999999999
#
# number of rings (size 3 to 8) (size 9 to 14) (size 15 to 20)
#    0.000    3.000    3.333    0.000    0.000    0.000 
#    0.000    0.000    0.000    0.000    0.000    4.667 
#    0.000    0.000    0.000    0.000    0.000    0.000 
#
# Total GULP energy -297469.490270 kJ/mol
# GULP energy per Si atom -12394.562095 kJ/mol
# Density = 1.543915 g / cm^3
# Si number density = 15.474374 Si / 1000 Ang^3
#
#
#
# Elastic Constant Matrix: (Units=GPa)
#
#
# Indices 1 2 3 4 5 6 
#
# 1 45.1015 36.4393 52.9820 0.0002 5.8278 -0.0002
# 2 36.4393 43.0727 52.1465 -0.0002 2.5807 0.0000
# 3 52.9820 52.1465 154.0913 -0.0010 9.3642 -0.0002
# 4 0.0002 -0.0002 -0.0010 14.3676 -0.0003 0.0683
# 5 5.8278 2.5807 9.3642 -0.0003 14.9953 -0.0002
# 6 -0.0002 0.0000 -0.0002 0.0683 -0.0002 21.7292
#
#
#
# Elastic Compliance Matrix: (Units=1/GPa)
#
#
# Indices 1 2 3 4 5 6 
#
# 1 0.078308 -0.057389 -0.006501 -0.000002 -0.016497 0.000000
# 2 -0.057389 0.081426 -0.008656 0.000001 0.013695 0.000000
# 3 -0.006501 -0.008656 0.011860 0.000001 -0.003390 0.000000
# 4 -0.000002 0.000001 0.000001 0.069602 0.000001 -0.000219
# 5 -0.016497 0.013695 -0.003390 0.000001 0.072859 0.000001
# 6 0.000000 0.000000 0.000000 -0.000219 0.000001 0.046022
#
#
# Mechanical properties :
#
#
# Convention : Reuss Voigt Hill
#
# Bulk Modulus (GPa) = 37.73240 58.37791 48.05516
# Shear Modulus (GPa) = 9.72759 16.93160 13.32960
#
# Velocity S-wave (km/s) = 2.50996 3.31141 2.93814
# Velocity P-wave (km/s) = 5.73032 7.24072 6.52934
#
# Compressibility (1/GPa) = 0.02650242
#
# Stress axis : x y z
#
# Youngs Moduli (GPa) = 12.77013 12.28114 84.31577
#
# Poissons Ratio (x) = 0.70480 0.54816
# Poissons Ratio (y) = 0.73286 0.72980
# Poissons Ratio (z) = 0.08302 0.10630
#
# Static dielectric constant tensor:
#      x y z
#    x 2.672150 0.000000 0.125580 
#    y 0.000000 2.644960 0.000000 
#    z 0.125580 0.000000 3.151940 
# 
# 
# High freq. dielectric constant tensor:
#      x y z
#    x 1.541480 0.000000 0.015300 
#    y 0.000000 1.538430 0.000000 
#    z 0.015300 0.000000 1.612900 
# 
# From -- ./inp_files/143476.got.cif
#   From: 2010.06.25/outbox.cif.g09.slc.cpg/sg15_72_cif.got.tgz:143476.got - 2010.06.28 07:06:18.
