data_PCOD8155381
_publ_section_title
;
Structure prediction by ZEFSAII (Michael W. Deem and Ramdas Pophale) SiO2 
 PCOD8155381
Probable space group: P 2 2 21
;
_chemical_formula_sum "Si O2"
_cell_formula_units_Z 32
_cell_length_a 9.807143
_cell_length_b 14.060674
_cell_length_c 12.108741
_cell_angle_alpha 90.000000
_cell_angle_beta 90.000000
_cell_angle_gamma 90.000000
_cell_volume 1669.735332
_symmetry_space_group_name_H-M "P 2 2 21"
_symmetry_group_IT_number 17
_symmetry_cell_setting 'orthorhombic'
loop_
_space_group_symop_operation_xyz
x,y,z
-x,-y,1/2+z
x,-y,-z
-x,y,1/2-z
loop_
_atom_site_type_symbol
_atom_site_label
_atom_site_fract_x
_atom_site_fract_y
_atom_site_fract_z
Si Si1 0.826775 0.725245 0.864170
Si Si2 0.674817 0.608814 0.471669
Si Si3 0.125145 0.041601 0.111746
Si Si4 0.830713 0.093376 0.027881
Si Si5 0.656324 0.700120 0.245602
Si Si6 0.636660 0.610045 0.013275
Si Si7 0.854661 0.868013 0.223050
Si Si8 0.860512 0.741533 0.617369
O O1 0.760295 0.828923 0.893045
O O2 0.830589 0.697947 0.736777
O O3 0.980137 0.730323 0.914293
O O4 0.731747 0.648006 0.917363
O O5 0.713666 0.500000 0.500000
O O6 0.689739 0.622886 0.340305
O O7 0.521372 0.634966 0.508846
O O8 0.774370 0.683423 0.529462
O O9 0.183935 0.147858 0.126936
O O10 0.962101 0.050872 0.094391
O O11 0.159084 0.971995 0.215876
O O12 0.192619 0.000000 0.000000
O O13 0.859249 0.137109 0.908792
O O14 0.736696 0.000000 0.000000
O O15 0.500000 0.731573 0.250000
O O16 0.690315 0.649151 0.130111
O O17 0.738575 0.797184 0.266297
O O18 0.658236 0.500000 0.000000
O O19 0.000000 0.822198 0.250000
#
# Coordination Sequence:
#
# PCOD8155381 Si02
#       8
#     4   4   4   4   4   4   4   4
#     4  10  21  37  57  87 124 155 189 248 303 346
#     4  10  23  41  64  88 113 157 204 251 303 364
#     4  10  19  31  53  85 118 150 191 240 284 336
#     4  10  18  31  53  85 119 148 197 238 280 346
#     4  10  23  41  60  89 125 152 198 262 304 354
#     4  10  22  41  65  86 114 158 204 248 303 364
#     4  12  20  33  62  89 112 161 204 238 291 361
#     4  10  22  37  58  88 125 153 193 248 301 351
#
# _framework density 19.164715000000001
#
# number of rings (size 3 to 8) (size 9 to 14) (size 15 to 20)
#    0.000    1.750    3.750    1.500    5.250    1.000 
#    0.000    0.000    5.500    0.000    0.000    0.000 
#    0.000    0.000    0.000    0.000    0.000    0.000 
#
# Total GULP energy -396459.014456 kJ/mol
# GULP energy per Si atom -12389.344202 kJ/mol
# Density = 1.912110 g / cm^3
# Si number density = 19.164715 Si / 1000 Ang^3
#
#
#
# Elastic Constant Matrix: (Units=GPa)
#
#
# Indices 1 2 3 4 5 6 
#
# 1 56.6865 51.5824 22.0529 0.0000 0.0000 0.0000
# 2 51.5824 102.6317 25.8859 0.0000 0.0000 0.0000
# 3 22.0529 25.8859 66.0922 0.0000 0.0000 0.0000
# 4 0.0000 0.0000 0.0000 32.8707 0.0000 0.0000
# 5 0.0000 0.0000 0.0000 0.0000 21.8005 0.0000
# 6 0.0000 0.0000 0.0000 0.0000 0.0000 22.8879
#
#
#
# Elastic Compliance Matrix: (Units=1/GPa)
#
#
# Indices 1 2 3 4 5 6 
#
# 1 0.034027 -0.015799 -0.005166 0.000000 0.000000 0.000000
# 2 -0.015799 0.018147 -0.001836 0.000000 0.000000 0.000000
# 3 -0.005166 -0.001836 0.017573 0.000000 0.000000 0.000000
# 4 0.000000 0.000000 0.000000 0.030422 0.000000 0.000000
# 5 0.000000 0.000000 0.000000 0.000000 0.045871 0.000000
# 6 0.000000 0.000000 0.000000 0.000000 0.000000 0.043691
#
#
# Mechanical properties :
#
#
# Convention : Reuss Voigt Hill
#
# Bulk Modulus (GPa) = 41.41517 47.16141 44.28829
# Shear Modulus (GPa) = 20.54391 23.90443 22.22417
#
# Velocity S-wave (km/s) = 3.27764 3.53557 3.40904
# Velocity P-wave (km/s) = 5.99841 6.42875 6.21731
#
# Compressibility (1/GPa) = 0.02414574
#
# Stress axis : x y z
#
# Youngs Moduli (GPa) = 29.38853 55.10517 56.90498
#
# Poissons Ratio (x) = 0.87060 0.29396
# Poissons Ratio (y) = 0.46431 0.10448
# Poissons Ratio (z) = 0.15182 0.10117
#
# Static dielectric constant tensor:
#      x y z
#    x 3.288290 0.000000 0.000000 
#    y 0.000000 3.727790 0.000000 
#    z 0.000000 0.000000 3.718810 
# 
# 
# High freq. dielectric constant tensor:
#      x y z
#    x 1.701250 0.000000 0.000000 
#    y 0.000000 1.753030 0.000000 
#    z 0.000000 0.000000 1.766040 
# 
# From -- ./inp_files/6720.got.cif
#   From: 2010.03.12/outbox.cif.g09.slc.cpg/sg17_4_cif.got.tgz:6720.got - 2010.04.10 18:46:23.
