data_PCOD8155004
_publ_section_title
;
Structure prediction by ZEFSAII (Michael W. Deem and Ramdas Pophale) SiO2 
 PCOD8155004
Probable space group: C 2/C
;
_chemical_formula_sum "Si O2"
_cell_formula_units_Z 36
_cell_length_a 11.766629
_cell_length_b 21.637971
_cell_length_c 9.759586
_cell_angle_alpha 90.000000
_cell_angle_beta 37.546386
_cell_angle_gamma 90.000000
_cell_volume 1514.275682
_symmetry_space_group_name_H-M "C 2/C"
_symmetry_group_IT_number 15
_symmetry_cell_setting 'monoclinic'
loop_
_space_group_symop_operation_xyz
x,y,z
-x,y,1/2-z
-x,-y,-z
x,-y,1/2+z
1/2+x,1/2+y,z
1/2-x,1/2+y,1/2-z
1/2-x,1/2-y,-z
1/2+x,1/2-y,1/2+z
loop_
_atom_site_type_symbol
_atom_site_label
_atom_site_fract_x
_atom_site_fract_y
_atom_site_fract_z
Si Si1 0.500000 0.504635 0.750000
Si Si2 0.218404 0.827462 0.762444
Si Si3 0.370025 0.385580 0.206112
Si Si4 0.087372 0.293516 0.526652
Si Si5 0.784816 0.600126 0.930332
O O1 0.616424 0.545444 0.748275
O O2 0.662676 0.462075 0.534954
O O3 0.151851 0.757010 0.852219
O O4 0.430263 0.836201 0.607008
O O5 0.206465 0.850226 0.615571
O O6 0.086413 0.870977 0.977928
O O7 0.262447 0.336669 0.407968
O O8 0.245083 0.372248 0.191112
O O9 0.000000 0.263835 0.750000
O O10 0.000000 0.583181 0.750000
#
# Coordination Sequence:
#
# PCOD8155004 Si02
#       5
#     4   8   8   8   8
#     4  12  28  48  78 102 150 198 250 306 358 436
#     4  12  25  46  75 109 150 190 244 304 370 439
#     4  12  26  49  74 111 149 193 246 304 370 437
#     4  12  26  45  74 114 151 194 242 300 374 445
#     4  12  27  49  73 110 148 193 251 302 371 433
#
# _framework density 23.773741999999999
#
# number of rings (size 3 to 8) (size 9 to 14) (size 15 to 20)
#    0.000    0.000    6.667    2.667    1.556    4.444 
#    4.000    0.000    0.000    0.000    0.000    0.000 
#    0.000    0.000    0.000    0.000    0.000    0.000 
#
# Total GULP energy -223036.289263 kJ/mol
# GULP energy per Si atom -12390.904959 kJ/mol
# Density = 2.371963 g / cm^3
# Si number density = 23.773742 Si / 1000 Ang^3
#
#
#
# Elastic Constant Matrix: (Units=GPa)
#
#
# Indices 1 2 3 4 5 6 
#
# 1 124.8845 33.3277 38.8504 0.0000 -1.5211 0.0000
# 2 33.3277 112.5503 48.7496 0.0000 -1.5527 0.0000
# 3 38.8504 48.7496 120.1145 0.0000 -15.9364 0.0000
# 4 0.0000 0.0000 0.0000 17.9723 0.0000 -4.9476
# 5 -1.5211 -1.5527 -15.9364 0.0000 44.3492 0.0000
# 6 0.0000 0.0000 0.0000 -4.9476 0.0000 35.8824
#
#
#
# Elastic Compliance Matrix: (Units=1/GPa)
#
#
# Indices 1 2 3 4 5 6 
#
# 1 0.009189 -0.001708 -0.002358 0.000000 -0.000592 0.000000
# 2 -0.001708 0.011164 -0.004132 0.000000 -0.001152 0.000000
# 3 -0.002358 -0.004132 0.011272 0.000000 0.003825 0.000000
# 4 0.000000 0.000000 0.000000 0.057837 0.000000 0.007975
# 5 -0.000592 -0.001152 0.003825 0.000000 0.023862 0.000000
# 6 0.000000 0.000000 0.000000 0.007975 0.000000 0.028968
#
#
# Mechanical properties :
#
#
# Convention : Reuss Voigt Hill
#
# Bulk Modulus (GPa) = 65.65307 66.60052 66.12679
# Shear Modulus (GPa) = 30.53158 35.41555 32.97356
#
# Velocity S-wave (km/s) = 3.58754 3.86384 3.72825
# Velocity P-wave (km/s) = 6.69599 6.92682 6.81238
#
# Compressibility (1/GPa) = 0.01523158
#
# Stress axis : x y z
#
# Youngs Moduli (GPa) = 108.82045 89.57075 88.71346
#
# Poissons Ratio (x) = 0.15300 0.20914
# Poissons Ratio (y) = 0.18588 0.36652
# Poissons Ratio (z) = 0.25655 0.37007
#
# Static dielectric constant tensor:
#      x y z
#    x 4.464590 0.000000 -0.163150 
#    y 0.000000 4.047040 0.000000 
#    z -0.163150 0.000000 4.593830 
# 
# 
# High freq. dielectric constant tensor:
#      x y z
#    x 1.955930 0.000000 -0.012270 
#    y 0.000000 1.930600 0.000000 
#    z -0.012270 0.000000 1.961400 
# 
# From -- ./inp_files/31694.got.cif
#   From: 2010.06.25/outbox.cif.g09.slc.cpg/sg15_16_cif.got.tgz:31694.got - 2010.06.28 07:06:18.
