data_PCOD8155722
_publ_section_title
;
Structure prediction by ZEFSAII (Michael W. Deem and Ramdas Pophale) SiO2 
 PCOD8155722
Probable space group: P 2 2 21
;
_chemical_formula_sum "Si O2"
_cell_formula_units_Z 32
_cell_length_a 15.122060
_cell_length_b 9.429941
_cell_length_c 10.469719
_cell_angle_alpha 90.000000
_cell_angle_beta 90.000000
_cell_angle_gamma 90.000000
_cell_volume 1492.983328
_symmetry_space_group_name_H-M "P 2 2 21"
_symmetry_group_IT_number 17
_symmetry_cell_setting 'orthorhombic'
loop_
_space_group_symop_operation_xyz
x,y,z
-x,-y,1/2+z
x,-y,-z
-x,y,1/2-z
loop_
_atom_site_type_symbol
_atom_site_label
_atom_site_fract_x
_atom_site_fract_y
_atom_site_fract_z
Si Si1 0.964909 0.913984 0.113229
Si Si2 0.700517 0.207461 0.919753
Si Si3 0.780894 0.949755 0.843255
Si Si4 0.214412 0.418374 0.759142
Si Si5 0.639847 0.651944 0.467855
Si Si6 0.066788 0.647583 0.057159
Si Si7 0.212065 0.717437 0.850913
Si Si8 0.491482 0.872038 0.397254
O O1 0.000000 0.962016 0.250000
O O2 0.982817 0.748473 0.081802
O O3 0.862515 0.954802 0.106995
O O4 0.014574 0.000000 0.000000
O O5 0.753269 0.347714 0.873091
O O6 0.594880 0.225745 0.925867
O O7 0.709443 0.074457 0.819751
O O8 0.742465 0.162131 0.054889
O O9 0.804311 0.867692 0.715622
O O10 0.118107 0.363707 0.806875
O O11 0.206644 0.588794 0.748172
O O12 0.285935 0.378685 0.864132
O O13 0.593970 0.500000 0.500000
O O14 0.689766 0.717299 0.590325
O O15 0.571106 0.764444 0.417850
O O16 0.029791 0.500000 0.000000
O O17 0.135868 0.707650 0.955292
O O18 0.500000 0.927270 0.250000
O O19 0.494941 0.000000 0.500000
#
# Coordination Sequence:
#
# PCOD8155722 Si02
#       8
#     4   4   4   4   4   4   4   4
#     4  12  24  42  67  96 132 172 219 274 331 395
#     4  11  22  41  59  84 133 171 212 260 334 387
#     4  11  23  41  60  91 132 171 213 267 324 402
#     4   9  18  39  66  91 125 168 210 271 320 389
#     4   9  20  40  66  97 127 166 222 273 322 382
#     4   9  20  40  67  96 124 163 219 273 320 386
#     4   9  20  40  67  96 125 164 225 267 320 396
#     4  12  25  42  64  97 136 177 223 275 330 395
#
# _framework density 21.433595
#
# number of rings (size 3 to 8) (size 9 to 14) (size 15 to 20)
#    0.000    1.750    3.750    3.000    1.750    0.500 
#    2.250    7.500    0.000    0.000    0.000    0.000 
#    0.000    0.000    0.000    0.000    0.000    0.000 
#
# Total GULP energy -396474.663311 kJ/mol
# GULP energy per Si atom -12389.833228 kJ/mol
# Density = 2.138481 g / cm^3
# Si number density = 21.433595 Si / 1000 Ang^3
#
#
#
# Elastic Constant Matrix: (Units=GPa)
#
#
# Indices 1 2 3 4 5 6 
#
# 1 76.1723 37.8215 23.7125 0.0000 0.0000 0.0000
# 2 37.8215 92.4148 34.1578 0.0000 0.0000 0.0000
# 3 23.7125 34.1578 81.8826 0.0000 0.0000 0.0000
# 4 0.0000 0.0000 0.0000 42.3468 0.0000 0.0000
# 5 0.0000 0.0000 0.0000 0.0000 18.5649 0.0000
# 6 0.0000 0.0000 0.0000 0.0000 0.0000 17.9815
#
#
#
# Elastic Compliance Matrix: (Units=1/GPa)
#
#
# Indices 1 2 3 4 5 6 
#
# 1 0.016856 -0.006023 -0.002369 0.000000 0.000000 0.000000
# 2 -0.006023 0.014945 -0.004490 0.000000 0.000000 0.000000
# 3 -0.002369 -0.004490 0.014772 0.000000 0.000000 0.000000
# 4 0.000000 0.000000 0.000000 0.023615 0.000000 0.000000
# 5 0.000000 0.000000 0.000000 0.000000 0.053865 0.000000
# 6 0.000000 0.000000 0.000000 0.000000 0.000000 0.055613
#
#
# Mechanical properties :
#
#
# Convention : Reuss Voigt Hill
#
# Bulk Modulus (GPa) = 48.05625 49.09480 48.57553
# Shear Modulus (GPa) = 23.54422 26.09718 24.82070
#
# Velocity S-wave (km/s) = 3.31792 3.49317 3.40667
# Velocity P-wave (km/s) = 6.09490 6.26298 6.17951
#
# Compressibility (1/GPa) = 0.02080895
#
# Stress axis : x y z
#
# Youngs Moduli (GPa) = 59.32578 66.91022 67.69653
#
# Poissons Ratio (x) = 0.40299 0.16037
# Poissons Ratio (y) = 0.35731 0.30398
# Poissons Ratio (z) = 0.14054 0.30045
#
# Static dielectric constant tensor:
#      x y z
#    x 3.898870 0.000000 0.000000 
#    y 0.000000 4.023490 0.000000 
#    z 0.000000 0.000000 3.981800 
# 
# 
# High freq. dielectric constant tensor:
#      x y z
#    x 1.837370 0.000000 0.000000 
#    y 0.000000 1.837750 0.000000 
#    z 0.000000 0.000000 1.836940 
# 
# From -- ./inp_files/7304.got.cif
#   From: 2010.03.12/outbox.cif.g09.slc.cpg/sg17_4_cif.got.tgz:7304.got - 2010.04.10 18:46:23.
