data_PCOD8155174
_publ_section_title
;
Structure prediction by ZEFSAII (Michael W. Deem and Ramdas Pophale) SiO2 
 PCOD8155174
Probable space group: C 2/C
;
_chemical_formula_sum "Si O2"
_cell_formula_units_Z 24
_cell_length_a 14.056446
_cell_length_b 4.949148
_cell_length_c 13.983694
_cell_angle_alpha 90.000000
_cell_angle_beta 71.427682
_cell_angle_gamma 90.000000
_cell_volume 922.148085
_symmetry_space_group_name_H-M "C 2/C"
_symmetry_group_IT_number 15
_symmetry_cell_setting 'monoclinic'
loop_
_space_group_symop_operation_xyz
x,y,z
-x,y,1/2-z
-x,-y,-z
x,-y,1/2+z
1/2+x,1/2+y,z
1/2-x,1/2+y,1/2-z
1/2-x,1/2-y,-z
1/2+x,1/2-y,1/2+z
loop_
_atom_site_type_symbol
_atom_site_label
_atom_site_fract_x
_atom_site_fract_y
_atom_site_fract_z
Si Si1 0.801549 0.187661 0.883479
Si Si2 0.490281 0.448832 0.114195
Si Si3 0.865095 0.448513 0.203769
O O1 0.827293 0.470124 0.821598
O O2 0.727586 0.013425 0.840072
O O3 0.750000 0.250000 0.000000
O O4 0.902487 0.015790 0.869049
O O5 0.454057 0.144063 0.141239
O O6 0.408941 0.646253 0.188649
O O7 0.500000 0.500000 0.000000
#
# Coordination Sequence:
#
# PCOD8155174 Si02
#       3
#     8   8   8
#     4  12  29  53  86 121 167 215 277 343 402 492
#     4  12  28  55  83 116 166 217 270 341 416 479
#     4  12  29  54  79 122 163 217 275 333 418 482
#
# _framework density 26.026191000000001
#
# number of rings (size 3 to 8) (size 9 to 14) (size 15 to 20)
#    0.000    0.000    3.333    4.000    0.000   14.667 
#    0.000    0.000    0.000    0.000    0.000    0.000 
#    0.000    0.000    0.000    0.000    0.000    0.000 
#
# Total GULP energy -148885.903453 kJ/mol
# GULP energy per Si atom -12407.158621 kJ/mol
# Density = 2.596695 g / cm^3
# Si number density = 26.026191 Si / 1000 Ang^3
#
#
#
# Elastic Constant Matrix: (Units=GPa)
#
#
# Indices 1 2 3 4 5 6 
#
# 1 239.1414 33.8771 63.0771 -0.0001 8.3925 -0.0001
# 2 33.8771 67.6460 22.7531 -0.0004 4.9269 0.0002
# 3 63.0771 22.7531 202.2713 0.0000 20.9429 0.0000
# 4 -0.0001 -0.0004 0.0000 35.7166 0.0000 5.8564
# 5 8.3925 4.9269 20.9429 0.0000 46.7684 -0.0001
# 6 -0.0001 0.0002 0.0000 5.8564 -0.0001 44.6314
#
#
#
# Elastic Compliance Matrix: (Units=1/GPa)
#
#
# Indices 1 2 3 4 5 6 
#
# 1 0.004798 -0.001971 -0.001265 0.000000 -0.000087 0.000000
# 2 -0.001971 0.016209 -0.001121 0.000000 -0.000852 0.000000
# 3 -0.001265 -0.001121 0.005693 0.000000 -0.002204 0.000000
# 4 0.000000 0.000000 0.000000 0.028614 0.000000 -0.003755
# 5 -0.000087 -0.000852 -0.002204 0.000000 0.022474 0.000000
# 6 0.000000 0.000000 0.000000 -0.003755 0.000000 0.022898
#
#
# Mechanical properties :
#
#
# Convention : Reuss Voigt Hill
#
# Bulk Modulus (GPa) = 55.59960 83.16372 69.38166
# Shear Modulus (GPa) = 43.32976 51.38005 47.35491
#
# Velocity S-wave (km/s) = 4.08469 4.44798 4.27020
# Velocity P-wave (km/s) = 6.60723 7.64216 7.14346
#
# Compressibility (1/GPa) = 0.01798574
#
# Stress axis : x y z
#
# Youngs Moduli (GPa) = 208.43660 61.69520 175.66260
#
# Poissons Ratio (x) = 0.12158 0.22229
# Poissons Ratio (y) = 0.41076 0.19683
# Poissons Ratio (z) = 0.26377 0.06913
#
# Static dielectric constant tensor:
#      x y z
#    x 5.309220 0.000000 0.017340 
#    y 0.000000 4.736810 0.000000 
#    z 0.017340 0.000000 4.984220 
# 
# 
# High freq. dielectric constant tensor:
#      x y z
#    x 2.072650 0.000000 0.000250 
#    y 0.000000 2.031290 0.000000 
#    z 0.000250 0.000000 2.066040 
# 
# From -- ./inp_files/149439.got.cif
#   From: 2010.06.25/outbox.cif.g09.slc.cpg/sg15_75_cif.got.tgz:149439.got - 2010.06.28 07:06:18.
