data_PCOD8155168
_publ_section_title
;
Structure prediction by ZEFSAII (Michael W. Deem and Ramdas Pophale) SiO2 
 PCOD8155168
Probable space group: C 2/C
;
_chemical_formula_sum "Si O2"
_cell_formula_units_Z 32
_cell_length_a 18.312334
_cell_length_b 5.063506
_cell_length_c 18.759221
_cell_angle_alpha 90.000000
_cell_angle_beta 139.390346
_cell_angle_gamma 90.000000
_cell_volume 1132.206202
_symmetry_space_group_name_H-M "C 2/C"
_symmetry_group_IT_number 15
_symmetry_cell_setting 'monoclinic'
loop_
_space_group_symop_operation_xyz
x,y,z
-x,y,1/2-z
-x,-y,-z
x,-y,1/2+z
1/2+x,1/2+y,z
1/2-x,1/2+y,1/2-z
1/2-x,1/2-y,-z
1/2+x,1/2-y,1/2+z
loop_
_atom_site_type_symbol
_atom_site_label
_atom_site_fract_x
_atom_site_fract_y
_atom_site_fract_z
Si Si1 0.360179 0.308804 0.034798
Si Si2 0.430775 0.317300 0.396370
Si Si3 0.629518 0.186524 0.864856
Si Si4 0.756690 0.495065 0.842784
O O1 0.488711 0.234693 0.109519
O O2 0.349669 0.611601 0.053625
O O3 0.330600 0.104796 0.077821
O O4 0.279378 0.257526 0.906610
O O5 0.500000 0.500000 0.500000
O O6 0.322776 0.462112 0.283458
O O7 0.381188 0.077940 0.406185
O O8 0.500000 0.187433 0.750000
O O9 0.701628 0.263169 0.849429
#
# Coordination Sequence:
#
# PCOD8155168 Si02
#       4
#     8   8   8   8
#     4  12  27  52  80 116 160 204 269 326 393 473
#     4  12  28  52  77 121 161 211 268 327 395 481
#     4  12  27  51  81 117 158 207 264 331 394 470
#     4  12  28  48  83 114 161 214 261 330 405 465
#
# _framework density 28.263403
#
# number of rings (size 3 to 8) (size 9 to 14) (size 15 to 20)
#    0.000    0.000    2.500    6.000    3.500    2.000 
#    0.000    0.000    0.000    0.000    0.000    0.000 
#    0.000    0.000    0.000    0.000    0.000    0.000 
#
# Total GULP energy -198503.645262 kJ/mol
# GULP energy per Si atom -12406.477829 kJ/mol
# Density = 2.819907 g / cm^3
# Si number density = 28.263403 Si / 1000 Ang^3
#
#
#
# Elastic Constant Matrix: (Units=GPa)
#
#
# Indices 1 2 3 4 5 6 
#
# 1 158.3859 31.3979 21.9337 0.0004 -3.1329 0.0001
# 2 31.3979 149.3915 53.6098 0.0006 -10.8113 0.0114
# 3 21.9337 53.6098 161.1606 -0.0003 7.2888 0.0010
# 4 0.0004 0.0006 -0.0003 45.2585 -0.0003 7.5638
# 5 -3.1329 -10.8113 7.2888 -0.0003 48.5114 -0.0001
# 6 0.0001 0.0114 0.0010 7.5638 -0.0001 53.5044
#
#
#
# Elastic Compliance Matrix: (Units=1/GPa)
#
#
# Indices 1 2 3 4 5 6 
#
# 1 0.006626 -0.001190 -0.000517 0.000000 0.000240 0.000000
# 2 -0.001190 0.008031 -0.002605 0.000000 0.002104 -0.000002
# 3 -0.000517 -0.002605 0.007219 0.000000 -0.001698 0.000000
# 4 0.000000 0.000000 0.000000 0.022630 0.000000 -0.003199
# 5 0.000240 0.002104 -0.001698 0.000000 0.021353 0.000000
# 6 0.000000 -0.000002 0.000000 -0.003199 0.000000 0.019142
#
#
# Mechanical properties :
#
#
# Convention : Reuss Voigt Hill
#
# Bulk Modulus (GPa) = 75.45601 75.86900 75.66250
# Shear Modulus (GPa) = 50.99898 53.58795 52.29347
#
# Velocity S-wave (km/s) = 4.25245 4.35905 4.30608
# Velocity P-wave (km/s) = 7.13208 7.22751 7.17995
#
# Compressibility (1/GPa) = 0.01325275
#
# Stress axis : x y z
#
# Youngs Moduli (GPa) = 150.92361 124.51967 138.53090
#
# Poissons Ratio (x) = 0.14814 0.07161
# Poissons Ratio (y) = 0.17955 0.36083
# Poissons Ratio (z) = 0.07801 0.32434
#
# Static dielectric constant tensor:
#      x y z
#    x 6.735060 -0.000020 0.314920 
#    y -0.000020 4.926690 0.000000 
#    z 0.314920 0.000000 5.320450 
# 
# 
# High freq. dielectric constant tensor:
#      x y z
#    x 2.195980 0.000000 0.017290 
#    y 0.000000 2.135100 0.000000 
#    z 0.017290 0.000000 2.165190 
# 
# From -- ./inp_files/212769.got.cif
#   From: 2010.06.25/outbox.cif.g09.slc.cpg/sg15_107_cif.got.tgz:212769.got - 2010.06.28 07:06:18.
