data_PCOD8155507
_publ_section_title
;
Structure prediction by ZEFSAII (Michael W. Deem and Ramdas Pophale) SiO2 
 PCOD8155507
Probable space group: P 2 2 21
;
_chemical_formula_sum "Si O2"
_cell_formula_units_Z 32
_cell_length_a 14.165662
_cell_length_b 9.426263
_cell_length_c 11.046467
_cell_angle_alpha 90.000000
_cell_angle_beta 90.000000
_cell_angle_gamma 90.000000
_cell_volume 1475.026515
_symmetry_space_group_name_H-M "P 2 2 21"
_symmetry_group_IT_number 17
_symmetry_cell_setting 'orthorhombic'
loop_
_space_group_symop_operation_xyz
x,y,z
-x,-y,1/2+z
x,-y,-z
-x,y,1/2-z
loop_
_atom_site_type_symbol
_atom_site_label
_atom_site_fract_x
_atom_site_fract_y
_atom_site_fract_z
Si Si1 0.290066 0.232576 0.808011
Si Si2 0.549417 0.626481 0.916675
Si Si3 0.646466 0.740168 0.568126
Si Si4 0.012281 0.090626 0.114746
Si Si5 0.281880 0.455942 0.255708
Si Si6 0.171852 0.768267 0.605534
Si Si7 0.326777 0.149635 0.554227
Si Si8 0.785662 0.944112 0.670309
O O1 0.248953 0.381611 0.759366
O O2 0.346191 0.155452 0.698254
O O3 0.209825 0.116247 0.843353
O O4 0.357019 0.268214 0.922144
O O5 0.457715 0.716863 0.875579
O O6 0.611139 0.559025 0.807909
O O7 0.510148 0.500000 0.000000
O O8 0.614675 0.727968 0.992649
O O9 0.717492 0.622324 0.625355
O O10 0.688597 0.892365 0.607588
O O11 0.123506 0.124949 0.101404
O O12 0.000000 0.019044 0.250000
O O13 0.942773 0.228070 0.107918
O O14 0.977738 0.000000 0.000000
O O15 0.205352 0.384590 0.345287
O O16 0.216937 0.808860 0.475537
O O17 0.213921 0.894898 0.690361
O O18 0.359324 0.000000 0.500000
#
# Coordination Sequence:
#
# PCOD8155507 Si02
#       8
#     4   4   4   4   4   4   4   4
#     4  12  22  38  65  94 131 166 222 271 336 395
#     4  11  22  41  63  89 124 169 223 272 327 393
#     4  11  24  40  61  90 129 178 217 263 337 398
#     4  10  20  36  64  98 127 167 218 266 332 404
#     4  10  22  41  63  94 126 172 219 271 322 406
#     4   9  20  38  65  92 123 168 209 261 331 388
#     4  11  22  38  61  94 128 161 213 274 324 387
#     4  10  22  41  63  95 128 168 216 272 326 399
#
# _framework density 21.694524999999999
#
# number of rings (size 3 to 8) (size 9 to 14) (size 15 to 20)
#    0.000    1.500    2.500    3.000    1.750    1.500 
#    0.000    0.000    0.000   11.250   16.250    0.000 
#    0.000    0.000    0.000    0.000    0.000    0.000 
#
# Total GULP energy -396479.561754 kJ/mol
# GULP energy per Si atom -12389.986305 kJ/mol
# Density = 2.164515 g / cm^3
# Si number density = 21.694525 Si / 1000 Ang^3
#
#
#
# Elastic Constant Matrix: (Units=GPa)
#
#
# Indices 1 2 3 4 5 6 
#
# 1 122.0066 52.0924 15.3986 0.0000 0.0000 0.0000
# 2 52.0924 125.0305 34.3040 0.0000 0.0000 0.0000
# 3 15.3986 34.3040 110.1396 0.0000 0.0000 0.0000
# 4 0.0000 0.0000 0.0000 25.7327 0.0000 0.0000
# 5 0.0000 0.0000 0.0000 0.0000 9.6218 0.0000
# 6 0.0000 0.0000 0.0000 0.0000 0.0000 13.6875
#
#
#
# Elastic Compliance Matrix: (Units=1/GPa)
#
#
# Indices 1 2 3 4 5 6 
#
# 1 0.009971 -0.004124 -0.000110 0.000000 0.000000 0.000000
# 2 -0.004124 0.010451 -0.002679 0.000000 0.000000 0.000000
# 3 -0.000110 -0.002679 0.009929 0.000000 0.000000 0.000000
# 4 0.000000 0.000000 0.000000 0.038861 0.000000 0.000000
# 5 0.000000 0.000000 0.000000 0.000000 0.103931 0.000000
# 6 0.000000 0.000000 0.000000 0.000000 0.000000 0.073060
#
#
# Mechanical properties :
#
#
# Convention : Reuss Voigt Hill
#
# Bulk Modulus (GPa) = 60.50839 62.30742 61.40790
# Shear Modulus (GPa) = 18.82984 26.83384 22.83184
#
# Velocity S-wave (km/s) = 2.94930 3.52077 3.24763
# Velocity P-wave (km/s) = 6.28884 6.73130 6.51383
#
# Compressibility (1/GPa) = 0.01652663
#
# Stress axis : x y z
#
# Youngs Moduli (GPa) = 100.29081 95.68222 100.71562
#
# Poissons Ratio (x) = 0.39462 0.01103
# Poissons Ratio (y) = 0.41362 0.26977
# Poissons Ratio (z) = 0.01098 0.25629
#
# Static dielectric constant tensor:
#      x y z
#    x 3.754890 0.000000 0.000000 
#    y 0.000000 3.879650 0.000000 
#    z 0.000000 0.000000 4.260550 
# 
# 
# High freq. dielectric constant tensor:
#      x y z
#    x 1.822640 0.000000 0.000000 
#    y 0.000000 1.836370 0.000000 
#    z 0.000000 0.000000 1.869740 
# 
# From -- ./inp_files/7317.got.cif
#   From: 2010.03.12/outbox.cif.g09.slc.cpg/sg17_4_cif.got.tgz:7317.got - 2010.04.10 18:46:23.
