data_PCOD8155306
_publ_section_title
;
Structure prediction by ZEFSAII (Michael W. Deem and Ramdas Pophale) SiO2 
 PCOD8155306
Probable space group: P 2 2 2
;
_chemical_formula_sum "Si O2"
_cell_formula_units_Z 14
_cell_length_a 6.162889
_cell_length_b 5.071050
_cell_length_c 18.242640
_cell_angle_alpha 90.000000
_cell_angle_beta 90.000000
_cell_angle_gamma 90.000000
_cell_volume 570.124791
_symmetry_space_group_name_H-M "P 2 2 2"
_symmetry_group_IT_number 16
_symmetry_cell_setting 'orthorhombic'
loop_
_space_group_symop_operation_xyz
x,y,z
-x,-y,z
x,-y,-z
-x,y,-z
loop_
_atom_site_type_symbol
_atom_site_label
_atom_site_fract_x
_atom_site_fract_y
_atom_site_fract_z
Si Si1 0.356016 0.243269 0.737411
Si Si2 0.500000 0.000000 0.500000
Si Si3 0.137526 0.749496 0.408787
Si Si4 0.648586 0.245399 0.098217
Si Si5 0.000000 0.500000 0.000000
O O1 0.500000 0.500000 0.737272
O O2 0.163788 0.277489 0.679140
O O3 0.263792 0.192448 0.819252
O O4 0.500000 0.000000 0.710665
O O5 0.366198 0.793395 0.449540
O O6 0.000000 0.500000 0.437561
O O7 0.000000 0.000000 0.430159
O O8 0.500000 0.500000 0.093947
O O9 0.500000 0.000000 0.071125
O O10 0.857582 0.297392 0.048117
#
# Coordination Sequence:
#
# PCOD8155306 Si02
#       5
#     4   1   4   4   1
#     4  10  21  47  75 104 144 191 238 313 364 429
#     4  12  30  54  68 112 160 198 232 326 372 436
#     4  12  28  48  78 109 144 193 251 297 371 447
#     4  10  25  46  72 107 149 189 250 303 368 444
#     4  12  26  46  76 108 148 214 232 318 376 440
#
# _framework density 24.556028999999999
#
# number of rings (size 3 to 8) (size 9 to 14) (size 15 to 20)
#    0.000    1.143    1.429    2.571    2.000    8.000 
#    0.000    0.000    0.000    0.000    0.000    0.000 
#    0.000    0.000    0.000    0.000    0.000    0.000 
#
# Total GULP energy -173609.437583 kJ/mol
# GULP energy per Si atom -12400.674113 kJ/mol
# Density = 2.450014 g / cm^3
# Si number density = 24.556029 Si / 1000 Ang^3
#
#
#
# Elastic Constant Matrix: (Units=GPa)
#
#
# Indices 1 2 3 4 5 6 
#
# 1 138.0664 67.2328 85.2770 0.0000 0.0000 0.0000
# 2 67.2328 190.8185 36.6349 0.0000 0.0000 0.0000
# 3 85.2770 36.6349 166.3675 0.0000 0.0000 0.0000
# 4 0.0000 0.0000 0.0000 40.7069 0.0000 0.0000
# 5 0.0000 0.0000 0.0000 0.0000 73.6545 0.0000
# 6 0.0000 0.0000 0.0000 0.0000 0.0000 47.0753
#
#
#
# Elastic Compliance Matrix: (Units=1/GPa)
#
#
# Indices 1 2 3 4 5 6 
#
# 1 0.012269 -0.003253 -0.005572 0.000000 0.000000 0.000000
# 2 -0.003253 0.006334 0.000273 0.000000 0.000000 0.000000
# 3 -0.005572 0.000273 0.008807 0.000000 0.000000 0.000000
# 4 0.000000 0.000000 0.000000 0.024566 0.000000 0.000000
# 5 0.000000 0.000000 0.000000 0.000000 0.013577 0.000000
# 6 0.000000 0.000000 0.000000 0.000000 0.000000 0.021243
#
#
# Mechanical properties :
#
#
# Convention : Reuss Voigt Hill
#
# Bulk Modulus (GPa) = 97.04408 97.06020 97.05214
# Shear Modulus (GPa) = 46.58262 52.69449 49.63856
#
# Velocity S-wave (km/s) = 4.36017 4.63740 4.50092
# Velocity P-wave (km/s) = 8.05937 8.26352 8.16208
#
# Compressibility (1/GPa) = 0.01030460
#
# Stress axis : x y z
#
# Youngs Moduli (GPa) = 81.50781 157.86838 113.54454
#
# Poissons Ratio (x) = 0.51353 0.63272
# Poissons Ratio (y) = 0.26514 -0.03094
# Poissons Ratio (z) = 0.45420 -0.04302
#
# Static dielectric constant tensor:
#      x y z
#    x 4.176190 0.000000 0.000000 
#    y 0.000000 4.268850 0.000000 
#    z 0.000000 0.000000 5.196290 
# 
# 
# High freq. dielectric constant tensor:
#      x y z
#    x 1.957690 0.000000 0.000000 
#    y 0.000000 1.990210 0.000000 
#    z 0.000000 0.000000 2.008840 
# 
# From -- ./inp_files/196.got.cif
#   From: 2010.03.12/outbox.cif.g09.slc.cpg/sg16_1_cif.got.tgz:196.got - 2010.03.31 00:51:45.
