data_PCOD8155071
_publ_section_title
;
Structure prediction by ZEFSAII (Michael W. Deem and Ramdas Pophale) SiO2 
 PCOD8155071
Probable space group: C 2/C
;
_chemical_formula_sum "Si O2"
_cell_formula_units_Z 36
_cell_length_a 15.715976
_cell_length_b 21.207829
_cell_length_c 8.278927
_cell_angle_alpha 90.000000
_cell_angle_beta 31.557962
_cell_angle_gamma 90.000000
_cell_volume 1444.151836
_symmetry_space_group_name_H-M "C 2/C"
_symmetry_group_IT_number 15
_symmetry_cell_setting 'monoclinic'
loop_
_space_group_symop_operation_xyz
x,y,z
-x,y,1/2-z
-x,-y,-z
x,-y,1/2+z
1/2+x,1/2+y,z
1/2-x,1/2+y,1/2-z
1/2-x,1/2-y,-z
1/2+x,1/2-y,1/2+z
loop_
_atom_site_type_symbol
_atom_site_label
_atom_site_fract_x
_atom_site_fract_y
_atom_site_fract_z
Si Si1 0.000000 0.767394 0.750000
Si Si2 0.300588 0.419990 0.348500
Si Si3 0.795914 0.694366 0.307553
Si Si4 0.348602 0.639677 0.271912
Si Si5 0.323444 0.032054 0.784651
O O1 0.856412 0.811820 0.911323
O O2 0.042100 0.719879 0.537380
O O3 0.182649 0.367430 0.618632
O O4 0.310085 0.478455 0.457262
O O5 0.207938 0.442708 0.341093
O O6 0.478490 0.395038 0.020984
O O7 0.750000 0.750000 0.500000
O O8 0.671917 0.677565 0.361988
O O9 0.203668 0.589567 0.542631
O O10 0.500000 0.000000 0.500000
#
# Coordination Sequence:
#
# PCOD8155071 Si02
#       5
#     4   8   8   8   8
#     4  12  26  50  84 118 162 218 270 340 404 496
#     4  12  26  50  80 115 162 217 271 336 416 496
#     4  12  27  48  79 120 163 212 275 334 405 491
#     4  12  25  52  81 119 158 219 273 336 413 492
#     4  12  27  50  80 120 161 211 274 351 412 480
#
# _framework density 24.928127
#
# number of rings (size 3 to 8) (size 9 to 14) (size 15 to 20)
#    0.000    0.000    4.444    4.000    3.111    1.778 
#    4.000    0.000    0.000    0.000    0.000    0.000 
#    0.000    0.000    0.000    0.000    0.000    0.000 
#
# Total GULP energy -223085.361845 kJ/mol
# GULP energy per Si atom -12393.631214 kJ/mol
# Density = 2.487139 g / cm^3
# Si number density = 24.928127 Si / 1000 Ang^3
#
#
#
# Elastic Constant Matrix: (Units=GPa)
#
#
# Indices 1 2 3 4 5 6 
#
# 1 156.2739 82.4581 49.2334 -0.0004 20.2461 0.0002
# 2 82.4581 185.5962 69.6289 0.0000 23.8828 0.0000
# 3 49.2334 69.6289 132.6867 -0.0003 18.7877 0.0000
# 4 -0.0004 0.0000 -0.0003 69.9356 -0.0002 16.2448
# 5 20.2461 23.8828 18.7877 -0.0002 48.3978 0.0001
# 6 0.0002 0.0000 0.0000 16.2448 0.0001 62.2018
#
#
#
# Elastic Compliance Matrix: (Units=1/GPa)
#
#
# Indices 1 2 3 4 5 6 
#
# 1 0.008690 -0.003155 -0.001349 0.000000 -0.001555 0.000000
# 2 -0.003155 0.008053 -0.002836 0.000000 -0.001554 0.000000
# 3 -0.001349 -0.002836 0.009785 0.000000 -0.001835 0.000000
# 4 0.000000 0.000000 0.000000 0.015222 0.000000 -0.003975
# 5 -0.001555 -0.001554 -0.001835 0.000000 0.022792 0.000000
# 6 0.000000 0.000000 0.000000 -0.003975 0.000000 0.017115
#
#
# Mechanical properties :
#
#
# Convention : Reuss Voigt Hill
#
# Bulk Modulus (GPa) = 84.38781 97.46640 90.92710
# Shear Modulus (GPa) = 49.85783 54.32280 52.09032
#
# Velocity S-wave (km/s) = 4.47706 4.67323 4.57620
# Velocity P-wave (km/s) = 7.78790 8.26454 8.02976
#
# Compressibility (1/GPa) = 0.01185005
#
# Stress axis : x y z
#
# Youngs Moduli (GPa) = 115.07470 124.17145 102.19922
#
# Poissons Ratio (x) = 0.39173 0.13784
# Poissons Ratio (y) = 0.36303 0.28979
# Poissons Ratio (z) = 0.15521 0.35209
#
# Static dielectric constant tensor:
#      x y z
#    x 4.369440 0.000000 0.411850 
#    y 0.000000 5.397770 0.000000 
#    z 0.411850 0.000000 4.580170 
# 
# 
# High freq. dielectric constant tensor:
#      x y z
#    x 1.985990 0.000000 0.032180 
#    y 0.000000 2.025530 0.000000 
#    z 0.032180 0.000000 1.995320 
# 
# From -- ./inp_files/50531.got.cif
#   From: 2010.06.25/outbox.cif.g09.slc.cpg/sg15_26_cif.got.tgz:50531.got - 2010.06.28 07:06:18.
