data_PCOD8155982
_publ_section_title
;
Structure prediction by ZEFSAII (Michael W. Deem and Ramdas Pophale) SiO2 
 PCOD8155982
Probable space group: P 21 21 2
;
_chemical_formula_sum "Si O2"
_cell_formula_units_Z 30
_cell_length_a 10.027237
_cell_length_b 14.763620
_cell_length_c 10.337436
_cell_angle_alpha 90.000000
_cell_angle_beta 90.000000
_cell_angle_gamma 90.000000
_cell_volume 1530.336625
_symmetry_space_group_name_H-M "P 21 21 2"
_symmetry_group_IT_number 18
_symmetry_cell_setting 'orthorhombic'
loop_
_space_group_symop_operation_xyz
x,y,z
-x,-y,z
1/2+x,1/2-y,-z
1/2-x,1/2+y,-z
loop_
_atom_site_type_symbol
_atom_site_label
_atom_site_fract_x
_atom_site_fract_y
_atom_site_fract_z
Si Si1 0.681030 0.225736 0.118609
Si Si2 0.157264 0.126984 0.686233
Si Si3 0.290806 0.902556 0.339132
Si Si4 0.728107 0.903237 0.418044
Si Si5 0.496112 0.339121 0.686437
Si Si6 0.443746 0.321639 0.985158
Si Si7 0.500000 0.500000 0.137250
Si Si8 0.504778 0.225296 0.452455
O O1 0.733614 0.301339 0.221143
O O2 0.667988 0.129997 0.194342
O O3 0.792773 0.216699 0.007114
O O4 0.538231 0.253754 0.063582
O O5 0.252332 0.090569 0.572922
O O6 0.029625 0.180223 0.624511
O O7 0.114028 0.040626 0.770573
O O8 0.364255 0.837731 0.442104
O O9 0.130824 0.899146 0.357150
O O10 0.337851 0.004940 0.364398
O O11 0.866515 0.889499 0.344268
O O12 0.624624 0.822170 0.390004
O O13 0.493354 0.321373 0.838324
O O14 0.487606 0.245738 0.604810
O O15 0.442184 0.421847 0.045045
#
# Coordination Sequence:
#
# PCOD8155982 Si02
#       8
#     4   4   4   4   4   4   2   4
#     4   9  20  40  60  83 118 158 194 242 280 347
#     4   9  21  39  59  85 121 154 190 244 294 344
#     4  10  21  36  57  85 125 148 185 244 292 339
#     4  11  21  34  62  90 117 149 192 240 295 349
#     4  10  21  35  59  87 113 152 201 237 278 349
#     4  10  21  38  63  83 116 157 199 239 286 333
#     4  10  22  38  60  84 114 156 206 236 280 346
#     4  10  20  38  57  87 121 153 179 238 307 351
#
# _framework density 19.603531
#
# number of rings (size 3 to 8) (size 9 to 14) (size 15 to 20)
#    0.000    2.133    0.000    4.000    7.467    3.200 
#    2.400    0.000    2.933    0.000    0.000    0.000 
#    0.000    0.000    0.000    0.000    0.000    0.000 
#
# Total GULP energy -371892.522348 kJ/mol
# GULP energy per Si atom -12396.417412 kJ/mol
# Density = 1.955891 g / cm^3
# Si number density = 19.603531 Si / 1000 Ang^3
#
#
#
# Elastic Constant Matrix: (Units=GPa)
#
#
# Indices 1 2 3 4 5 6 
#
# 1 82.1814 49.8676 39.3423 0.0000 0.0000 0.0000
# 2 49.8676 113.6221 49.5336 0.0000 0.0000 0.0000
# 3 39.3423 49.5336 90.3392 0.0000 0.0000 0.0000
# 4 0.0000 0.0000 0.0000 23.4816 0.0000 0.0000
# 5 0.0000 0.0000 0.0000 0.0000 27.0068 0.0000
# 6 0.0000 0.0000 0.0000 0.0000 0.0000 23.8505
#
#
#
# Elastic Compliance Matrix: (Units=1/GPa)
#
#
# Indices 1 2 3 4 5 6 
#
# 1 0.017925 -0.005866 -0.004590 0.000000 0.000000 0.000000
# 2 -0.005866 0.013485 -0.004839 0.000000 0.000000 0.000000
# 3 -0.004590 -0.004839 0.015722 0.000000 0.000000 0.000000
# 4 0.000000 0.000000 0.000000 0.042587 0.000000 0.000000
# 5 0.000000 0.000000 0.000000 0.000000 0.037028 0.000000
# 6 0.000000 0.000000 0.000000 0.000000 0.000000 0.041928
#
#
# Mechanical properties :
#
#
# Convention : Reuss Voigt Hill
#
# Bulk Modulus (GPa) = 60.45463 62.62553 61.54008
# Shear Modulus (GPa) = 24.41654 24.69439 24.55547
#
# Velocity S-wave (km/s) = 3.53302 3.55306 3.54305
# Velocity P-wave (km/s) = 6.89555 6.98912 6.94249
#
# Compressibility (1/GPa) = 0.01654133
#
# Stress axis : x y z
#
# Youngs Moduli (GPa) = 55.78782 74.15373 63.60617
#
# Poissons Ratio (x) = 0.43500 0.29194
# Poissons Ratio (y) = 0.32726 0.30782
# Poissons Ratio (z) = 0.25605 0.35887
#
# Static dielectric constant tensor:
#      x y z
#    x 3.565780 0.000000 0.000000 
#    y 0.000000 3.540150 0.000000 
#    z 0.000000 0.000000 3.699720 
# 
# 
# High freq. dielectric constant tensor:
#      x y z
#    x 1.758280 0.000000 0.000000 
#    y 0.000000 1.757030 0.000000 
#    z 0.000000 0.000000 1.762680 
# 
# From -- ./inp_files/5641.got.cif
#   From: 2010.03.12/outbox.cif.g09.slc.cpg/sg18_3_cif.got.tgz:5641.got - 2010.04.10 18:53:55.
