data_PCOD8155701
_publ_section_title
;
Structure prediction by ZEFSAII (Michael W. Deem and Ramdas Pophale) SiO2 
 PCOD8155701
Probable space group: P 2 2 21
;
_chemical_formula_sum "Si O2"
_cell_formula_units_Z 18
_cell_length_a 19.496951
_cell_length_b 9.912880
_cell_length_c 4.973577
_cell_angle_alpha 90.000000
_cell_angle_beta 90.000000
_cell_angle_gamma 90.000000
_cell_volume 961.247880
_symmetry_space_group_name_H-M "P 2 2 21"
_symmetry_group_IT_number 17
_symmetry_cell_setting 'orthorhombic'
loop_
_space_group_symop_operation_xyz
x,y,z
-x,-y,1/2+z
x,-y,-z
-x,y,1/2-z
loop_
_atom_site_type_symbol
_atom_site_label
_atom_site_fract_x
_atom_site_fract_y
_atom_site_fract_z
Si Si1 0.500000 0.903997 0.250000
Si Si2 0.863214 0.759728 0.943377
Si Si3 0.042679 0.000000 0.500000
Si Si4 0.215561 0.840031 0.045409
Si Si5 0.047319 0.500000 0.500000
Si Si6 0.645896 0.095822 0.747436
O O1 0.502056 0.000000 0.500000
O O2 0.427135 0.821489 0.278864
O O3 0.798619 0.763694 0.736381
O O4 0.839746 0.782771 0.247677
O O5 0.903618 0.621274 0.911925
O O6 0.913199 0.881689 0.863911
O O7 0.000000 0.939235 0.250000
O O8 0.290822 0.805648 0.170628
O O9 0.208955 0.000000 0.000000
O O10 0.000000 0.543099 0.250000
O O11 0.632745 0.000000 0.500000
O O12 0.665200 0.000000 0.000000
#
# Coordination Sequence:
#
# PCOD8155701 Si02
#       6
#     2   4   2   4   2   4
#     4   8  14  24  38  64 102 148 182 202 244 308
#     4  12  23  38  58  79 105 136 177 218 270 325
#     4  12  22  36  54  78  98 124 166 216 262 318
#     4  11  19  34  53  82 109 138 174 219 269 312
#     4  12  26  46  60  76 104 140 178 222 278 326
#     4   9  16  26  44  70 107 146 178 211 254 311
#
# _framework density 18.725660999999999
#
# number of rings (size 3 to 8) (size 9 to 14) (size 15 to 20)
#    0.000    1.333    2.222    6.667    0.000    0.000 
#    0.000    0.000    0.000    0.000    0.000    0.000 
#    0.000    3.556    0.000    3.111    0.000    0.000 
#
# Total GULP energy -222992.030060 kJ/mol
# GULP energy per Si atom -12388.446114 kJ/mol
# Density = 1.868304 g / cm^3
# Si number density = 18.725661 Si / 1000 Ang^3
#
#
#
# Elastic Constant Matrix: (Units=GPa)
#
#
# Indices 1 2 3 4 5 6 
#
# 1 132.9313 38.2804 30.1081 0.0000 0.0000 0.0000
# 2 38.2804 67.7645 10.1165 0.0000 0.0000 0.0000
# 3 30.1081 10.1165 114.2052 0.0000 0.0000 0.0000
# 4 0.0000 0.0000 0.0000 18.5440 0.0000 0.0000
# 5 0.0000 0.0000 0.0000 0.0000 32.2852 0.0000
# 6 0.0000 0.0000 0.0000 0.0000 0.0000 13.6064
#
#
#
# Elastic Compliance Matrix: (Units=1/GPa)
#
#
# Indices 1 2 3 4 5 6 
#
# 1 0.009432 -0.005023 -0.002042 0.000000 0.000000 0.000000
# 2 -0.005023 0.017630 -0.000237 0.000000 0.000000 0.000000
# 3 -0.002042 -0.000237 0.009315 0.000000 0.000000 0.000000
# 4 0.000000 0.000000 0.000000 0.053926 0.000000 0.000000
# 5 0.000000 0.000000 0.000000 0.000000 0.030974 0.000000
# 6 0.000000 0.000000 0.000000 0.000000 0.000000 0.073495
#
#
# Mechanical properties :
#
#
# Convention : Reuss Voigt Hill
#
# Bulk Modulus (GPa) = 45.92884 52.43457 49.18170
# Shear Modulus (GPa) = 23.08048 28.64687 25.86368
#
# Velocity S-wave (km/s) = 3.51459 3.91553 3.72047
# Velocity P-wave (km/s) = 6.40705 6.96449 6.69158
#
# Compressibility (1/GPa) = 0.02177281
#
# Stress axis : x y z
#
# Youngs Moduli (GPa) = 106.02666 56.72144 107.34904
#
# Poissons Ratio (x) = 0.28492 0.21915
# Poissons Ratio (y) = 0.53259 0.02549
# Poissons Ratio (z) = 0.21645 0.01347
#
# Static dielectric constant tensor:
#      x y z
#    x 4.525720 0.000000 0.000000 
#    y 0.000000 3.359420 0.000000 
#    z 0.000000 0.000000 3.483750 
# 
# 
# High freq. dielectric constant tensor:
#      x y z
#    x 1.752390 0.000000 0.000000 
#    y 0.000000 1.640580 0.000000 
#    z 0.000000 0.000000 1.757880 
# 
# From -- ./inp_files/791.got.cif
#   From: 2010.03.12/outbox.cif.g09.slc.cpg/sg17_1_cif.got.tgz:791.got - 2010.04.10 18:46:23.
