data_PCOD8155632
_publ_section_title
;
Structure prediction by ZEFSAII (Michael W. Deem and Ramdas Pophale) SiO2 
 PCOD8155632
Probable space group: P 2 2 21
;
_chemical_formula_sum "Si O2"
_cell_formula_units_Z 20
_cell_length_a 7.937640
_cell_length_b 12.073353
_cell_length_c 10.346027
_cell_angle_alpha 90.000000
_cell_angle_beta 90.000000
_cell_angle_gamma 90.000000
_cell_volume 991.500424
_symmetry_space_group_name_H-M "P 2 2 21"
_symmetry_group_IT_number 17
_symmetry_cell_setting 'orthorhombic'
loop_
_space_group_symop_operation_xyz
x,y,z
-x,-y,1/2+z
x,-y,-z
-x,y,1/2-z
loop_
_atom_site_type_symbol
_atom_site_label
_atom_site_fract_x
_atom_site_fract_y
_atom_site_fract_z
Si Si1 0.196419 0.726940 0.720843
Si Si2 0.624343 0.000000 0.000000
Si Si3 0.500000 0.890323 0.750000
Si Si4 0.500000 0.652243 0.250000
Si Si5 0.234608 0.770429 0.432867
Si Si6 0.000000 0.673009 0.250000
Si Si7 0.250213 0.504045 0.143025
O O1 0.327894 0.820078 0.768599
O O2 0.230738 0.705563 0.569080
O O3 0.245979 0.616009 0.794941
O O4 0.000000 0.759461 0.750000
O O5 0.508142 0.035031 0.121093
O O6 0.745628 0.900341 0.041701
O O7 0.378629 0.731206 0.333404
O O8 0.429872 0.565478 0.142246
O O9 0.050728 0.751703 0.369437
O O10 0.152916 0.591380 0.229346
O O11 0.173721 0.500000 0.000000
#
# Coordination Sequence:
#
# PCOD8155632 Si02
#       7
#     4   2   2   2   4   2   4
#     4  11  23  43  68 100 135 178 228 273 339 417
#     4  10  22  46  68  94 130 176 230 280 348 380
#     4  10  24  44  72  96 138 180 226 296 334 408
#     4  10  24  36  64  92 132 176 216 270 330 406
#     4  10  23  44  65  93 134 172 227 282 335 401
#     4  10  22  40  62  94 130 166 210 274 324 402
#     4  11  23  36  61  95 130 174 208 261 335 400
#
# _framework density 20.171447000000001
#
# number of rings (size 3 to 8) (size 9 to 14) (size 15 to 20)
#    0.000    1.600    1.000    2.400    8.400    1.600 
#   10.800    1.000    0.000    0.000    0.000    0.000 
#    0.000    0.000    0.000    0.000    0.000    0.000 
#
# Total GULP energy -247798.518881 kJ/mol
# GULP energy per Si atom -12389.925944 kJ/mol
# Density = 2.012554 g / cm^3
# Si number density = 20.171447 Si / 1000 Ang^3
#
#
#
# Elastic Constant Matrix: (Units=GPa)
#
#
# Indices 1 2 3 4 5 6 
#
# 1 50.1556 33.8432 7.6689 0.0000 0.0000 0.0000
# 2 33.8432 124.5529 62.8727 0.0000 0.0000 0.0000
# 3 7.6689 62.8727 136.3081 0.0000 0.0000 0.0000
# 4 0.0000 0.0000 0.0000 43.0475 0.0000 0.0000
# 5 0.0000 0.0000 0.0000 0.0000 35.9530 0.0000
# 6 0.0000 0.0000 0.0000 0.0000 0.0000 21.3119
#
#
#
# Elastic Compliance Matrix: (Units=1/GPa)
#
#
# Indices 1 2 3 4 5 6 
#
# 1 0.024930 -0.007907 0.002245 0.000000 0.000000 0.000000
# 2 -0.007907 0.012973 -0.005539 0.000000 0.000000 0.000000
# 3 0.002245 -0.005539 0.009765 0.000000 0.000000 0.000000
# 4 0.000000 0.000000 0.000000 0.023230 0.000000 0.000000
# 5 0.000000 0.000000 0.000000 0.000000 0.027814 0.000000
# 6 0.000000 0.000000 0.000000 0.000000 0.000000 0.046922
#
#
# Mechanical properties :
#
#
# Convention : Reuss Voigt Hill
#
# Bulk Modulus (GPa) = 39.58010 57.75401 48.66706
# Shear Modulus (GPa) = 28.33511 33.83794 31.08653
#
# Velocity S-wave (km/s) = 3.75202 4.10019 3.92996
# Velocity P-wave (km/s) = 6.19957 7.14907 6.69118
#
# Compressibility (1/GPa) = 0.02526522
#
# Stress axis : x y z
#
# Youngs Moduli (GPa) = 40.11221 77.08174 102.40674
#
# Poissons Ratio (x) = 0.60948 -0.22985
# Poissons Ratio (y) = 0.31716 0.56724
# Poissons Ratio (z) = -0.09003 0.42696
#
# Static dielectric constant tensor:
#      x y z
#    x 3.708400 0.000000 0.000000 
#    y 0.000000 3.650210 0.000000 
#    z 0.000000 0.000000 3.723200 
# 
# 
# High freq. dielectric constant tensor:
#      x y z
#    x 1.785420 0.000000 0.000000 
#    y 0.000000 1.790880 0.000000 
#    z 0.000000 0.000000 1.801760 
# 
# From -- ./inp_files/4100.got.cif
#   From: 2010.03.12/outbox.cif.g09.slc.cpg/sg17_3_cif.got.tgz:4100.got - 2010.04.10 18:46:23.
