data_PCOD8155091
_publ_section_title
;
Structure prediction by ZEFSAII (Michael W. Deem and Ramdas Pophale) SiO2 
 PCOD8155091
Probable space group: C 2/C
;
_chemical_formula_sum "Si O2"
_cell_formula_units_Z 40
_cell_length_a 12.175412
_cell_length_b 16.916523
_cell_length_c 8.657246
_cell_angle_alpha 90.000000
_cell_angle_beta 106.565486
_cell_angle_gamma 90.000000
_cell_volume 1709.086921
_symmetry_space_group_name_H-M "C 2/C"
_symmetry_group_IT_number 15
_symmetry_cell_setting 'monoclinic'
loop_
_space_group_symop_operation_xyz
x,y,z
-x,y,1/2-z
-x,-y,-z
x,-y,1/2+z
1/2+x,1/2+y,z
1/2-x,1/2+y,1/2-z
1/2-x,1/2-y,-z
1/2+x,1/2-y,1/2+z
loop_
_atom_site_type_symbol
_atom_site_label
_atom_site_fract_x
_atom_site_fract_y
_atom_site_fract_z
Si Si1 0.790505 0.106915 0.739119
Si Si2 0.000000 0.152485 0.250000
Si Si3 0.785094 0.050691 0.070360
Si Si4 0.048112 0.421566 0.596504
Si Si5 0.589230 0.782919 0.059648
Si Si6 0.500000 0.696342 0.750000
O O1 0.709273 0.178524 0.654169
O O2 0.916925 0.142229 0.821903
O O3 0.799609 0.043053 0.604441
O O4 0.746056 0.064515 0.877349
O O5 0.096972 0.095933 0.356801
O O6 0.060626 0.208267 0.151814
O O7 0.685994 0.080988 0.146922
O O8 0.000000 0.413251 0.750000
O O9 0.000000 0.500000 0.500000
O O10 0.008189 0.349932 0.470695
O O11 0.587252 0.749886 0.884338
#
# Coordination Sequence:
#
# PCOD8155091 Si02
#       6
#     8   4   8   8   8   4
#     4  12  28  49  77 113 155 205 255 319 382 467
#     4  12  29  48  79 114 160 200 250 324 391 460
#     4  12  28  49  79 113 155 201 260 313 390 459
#     4  12  26  47  74 110 148 201 255 312 377 457
#     4  12  27  47  75 111 154 203 253 321 380 453
#     4  12  27  48  73 114 156 202 256 312 395 452
#
# _framework density 23.404309999999999
#
# number of rings (size 3 to 8) (size 9 to 14) (size 15 to 20)
#    0.000    0.000    5.000    3.600    7.000    3.200 
#    0.000    0.000    0.000    0.000    0.000    0.000 
#    0.000    0.000    0.000    0.000    0.000    0.000 
#
# Total GULP energy -247994.131190 kJ/mol
# GULP energy per Si atom -12399.706560 kJ/mol
# Density = 2.335104 g / cm^3
# Si number density = 23.404310 Si / 1000 Ang^3
#
#
#
# Elastic Constant Matrix: (Units=GPa)
#
#
# Indices 1 2 3 4 5 6 
#
# 1 145.6423 66.5107 47.2906 0.0000 9.9494 0.0000
# 2 66.5107 105.9136 36.4259 0.0000 -3.6058 0.0000
# 3 47.2906 36.4259 123.1447 0.0000 -4.9736 0.0000
# 4 0.0000 0.0000 0.0000 44.0134 0.0000 0.6441
# 5 9.9494 -3.6058 -4.9736 0.0000 30.1704 0.0000
# 6 0.0000 0.0000 0.0000 0.6441 0.0000 42.1386
#
#
#
# Elastic Compliance Matrix: (Units=1/GPa)
#
#
# Indices 1 2 3 4 5 6 
#
# 1 0.010775 -0.006054 -0.002537 0.000000 -0.004695 0.000000
# 2 -0.006054 0.013929 -0.001659 0.000000 0.003388 0.000000
# 3 -0.002537 -0.001659 0.009676 0.000000 0.002233 0.000000
# 4 0.000000 0.000000 0.000000 0.022725 0.000000 -0.000347
# 5 -0.004695 0.003388 0.002233 0.000000 0.035467 0.000000
# 6 0.000000 0.000000 0.000000 -0.000347 0.000000 0.023736
#
#
# Mechanical properties :
#
#
# Convention : Reuss Voigt Hill
#
# Bulk Modulus (GPa) = 72.03942 75.01724 73.52833
# Shear Modulus (GPa) = 35.35218 38.22937 36.79078
#
# Velocity S-wave (km/s) = 3.89073 4.04596 3.96910
# Velocity P-wave (km/s) = 7.14359 7.34498 7.24499
#
# Compressibility (1/GPa) = 0.01388129
#
# Stress axis : x y z
#
# Youngs Moduli (GPa) = 92.80521 71.79229 103.35352
#
# Poissons Ratio (x) = 0.43462 0.26219
# Poissons Ratio (y) = 0.56184 0.17141
# Poissons Ratio (z) = 0.23543 0.11907
#
# Static dielectric constant tensor:
#      x y z
#    x -1.291910 0.000000 1.928600 
#    y 0.000000 4.462640 0.000000 
#    z 1.928600 0.000000 3.831770 
# 
# 
# High freq. dielectric constant tensor:
#      x y z
#    x 1.930330 0.000000 0.005920 
#    y 0.000000 1.946020 0.000000 
#    z 0.005920 0.000000 1.927200 
# 
# From -- ./inp_files/29386.got.cif
#   From: 2010.06.25/outbox.cif.g09.slc.cpg/sg15_15_cif.got.tgz:29386.got - 2010.06.28 07:06:18.
