data_PCOD8155798
_publ_section_title
;
Structure prediction by ZEFSAII (Michael W. Deem and Ramdas Pophale) SiO2 
 PCOD8155798
Probable space group: P 21 21 2
;
_chemical_formula_sum "Si O2"
_cell_formula_units_Z 28
_cell_length_a 9.484380
_cell_length_b 12.528239
_cell_length_c 13.387087
_cell_angle_alpha 90.000000
_cell_angle_beta 90.000000
_cell_angle_gamma 90.000000
_cell_volume 1590.688208
_symmetry_space_group_name_H-M "P 21 21 2"
_symmetry_group_IT_number 18
_symmetry_cell_setting 'orthorhombic'
loop_
_space_group_symop_operation_xyz
x,y,z
-x,-y,z
1/2+x,1/2-y,-z
1/2-x,1/2+y,-z
loop_
_atom_site_type_symbol
_atom_site_label
_atom_site_fract_x
_atom_site_fract_y
_atom_site_fract_z
Si Si1 0.850626 0.726366 0.317413
Si Si2 0.796242 0.798349 0.107271
Si Si3 0.097703 0.600302 0.234546
Si Si4 0.835042 0.021088 0.182118
Si Si5 0.831758 0.513273 0.413894
Si Si6 0.375773 0.263773 0.921322
Si Si7 0.346851 0.541210 0.603868
O O1 0.764231 0.743970 0.214492
O O2 0.784878 0.634071 0.387155
O O3 0.857288 0.832780 0.381297
O O4 0.008493 0.695112 0.285567
O O5 0.955974 0.776313 0.070913
O O6 0.767593 0.925715 0.116483
O O7 0.686298 0.746051 0.031701
O O8 0.211128 0.559518 0.317116
O O9 0.169179 0.655560 0.138320
O O10 0.000000 0.500000 0.200851
O O11 0.802399 0.134392 0.131875
O O12 0.782827 0.017111 0.297540
O O13 0.000000 0.000000 0.190350
O O14 0.759095 0.477673 0.514004
O O15 0.000000 0.500000 0.426176
O O16 0.500000 0.500000 0.572668
#
# Coordination Sequence:
#
# PCOD8155798 Si02
#       7
#     4   4   4   4   4   4   4
#     4   8  17  33  49  66  99 130 154 189 237 288
#     4   9  18  32  50  71  94 127 159 192 237 281
#     4   8  16  31  49  70  95 128 160 186 230 292
#     4   8  17  32  48  68  97 128 158 188 235 292
#     4   9  19  33  49  71  97 127 156 192 239 283
#     4  10  18  32  52  71  94 126 160 197 232 276
#     4  10  18  31  52  73  91 124 166 196 227 280
#
# _framework density 17.602443000000001
#
# number of rings (size 3 to 8) (size 9 to 14) (size 15 to 20)
#    0.000    3.429    0.000    2.571    0.000    6.857 
#    0.000    4.286    0.000    0.000    0.000    0.000 
#    0.000    0.000    0.000    0.000    0.000    0.000 
#
# Total GULP energy -346959.522285 kJ/mol
# GULP energy per Si atom -12391.411510 kJ/mol
# Density = 1.756238 g / cm^3
# Si number density = 17.602443 Si / 1000 Ang^3
#
#
#
# Elastic Constant Matrix: (Units=GPa)
#
#
# Indices 1 2 3 4 5 6 
#
# 1 35.1605 27.3896 34.9765 0.0000 0.0000 0.0000
# 2 27.3896 138.6750 79.3674 0.0000 0.0000 0.0000
# 3 34.9765 79.3674 114.0437 0.0000 0.0000 0.0000
# 4 0.0000 0.0000 0.0000 28.3780 0.0000 0.0000
# 5 0.0000 0.0000 0.0000 0.0000 28.0982 0.0000
# 6 0.0000 0.0000 0.0000 0.0000 0.0000 13.4777
#
#
#
# Elastic Compliance Matrix: (Units=1/GPa)
#
#
# Indices 1 2 3 4 5 6 
#
# 1 0.041115 -0.001502 -0.011564 0.000000 0.000000 0.000000
# 2 -0.001502 0.012039 -0.007918 0.000000 0.000000 0.000000
# 3 -0.011564 -0.007918 0.017826 0.000000 0.000000 0.000000
# 4 0.000000 0.000000 0.000000 0.035239 0.000000 0.000000
# 5 0.000000 0.000000 0.000000 0.000000 0.035589 0.000000
# 6 0.000000 0.000000 0.000000 0.000000 0.000000 0.074197
#
#
# Mechanical properties :
#
#
# Convention : Reuss Voigt Hill
#
# Bulk Modulus (GPa) = 34.46935 63.48289 48.97612
# Shear Modulus (GPa) = 18.68152 23.73383 21.20767
#
# Velocity S-wave (km/s) = 3.26130 3.67594 3.47481
# Velocity P-wave (km/s) = 5.81430 7.35934 6.63196
#
# Compressibility (1/GPa) = 0.02901128
#
# Stress axis : x y z
#
# Youngs Moduli (GPa) = 24.32208 83.05996 56.09846
#
# Poissons Ratio (x) = 0.12475 0.64875
# Poissons Ratio (y) = 0.03653 0.44419
# Poissons Ratio (z) = 0.28127 0.65768
#
# Static dielectric constant tensor:
#      x y z
#    x 2.759140 0.000000 0.000000 
#    y 0.000000 3.636710 0.000000 
#    z 0.000000 0.000000 3.356660 
# 
# 
# High freq. dielectric constant tensor:
#      x y z
#    x 1.620500 0.000000 0.000000 
#    y 0.000000 1.699330 0.000000 
#    z 0.000000 0.000000 1.686170 
# 
# From -- ./inp_files/5905.got.cif
#   From: 2010.03.12/outbox.cif.g09.slc.cpg/sg18_3_cif.got.tgz:5905.got - 2010.04.10 18:53:55.
