data_PCOD8155801
_publ_section_title
;
Structure prediction by ZEFSAII (Michael W. Deem and Ramdas Pophale) SiO2 
 PCOD8155801
Probable space group: P 21 21 2
;
_chemical_formula_sum "Si O2"
_cell_formula_units_Z 24
_cell_length_a 14.092028
_cell_length_b 15.172185
_cell_length_c 5.343559
_cell_angle_alpha 90.000000
_cell_angle_beta 90.000000
_cell_angle_gamma 90.000000
_cell_volume 1142.489549
_symmetry_space_group_name_H-M "P 21 21 2"
_symmetry_group_IT_number 18
_symmetry_cell_setting 'orthorhombic'
loop_
_space_group_symop_operation_xyz
x,y,z
-x,-y,z
1/2+x,1/2-y,-z
1/2-x,1/2+y,-z
loop_
_atom_site_type_symbol
_atom_site_label
_atom_site_fract_x
_atom_site_fract_y
_atom_site_fract_z
Si Si1 0.854013 0.216140 0.000001
Si Si2 0.963369 0.901553 0.500002
Si Si3 0.070635 0.168259 0.000002
Si Si4 0.657839 0.137929 0.999999
Si Si5 0.436711 0.913980 0.500000
Si Si6 0.091166 0.735251 0.500001
O O1 0.845320 0.277741 0.750527
O O2 0.956340 0.170682 0.000001
O O3 0.771729 0.143171 0.999997
O O4 0.845319 0.277740 0.249477
O O5 0.898885 0.883860 0.748140
O O6 0.052978 0.835473 0.500001
O O7 0.898886 0.883861 0.251863
O O8 0.000000 0.000000 0.500005
O O9 0.114517 0.264729 0.000004
O O10 0.626735 0.085717 0.249266
O O11 0.626735 0.085715 0.750735
O O12 0.501649 0.828154 0.500003
O O13 0.500000 0.000000 0.499997
#
# Coordination Sequence:
#
# PCOD8155801 Si02
#       6
#     4   4   4   4   4   4
#     4  10  20  35  67  82 120 159 204 250 305 370
#     4  10  18  32  61  82 112 152 197 240 307 366
#     4  10  19  37  58  83 118 158 191 249 309 358
#     4  12  21  40  66  93 116 171 212 249 319 374
#     4  12  23  40  68  90 128 169 215 260 313 375
#     4  10  19  40  59  86 123 164 194 257 319 354
#
# _framework density 21.006757
#
# number of rings (size 3 to 8) (size 9 to 14) (size 15 to 20)
#    0.000    1.333    6.667    2.000    0.000    0.000 
#    0.000    0.000   44.000    0.000    0.000    0.000 
#    0.000    0.000    0.000    0.000    0.000    0.000 
#
# Total GULP energy -297428.516296 kJ/mol
# GULP energy per Si atom -12392.854846 kJ/mol
# Density = 2.095895 g / cm^3
# Si number density = 21.006757 Si / 1000 Ang^3
#
#
#
# Elastic Constant Matrix: (Units=GPa)
#
#
# Indices 1 2 3 4 5 6 
#
# 1 73.9133 6.2833 11.3370 0.0000 0.0000 0.0000
# 2 6.2833 70.7775 5.0292 0.0000 0.0000 0.0000
# 3 11.3370 5.0292 232.1097 0.0000 0.0000 0.0000
# 4 0.0000 0.0000 0.0000 22.3977 0.0000 0.0000
# 5 0.0000 0.0000 0.0000 0.0000 18.1708 0.0000
# 6 0.0000 0.0000 0.0000 0.0000 0.0000 12.9218
#
#
#
# Elastic Compliance Matrix: (Units=1/GPa)
#
#
# Indices 1 2 3 4 5 6 
#
# 1 0.013728 -0.001173 -0.000645 0.000000 0.000000 0.000000
# 2 -0.001173 0.014251 -0.000251 0.000000 0.000000 0.000000
# 3 -0.000645 -0.000251 0.004345 0.000000 0.000000 0.000000
# 4 0.000000 0.000000 0.000000 0.044647 0.000000 0.000000
# 5 0.000000 0.000000 0.000000 0.000000 0.055033 0.000000
# 6 0.000000 0.000000 0.000000 0.000000 0.000000 0.077389
#
#
# Mechanical properties :
#
#
# Convention : Reuss Voigt Hill
#
# Bulk Modulus (GPa) = 35.47974 46.89997 41.18985
# Shear Modulus (GPa) = 22.42879 34.30812 28.36845
#
# Velocity S-wave (km/s) = 3.27110 4.04566 3.67883
# Velocity P-wave (km/s) = 5.58508 6.64814 6.13966
#
# Compressibility (1/GPa) = 0.02818510
#
# Stress axis : x y z
#
# Youngs Moduli (GPa) = 72.84377 70.17165 230.13554
#
# Poissons Ratio (x) = 0.08230 0.14846
# Poissons Ratio (y) = 0.08544 0.05788
# Poissons Ratio (z) = 0.04699 0.01765
#
# Static dielectric constant tensor:
#      x y z
#    x 3.402760 0.000000 0.000000 
#    y 0.000000 1.744910 0.000000 
#    z 0.000000 0.000000 6.178200 
# 
# 
# High freq. dielectric constant tensor:
#      x y z
#    x 1.784390 0.000000 0.000000 
#    y 0.000000 1.785520 0.000000 
#    z 0.000000 0.000000 1.874790 
# 
# From -- ./inp_files/1521.got.cif
#   From: 2010.03.12/outbox.cif.g09.slc.cpg/sg18_1_cif.got.tgz:1521.got - 2010.04.10 18:53:55.
