data_PCOD8155285
_publ_section_title
;
Structure prediction by ZEFSAII (Michael W. Deem and Ramdas Pophale) SiO2 
 PCOD8155285
Probable space group: P 2 2 2
;
_chemical_formula_sum "Si O2"
_cell_formula_units_Z 18
_cell_length_a 7.387102
_cell_length_b 9.021809
_cell_length_c 12.729259
_cell_angle_alpha 90.000000
_cell_angle_beta 90.000000
_cell_angle_gamma 90.000000
_cell_volume 848.341763
_symmetry_space_group_name_H-M "P 2 2 2"
_symmetry_group_IT_number 16
_symmetry_cell_setting 'orthorhombic'
loop_
_space_group_symop_operation_xyz
x,y,z
-x,-y,z
x,-y,-z
-x,y,-z
loop_
_atom_site_type_symbol
_atom_site_label
_atom_site_fract_x
_atom_site_fract_y
_atom_site_fract_z
Si Si1 0.715351 0.828055 0.276129
Si Si2 0.686931 0.162434 0.314232
Si Si3 0.000000 0.000000 0.000000
Si Si4 0.211084 0.329950 0.486443
Si Si5 0.945320 0.753761 0.853229
Si Si6 0.000000 0.500000 0.000000
O O1 0.501375 0.824360 0.250329
O O2 0.742374 0.712683 0.368897
O O3 0.840814 0.777051 0.177235
O O4 0.761711 0.994100 0.315913
O O5 0.675823 0.227323 0.432004
O O6 0.833312 0.261026 0.253020
O O7 0.119740 0.893745 0.075685
O O8 0.268601 0.500000 0.500000
O O9 0.000000 0.303156 0.500000
O O10 0.893701 0.608458 0.920829
#
# Coordination Sequence:
#
# PCOD8155285 Si02
#       6
#     4   4   1   4   4   1
#     4  11  23  40  66  96 126 164 209 253 304 371
#     4  11  23  40  66  96 126 164 209 253 304 371
#     4  10  20  42  70  84 116 164 200 258 326 344
#     4  11  24  39  62  95 133 170 203 244 307 375
#     4  11  22  45  64  94 123 163 203 266 312 367
#     4  10  28  42  70  88 128 160 212 262 322 368
#
# _framework density 21.217863999999999
#
# number of rings (size 3 to 8) (size 9 to 14) (size 15 to 20)
#    0.000    1.111    4.444    1.333    3.111    4.444 
#    0.000    6.667    0.000    0.000    0.000    0.000 
#    0.000    0.000    0.000    0.000    0.000    0.000 
#
# Total GULP energy -223079.052071 kJ/mol
# GULP energy per Si atom -12393.280671 kJ/mol
# Density = 2.116957 g / cm^3
# Si number density = 21.217864 Si / 1000 Ang^3
#
#
#
# Elastic Constant Matrix: (Units=GPa)
#
#
# Indices 1 2 3 4 5 6 
#
# 1 84.5752 20.6728 16.7737 0.0000 0.0000 0.0000
# 2 20.6728 139.2027 46.3929 0.0000 0.0000 0.0000
# 3 16.7737 46.3929 98.0371 0.0000 0.0000 0.0000
# 4 0.0000 0.0000 0.0000 39.2372 0.0000 0.0000
# 5 0.0000 0.0000 0.0000 0.0000 12.8294 0.0000
# 6 0.0000 0.0000 0.0000 0.0000 0.0000 17.2361
#
#
#
# Elastic Compliance Matrix: (Units=1/GPa)
#
#
# Indices 1 2 3 4 5 6 
#
# 1 0.012450 -0.001352 -0.001490 0.000000 0.000000 0.000000
# 2 -0.001352 0.008676 -0.003874 0.000000 0.000000 0.000000
# 3 -0.001490 -0.003874 0.012289 0.000000 0.000000 0.000000
# 4 0.000000 0.000000 0.000000 0.025486 0.000000 0.000000
# 5 0.000000 0.000000 0.000000 0.000000 0.077946 0.000000
# 6 0.000000 0.000000 0.000000 0.000000 0.000000 0.058018
#
#
# Mechanical properties :
#
#
# Convention : Reuss Voigt Hill
#
# Bulk Modulus (GPa) = 50.04780 54.38819 52.21799
# Shear Modulus (GPa) = 23.26039 29.72557 26.49298
#
# Velocity S-wave (km/s) = 3.31458 3.74701 3.53741
# Velocity P-wave (km/s) = 6.18768 6.66401 6.43026
#
# Compressibility (1/GPa) = 0.01998090
#
# Stress axis : x y z
#
# Youngs Moduli (GPa) = 80.32206 115.26376 81.37689
#
# Poissons Ratio (x) = 0.15587 0.12127
# Poissons Ratio (y) = 0.10862 0.31527
# Poissons Ratio (z) = 0.11970 0.44655
#
# Static dielectric constant tensor:
#      x y z
#    x 3.881110 0.000000 0.000000 
#    y 0.000000 4.006200 0.000000 
#    z 0.000000 0.000000 3.993090 
# 
# 
# High freq. dielectric constant tensor:
#      x y z
#    x 1.808060 0.000000 0.000000 
#    y 0.000000 1.842030 0.000000 
#    z 0.000000 0.000000 1.834580 
# 
# From -- ./inp_files/6341.got.cif
#   From: 2010.03.12/outbox.cif.g09.slc.cpg/sg16_4_cif.got.tgz:6341.got - 2010.03.31 00:51:45.
