data_PCOD8155250
_publ_section_title
;
Structure prediction by ZEFSAII (Michael W. Deem and Ramdas Pophale) SiO2 
 PCOD8155250
Probable space group: P 2 2 2
;
_chemical_formula_sum "Si O2"
_cell_formula_units_Z 30
_cell_length_a 14.121914
_cell_length_b 13.914762
_cell_length_c 7.531173
_cell_angle_alpha 90.000000
_cell_angle_beta 90.000000
_cell_angle_gamma 90.000000
_cell_volume 1479.898632
_symmetry_space_group_name_H-M "P 2 2 2"
_symmetry_group_IT_number 16
_symmetry_cell_setting 'orthorhombic'
loop_
_space_group_symop_operation_xyz
x,y,z
-x,-y,z
x,-y,-z
-x,y,-z
loop_
_atom_site_type_symbol
_atom_site_label
_atom_site_fract_x
_atom_site_fract_y
_atom_site_fract_z
Si Si1 0.288660 0.193570 0.208752
Si Si2 0.711340 0.806431 0.791247
Si Si3 0.391252 1.000000 0.790581
Si Si4 0.398431 0.295925 0.500000
Si Si5 0.896679 0.297769 0.791517
Si Si6 0.653684 0.500000 0.500000
Si Si7 0.896679 0.297769 0.208483
Si Si8 0.190305 0.500000 0.210940
O O1 0.345386 0.271823 0.318369
O O2 0.178210 0.212898 0.258838
O O3 0.328325 0.090422 0.273030
O O4 0.306828 0.209854 1.000000
O O5 0.671675 0.909578 0.726969
O O6 0.654615 0.728177 0.681630
O O7 0.821790 0.787103 0.741162
O O8 0.500000 0.000000 0.712784
O O9 0.399780 0.000000 0.000000
O O10 0.500000 0.243629 0.500000
O O11 0.414279 0.409052 0.500000
O O12 0.865989 0.404095 0.728430
O O13 1.000000 0.273036 0.707654
O O14 0.906166 0.301261 0.000000
O O15 0.713516 0.500000 0.319039
O O16 0.865989 0.404095 0.271571
O O17 0.211562 0.500000 0.000000
#
# Coordination Sequence:
#
# PCOD8155250 Si02
#       8
#     4   4   4   4   4   2   4   4
#     4  10  21  39  60  84 116 149 187 237 288 338
#     4  10  21  39  60  84 116 149 187 237 288 338
#     4   9  18  35  60  86 110 144 193 243 286 332
#     4  12  25  39  58  83 113 151 192 237 286 339
#     4   9  17  32  57  85 114 150 188 229 281 338
#     4  12  23  38  55  82 114 148 193 234 279 338
#     4   9  17  32  57  85 114 150 188 229 281 338
#     4  10  19  35  57  80 113 151 189 235 281 328
#
# _framework density 20.271659
#
# number of rings (size 3 to 8) (size 9 to 14) (size 15 to 20)
#    0.000    2.000    2.667    1.400    0.000    3.733 
#    0.000    5.333    0.000    6.400    0.000    1.867 
#    0.000    0.000    0.000    0.000    0.000    0.000 
#
# Total GULP energy -371663.109240 kJ/mol
# GULP energy per Si atom -12388.770308 kJ/mol
# Density = 2.022552 g / cm^3
# Si number density = 20.271659 Si / 1000 Ang^3
#
#
#
# Elastic Constant Matrix: (Units=GPa)
#
#
# Indices 1 2 3 4 5 6 
#
# 1 169.2088 69.3509 24.3748 0.0000 0.0000 0.0000
# 2 69.3509 141.2913 14.2300 0.0000 0.0000 0.0000
# 3 24.3748 14.2300 63.3214 0.0000 0.0000 0.0000
# 4 0.0000 0.0000 0.0000 13.4545 0.0000 0.0000
# 5 0.0000 0.0000 0.0000 0.0000 10.5408 0.0000
# 6 0.0000 0.0000 0.0000 0.0000 0.0000 23.1114
#
#
#
# Elastic Compliance Matrix: (Units=1/GPa)
#
#
# Indices 1 2 3 4 5 6 
#
# 1 0.007676 -0.003550 -0.002157 0.000000 0.000000 0.000000
# 2 -0.003550 0.008884 -0.000630 0.000000 0.000000 0.000000
# 3 -0.002157 -0.000630 0.016764 0.000000 0.000000 0.000000
# 4 0.000000 0.000000 0.000000 0.074324 0.000000 0.000000
# 5 0.000000 0.000000 0.000000 0.000000 0.094869 0.000000
# 6 0.000000 0.000000 0.000000 0.000000 0.000000 0.043269
#
#
# Mechanical properties :
#
#
# Convention : Reuss Voigt Hill
#
# Bulk Modulus (GPa) = 48.42660 65.52589 56.97625
# Shear Modulus (GPa) = 18.84355 27.14573 22.99464
#
# Velocity S-wave (km/s) = 3.05216 3.66334 3.37163
# Velocity P-wave (km/s) = 6.03006 7.09137 6.58214
#
# Compressibility (1/GPa) = 0.02064981
#
# Stress axis : x y z
#
# Youngs Moduli (GPa) = 130.28234 112.56697 59.65092
#
# Poissons Ratio (x) = 0.39964 0.12866
# Poissons Ratio (y) = 0.46254 0.03757
# Poissons Ratio (z) = 0.28099 0.07089
#
# Static dielectric constant tensor:
#      x y z
#    x 4.151890 0.000000 0.000000 
#    y 0.000000 3.837930 0.000000 
#    z 0.000000 0.000000 3.416390 
# 
# 
# High freq. dielectric constant tensor:
#      x y z
#    x 1.795950 0.000000 0.000000 
#    y 0.000000 1.782340 0.000000 
#    z 0.000000 0.000000 1.781700 
# 
# From -- ./inp_files/5204.got.cif
#   From: 2010.03.12/outbox.cif.g09.slc.cpg/sg16_3_cif.got.tgz:5204.got - 2010.03.31 00:51:45.
