data_PCOD8155366
_publ_section_title
;
Structure prediction by ZEFSAII (Michael W. Deem and Ramdas Pophale) SiO2 
 PCOD8155366
Probable space group: P 2 2 21
;
_chemical_formula_sum "Si O2"
_cell_formula_units_Z 32
_cell_length_a 9.135955
_cell_length_b 16.432080
_cell_length_c 11.259102
_cell_angle_alpha 90.000000
_cell_angle_beta 90.000000
_cell_angle_gamma 90.000000
_cell_volume 1690.247281
_symmetry_space_group_name_H-M "P 2 2 21"
_symmetry_group_IT_number 17
_symmetry_cell_setting 'orthorhombic'
loop_
_space_group_symop_operation_xyz
x,y,z
-x,-y,1/2+z
x,-y,-z
-x,y,1/2-z
loop_
_atom_site_type_symbol
_atom_site_label
_atom_site_fract_x
_atom_site_fract_y
_atom_site_fract_z
Si Si1 0.151616 0.413648 0.853340
Si Si2 0.576450 0.049295 0.874398
Si Si3 0.149320 0.405897 0.204806
Si Si4 0.843178 0.847988 0.209040
Si Si5 0.325262 0.583749 0.564525
Si Si6 0.406732 0.207883 0.861840
Si Si7 0.126736 0.674784 0.394109
Si Si8 0.633616 0.646947 0.523552
O O1 0.103463 0.507954 0.854872
O O2 0.169319 0.373729 0.724800
O O3 0.033193 0.360749 0.929652
O O4 0.310016 0.407888 0.914001
O O5 0.500000 0.011494 0.750000
O O6 0.743383 0.079730 0.847486
O O7 0.480002 0.126204 0.908164
O O8 0.576067 0.000000 0.000000
O O9 0.261304 0.427638 0.306842
O O10 0.234384 0.345084 0.117572
O O11 0.000000 0.362724 0.250000
O O12 0.759491 0.809271 0.321986
O O13 0.875443 0.772529 0.120169
O O14 0.000000 0.885030 0.250000
O O15 0.298244 0.500000 0.500000
O O16 0.244827 0.656749 0.495356
O O17 0.495200 0.603580 0.580811
O O18 0.500000 0.243753 0.750000
O O19 0.409819 0.265073 0.975501
#
# Coordination Sequence:
#
# PCOD8155366 Si02
#       8
#     4   4   4   4   4   4   4   4
#     4  11  20  36  55  77 107 147 196 242 296 341
#     4   9  20  39  64  93 124 158 191 226 290 370
#     4  12  24  39  50  71 110 161 203 241 297 358
#     4  10  17  33  60  93 117 142 188 246 282 334
#     4  12  23  35  49  72 107 145 191 250 297 341
#     4   9  19  36  60  86 115 149 191 235 290 354
#     4  11  19  35  59  81 106 148 194 239 289 342
#     4  12  24  35  55  81 109 142 195 254 297 335
#
# _framework density 18.932141000000001
#
# number of rings (size 3 to 8) (size 9 to 14) (size 15 to 20)
#    0.000    1.500    5.000    3.750    0.000    0.000 
#    0.000    5.000    0.000    0.000    0.000    3.500 
#    0.000    0.000    0.000    0.000    0.000    0.000 
#
# Total GULP energy -396515.731490 kJ/mol
# GULP energy per Si atom -12391.116609 kJ/mol
# Density = 1.888905 g / cm^3
# Si number density = 18.932141 Si / 1000 Ang^3
#
#
#
# Elastic Constant Matrix: (Units=GPa)
#
#
# Indices 1 2 3 4 5 6 
#
# 1 130.4548 33.2652 39.1335 0.0000 0.0000 0.0000
# 2 33.2652 63.9015 40.5272 0.0000 0.0000 0.0000
# 3 39.1335 40.5272 79.6215 0.0000 0.0000 0.0000
# 4 0.0000 0.0000 0.0000 29.0014 0.0000 0.0000
# 5 0.0000 0.0000 0.0000 0.0000 23.4135 0.0000
# 6 0.0000 0.0000 0.0000 0.0000 0.0000 19.3309
#
#
#
# Elastic Compliance Matrix: (Units=1/GPa)
#
#
# Indices 1 2 3 4 5 6 
#
# 1 0.009337 -0.002880 -0.003123 0.000000 0.000000 0.000000
# 2 -0.002880 0.023997 -0.010799 0.000000 0.000000 0.000000
# 3 -0.003123 -0.010799 0.019591 0.000000 0.000000 0.000000
# 4 0.000000 0.000000 0.000000 0.034481 0.000000 0.000000
# 5 0.000000 0.000000 0.000000 0.000000 0.042710 0.000000
# 6 0.000000 0.000000 0.000000 0.000000 0.000000 0.051731
#
#
# Mechanical properties :
#
#
# Convention : Reuss Voigt Hill
#
# Bulk Modulus (GPa) = 51.75709 55.53661 53.64685
# Shear Modulus (GPa) = 22.53354 25.08596 23.80975
#
# Velocity S-wave (km/s) = 3.45371 3.64407 3.55016
# Velocity P-wave (km/s) = 6.58040 6.86323 6.72330
#
# Compressibility (1/GPa) = 0.01932102
#
# Stress axis : x y z
#
# Youngs Moduli (GPa) = 107.10470 41.67161 51.04323
#
# Poissons Ratio (x) = 0.12000 0.15942
# Poissons Ratio (y) = 0.30842 0.55123
# Poissons Ratio (z) = 0.33451 0.45002
#
# Static dielectric constant tensor:
#      x y z
#    x 3.812220 0.000000 0.000000 
#    y 0.000000 3.179130 0.000000 
#    z 0.000000 0.000000 3.603390 
# 
# 
# High freq. dielectric constant tensor:
#      x y z
#    x 1.757930 0.000000 0.000000 
#    y 0.000000 1.690830 0.000000 
#    z 0.000000 0.000000 1.726650 
# 
# From -- ./inp_files/6760.got.cif
#   From: 2010.03.12/outbox.cif.g09.slc.cpg/sg17_4_cif.got.tgz:6760.got - 2010.04.10 18:46:23.
