data_PCOD8155054
_publ_section_title
;
Structure prediction by ZEFSAII (Michael W. Deem and Ramdas Pophale) SiO2 
 PCOD8155054
Probable space group: C 2/C
;
_chemical_formula_sum "Si O2"
_cell_formula_units_Z 40
_cell_length_a 11.592531
_cell_length_b 11.142080
_cell_length_c 13.400075
_cell_angle_alpha 90.000000
_cell_angle_beta 81.558839
_cell_angle_gamma 90.000000
_cell_volume 1712.069714
_symmetry_space_group_name_H-M "C 2/C"
_symmetry_group_IT_number 15
_symmetry_cell_setting 'monoclinic'
loop_
_space_group_symop_operation_xyz
x,y,z
-x,y,1/2-z
-x,-y,-z
x,-y,1/2+z
1/2+x,1/2+y,z
1/2-x,1/2+y,1/2-z
1/2-x,1/2-y,-z
1/2+x,1/2-y,1/2+z
loop_
_atom_site_type_symbol
_atom_site_label
_atom_site_fract_x
_atom_site_fract_y
_atom_site_fract_z
Si Si1 0.688725 0.724384 0.822561
Si Si2 0.565053 0.516372 0.390005
Si Si3 0.276778 0.184431 0.394182
Si Si4 0.942485 0.757410 0.853780
Si Si5 0.990670 0.370133 0.546389
O O1 0.597173 0.614095 0.841117
O O2 0.728554 0.731545 0.702659
O O3 0.806582 0.720560 0.874254
O O4 0.625312 0.843039 0.874562
O O5 0.500000 0.500000 0.500000
O O6 0.690728 0.575112 0.388278
O O7 0.475280 0.599863 0.337598
O O8 0.250000 0.250000 0.500000
O O9 0.407363 0.137739 0.386022
O O10 0.000000 0.692191 0.750000
O O11 0.002755 0.720087 0.950409
O O12 0.000000 0.500000 0.500000
#
# Coordination Sequence:
#
# PCOD8155054 Si02
#       5
#     8   8   8   8   8
#     4  12  27  50  76 113 154 199 257 312 383 461
#     4  12  26  48  81 109 152 204 256 315 384 460
#     4  12  25  49  72 112 149 193 253 315 380 455
#     4  12  25  50  74 111 150 199 254 313 384 457
#     4  12  27  46  75 106 153 197 248 314 384 453
#
# _framework density 23.363536
#
# number of rings (size 3 to 8) (size 9 to 14) (size 15 to 20)
#    0.000    0.000    6.000    2.400    2.800    8.000 
#    0.000    0.000    0.000    0.000    0.000    0.000 
#    0.000    0.000    0.000    0.000    0.000    0.000 
#
# Total GULP energy -247846.140005 kJ/mol
# GULP energy per Si atom -12392.307000 kJ/mol
# Density = 2.331036 g / cm^3
# Si number density = 23.363536 Si / 1000 Ang^3
#
#
#
# Elastic Constant Matrix: (Units=GPa)
#
#
# Indices 1 2 3 4 5 6 
#
# 1 90.5643 27.5772 16.0465 0.0000 -13.3773 0.0000
# 2 27.5772 114.3901 30.0586 0.0000 -8.2883 0.0000
# 3 16.0465 30.0586 149.9467 0.0000 -14.9589 0.0000
# 4 0.0000 0.0000 0.0000 23.8781 0.0000 -11.9307
# 5 -13.3773 -8.2883 -14.9589 0.0000 39.4509 0.0000
# 6 0.0000 0.0000 0.0000 -11.9307 0.0000 50.2987
#
#
#
# Elastic Compliance Matrix: (Units=1/GPa)
#
#
# Indices 1 2 3 4 5 6 
#
# 1 0.012438 -0.002626 -0.000456 0.000000 0.003493 0.000000
# 2 -0.002626 0.009846 -0.001637 0.000000 0.000557 0.000000
# 3 -0.000456 -0.001637 0.007271 0.000000 0.002258 0.000000
# 4 0.000000 0.000000 0.000000 0.047510 0.000000 0.011269
# 5 0.003493 0.000557 0.002258 0.000000 0.027506 0.000000
# 6 0.000000 0.000000 0.000000 0.011269 0.000000 0.022554
#
#
# Mechanical properties :
#
#
# Convention : Reuss Voigt Hill
#
# Bulk Modulus (GPa) = 49.70876 55.80732 52.75804
# Shear Modulus (GPa) = 34.89939 41.47346 38.18643
#
# Velocity S-wave (km/s) = 3.86911 4.21781 4.04721
# Velocity P-wave (km/s) = 6.42514 6.90349 6.66861
#
# Compressibility (1/GPa) = 0.02011718
#
# Stress axis : x y z
#
# Youngs Moduli (GPa) = 80.39758 101.56855 137.52616
#
# Poissons Ratio (x) = 0.26668 0.06275
# Poissons Ratio (y) = 0.21109 0.22514
# Poissons Ratio (z) = 0.03668 0.16628
#
# Static dielectric constant tensor:
#      x y z
#    x 4.116740 0.000000 0.303800 
#    y 0.000000 4.538530 0.000000 
#    z 0.303800 0.000000 5.164380 
# 
# 
# High freq. dielectric constant tensor:
#      x y z
#    x 1.941650 0.000000 -0.004400 
#    y 0.000000 1.906680 0.000000 
#    z -0.004400 0.000000 1.946470 
# 
# From -- ./inp_files/141731.got.cif
#   From: 2010.06.25/outbox.cif.g09.slc.cpg/sg15_71_cif.got.tgz:141731.got - 2010.06.28 07:06:18.
