data_PCOD8155980
_publ_section_title
;
Structure prediction by ZEFSAII (Michael W. Deem and Ramdas Pophale) SiO2 
 PCOD8155980
Probable space group: P 21 21 2
;
_chemical_formula_sum "Si O2"
_cell_formula_units_Z 26
_cell_length_a 14.892842
_cell_length_b 9.548322
_cell_length_c 8.896746
_cell_angle_alpha 90.000000
_cell_angle_beta 90.000000
_cell_angle_gamma 90.000000
_cell_volume 1265.131969
_symmetry_space_group_name_H-M "P 21 21 2"
_symmetry_group_IT_number 18
_symmetry_cell_setting 'orthorhombic'
loop_
_space_group_symop_operation_xyz
x,y,z
-x,-y,z
1/2+x,1/2-y,-z
1/2-x,1/2+y,-z
loop_
_atom_site_type_symbol
_atom_site_label
_atom_site_fract_x
_atom_site_fract_y
_atom_site_fract_z
Si Si1 0.500000 0.500000 0.107724
Si Si2 0.244679 0.843552 0.135335
Si Si3 0.500000 0.000000 0.769924
Si Si4 0.176372 0.877811 0.816837
Si Si5 0.558325 0.210029 0.018552
Si Si6 0.311551 0.085143 0.673293
Si Si7 0.500000 0.000000 0.251860
Si Si8 0.312859 0.080648 0.336028
O O1 0.582822 0.542198 0.217371
O O2 0.528217 0.370644 0.000970
O O3 0.206909 0.736247 0.256852
O O4 0.252097 0.992569 0.220123
O O5 0.175581 0.853051 0.996981
O O6 0.338088 0.794306 0.064395
O O7 0.540449 0.127907 0.865533
O O8 0.418494 0.057895 0.669384
O O9 0.181772 0.737070 0.722954
O O10 0.261722 0.970705 0.773807
O O11 0.498632 0.138976 0.148817
O O12 0.272482 0.081407 0.503865
O O13 0.410619 0.007876 0.350929
#
# Coordination Sequence:
#
# PCOD8155980 Si02
#       8
#     2   4   2   4   4   4   2   4
#     4  12  22  38  64  98 126 164 218 274 328 372
#     4  11  23  42  66  95 128 173 226 269 320 391
#     4  11  23  42  64  98 132 172 218 276 326 392
#     4  12  24  42  66  96 129 171 220 276 318 390
#     4  10  20  37  65  95 125 166 224 268 319 379
#     4  12  24  42  66  95 135 173 217 271 337 392
#     4   9  19  38  62  90 124 176 216 262 318 396
#     4  11  24  41  64  96 134 175 215 270 335 389
#
# _framework density 20.551216
#
# number of rings (size 3 to 8) (size 9 to 14) (size 15 to 20)
#    0.000    0.923    4.615    3.231    2.154    0.000 
#    0.000    0.000    0.000    1.846    0.000    0.000 
#    0.000    0.000    0.000    0.000    0.000    0.000 
#
# Total GULP energy -322464.390954 kJ/mol
# GULP energy per Si atom -12402.476575 kJ/mol
# Density = 2.050444 g / cm^3
# Si number density = 20.551216 Si / 1000 Ang^3
#
#
#
# Elastic Constant Matrix: (Units=GPa)
#
#
# Indices 1 2 3 4 5 6 
#
# 1 85.9803 23.4599 11.4894 0.0000 0.0000 0.0000
# 2 23.4599 128.8885 26.9459 0.0000 0.0000 0.0000
# 3 11.4894 26.9459 104.8853 0.0000 0.0000 0.0000
# 4 0.0000 0.0000 0.0000 25.8272 0.0000 0.0000
# 5 0.0000 0.0000 0.0000 0.0000 19.9306 0.0000
# 6 0.0000 0.0000 0.0000 0.0000 0.0000 32.2661
#
#
#
# Elastic Compliance Matrix: (Units=1/GPa)
#
#
# Indices 1 2 3 4 5 6 
#
# 1 0.012304 -0.002069 -0.000816 0.000000 0.000000 0.000000
# 2 -0.002069 0.008547 -0.001969 0.000000 0.000000 0.000000
# 3 -0.000816 -0.001969 0.010130 0.000000 0.000000 0.000000
# 4 0.000000 0.000000 0.000000 0.038719 0.000000 0.000000
# 5 0.000000 0.000000 0.000000 0.000000 0.050174 0.000000
# 6 0.000000 0.000000 0.000000 0.000000 0.000000 0.030992
#
#
# Mechanical properties :
#
#
# Convention : Reuss Voigt Hill
#
# Bulk Modulus (GPa) = 47.01039 49.28270 48.14655
# Shear Modulus (GPa) = 29.82134 32.79537 31.30836
#
# Velocity S-wave (km/s) = 3.81343 3.99906 3.90735
# Velocity P-wave (km/s) = 6.50493 6.73468 6.62080
#
# Compressibility (1/GPa) = 0.02127189
#
# Stress axis : x y z
#
# Youngs Moduli (GPa) = 81.27336 117.00157 98.72122
#
# Poissons Ratio (x) = 0.24206 0.08059
# Poissons Ratio (y) = 0.16815 0.19440
# Poissons Ratio (z) = 0.06634 0.23039
#
# Static dielectric constant tensor:
#      x y z
#    x 3.822890 0.000000 0.000000 
#    y 0.000000 3.776340 0.000000 
#    z 0.000000 0.000000 3.471620 
# 
# 
# High freq. dielectric constant tensor:
#      x y z
#    x 1.811170 0.000000 0.000000 
#    y 0.000000 1.814330 0.000000 
#    z 0.000000 0.000000 1.782210 
# 
# From -- ./inp_files/3358.got.cif
#   From: 2010.03.12/outbox.cif.g09.slc.cpg/sg18_2_cif.got.tgz:3358.got - 2010.04.10 18:53:55.
