data_PCOD8155418
_publ_section_title
;
Structure prediction by ZEFSAII (Michael W. Deem and Ramdas Pophale) SiO2 
 PCOD8155418
Probable space group: P 2 2 21
;
_chemical_formula_sum "Si O2"
_cell_formula_units_Z 24
_cell_length_a 26.972912
_cell_length_b 8.730959
_cell_length_c 5.129118
_cell_angle_alpha 90.000000
_cell_angle_beta 90.000000
_cell_angle_gamma 90.000000
_cell_volume 1207.904154
_symmetry_space_group_name_H-M "P 2 2 21"
_symmetry_group_IT_number 17
_symmetry_cell_setting 'orthorhombic'
loop_
_space_group_symop_operation_xyz
x,y,z
-x,-y,1/2+z
x,-y,-z
-x,y,1/2-z
loop_
_atom_site_type_symbol
_atom_site_label
_atom_site_fract_x
_atom_site_fract_y
_atom_site_fract_z
Si Si1 0.361497 0.818556 0.495288
Si Si2 0.863859 0.819318 0.029953
Si Si3 0.468706 0.679070 0.498648
Si Si4 0.695567 0.817358 0.508579
Si Si5 0.806709 0.181694 0.480757
Si Si6 0.057459 0.399822 0.743745
O O1 0.417880 0.768976 0.480134
O O2 0.328907 0.753164 0.255951
O O3 0.359301 0.000000 0.500000
O O4 0.337827 0.752076 0.758333
O O5 0.822137 0.763280 0.232536
O O6 0.913459 0.755503 0.171319
O O7 0.844730 0.758499 0.746536
O O8 0.871891 0.000000 0.000000
O O9 0.456720 0.500000 0.500000
O O10 0.500000 0.728691 0.250000
O O11 0.500000 0.729503 0.750000
O O12 0.751170 0.755690 0.561045
O O13 0.696415 0.000000 0.500000
O O14 0.807466 0.000000 0.500000
O O15 0.071532 0.500000 0.500000
O O16 0.000000 0.353733 0.750000
O O17 0.072481 0.500000 0.000000
#
# Coordination Sequence:
#
# PCOD8155418 Si02
#       6
#     4   4   4   4   4   4
#     4  10  19  31  51  76 100 128 165 207 248 293
#     4  10  19  33  55  83 107 136 180 228 268 307
#     4  10  21  36  52  70  95 130 166 201 249 304
#     4   9  17  30  49  76 105 133 164 202 252 309
#     4   9  17  30  51  78 109 138 169 212 264 317
#     4  10  21  38  57  77 107 149 187 220 273 340
#
# _framework density 19.869126000000001
#
# number of rings (size 3 to 8) (size 9 to 14) (size 15 to 20)
#    0.000    2.333    0.000    3.000    0.000    4.667 
#    0.000    5.000    0.000   10.000    0.000    0.000 
#    0.000    0.000    0.000    0.000    0.000    0.000 
#
# Total GULP energy -297348.905411 kJ/mol
# GULP energy per Si atom -12389.537725 kJ/mol
# Density = 1.982390 g / cm^3
# Si number density = 19.869126 Si / 1000 Ang^3
#
#
#
# Elastic Constant Matrix: (Units=GPa)
#
#
# Indices 1 2 3 4 5 6 
#
# 1 123.0716 30.2479 66.4086 0.0000 0.0000 0.0000
# 2 30.2479 23.7169 32.1271 0.0000 0.0000 0.0000
# 3 66.4086 32.1271 181.9964 0.0000 0.0000 0.0000
# 4 0.0000 0.0000 0.0000 24.1010 0.0000 0.0000
# 5 0.0000 0.0000 0.0000 0.0000 40.3744 0.0000
# 6 0.0000 0.0000 0.0000 0.0000 0.0000 -0.9966
#
#
#
# Elastic Compliance Matrix: (Units=1/GPa)
#
#
# Indices 1 2 3 4 5 6 
#
# 1 0.012528 -0.012861 -0.002301 0.000000 0.000000 0.000000
# 2 -0.012861 0.068618 -0.007420 0.000000 0.000000 0.000000
# 3 -0.002301 -0.007420 0.007644 0.000000 0.000000 0.000000
# 4 0.000000 0.000000 0.000000 0.041492 0.000000 0.000000
# 5 0.000000 0.000000 0.000000 0.000000 0.024768 0.000000
# 6 0.000000 0.000000 0.000000 0.000000 0.000000 -1.003460
#
#
# Mechanical properties :
#
#
# Convention : Reuss Voigt Hill
#
# Bulk Modulus (GPa) = 22.92214 65.15022 44.03618
# Shear Modulus (GPa) = -6.33951 26.02918 9.84484
#
# Velocity S-wave (km/s) = -1.78817 3.62336 2.22836
# Velocity P-wave (km/s) = 2.70152 7.09689 5.36955
#
# Compressibility (1/GPa) = 0.04362595
#
# Stress axis : x y z
#
# Youngs Moduli (GPa) = 79.82256 14.57353 130.82032
#
# Poissons Ratio (x) = 0.18742 0.30102
# Poissons Ratio (y) = 1.02657 0.97070
# Poissons Ratio (z) = 0.18367 0.10814
#
# Static dielectric constant tensor:
#      x y z
#    x 3.676680 0.000000 0.000000 
#    y 0.000000 3.060880 0.000000 
#    z 0.000000 0.000000 4.096860 
# 
# 
# High freq. dielectric constant tensor:
#      x y z
#    x 1.783520 0.000000 0.000000 
#    y 0.000000 1.725860 0.000000 
#    z 0.000000 0.000000 1.800780 
# 
# From -- ./inp_files/3058.got.cif
#   From: 2010.03.12/outbox.cif.g09.slc.cpg/sg17_2_cif.got.tgz:3058.got - 2010.04.10 18:46:23.
