data_PCOD8155765
_publ_section_title
;
Structure prediction by ZEFSAII (Michael W. Deem and Ramdas Pophale) SiO2 
 PCOD8155765
Probable space group: P 2 2 21
;
_chemical_formula_sum "Si O2"
_cell_formula_units_Z 16
_cell_length_a 10.294745
_cell_length_b 7.290058
_cell_length_c 9.179310
_cell_angle_alpha 90.000000
_cell_angle_beta 90.000000
_cell_angle_gamma 90.000000
_cell_volume 688.900681
_symmetry_space_group_name_H-M "P 2 2 21"
_symmetry_group_IT_number 17
_symmetry_cell_setting 'orthorhombic'
loop_
_space_group_symop_operation_xyz
x,y,z
-x,-y,1/2+z
x,-y,-z
-x,y,1/2-z
loop_
_atom_site_type_symbol
_atom_site_label
_atom_site_fract_x
_atom_site_fract_y
_atom_site_fract_z
Si Si1 0.737074 0.052565 0.348048
Si Si2 0.032856 0.322333 0.086226
Si Si3 0.218019 0.176438 0.582949
Si Si4 0.600169 0.500000 0.000000
Si Si5 0.500000 0.274040 0.250000
O O1 0.854010 0.177122 0.401591
O O2 0.630896 0.154798 0.249704
O O3 0.666458 0.000000 0.500000
O O4 0.796484 0.883532 0.253177
O O5 0.000000 0.386097 0.250000
O O6 0.082000 0.500000 0.000000
O O7 0.914866 0.228744 0.998831
O O8 0.311049 0.351711 0.582233
O O9 0.277930 0.000000 0.500000
O O10 0.503116 0.402968 0.110261
#
# Coordination Sequence:
#
# PCOD8155765 Si02
#       5
#     4   4   4   2   2
#     4  12  31  48  81 115 160 212 265 327 397 481
#     4  12  27  48  79 118 160 208 262 332 404 477
#     4  12  25  54  78 112 160 203 258 334 408 452
#     4  12  28  50  84 110 158 210 264 336 396 472
#     4  12  30  52  76 116 154 214 270 316 394 480
#
# _framework density 23.225411000000001
#
# number of rings (size 3 to 8) (size 9 to 14) (size 15 to 20)
#    0.000    0.000    6.250    0.750   12.250    0.000 
#    0.000    0.000    0.000    0.000    0.000    0.000 
#    0.000    0.000    0.000    0.000    0.000    0.000 
#
# Total GULP energy -198400.225264 kJ/mol
# GULP energy per Si atom -12400.014079 kJ/mol
# Density = 2.317255 g / cm^3
# Si number density = 23.225411 Si / 1000 Ang^3
#
#
#
# Elastic Constant Matrix: (Units=GPa)
#
#
# Indices 1 2 3 4 5 6 
#
# 1 99.9328 33.6866 34.1927 0.0000 0.0000 0.0000
# 2 33.6866 131.8737 58.8660 0.0000 0.0000 0.0000
# 3 34.1927 58.8660 175.9383 0.0000 0.0000 0.0000
# 4 0.0000 0.0000 0.0000 58.3224 0.0000 0.0000
# 5 0.0000 0.0000 0.0000 0.0000 28.9131 0.0000
# 6 0.0000 0.0000 0.0000 0.0000 0.0000 22.1106
#
#
#
# Elastic Compliance Matrix: (Units=1/GPa)
#
#
# Indices 1 2 3 4 5 6 
#
# 1 0.011252 -0.002231 -0.001440 0.000000 0.000000 0.000000
# 2 -0.002231 0.009357 -0.002697 0.000000 0.000000 0.000000
# 3 -0.001440 -0.002697 0.006866 0.000000 0.000000 0.000000
# 4 0.000000 0.000000 0.000000 0.017146 0.000000 0.000000
# 5 0.000000 0.000000 0.000000 0.000000 0.034586 0.000000
# 6 0.000000 0.000000 0.000000 0.000000 0.000000 0.045227
#
#
# Mechanical properties :
#
#
# Convention : Reuss Voigt Hill
#
# Bulk Modulus (GPa) = 67.85345 73.47060 70.66203
# Shear Modulus (GPa) = 35.19049 40.60250 37.89649
#
# Velocity S-wave (km/s) = 3.89674 4.18568 4.04379
# Velocity P-wave (km/s) = 7.03738 7.42039 7.23142
#
# Compressibility (1/GPa) = 0.01473764
#
# Stress axis : x y z
#
# Youngs Moduli (GPa) = 88.87595 106.87298 145.64374
#
# Poissons Ratio (x) = 0.23847 0.20975
# Poissons Ratio (y) = 0.19831 0.39280
# Poissons Ratio (z) = 0.12799 0.28824
#
# Static dielectric constant tensor:
#      x y z
#    x 3.934790 0.000000 0.000000 
#    y 0.000000 4.489390 0.000000 
#    z 0.000000 0.000000 5.482490 
# 
# 
# High freq. dielectric constant tensor:
#      x y z
#    x 1.904770 0.000000 0.000000 
#    y 0.000000 1.931420 0.000000 
#    z 0.000000 0.000000 1.944850 
# 
# From -- ./inp_files/3716.got.cif
#   From: 2010.03.12/outbox.cif.g09.slc.cpg/sg17_2_cif.got.tgz:3716.got - 2010.04.10 18:46:23.
