data_PCOD8155069
_publ_section_title
;
Structure prediction by ZEFSAII (Michael W. Deem and Ramdas Pophale) SiO2 
 PCOD8155069
Probable space group: C 2/C
;
_chemical_formula_sum "Si O2"
_cell_formula_units_Z 32
_cell_length_a 4.885390
_cell_length_b 13.542684
_cell_length_c 17.512798
_cell_angle_alpha 90.000000
_cell_angle_beta 96.756411
_cell_angle_gamma 90.000000
_cell_volume 1150.622747
_symmetry_space_group_name_H-M "C 2/C"
_symmetry_group_IT_number 15
_symmetry_cell_setting 'monoclinic'
loop_
_space_group_symop_operation_xyz
x,y,z
-x,y,1/2-z
-x,-y,-z
x,-y,1/2+z
1/2+x,1/2+y,z
1/2-x,1/2+y,1/2-z
1/2-x,1/2-y,-z
1/2+x,1/2-y,1/2+z
loop_
_atom_site_type_symbol
_atom_site_label
_atom_site_fract_x
_atom_site_fract_y
_atom_site_fract_z
Si Si1 0.794694 0.200222 0.177460
Si Si2 0.630415 0.653656 0.035502
Si Si3 0.992835 0.892295 0.373699
Si Si4 0.007840 0.518584 0.359054
O O1 0.554765 0.282614 0.160892
O O2 0.646358 0.098686 0.199406
O O3 0.000000 0.235448 0.250000
O O4 0.950148 0.180794 0.103061
O O5 0.883524 0.580980 0.064484
O O6 0.750000 0.750000 0.000000
O O7 0.439466 0.603594 0.963735
O O8 0.773161 0.967559 0.327410
O O9 0.304697 0.927346 0.370578
#
# Coordination Sequence:
#
# PCOD8155069 Si02
#       4
#     8   8   8   8
#     4  12  30  52  77 115 166 208 261 329 400 474
#     4  12  25  51  84 116 155 205 267 330 394 461
#     4  12  27  48  83 116 151 208 264 325 384 474
#     4  12  27  49  82 114 156 200 264 322 399 457
#
# _framework density 27.811025999999998
#
# number of rings (size 3 to 8) (size 9 to 14) (size 15 to 20)
#    0.000    0.000    5.000    3.750    3.500    3.000 
#    0.000    0.000    0.000    0.000    0.000    0.000 
#    0.000    0.000    0.000    0.000    0.000    0.000 
#
# Total GULP energy -198341.105089 kJ/mol
# GULP energy per Si atom -12396.319068 kJ/mol
# Density = 2.774773 g / cm^3
# Si number density = 27.811026 Si / 1000 Ang^3
#
#
#
# Elastic Constant Matrix: (Units=GPa)
#
#
# Indices 1 2 3 4 5 6 
#
# 1 119.3532 38.6390 19.5348 0.0000 21.6171 0.0000
# 2 38.6390 137.1763 18.9012 0.0000 19.2545 0.0000
# 3 19.5348 18.9012 99.4701 0.0000 12.7069 0.0000
# 4 0.0000 0.0000 0.0000 37.0415 0.0000 39.2186
# 5 21.6171 19.2545 12.7069 0.0000 39.3406 0.0000
# 6 0.0000 0.0000 0.0000 39.2186 0.0000 46.5137
#
#
#
# Elastic Compliance Matrix: (Units=1/GPa)
#
#
# Indices 1 2 3 4 5 6 
#
# 1 0.009970 -0.002087 -0.001035 0.000000 -0.004123 0.000000
# 2 -0.002087 0.008369 -0.000838 0.000000 -0.002679 0.000000
# 3 -0.001035 -0.000838 0.010734 0.000000 -0.002488 0.000000
# 4 0.000000 0.000000 0.000000 0.251641 0.000000 -0.212174
# 5 -0.004123 -0.002679 -0.002488 0.000000 0.029799 0.000000
# 6 0.000000 0.000000 0.000000 -0.212174 0.000000 0.200396
#
#
# Mechanical properties :
#
#
# Convention : Reuss Voigt Hill
#
# Bulk Modulus (GPa) = 47.27499 56.68329 51.97914
# Shear Modulus (GPa) = 9.50787 43.17414 26.34100
#
# Velocity S-wave (km/s) = 1.85099 3.94434 3.08091
# Velocity P-wave (km/s) = 4.64799 6.41635 5.60238
#
# Compressibility (1/GPa) = 0.02115283
#
# Stress axis : x y z
#
# Youngs Moduli (GPa) = 100.29849 119.48512 93.16526
#
# Poissons Ratio (x) = 0.24938 0.09641
# Poissons Ratio (y) = 0.20933 0.07810
# Poissons Ratio (z) = 0.10379 0.10016
#
# Static dielectric constant tensor:
#      x y z
#    x 4.993320 0.000000 0.372610 
#    y 0.000000 5.541670 0.000000 
#    z 0.372610 0.000000 5.601340 
# 
# 
# High freq. dielectric constant tensor:
#      x y z
#    x 2.119550 0.000000 0.026180 
#    y 0.000000 2.149160 0.000000 
#    z 0.026180 0.000000 2.125550 
# 
# From -- ./inp_files/226585.got.cif
#   From: 2010.06.25/outbox.cif.g09.slc.cpg/sg15_114_cif.got.tgz:226585.got - 2010.06.28 07:06:18.
