data_PCOD8155164
_publ_section_title
;
Structure prediction by ZEFSAII (Michael W. Deem and Ramdas Pophale) SiO2 
 PCOD8155164
Probable space group: C 2/C
;
_chemical_formula_sum "Si O2"
_cell_formula_units_Z 32
_cell_length_a 13.709509
_cell_length_b 4.621075
_cell_length_c 19.463490
_cell_angle_alpha 90.000000
_cell_angle_beta 61.588221
_cell_angle_gamma 90.000000
_cell_volume 1084.542436
_symmetry_space_group_name_H-M "C 2/C"
_symmetry_group_IT_number 15
_symmetry_cell_setting 'monoclinic'
loop_
_space_group_symop_operation_xyz
x,y,z
-x,y,1/2-z
-x,-y,-z
x,-y,1/2+z
1/2+x,1/2+y,z
1/2-x,1/2+y,1/2-z
1/2-x,1/2-y,-z
1/2+x,1/2-y,1/2+z
loop_
_atom_site_type_symbol
_atom_site_label
_atom_site_fract_x
_atom_site_fract_y
_atom_site_fract_z
Si Si1 0.312077 0.601147 0.201304
Si Si2 0.597445 0.673509 0.506193
Si Si3 0.728411 0.210307 0.415929
Si Si4 0.461352 0.560919 0.833438
O O1 0.250619 0.911024 0.218026
O O2 0.308438 0.435898 0.130996
O O3 0.438664 0.656050 0.180715
O O4 0.500000 0.500000 0.500000
O O5 0.698681 0.437012 0.489134
O O6 0.559590 0.779494 0.595273
O O7 0.641797 0.941683 0.446322
O O8 0.854430 0.138146 0.358089
O O9 0.500000 0.725553 0.750000
#
# Coordination Sequence:
#
# PCOD8155164 Si02
#       4
#     8   8   8   8
#     4  12  27  50  78 115 160 201 259 331 392 457
#     4  12  27  51  79 111 156 206 256 323 390 463
#     4  12  27  52  76 112 154 204 260 317 389 467
#     4  12  28  49  80 116 153 207 261 320 394 465
#
# _framework density 29.505533
#
# number of rings (size 3 to 8) (size 9 to 14) (size 15 to 20)
#    0.000    0.000    5.000    3.750    0.000    2.000 
#    0.000    0.000    0.000    0.000    0.000    0.000 
#    0.000    0.000    0.000    0.000    0.000    0.000 
#
# Total GULP energy -198290.292026 kJ/mol
# GULP energy per Si atom -12393.143252 kJ/mol
# Density = 2.943838 g / cm^3
# Si number density = 29.505533 Si / 1000 Ang^3
#
#
#
# Elastic Constant Matrix: (Units=GPa)
#
#
# Indices 1 2 3 4 5 6 
#
# 1 112.4665 15.4955 53.4757 0.0113 -34.4248 0.0253
# 2 15.4955 105.4264 20.6748 0.0866 -7.7108 0.0602
# 3 53.4757 20.6748 201.1292 0.0430 0.1448 0.0241
# 4 0.0113 0.0866 0.0430 33.5049 0.0035 -0.2700
# 5 -34.4248 -7.7108 0.1448 0.0035 43.7833 0.0062
# 6 0.0253 0.0602 0.0241 -0.2700 0.0062 19.5723
#
#
#
# Elastic Compliance Matrix: (Units=1/GPa)
#
#
# Indices 1 2 3 4 5 6 
#
# 1 0.014090 -0.000541 -0.003699 0.000000 0.010995 -0.000016
# 2 -0.000541 0.009831 -0.000868 -0.000024 0.001308 -0.000029
# 3 -0.003699 -0.000868 0.006047 -0.000004 -0.003081 0.000001
# 4 0.000000 -0.000024 -0.000004 0.029850 -0.000007 0.000412
# 5 0.010995 0.001308 -0.003081 -0.000007 0.031726 -0.000025
# 6 -0.000016 -0.000029 0.000001 0.000412 -0.000025 0.051098
#
#
# Mechanical properties :
#
#
# Convention : Reuss Voigt Hill
#
# Bulk Modulus (GPa) = 50.62602 66.47934 58.55268
# Shear Modulus (GPa) = 31.35962 41.33052 36.34507
#
# Velocity S-wave (km/s) = 3.26366 3.74675 3.51352
# Velocity P-wave (km/s) = 5.60333 6.42632 6.02888
#
# Compressibility (1/GPa) = 0.01975269
#
# Stress axis : x y z
#
# Youngs Moduli (GPa) = 70.97068 101.72178 165.37995
#
# Poissons Ratio (x) = 0.05508 0.61167
# Poissons Ratio (y) = 0.03843 0.14347
# Poissons Ratio (z) = 0.26249 0.08824
#
# Static dielectric constant tensor:
#      x y z
#    x 5.629080 -0.000030 0.014110 
#    y -0.000030 5.125140 -0.000010 
#    z 0.014110 -0.000010 7.104870 
# 
# 
# High freq. dielectric constant tensor:
#      x y z
#    x 2.216390 0.000000 0.004600 
#    y 0.000000 2.166660 0.000000 
#    z 0.004600 0.000000 2.262630 
# 
# From -- ./inp_files/271570.got.cif
#   From: 2010.06.25/outbox.cif.g09.slc.cpg/sg15_136_cif.got.tgz:271570.got - 2010.06.28 07:06:18.
