data_PCOD8155571
_publ_section_title
;
Structure prediction by ZEFSAII (Michael W. Deem and Ramdas Pophale) SiO2 
 PCOD8155571
Probable space group: P 2 2 21
;
_chemical_formula_sum "Si O2"
_cell_formula_units_Z 20
_cell_length_a 10.694353
_cell_length_b 7.101611
_cell_length_c 12.503212
_cell_angle_alpha 90.000000
_cell_angle_beta 90.000000
_cell_angle_gamma 90.000000
_cell_volume 949.583128
_symmetry_space_group_name_H-M "P 2 2 21"
_symmetry_group_IT_number 17
_symmetry_cell_setting 'orthorhombic'
loop_
_space_group_symop_operation_xyz
x,y,z
-x,-y,1/2+z
x,-y,-z
-x,y,1/2-z
loop_
_atom_site_type_symbol
_atom_site_label
_atom_site_fract_x
_atom_site_fract_y
_atom_site_fract_z
Si Si1 0.490595 0.137597 0.913245
Si Si2 0.175912 0.585125 0.338910
Si Si3 0.380967 0.500000 0.500000
Si Si4 0.032132 0.500000 0.000000
Si Si5 0.700318 0.935522 0.243240
Si Si6 0.123105 0.732416 0.814329
O O1 0.378999 0.181816 0.831003
O O2 0.604580 0.024226 0.854758
O O3 0.531425 0.322980 0.976980
O O4 0.432252 0.000000 0.000000
O O5 0.291129 0.480144 0.397501
O O6 0.195512 0.799780 0.305075
O O7 0.158622 0.468577 0.232387
O O8 0.052766 0.597198 0.410448
O O9 0.105589 0.674890 0.940720
O O10 0.764837 0.118927 0.295418
O O11 0.000000 0.807542 0.750000
#
# Coordination Sequence:
#
# PCOD8155571 Si02
#       6
#     4   4   2   2   4   4
#     4  10  21  37  59  88 117 150 193 236 287 353
#     4   9  19  38  59  83 117 154 197 241 289 351
#     4   9  18  36  61  84 112 156 193 235 290 340
#     4   9  20  38  61  86 116 156 201 245 294 352
#     4  10  22  38  59  87 118 152 191 241 295 347
#     4  10  21  38  59  86 118 155 195 243 294 346
#
# _framework density 21.061874
#
# number of rings (size 3 to 8) (size 9 to 14) (size 15 to 20)
#    0.000    2.400    0.000    1.200    0.000    7.200 
#    0.000    8.000    0.000    0.000    0.000    0.000 
#    0.000    0.000    0.000    0.000    0.000    0.000 
#
# Total GULP energy -247764.485555 kJ/mol
# GULP energy per Si atom -12388.224278 kJ/mol
# Density = 2.101394 g / cm^3
# Si number density = 21.061874 Si / 1000 Ang^3
#
#
#
# Elastic Constant Matrix: (Units=GPa)
#
#
# Indices 1 2 3 4 5 6 
#
# 1 62.3007 37.9093 32.0888 0.0000 0.0000 0.0000
# 2 37.9093 80.1858 58.2565 0.0000 0.0000 0.0000
# 3 32.0888 58.2565 101.9370 0.0000 0.0000 0.0000
# 4 0.0000 0.0000 0.0000 36.7188 0.0000 0.0000
# 5 0.0000 0.0000 0.0000 0.0000 19.2085 0.0000
# 6 0.0000 0.0000 0.0000 0.0000 0.0000 2.3157
#
#
#
# Elastic Compliance Matrix: (Units=1/GPa)
#
#
# Indices 1 2 3 4 5 6 
#
# 1 0.022711 -0.009478 -0.001732 0.000000 0.000000 0.000000
# 2 -0.009478 0.025281 -0.011464 0.000000 0.000000 0.000000
# 3 -0.001732 -0.011464 0.016907 0.000000 0.000000 0.000000
# 4 0.000000 0.000000 0.000000 0.027234 0.000000 0.000000
# 5 0.000000 0.000000 0.000000 0.000000 0.052060 0.000000
# 6 0.000000 0.000000 0.000000 0.000000 0.000000 0.431830
#
#
# Mechanical properties :
#
#
# Convention : Reuss Voigt Hill
#
# Bulk Modulus (GPa) = 51.15340 55.65920 53.40630
# Shear Modulus (GPa) = 7.96317 19.39320 13.67819
#
# Velocity S-wave (km/s) = 1.94655 3.03772 2.55115
# Velocity P-wave (km/s) = 5.42144 6.22796 5.83864
#
# Compressibility (1/GPa) = 0.01954904
#
# Stress axis : x y z
#
# Youngs Moduli (GPa) = 44.03158 39.55502 59.14665
#
# Poissons Ratio (x) = 0.37492 0.10246
# Poissons Ratio (y) = 0.41735 0.67808
# Poissons Ratio (z) = 0.07628 0.45347
#
# Static dielectric constant tensor:
#      x y z
#    x 3.882040 0.000000 0.000000 
#    y 0.000000 3.584380 0.000000 
#    z 0.000000 0.000000 4.080760 
# 
# 
# High freq. dielectric constant tensor:
#      x y z
#    x 1.823420 0.000000 0.000000 
#    y 0.000000 1.802020 0.000000 
#    z 0.000000 0.000000 1.838640 
# 
# From -- ./inp_files/8416.got.cif
#   From: 2010.03.12/outbox.cif.g09.slc.cpg/sg17_5_cif.got.tgz:8416.got - 2010.04.10 18:46:23.
