data_PCOD8155960
_publ_section_title
;
Structure prediction by ZEFSAII (Michael W. Deem and Ramdas Pophale) SiO2 
 PCOD8155960
Probable space group: P 21 21 2
;
_chemical_formula_sum "Si O2"
_cell_formula_units_Z 24
_cell_length_a 8.251611
_cell_length_b 11.594457
_cell_length_c 13.070763
_cell_angle_alpha 90.000000
_cell_angle_beta 90.000000
_cell_angle_gamma 90.000000
_cell_volume 1250.518441
_symmetry_space_group_name_H-M "P 21 21 2"
_symmetry_group_IT_number 18
_symmetry_cell_setting 'orthorhombic'
loop_
_space_group_symop_operation_xyz
x,y,z
-x,-y,z
1/2+x,1/2-y,-z
1/2-x,1/2+y,-z
loop_
_atom_site_type_symbol
_atom_site_label
_atom_site_fract_x
_atom_site_fract_y
_atom_site_fract_z
Si Si1 0.000000 0.500000 0.050787
Si Si2 0.901247 0.115047 0.443869
Si Si3 0.500000 0.500000 0.063495
Si Si4 0.687113 0.976434 0.297435
Si Si5 0.227078 0.107242 0.083763
Si Si6 0.768601 0.647901 0.162144
Si Si7 0.291176 0.753177 0.616859
O O1 0.057781 0.396233 0.123272
O O2 0.140432 0.539012 0.977679
O O3 0.788368 0.165315 0.532332
O O4 0.024406 0.216132 0.409585
O O5 0.778751 0.082904 0.351506
O O6 0.000000 0.000000 0.479139
O O7 0.631983 0.552876 0.140058
O O8 0.566123 0.401571 0.985796
O O9 0.790607 0.952446 0.194856
O O10 0.687716 0.863737 0.369971
O O11 0.500000 0.000000 0.271427
O O12 0.278372 0.238690 0.098829
O O13 0.787232 0.670302 0.281610
#
# Coordination Sequence:
#
# PCOD8155960 Si02
#       7
#     2   4   2   4   4   4   4
#     4  10  20  40  54  88 116 152 192 236 296 344
#     4  10  22  40  62  88 119 158 199 251 302 359
#     4  10  22  36  60  84 120 160 188 248 298 348
#     4  10  20  37  62  89 117 154 200 246 298 356
#     4  10  20  36  61  84 117 153 198 238 291 352
#     4  10  22  38  57  85 120 152 199 239 296 353
#     4  10  22  40  60  87 121 153 200 249 303 359
#
# _framework density 19.192039999999999
#
# number of rings (size 3 to 8) (size 9 to 14) (size 15 to 20)
#    0.000    2.000    0.833    2.000    7.000    0.000 
#    7.500    3.333    0.000    0.000    0.000    0.000 
#    0.000    0.000    0.000    0.000    0.000    0.000 
#
# Total GULP energy -297523.978980 kJ/mol
# GULP energy per Si atom -12396.832457 kJ/mol
# Density = 1.914836 g / cm^3
# Si number density = 19.192040 Si / 1000 Ang^3
#
#
#
# Elastic Constant Matrix: (Units=GPa)
#
#
# Indices 1 2 3 4 5 6 
#
# 1 69.0867 25.8455 41.6490 0.0000 0.0000 0.0000
# 2 25.8455 78.9207 57.6791 0.0000 0.0000 0.0000
# 3 41.6490 57.6791 113.2456 0.0000 0.0000 0.0000
# 4 0.0000 0.0000 0.0000 30.4933 0.0000 0.0000
# 5 0.0000 0.0000 0.0000 0.0000 29.6325 0.0000
# 6 0.0000 0.0000 0.0000 0.0000 0.0000 29.7386
#
#
#
# Elastic Compliance Matrix: (Units=1/GPa)
#
#
# Indices 1 2 3 4 5 6 
#
# 1 0.018749 -0.001753 -0.006003 0.000000 0.000000 0.000000
# 2 -0.001753 0.020348 -0.009719 0.000000 0.000000 0.000000
# 3 -0.006003 -0.009719 0.015988 0.000000 0.000000 0.000000
# 4 0.000000 0.000000 0.000000 0.032794 0.000000 0.000000
# 5 0.000000 0.000000 0.000000 0.000000 0.033747 0.000000
# 6 0.000000 0.000000 0.000000 0.000000 0.000000 0.033626
#
#
# Mechanical properties :
#
#
# Convention : Reuss Voigt Hill
#
# Bulk Modulus (GPa) = 49.66263 56.84448 53.25356
# Shear Modulus (GPa) = 25.39171 27.04482 26.21827
#
# Velocity S-wave (km/s) = 3.64130 3.75796 3.70009
# Velocity P-wave (km/s) = 6.60391 6.96511 6.78691
#
# Compressibility (1/GPa) = 0.02013586
#
# Stress axis : x y z
#
# Youngs Moduli (GPa) = 53.33604 49.14400 62.54596
#
# Poissons Ratio (x) = 0.08615 0.37544
# Poissons Ratio (y) = 0.09350 0.60790
# Poissons Ratio (z) = 0.32015 0.47764
#
# Static dielectric constant tensor:
#      x y z
#    x 4.146230 0.000000 0.000000 
#    y 0.000000 3.529000 0.000000 
#    z 0.000000 0.000000 3.521930 
# 
# 
# High freq. dielectric constant tensor:
#      x y z
#    x 1.749850 0.000000 0.000000 
#    y 0.000000 1.744560 0.000000 
#    z 0.000000 0.000000 1.751370 
# 
# From -- ./inp_files/5531.got.cif
#   From: 2010.03.12/outbox.cif.g09.slc.cpg/sg18_3_cif.got.tgz:5531.got - 2010.04.10 18:53:55.
