data_PCOD8155591
_publ_section_title
;
Structure prediction by ZEFSAII (Michael W. Deem and Ramdas Pophale) SiO2 
 PCOD8155591
Probable space group: P 2 2 21
;
_chemical_formula_sum "Si O2"
_cell_formula_units_Z 24
_cell_length_a 11.446061
_cell_length_b 4.931078
_cell_length_c 20.581831
_cell_angle_alpha 90.000000
_cell_angle_beta 90.000000
_cell_angle_gamma 90.000000
_cell_volume 1161.667759
_symmetry_space_group_name_H-M "P 2 2 21"
_symmetry_group_IT_number 17
_symmetry_cell_setting 'orthorhombic'
loop_
_space_group_symop_operation_xyz
x,y,z
-x,-y,1/2+z
x,-y,-z
-x,y,1/2-z
loop_
_atom_site_type_symbol
_atom_site_label
_atom_site_fract_x
_atom_site_fract_y
_atom_site_fract_z
Si Si1 0.163641 0.263233 0.955067
Si Si2 0.900681 0.744742 0.044408
Si Si3 0.697178 0.958221 0.128390
Si Si4 0.432441 0.467023 0.423737
Si Si5 0.628479 0.083263 0.268005
Si Si6 0.656222 0.570493 0.351269
O O1 0.241410 0.276524 0.890528
O O2 0.031109 0.322322 0.930745
O O3 0.210433 0.500000 0.000000
O O4 0.178901 0.000000 0.000000
O O5 0.818733 0.824886 0.104582
O O6 0.848746 0.500000 0.000000
O O7 0.912963 0.000000 0.000000
O O8 0.597249 0.746981 0.111324
O O9 0.662535 0.236672 0.092482
O O10 0.706017 0.011748 0.204974
O O11 0.436317 0.500000 0.500000
O O12 0.562568 0.414848 0.397279
O O13 0.500000 0.201558 0.250000
O O14 0.699686 0.321707 0.305518
O O15 0.603600 0.811115 0.308119
#
# Coordination Sequence:
#
# PCOD8155591 Si02
#       6
#     4   4   4   4   4   4
#     4  10  22  41  66  93 125 164 208 264 327 375
#     4  10  21  40  64  91 123 161 205 260 322 375
#     4  12  23  38  60  88 123 163 207 249 307 373
#     4  12  23  35  58  90 122 152 198 261 314 368
#     4  12  23  41  60  87 128 177 207 247 313 377
#     4  12  23  40  62  90 125 165 212 252 313 383
#
# _framework density 20.659952000000001
#
# number of rings (size 3 to 8) (size 9 to 14) (size 15 to 20)
#    0.000    0.667    3.333    6.000    0.000    1.333 
#    0.000    0.833    0.000    2.000    0.000    0.000 
#    0.000    0.000    0.000    0.000    0.000    0.000 
#
# Total GULP energy -297523.654800 kJ/mol
# GULP energy per Si atom -12396.818950 kJ/mol
# Density = 2.061293 g / cm^3
# Si number density = 20.659952 Si / 1000 Ang^3
#
#
#
# Elastic Constant Matrix: (Units=GPa)
#
#
# Indices 1 2 3 4 5 6 
#
# 1 48.0640 -22.7090 92.6236 0.0000 0.0000 0.0000
# 2 -22.7090 88.1577 93.0459 0.0000 0.0000 0.0000
# 3 92.6236 93.0459 115.0356 0.0000 0.0000 0.0000
# 4 0.0000 0.0000 0.0000 28.4501 0.0000 0.0000
# 5 0.0000 0.0000 0.0000 0.0000 26.3521 0.0000
# 6 0.0000 0.0000 0.0000 0.0000 0.0000 31.1097
#
#
#
# Elastic Compliance Matrix: (Units=1/GPa)
#
#
# Indices 1 2 3 4 5 6 
#
# 1 -0.001306 -0.009888 0.009050 0.000000 0.000000 0.000000
# 2 -0.009888 0.002686 0.005790 0.000000 0.000000 0.000000
# 3 0.009050 0.005790 -0.003277 0.000000 0.000000 0.000000
# 4 0.000000 0.000000 0.000000 0.035149 0.000000 0.000000
# 5 0.000000 0.000000 0.000000 0.000000 0.037948 0.000000
# 6 0.000000 0.000000 0.000000 0.000000 0.000000 0.032144
#
#
# Mechanical properties :
#
#
# Convention : Reuss Voigt Hill
#
# Bulk Modulus (GPa) = 124.92217 64.13092 94.52654
# Shear Modulus (GPa) = 52.02405 23.06883 37.54644
#
# Velocity S-wave (km/s) = 5.02352 3.34518 4.26767
# Velocity P-wave (km/s) = 9.70798 6.78446 8.37477
#
# Compressibility (1/GPa) = 0.00800498
#
# Stress axis : x y z
#
# Youngs Moduli (GPa) = -765.46528 372.36928 -305.18463
#
# Poissons Ratio (x) = 3.68209 2.76190
# Poissons Ratio (y) = -7.56912 1.76690
# Poissons Ratio (z) = 6.92741 -2.15587
#
# Static dielectric constant tensor:
#      x y z
#    x 3.780700 0.000000 0.000000 
#    y 0.000000 3.877590 0.000000 
#    z 0.000000 0.000000 3.742620 
# 
# 
# High freq. dielectric constant tensor:
#      x y z
#    x 1.788270 0.000000 0.000000 
#    y 0.000000 1.831130 0.000000 
#    z 0.000000 0.000000 1.807540 
# 
# From -- ./inp_files/9581.got.cif
#   From: 2010.03.12/outbox.cif.g09.slc.cpg/sg17_5_cif.got.tgz:9581.got - 2010.04.10 18:46:23.
