data_PCOD8155952
_publ_section_title
;
Structure prediction by ZEFSAII (Michael W. Deem and Ramdas Pophale) SiO2 
 PCOD8155952
Probable space group: P 21 21 2
;
_chemical_formula_sum "Si O2"
_cell_formula_units_Z 28
_cell_length_a 7.354554
_cell_length_b 19.928402
_cell_length_c 9.615793
_cell_angle_alpha 90.000000
_cell_angle_beta 90.000000
_cell_angle_gamma 90.000000
_cell_volume 1409.333976
_symmetry_space_group_name_H-M "P 21 21 2"
_symmetry_group_IT_number 18
_symmetry_cell_setting 'orthorhombic'
loop_
_space_group_symop_operation_xyz
x,y,z
-x,-y,z
1/2+x,1/2-y,-z
1/2-x,1/2+y,-z
loop_
_atom_site_type_symbol
_atom_site_label
_atom_site_fract_x
_atom_site_fract_y
_atom_site_fract_z
Si Si1 0.435577 0.672786 0.591967
Si Si2 0.758534 0.044984 0.833494
Si Si3 0.000000 0.000000 0.048803
Si Si4 0.116146 0.603238 0.119274
Si Si5 0.770220 0.405119 0.820480
Si Si6 0.737958 0.088138 0.530952
Si Si7 0.402102 0.181214 0.612633
Si Si8 0.500000 0.000000 0.352392
O O1 0.342411 0.649195 0.734535
O O2 0.597592 0.623179 0.549098
O O3 0.523830 0.744141 0.619462
O O4 0.279579 0.676923 0.477388
O O5 0.598608 0.092566 0.883662
O O6 0.818880 0.064067 0.678252
O O7 0.919122 0.057580 0.945158
O O8 0.711117 0.966236 0.838849
O O9 0.150663 0.029519 0.149328
O O10 0.160691 0.659537 0.233243
O O11 0.172111 0.629104 0.966156
O O12 0.943778 0.435041 0.738716
O O13 0.560554 0.134629 0.550123
O O14 0.671273 0.022403 0.447094
#
# Coordination Sequence:
#
# PCOD8155952 Si02
#       8
#     4   4   2   4   4   4   4   2
#     4  12  25  42  67  93 127 172 221 267 317 367
#     4   9  19  35  63  93 125 165 205 258 322 383
#     4  10  20  36  56  96 132 162 208 254 324 398
#     4   9  20  41  62  87 129 168 207 256 321 382
#     4  11  23  38  61  96 130 169 205 262 329 382
#     4  11  23  39  66  99 127 166 215 266 321 379
#     4  11  23  46  63  92 126 174 223 264 306 375
#     4  12  22  40  64  98 138 160 204 270 332 388
#
# _framework density 19.867539000000001
#
# number of rings (size 3 to 8) (size 9 to 14) (size 15 to 20)
#    0.000    1.429    2.857    4.286    4.000    0.000 
#    0.000    5.714    0.000    0.000    0.000    0.000 
#    0.000    0.000    0.000    0.000    0.000    0.000 
#
# Total GULP energy -347165.596043 kJ/mol
# GULP energy per Si atom -12398.771287 kJ/mol
# Density = 1.982232 g / cm^3
# Si number density = 19.867539 Si / 1000 Ang^3
#
#
#
# Elastic Constant Matrix: (Units=GPa)
#
#
# Indices 1 2 3 4 5 6 
#
# 1 72.1169 27.8070 52.5852 0.0000 0.0000 0.0000
# 2 27.8070 69.7995 53.4177 0.0000 0.0000 0.0000
# 3 52.5852 53.4177 145.0745 0.0000 0.0000 0.0000
# 4 0.0000 0.0000 0.0000 21.1955 0.0000 0.0000
# 5 0.0000 0.0000 0.0000 0.0000 24.0913 0.0000
# 6 0.0000 0.0000 0.0000 0.0000 0.0000 34.3270
#
#
#
# Elastic Compliance Matrix: (Units=1/GPa)
#
#
# Indices 1 2 3 4 5 6 
#
# 1 0.019367 -0.003262 -0.005819 0.000000 0.000000 0.000000
# 2 -0.003262 0.020497 -0.006365 0.000000 0.000000 0.000000
# 3 -0.005819 -0.006365 0.011346 0.000000 0.000000 0.000000
# 4 0.000000 0.000000 0.000000 0.047180 0.000000 0.000000
# 5 0.000000 0.000000 0.000000 0.000000 0.041509 0.000000
# 6 0.000000 0.000000 0.000000 0.000000 0.000000 0.029132
#
#
# Mechanical properties :
#
#
# Convention : Reuss Voigt Hill
#
# Bulk Modulus (GPa) = 49.21667 61.62339 55.42003
# Shear Modulus (GPa) = 24.19018 26.13481 25.16250
#
# Velocity S-wave (km/s) = 3.49316 3.63085 3.56267
# Velocity P-wave (km/s) = 6.41060 6.97581 6.69917
#
# Compressibility (1/GPa) = 0.02031832
#
# Stress axis : x y z
#
# Youngs Moduli (GPa) = 51.63373 48.78654 88.13896
#
# Poissons Ratio (x) = 0.15916 0.51286
# Poissons Ratio (y) = 0.16845 0.56099
# Poissons Ratio (z) = 0.30045 0.31052
#
# Static dielectric constant tensor:
#      x y z
#    x 3.862770 0.000000 0.000000 
#    y 0.000000 3.384240 0.000000 
#    z 0.000000 0.000000 3.912940 
# 
# 
# High freq. dielectric constant tensor:
#      x y z
#    x 1.789010 0.000000 0.000000 
#    y 0.000000 1.744140 0.000000 
#    z 0.000000 0.000000 1.790340 
# 
# From -- ./inp_files/3412.got.cif
#   From: 2010.03.12/outbox.cif.g09.slc.cpg/sg18_2_cif.got.tgz:3412.got - 2010.04.10 18:53:55.
