data_PCOD8155272
_publ_section_title
;
Structure prediction by ZEFSAII (Michael W. Deem and Ramdas Pophale) SiO2 
 PCOD8155272
Probable space group: P 2 2 2
;
_chemical_formula_sum "Si O2"
_cell_formula_units_Z 17
_cell_length_a 18.680760
_cell_length_b 8.789109
_cell_length_c 5.236890
_cell_angle_alpha 90.000000
_cell_angle_beta 90.000000
_cell_angle_gamma 90.000000
_cell_volume 859.830494
_symmetry_space_group_name_H-M "P 2 2 2"
_symmetry_group_IT_number 16
_symmetry_cell_setting 'orthorhombic'
loop_
_space_group_symop_operation_xyz
x,y,z
-x,-y,z
x,-y,-z
-x,y,-z
loop_
_atom_site_type_symbol
_atom_site_label
_atom_site_fract_x
_atom_site_fract_y
_atom_site_fract_z
Si Si1 0.420439 0.433461 0.750105
Si Si2 0.214044 0.093676 0.749398
Si Si3 0.381175 0.905735 0.251078
Si Si4 0.136771 0.589167 0.260348
Si Si5 0.000000 0.500000 0.500000
O O1 0.500000 0.500000 0.750595
O O2 0.379921 0.500000 0.500000
O O3 0.424276 0.251612 0.751006
O O4 0.379664 0.500000 0.000000
O O5 0.297610 0.134552 0.742748
O O6 0.168827 0.245325 0.761036
O O7 0.191430 0.000000 0.500000
O O8 0.194138 0.000000 0.000000
O O9 0.404577 0.000000 0.500000
O O10 0.402392 0.000000 0.000000
O O11 0.173308 0.500000 0.500000
O O12 0.051193 0.603163 0.318200
O O13 0.152097 0.500000 0.000000
#
# Coordination Sequence:
#
# PCOD8155272 Si02
#       5
#     4   4   4   4   1
#     4  10  21  38  56  82 116 146 187 238 271 329
#     4  10  21  37  58  86 116 143 186 239 283 330
#     4  10  21  38  59  83 114 151 185 229 289 340
#     4  10  20  36  60  80 112 153 189 229 273 338
#     4   8  22  36  60  76 122 144 198 216 278 336
#
# _framework density 19.771338
#
# number of rings (size 3 to 8) (size 9 to 14) (size 15 to 20)
#    0.706    1.412    0.000    3.176    0.000    1.882 
#    0.000   14.706    0.000    0.000    0.000    0.000 
#    0.000    0.000    0.000    0.000    0.000    0.000 
#
# Total GULP energy -210729.845265 kJ/mol
# GULP energy per Si atom -12395.873251 kJ/mol
# Density = 1.972634 g / cm^3
# Si number density = 19.771338 Si / 1000 Ang^3
#
#
#
# Elastic Constant Matrix: (Units=GPa)
#
#
# Indices 1 2 3 4 5 6 
#
# 1 53.7998 66.3805 30.5037 0.0000 0.0000 0.0000
# 2 66.3805 202.9770 98.6078 0.0000 0.0000 0.0000
# 3 30.5037 98.6078 220.5308 0.0000 0.0000 0.0000
# 4 0.0000 0.0000 0.0000 37.0524 0.0000 0.0000
# 5 0.0000 0.0000 0.0000 0.0000 5.3594 0.0000
# 6 0.0000 0.0000 0.0000 0.0000 0.0000 38.2038
#
#
#
# Elastic Compliance Matrix: (Units=1/GPa)
#
#
# Indices 1 2 3 4 5 6 
#
# 1 0.031178 -0.010349 0.000315 0.000000 0.000000 0.000000
# 2 -0.010349 0.009729 -0.002919 0.000000 0.000000 0.000000
# 3 0.000315 -0.002919 0.005796 0.000000 0.000000 0.000000
# 4 0.000000 0.000000 0.000000 0.026989 0.000000 0.000000
# 5 0.000000 0.000000 0.000000 0.000000 0.186588 0.000000
# 6 0.000000 0.000000 0.000000 0.000000 0.000000 0.026175
#
#
# Mechanical properties :
#
#
# Convention : Reuss Voigt Hill
#
# Bulk Modulus (GPa) = 48.08309 96.47681 72.27995
# Shear Modulus (GPa) = 15.65952 34.91083 25.28517
#
# Velocity S-wave (km/s) = 2.81736 4.20662 3.58002
# Velocity P-wave (km/s) = 5.91234 8.51448 7.32981
#
# Compressibility (1/GPa) = 0.02079733
#
# Stress axis : x y z
#
# Youngs Moduli (GPa) = 32.07344 102.78251 172.53152
#
# Poissons Ratio (x) = 1.06375 -0.05436
# Poissons Ratio (y) = 0.33194 0.50359
# Poissons Ratio (z) = -0.01011 0.30000
#
# Static dielectric constant tensor:
#      x y z
#    x 3.292370 0.000000 0.000000 
#    y 0.000000 3.662280 0.000000 
#    z 0.000000 0.000000 -36.811900 
# 
# 
# High freq. dielectric constant tensor:
#      x y z
#    x 1.739210 0.000000 0.000000 
#    y 0.000000 1.769950 0.000000 
#    z 0.000000 0.000000 1.804060 
# 
# From -- ./inp_files/280.got.cif
#   From: 2010.03.12/outbox.cif.g09.slc.cpg/sg16_1_cif.got.tgz:280.got - 2010.03.31 00:51:45.
