data_PCOD8155457
_publ_section_title
;
Structure prediction by ZEFSAII (Michael W. Deem and Ramdas Pophale) SiO2 
 PCOD8155457
Probable space group: P 2 2 21
;
_chemical_formula_sum "Si O2"
_cell_formula_units_Z 18
_cell_length_a 13.151672
_cell_length_b 5.078239
_cell_length_c 12.659628
_cell_angle_alpha 90.000000
_cell_angle_beta 90.000000
_cell_angle_gamma 90.000000
_cell_volume 845.502799
_symmetry_space_group_name_H-M "P 2 2 21"
_symmetry_group_IT_number 17
_symmetry_cell_setting 'orthorhombic'
loop_
_space_group_symop_operation_xyz
x,y,z
-x,-y,1/2+z
x,-y,-z
-x,y,1/2-z
loop_
_atom_site_type_symbol
_atom_site_label
_atom_site_fract_x
_atom_site_fract_y
_atom_site_fract_z
Si Si1 0.138950 0.312436 0.091637
Si Si2 0.317277 0.000000 0.000000
Si Si3 0.614466 0.890268 0.280229
Si Si4 0.155841 0.500000 0.500000
Si Si5 0.737161 0.395697 0.216160
Si Si6 0.022877 0.000000 0.500000
O O1 0.248586 0.224733 0.050588
O O2 0.163734 0.437549 0.206448
O O3 0.052919 0.082380 0.098059
O O4 0.093361 0.500000 0.000000
O O5 0.385831 0.878199 0.092403
O O6 0.500000 0.953290 0.250000
O O7 0.650193 0.609752 0.236406
O O8 0.690205 0.107344 0.232558
O O9 0.225802 0.586681 0.596791
O O10 0.090432 0.752900 0.463629
#
# Coordination Sequence:
#
# PCOD8155457 Si02
#       6
#     4   2   4   2   4   2
#     4  10  19  42  65  91 120 163 218 264 309 356
#     4   9  20  36  65  92 128 156 213 274 318 365
#     4  11  23  41  67  98 124 169 220 264 323 386
#     4  12  26  46  60  96 142 172 208 252 342 392
#     4  11  25  43  66  92 133 173 204 271 330 381
#     4  11  24  42  65  96 126 172 221 262 304 393
#
# _framework density 21.289107000000001
#
# number of rings (size 3 to 8) (size 9 to 14) (size 15 to 20)
#    0.000    1.333    3.333    2.000    0.000    2.667 
#    4.000    0.000    0.000    0.000    0.000    0.000 
#    0.000    0.000    0.000    0.000    0.000    0.000 
#
# Total GULP energy -223129.705437 kJ/mol
# GULP energy per Si atom -12396.094747 kJ/mol
# Density = 2.124065 g / cm^3
# Si number density = 21.289107 Si / 1000 Ang^3
#
#
#
# Elastic Constant Matrix: (Units=GPa)
#
#
# Indices 1 2 3 4 5 6 
#
# 1 89.4318 17.4816 48.7179 0.0000 0.0000 0.0000
# 2 17.4816 84.8074 19.9239 0.0000 0.0000 0.0000
# 3 48.7179 19.9239 149.2098 0.0000 0.0000 0.0000
# 4 0.0000 0.0000 0.0000 25.6461 0.0000 0.0000
# 5 0.0000 0.0000 0.0000 0.0000 10.4158 0.0000
# 6 0.0000 0.0000 0.0000 0.0000 0.0000 35.7433
#
#
#
# Elastic Compliance Matrix: (Units=1/GPa)
#
#
# Indices 1 2 3 4 5 6 
#
# 1 0.013878 -0.001854 -0.004284 0.000000 0.000000 0.000000
# 2 -0.001854 0.012421 -0.001053 0.000000 0.000000 0.000000
# 3 -0.004284 -0.001053 0.008241 0.000000 0.000000 0.000000
# 4 0.000000 0.000000 0.000000 0.038992 0.000000 0.000000
# 5 0.000000 0.000000 0.000000 0.000000 0.096008 0.000000
# 6 0.000000 0.000000 0.000000 0.000000 0.000000 0.027977
#
#
# Mechanical properties :
#
#
# Convention : Reuss Voigt Hill
#
# Bulk Modulus (GPa) = 49.60818 55.07729 52.34273
# Shear Modulus (GPa) = 22.87092 30.18276 26.52684
#
# Velocity S-wave (km/s) = 3.28121 3.76940 3.53374
# Velocity P-wave (km/s) = 6.14067 6.69864 6.42571
#
# Compressibility (1/GPa) = 0.02015797
#
# Stress axis : x y z
#
# Youngs Moduli (GPa) = 72.05848 80.50837 121.34167
#
# Poissons Ratio (x) = 0.14929 0.51977
# Poissons Ratio (y) = 0.13362 0.12779
# Poissons Ratio (z) = 0.30866 0.08479
#
# Static dielectric constant tensor:
#      x y z
#    x 3.687520 0.000000 0.000000 
#    y 0.000000 3.974340 0.000000 
#    z 0.000000 0.000000 4.056920 
# 
# 
# High freq. dielectric constant tensor:
#      x y z
#    x 1.827110 0.000000 0.000000 
#    y 0.000000 1.845880 0.000000 
#    z 0.000000 0.000000 1.823460 
# 
# From -- ./inp_files/6847.got.cif
#   From: 2010.03.12/outbox.cif.g09.slc.cpg/sg17_4_cif.got.tgz:6847.got - 2010.04.10 18:46:23.
