data_PCOD8155708
_publ_section_title
;
Structure prediction by ZEFSAII (Michael W. Deem and Ramdas Pophale) SiO2 
 PCOD8155708
Probable space group: P 2 2 21
;
_chemical_formula_sum "Si O2"
_cell_formula_units_Z 22
_cell_length_a 12.552486
_cell_length_b 11.811098
_cell_length_c 6.712711
_cell_angle_alpha 90.000000
_cell_angle_beta 90.000000
_cell_angle_gamma 90.000000
_cell_volume 995.217419
_symmetry_space_group_name_H-M "P 2 2 21"
_symmetry_group_IT_number 17
_symmetry_cell_setting 'orthorhombic'
loop_
_space_group_symop_operation_xyz
x,y,z
-x,-y,1/2+z
x,-y,-z
-x,y,1/2-z
loop_
_atom_site_type_symbol
_atom_site_label
_atom_site_fract_x
_atom_site_fract_y
_atom_site_fract_z
Si Si1 0.429273 0.500000 0.000000
Si Si2 0.500000 0.307910 0.750000
Si Si3 0.081766 0.267534 0.897494
Si Si4 0.000000 0.874477 0.750000
Si Si5 0.105591 0.500000 0.000000
Si Si6 0.829698 0.000000 0.000000
Si Si7 0.278172 0.224542 0.629230
Si Si8 0.734524 0.581911 0.820082
O O1 0.497331 0.388828 0.945132
O O2 0.368083 0.535949 0.798492
O O3 0.395933 0.229819 0.725225
O O4 0.037694 0.397888 0.908401
O O5 0.200264 0.271916 0.803252
O O6 0.000000 0.203497 0.750000
O O7 0.069002 0.203050 0.103013
O O8 0.092912 0.952452 0.667406
O O9 0.171936 0.575166 0.840774
O O10 0.752038 0.904816 0.089166
O O11 0.272469 0.292922 0.419016
O O12 0.760772 0.500000 0.000000
#
# Coordination Sequence:
#
# PCOD8155708 Si02
#       8
#     2   2   4   2   2   2   4   4
#     4  11  22  42  71 110 146 200 233 289 348 462
#     4  12  24  42  72 108 148 184 238 284 368 434
#     4  12  26  45  70 107 145 188 241 297 364 445
#     4  12  26  52  76 102 132 196 258 300 356 430
#     4  11  24  34  69 110 150 186 215 297 394 432
#     4  12  26  48  76  96 138 190 248 308 352 412
#     4  12  25  47  70 106 143 188 244 300 353 436
#     4  11  20  43  69 103 149 186 239 292 360 438
#
# _framework density 22.105722
#
# number of rings (size 3 to 8) (size 9 to 14) (size 15 to 20)
#    0.000    0.364    5.455    4.364    1.273    0.000 
#    0.000    3.636    0.000    0.000    0.000    0.000 
#    0.000    0.000    0.000    0.000    0.000    0.000 
#
# Total GULP energy -272626.434884 kJ/mol
# GULP energy per Si atom -12392.110677 kJ/mol
# Density = 2.205541 g / cm^3
# Si number density = 22.105722 Si / 1000 Ang^3
#
#
#
# Elastic Constant Matrix: (Units=GPa)
#
#
# Indices 1 2 3 4 5 6 
#
# 1 130.4068 52.6572 52.4142 0.0000 0.0000 0.0000
# 2 52.6572 156.8306 53.0517 0.0000 0.0000 0.0000
# 3 52.4142 53.0517 124.7259 0.0000 0.0000 0.0000
# 4 0.0000 0.0000 0.0000 30.9097 0.0000 0.0000
# 5 0.0000 0.0000 0.0000 0.0000 11.5523 0.0000
# 6 0.0000 0.0000 0.0000 0.0000 0.0000 32.3830
#
#
#
# Elastic Compliance Matrix: (Units=1/GPa)
#
#
# Indices 1 2 3 4 5 6 
#
# 1 0.009851 -0.002228 -0.003192 0.000000 0.000000 0.000000
# 2 -0.002228 0.007952 -0.002446 0.000000 0.000000 0.000000
# 3 -0.003192 -0.002446 0.010399 0.000000 0.000000 0.000000
# 4 0.000000 0.000000 0.000000 0.032352 0.000000 0.000000
# 5 0.000000 0.000000 0.000000 0.000000 0.086563 0.000000
# 6 0.000000 0.000000 0.000000 0.000000 0.000000 0.030880
#
#
# Mechanical properties :
#
#
# Convention : Reuss Voigt Hill
#
# Bulk Modulus (GPa) = 80.19105 80.91215 80.55160
# Shear Modulus (GPa) = 25.26705 31.89167 28.57936
#
# Velocity S-wave (km/s) = 3.38451 3.80239 3.59952
# Velocity P-wave (km/s) = 7.18527 7.48060 7.33442
#
# Compressibility (1/GPa) = 0.01247022
#
# Stress axis : x y z
#
# Youngs Moduli (GPa) = 101.51416 125.75901 96.15885
#
# Poissons Ratio (x) = 0.28015 0.30695
# Poissons Ratio (y) = 0.22614 0.23521
# Poissons Ratio (z) = 0.32405 0.30762
#
# Static dielectric constant tensor:
#      x y z
#    x 3.904440 0.000000 0.000000 
#    y 0.000000 4.010100 0.000000 
#    z 0.000000 0.000000 4.410930 
# 
# 
# High freq. dielectric constant tensor:
#      x y z
#    x 1.866370 0.000000 0.000000 
#    y 0.000000 1.863930 0.000000 
#    z 0.000000 0.000000 1.892890 
# 
# From -- ./inp_files/2130.got.cif
#   From: 2010.03.12/outbox.cif.g09.slc.cpg/sg17_2_cif.got.tgz:2130.got - 2010.04.10 18:46:23.
