data_PCOD8155570
_publ_section_title
;
Structure prediction by ZEFSAII (Michael W. Deem and Ramdas Pophale) SiO2 
 PCOD8155570
Probable space group: P 2 2 21
;
_chemical_formula_sum "Si O2"
_cell_formula_units_Z 26
_cell_length_a 6.430243
_cell_length_b 9.040922
_cell_length_c 23.525871
_cell_angle_alpha 90.000000
_cell_angle_beta 90.000000
_cell_angle_gamma 90.000000
_cell_volume 1367.684166
_symmetry_space_group_name_H-M "P 2 2 21"
_symmetry_group_IT_number 17
_symmetry_cell_setting 'orthorhombic'
loop_
_space_group_symop_operation_xyz
x,y,z
-x,-y,1/2+z
x,-y,-z
-x,y,1/2-z
loop_
_atom_site_type_symbol
_atom_site_label
_atom_site_fract_x
_atom_site_fract_y
_atom_site_fract_z
Si Si1 0.199410 0.838867 0.008905
Si Si2 0.470044 0.170646 0.410540
Si Si3 0.800218 0.328043 0.008191
Si Si4 0.381553 0.366371 0.694899
Si Si5 0.000000 0.483124 0.250000
Si Si6 0.381818 0.656975 0.805851
Si Si7 0.555469 0.836439 0.089264
O O1 0.311364 0.823953 0.070904
O O2 0.378301 0.826344 0.963215
O O3 0.044619 0.703687 0.998165
O O4 0.090321 0.000000 0.000000
O O5 0.279265 0.278237 0.429065
O O6 0.595562 0.222024 0.354861
O O7 0.381527 0.006739 0.400964
O O8 0.753615 0.500000 0.000000
O O9 0.697102 0.232338 0.959098
O O10 0.500000 0.302576 0.750000
O O11 0.145323 0.412731 0.710689
O O12 0.506402 0.508565 0.672103
O O13 0.389123 0.241865 0.647807
O O14 0.858905 0.377977 0.290590
O O15 0.500000 0.717097 0.750000
#
# Coordination Sequence:
#
# PCOD8155570 Si02
#       7
#     4   4   4   4   2   4   4
#     4   9  20  37  54  77 110 144 175 216 269 322
#     4  10  21  37  56  80 111 143 178 222 271 322
#     4  11  22  35  56  82 108 142 181 221 266 320
#     4   9  19  35  56  80 109 143 182 224 269 319
#     4   8  18  36  56  82 110 140 182 228 270 316
#     4   9  19  35  56  80 109 143 182 224 269 319
#     4  10  21  37  56  80 111 143 178 222 271 322
#
# _framework density 19.010237
#
# number of rings (size 3 to 8) (size 9 to 14) (size 15 to 20)
#    0.000    2.769    0.000    3.231    0.000   10.462 
#    0.000    0.000    0.000    7.385    0.000    0.000 
#    0.000    0.000    0.000    0.000    0.000    0.000 
#
# Total GULP energy -322274.119238 kJ/mol
# GULP energy per Si atom -12395.158432 kJ/mol
# Density = 1.896697 g / cm^3
# Si number density = 19.010237 Si / 1000 Ang^3
#
#
#
# Elastic Constant Matrix: (Units=GPa)
#
#
# Indices 1 2 3 4 5 6 
#
# 1 93.2036 38.4002 26.0095 0.0000 0.0000 0.0000
# 2 38.4002 121.8290 53.4915 0.0000 0.0000 0.0000
# 3 26.0095 53.4915 99.3760 0.0000 0.0000 0.0000
# 4 0.0000 0.0000 0.0000 26.1017 0.0000 0.0000
# 5 0.0000 0.0000 0.0000 0.0000 13.3875 0.0000
# 6 0.0000 0.0000 0.0000 0.0000 0.0000 21.9222
#
#
#
# Elastic Compliance Matrix: (Units=1/GPa)
#
#
# Indices 1 2 3 4 5 6 
#
# 1 0.012500 -0.003278 -0.001507 0.000000 0.000000 0.000000
# 2 -0.003278 0.011608 -0.005390 0.000000 0.000000 0.000000
# 3 -0.001507 -0.005390 0.013359 0.000000 0.000000 0.000000
# 4 0.000000 0.000000 0.000000 0.038312 0.000000 0.000000
# 5 0.000000 0.000000 0.000000 0.000000 0.074696 0.000000
# 6 0.000000 0.000000 0.000000 0.000000 0.000000 0.045616
#
#
# Mechanical properties :
#
#
# Convention : Reuss Voigt Hill
#
# Bulk Modulus (GPa) = 58.42549 61.13457 59.78003
# Shear Modulus (GPa) = 22.50748 25.38279 23.94514
#
# Velocity S-wave (km/s) = 3.44461 3.65803 3.55292
# Velocity P-wave (km/s) = 6.82795 7.07602 6.95309
#
# Compressibility (1/GPa) = 0.01711582
#
# Stress axis : x y z
#
# Youngs Moduli (GPa) = 79.99698 86.14487 74.85730
#
# Poissons Ratio (x) = 0.28242 0.11281
# Poissons Ratio (y) = 0.26226 0.40351
# Poissons Ratio (z) = 0.12056 0.46436
#
# Static dielectric constant tensor:
#      x y z
#    x 3.566980 0.000000 0.000000 
#    y 0.000000 3.518610 0.000000 
#    z 0.000000 0.000000 3.587860 
# 
# 
# High freq. dielectric constant tensor:
#      x y z
#    x 1.737880 0.000000 0.000000 
#    y 0.000000 1.731020 0.000000 
#    z 0.000000 0.000000 1.734400 
# 
# From -- ./inp_files/10862.got.cif
#   From: 2010.03.12/outbox.cif.g09.slc.cpg/sg17_6_cif.got.tgz:10862.got - 2010.04.10 18:46:23.
