data_PCOD8155338
_publ_section_title
;
Structure prediction by ZEFSAII (Michael W. Deem and Ramdas Pophale) SiO2 
 PCOD8155338
Probable space group: P 2 2 2
;
_chemical_formula_sum "Si O2"
_cell_formula_units_Z 32
_cell_length_a 11.255886
_cell_length_b 11.805572
_cell_length_c 13.256635
_cell_angle_alpha 90.000000
_cell_angle_beta 90.000000
_cell_angle_gamma 90.000000
_cell_volume 1761.570460
_symmetry_space_group_name_H-M "P 2 2 2"
_symmetry_group_IT_number 16
_symmetry_cell_setting 'orthorhombic'
loop_
_space_group_symop_operation_xyz
x,y,z
-x,-y,z
x,-y,-z
-x,y,-z
loop_
_atom_site_type_symbol
_atom_site_label
_atom_site_fract_x
_atom_site_fract_y
_atom_site_fract_z
Si Si1 0.124688 0.026795 0.884211
Si Si2 0.059960 0.647946 0.889061
Si Si3 0.736134 0.183727 0.875543
Si Si4 0.832812 0.565390 0.807756
Si Si5 0.305609 0.503294 0.616848
Si Si6 0.715139 0.225390 0.106098
Si Si7 0.500534 0.135196 0.772248
Si Si8 0.503471 0.317146 0.614411
O O1 0.233412 0.946904 0.853046
O O2 0.165187 0.155699 0.864125
O O3 0.000000 0.000000 0.826703
O O4 0.101964 0.000000 0.000000
O O5 0.142786 0.749417 0.850312
O O6 0.144134 0.536296 0.887813
O O7 0.956752 0.635125 0.804633
O O8 0.000000 0.667977 0.000000
O O9 0.621599 0.198313 0.806330
O O10 0.698348 0.221501 0.986849
O O11 0.801129 0.516863 0.696612
O O12 0.729241 0.646679 0.852372
O O13 0.260013 0.500000 0.500000
O O14 0.399689 0.405186 0.637685
O O15 0.369469 0.623694 0.639857
O O16 0.599489 0.164584 0.147479
O O17 0.474863 0.198947 0.668464
O O18 0.500000 0.000000 0.756666
O O19 0.500000 0.280807 0.500000
#
# Coordination Sequence:
#
# PCOD8155338 Si02
#       8
#     4   4   4   4   4   4   4   4
#     4   9  18  31  50  75 103 148 203 236 261 317
#     4  11  23  37  55  81 114 158 193 232 271 336
#     4  11  22  35  53  77 117 156 193 232 281 331
#     4  11  20  35  58  82 112 145 189 233 287 336
#     4   9  18  36  62  87 112 142 183 240 297 356
#     4  11  21  34  54  79 115 156 188 234 283 333
#     4  12  23  37  55  84 120 151 191 244 299 343
#     4   9  19  37  60  84 111 147 189 235 295 359
#
# _framework density 18.165607999999999
#
# number of rings (size 3 to 8) (size 9 to 14) (size 15 to 20)
#    0.000    1.625    3.750    3.375    1.750    0.750 
#    0.000    1.250    0.000    1.500    0.000    0.000 
#    0.000    1.000    0.000    0.000    0.000    0.000 
#
# Total GULP energy -396422.282555 kJ/mol
# GULP energy per Si atom -12388.196330 kJ/mol
# Density = 1.812426 g / cm^3
# Si number density = 18.165608 Si / 1000 Ang^3
#
#
#
# Elastic Constant Matrix: (Units=GPa)
#
#
# Indices 1 2 3 4 5 6 
#
# 1 76.5824 13.6639 34.9627 0.0000 0.0000 0.0000
# 2 13.6639 81.9454 28.7460 0.0000 0.0000 0.0000
# 3 34.9627 28.7460 73.3952 0.0000 0.0000 0.0000
# 4 0.0000 0.0000 0.0000 23.3653 0.0000 0.0000
# 5 0.0000 0.0000 0.0000 0.0000 29.6584 0.0000
# 6 0.0000 0.0000 0.0000 0.0000 0.0000 29.2477
#
#
#
# Elastic Compliance Matrix: (Units=1/GPa)
#
#
# Indices 1 2 3 4 5 6 
#
# 1 0.016687 0.000007 -0.007952 0.000000 0.000000 0.000000
# 2 0.000007 0.014147 -0.005544 0.000000 0.000000 0.000000
# 3 -0.007952 -0.005544 0.019584 0.000000 0.000000 0.000000
# 4 0.000000 0.000000 0.000000 0.042798 0.000000 0.000000
# 5 0.000000 0.000000 0.000000 0.000000 0.033717 0.000000
# 6 0.000000 0.000000 0.000000 0.000000 0.000000 0.034191
#
#
# Mechanical properties :
#
#
# Convention : Reuss Voigt Hill
#
# Bulk Modulus (GPa) = 42.66165 42.96312 42.81239
# Shear Modulus (GPa) = 25.52121 26.75765 26.13943
#
# Velocity S-wave (km/s) = 3.75229 3.84211 3.79747
# Velocity P-wave (km/s) = 6.50452 6.58670 6.54574
#
# Compressibility (1/GPa) = 0.02344026
#
# Stress axis : x y z
#
# Youngs Moduli (GPa) = 59.92745 70.68667 51.06165
#
# Poissons Ratio (x) = -0.00049 0.40603
# Poissons Ratio (y) = -0.00042 0.28309
# Poissons Ratio (z) = 0.47653 0.39190
#
# Static dielectric constant tensor:
#      x y z
#    x 3.606430 0.000000 0.000000 
#    y 0.000000 -0.209030 0.000000 
#    z 0.000000 0.000000 3.078730 
# 
# 
# High freq. dielectric constant tensor:
#      x y z
#    x 1.707710 0.000000 0.000000 
#    y 0.000000 1.713950 0.000000 
#    z 0.000000 0.000000 1.664270 
# 
# From -- ./inp_files/6937.got.cif
#   From: 2010.03.12/outbox.cif.g09.slc.cpg/sg16_4_cif.got.tgz:6937.got - 2010.03.31 00:51:45.
