data_PCOD8155860
_publ_section_title
;
Structure prediction by ZEFSAII (Michael W. Deem and Ramdas Pophale) SiO2 
 PCOD8155860
Probable space group: P 21 21 2
;
_chemical_formula_sum "Si O2"
_cell_formula_units_Z 32
_cell_length_a 22.259602
_cell_length_b 5.384369
_cell_length_c 12.532008
_cell_angle_alpha 90.000000
_cell_angle_beta 90.000000
_cell_angle_gamma 90.000000
_cell_volume 1502.010171
_symmetry_space_group_name_H-M "P 21 21 2"
_symmetry_group_IT_number 18
_symmetry_cell_setting 'orthorhombic'
loop_
_space_group_symop_operation_xyz
x,y,z
-x,-y,z
1/2+x,1/2-y,-z
1/2-x,1/2+y,-z
loop_
_atom_site_type_symbol
_atom_site_label
_atom_site_fract_x
_atom_site_fract_y
_atom_site_fract_z
Si Si1 0.065880 0.487141 0.058743
Si Si2 0.824538 0.775772 0.989476
Si Si3 0.353356 0.354860 0.838428
Si Si4 0.266577 0.244295 0.366836
Si Si5 0.757039 0.513016 0.158139
Si Si6 0.174877 0.244903 0.550853
Si Si7 0.964051 0.746129 0.503239
Si Si8 0.055030 0.164720 0.261997
O O1 0.106568 0.318127 0.980646
O O2 0.096126 0.752332 0.078567
O O3 0.063131 0.384630 0.179009
O O4 0.000000 0.500000 0.005839
O O5 0.782351 0.559308 0.037918
O O6 0.815458 0.969127 0.085429
O O7 0.805095 0.869780 0.871664
O O8 0.384667 0.495916 0.739318
O O9 0.307442 0.159409 0.784812
O O10 0.253317 0.258463 0.239406
O O11 0.204118 0.248515 0.432664
O O12 0.305259 0.490765 0.392046
O O13 0.302693 0.990104 0.386378
O O14 0.102679 0.249504 0.551819
O O15 0.956927 0.720711 0.376769
O O16 0.000000 0.500000 0.543537
O O17 0.000000 0.000000 0.533401
O O18 0.000000 0.000000 0.221983
#
# Coordination Sequence:
#
# PCOD8155860 Si02
#       8
#     4   4   4   4   4   4   4   4
#     4  10  19  34  53  80 120 167 200 245 302 363
#     4  10  22  35  55  89 121 157 205 254 300 388
#     4  10  21  33  52  83 122 160 189 250 293 377
#     4  10  24  40  67  87 128 170 207 272 309 374
#     4  11  22  38  59  86 123 164 209 252 324 360
#     4  10  23  44  60  98 122 161 222 253 318 382
#     4  11  24  38  63  92 127 165 199 264 319 381
#     4  10  20  31  52  85 122 159 202 232 304 388
#
# _framework density 21.304780999999998
#
# number of rings (size 3 to 8) (size 9 to 14) (size 15 to 20)
#    0.000    1.750    2.500    1.125    8.750    2.000 
#    0.000    0.000    0.000    0.750    6.500    0.000 
#    0.000    0.000    0.000    0.000    0.000    0.000 
#
# Total GULP energy -396536.039599 kJ/mol
# GULP energy per Si atom -12391.751237 kJ/mol
# Density = 2.125629 g / cm^3
# Si number density = 21.304781 Si / 1000 Ang^3
#
#
#
# Elastic Constant Matrix: (Units=GPa)
#
#
# Indices 1 2 3 4 5 6 
#
# 1 142.6322 38.9632 29.2662 0.0000 0.0000 0.0000
# 2 38.9632 97.4546 7.1972 0.0000 0.0000 0.0000
# 3 29.2662 7.1972 47.2339 0.0000 0.0000 0.0000
# 4 0.0000 0.0000 0.0000 12.0256 0.0000 0.0000
# 5 0.0000 0.0000 0.0000 0.0000 21.7929 0.0000
# 6 0.0000 0.0000 0.0000 0.0000 0.0000 32.8762
#
#
#
# Elastic Compliance Matrix: (Units=1/GPa)
#
#
# Indices 1 2 3 4 5 6 
#
# 1 0.008917 -0.003193 -0.005039 0.000000 0.000000 0.000000
# 2 -0.003193 0.011521 0.000223 0.000000 0.000000 0.000000
# 3 -0.005039 0.000223 0.024259 0.000000 0.000000 0.000000
# 4 0.000000 0.000000 0.000000 0.083156 0.000000 0.000000
# 5 0.000000 0.000000 0.000000 0.000000 0.045887 0.000000
# 6 0.000000 0.000000 0.000000 0.000000 0.000000 0.030417
#
#
# Mechanical properties :
#
#
# Convention : Reuss Voigt Hill
#
# Bulk Modulus (GPa) = 34.86727 48.68600 41.77664
# Shear Modulus (GPa) = 21.76421 27.46520 24.61470
#
# Velocity S-wave (km/s) = 3.19966 3.59438 3.40275
# Velocity P-wave (km/s) = 5.48196 6.33465 5.92367
#
# Compressibility (1/GPa) = 0.02868019
#
# Stress axis : x y z
#
# Youngs Moduli (GPa) = 112.14377 86.79548 41.22160
#
# Poissons Ratio (x) = 0.27714 0.20770
# Poissons Ratio (y) = 0.35808 -0.00919
# Poissons Ratio (z) = 0.56504 -0.01934
#
# Static dielectric constant tensor:
#      x y z
#    x 4.299100 0.000000 0.000000 
#    y 0.000000 4.055820 0.000000 
#    z 0.000000 0.000000 3.264630 
# 
# 
# High freq. dielectric constant tensor:
#      x y z
#    x 1.846660 0.000000 0.000000 
#    y 0.000000 1.853260 0.000000 
#    z 0.000000 0.000000 1.779090 
# 
# From -- ./inp_files/7023.got.cif
#   From: 2010.03.12/outbox.cif.g09.slc.cpg/sg18_4_cif.got.tgz:7023.got - 2010.04.10 18:53:55.
