data_PCOD8155344
_publ_section_title
;
Structure prediction by ZEFSAII (Michael W. Deem and Ramdas Pophale) SiO2 
 PCOD8155344
Probable space group: P 2 2 2
;
_chemical_formula_sum "Si O2"
_cell_formula_units_Z 24
_cell_length_a 11.517457
_cell_length_b 12.262364
_cell_length_c 8.071361
_cell_angle_alpha 90.000000
_cell_angle_beta 90.000000
_cell_angle_gamma 90.000000
_cell_volume 1139.928404
_symmetry_space_group_name_H-M "P 2 2 2"
_symmetry_group_IT_number 16
_symmetry_cell_setting 'orthorhombic'
loop_
_space_group_symop_operation_xyz
x,y,z
-x,-y,z
x,-y,-z
-x,y,-z
loop_
_atom_site_type_symbol
_atom_site_label
_atom_site_fract_x
_atom_site_fract_y
_atom_site_fract_z
Si Si1 0.745291 0.190304 0.220064
Si Si2 0.734464 0.221374 0.834123
Si Si3 0.500687 0.876088 0.304850
Si Si4 0.139274 0.433392 0.170203
Si Si5 0.924786 0.635293 0.664344
Si Si6 0.872763 0.981253 0.195723
O O1 0.610043 0.197560 0.260930
O O2 0.826341 0.273242 0.321038
O O3 0.785658 0.069537 0.273318
O O4 0.756992 0.213218 0.027902
O O5 0.606913 0.189292 0.775211
O O6 0.758881 0.347111 0.789192
O O7 0.826784 0.137979 0.751039
O O8 0.500000 0.882716 0.500000
O O9 0.500000 0.000000 0.230888
O O10 0.139906 0.517749 0.325660
O O11 0.015031 0.368202 0.177579
O O12 0.159416 0.500000 0.000000
O O13 0.000000 0.653499 0.500000
O O14 0.000000 0.000000 0.272219
O O15 0.875628 0.000000 0.000000
#
# Coordination Sequence:
#
# PCOD8155344 Si02
#       6
#     4   4   4   4   4   4
#     4  11  22  40  67  97 131 176 232 278 336 411
#     4  11  22  39  71  97 128 177 231 288 336 405
#     4  11  25  45  66  95 137 184 226 279 352 422
#     4  11  22  41  67  99 133 173 227 282 339 407
#     4  11  24  41  66  99 138 184 217 272 350 418
#     4   9  18  33  58  99 132 160 207 276 341 399
#
# _framework density 21.053954000000001
#
# number of rings (size 3 to 8) (size 9 to 14) (size 15 to 20)
#    0.000    1.333    3.333    3.500    2.333    2.000 
#    0.000    0.833    0.000    1.000    0.000    0.000 
#    0.000    0.000    0.000    0.000    0.000    0.000 
#
# Total GULP energy -297417.679600 kJ/mol
# GULP energy per Si atom -12392.403317 kJ/mol
# Density = 2.100603 g / cm^3
# Si number density = 21.053954 Si / 1000 Ang^3
#
#
#
# Elastic Constant Matrix: (Units=GPa)
#
#
# Indices 1 2 3 4 5 6 
#
# 1 164.9697 93.9285 39.1143 0.0000 0.0000 0.0000
# 2 93.9285 159.6993 45.3235 0.0000 0.0000 0.0000
# 3 39.1143 45.3235 58.2845 0.0000 0.0000 0.0000
# 4 0.0000 0.0000 0.0000 21.2166 0.0000 0.0000
# 5 0.0000 0.0000 0.0000 0.0000 29.2709 0.0000
# 6 0.0000 0.0000 0.0000 0.0000 0.0000 47.8822
#
#
#
# Elastic Compliance Matrix: (Units=1/GPa)
#
#
# Indices 1 2 3 4 5 6 
#
# 1 0.009407 -0.004800 -0.002580 0.000000 0.000000 0.000000
# 2 -0.004800 0.010485 -0.004932 0.000000 0.000000 0.000000
# 3 -0.002580 -0.004932 0.022724 0.000000 0.000000 0.000000
# 4 0.000000 0.000000 0.000000 0.047133 0.000000 0.000000
# 5 0.000000 0.000000 0.000000 0.000000 0.034164 0.000000
# 6 0.000000 0.000000 0.000000 0.000000 0.000000 0.020885
#
#
# Mechanical properties :
#
#
# Convention : Reuss Voigt Hill
#
# Bulk Modulus (GPa) = 55.58304 82.18732 68.88518
# Shear Modulus (GPa) = 28.50351 33.31309 30.90830
#
# Velocity S-wave (km/s) = 3.68344 3.98209 3.83567
# Velocity P-wave (km/s) = 6.67442 7.76299 7.23920
#
# Compressibility (1/GPa) = 0.01799110
#
# Stress axis : x y z
#
# Youngs Moduli (GPa) = 106.30857 95.37593 44.00723
#
# Poissons Ratio (x) = 0.45784 0.11353
# Poissons Ratio (y) = 0.51032 0.21703
# Poissons Ratio (z) = 0.27425 0.47037
#
# Static dielectric constant tensor:
#      x y z
#    x 3.745660 0.000000 0.000000 
#    y 0.000000 4.133330 0.000000 
#    z 0.000000 0.000000 3.648860 
# 
# 
# High freq. dielectric constant tensor:
#      x y z
#    x 1.817490 0.000000 0.000000 
#    y 0.000000 1.828140 0.000000 
#    z 0.000000 0.000000 1.811700 
# 
# From -- ./inp_files/4720.got.cif
#   From: 2010.03.12/outbox.cif.g09.slc.cpg/sg16_3_cif.got.tgz:4720.got - 2010.03.31 00:51:45.
