data_PCOD8155516
_publ_section_title
;
Structure prediction by ZEFSAII (Michael W. Deem and Ramdas Pophale) SiO2 
 PCOD8155516
Probable space group: P 2 2 21
;
_chemical_formula_sum "Si O2"
_cell_formula_units_Z 18
_cell_length_a 12.309038
_cell_length_b 14.043592
_cell_length_c 5.047640
_cell_angle_alpha 90.000000
_cell_angle_beta 90.000000
_cell_angle_gamma 90.000000
_cell_volume 872.550736
_symmetry_space_group_name_H-M "P 2 2 21"
_symmetry_group_IT_number 17
_symmetry_cell_setting 'orthorhombic'
loop_
_space_group_symop_operation_xyz
x,y,z
-x,-y,1/2+z
x,-y,-z
-x,y,1/2-z
loop_
_atom_site_type_symbol
_atom_site_label
_atom_site_fract_x
_atom_site_fract_y
_atom_site_fract_z
Si Si1 0.623420 0.298494 0.668912
Si Si2 0.128453 0.443907 0.249123
Si Si3 0.753036 0.254460 0.179862
Si Si4 0.928174 0.888901 0.995304
Si Si5 0.571543 0.500000 0.500000
O O1 0.500000 0.271683 0.750000
O O2 0.677054 0.230199 0.439506
O O3 0.640638 0.405378 0.557444
O O4 0.681928 0.295844 0.946731
O O5 0.177167 0.500000 0.500000
O O6 0.159988 0.333526 0.235856
O O7 0.000000 0.447952 0.250000
O O8 0.177054 0.500000 0.000000
O O9 0.813697 0.163714 0.050017
O O10 0.000000 0.859737 0.750000
O O11 0.000000 0.857549 0.250000
O O12 0.899870 0.000000 0.000000
O O13 0.500000 0.472106 0.250000
#
# Coordination Sequence:
#
# PCOD8155516 Si02
#       5
#     4   4   4   4   2
#     4  11  24  39  57  86 122 163 213 264 302 354
#     4  10  22  37  52  79 119 157 194 237 291 368
#     4  12  23  37  64  87 120 165 206 253 307 382
#     4  10  22  42  68  98 126 153 200 264 321 379
#     4  10  20  38  56  76 112 158 210 260 300 334
#
# _framework density 20.629172000000001
#
# number of rings (size 3 to 8) (size 9 to 14) (size 15 to 20)
#    0.000    1.333    0.000    6.667    4.667    2.667 
#    0.000    0.000    0.000    2.667    0.000    1.556 
#    0.000    0.000    0.000    0.000    0.000    0.000 
#
# Total GULP energy -223094.219918 kJ/mol
# GULP energy per Si atom -12394.123329 kJ/mol
# Density = 2.058222 g / cm^3
# Si number density = 20.629172 Si / 1000 Ang^3
#
#
#
# Elastic Constant Matrix: (Units=GPa)
#
#
# Indices 1 2 3 4 5 6 
#
# 1 78.7477 39.7370 42.3399 0.0000 0.0000 0.0000
# 2 39.7370 70.5746 28.6459 0.0000 0.0000 0.0000
# 3 42.3399 28.6459 165.8081 0.0000 0.0000 0.0000
# 4 0.0000 0.0000 0.0000 35.9794 0.0000 0.0000
# 5 0.0000 0.0000 0.0000 0.0000 32.7827 0.0000
# 6 0.0000 0.0000 0.0000 0.0000 0.0000 17.8514
#
#
#
# Elastic Compliance Matrix: (Units=1/GPa)
#
#
# Indices 1 2 3 4 5 6 
#
# 1 0.019261 -0.009516 -0.003274 0.000000 0.000000 0.000000
# 2 -0.009516 0.019939 -0.001015 0.000000 0.000000 0.000000
# 3 -0.003274 -0.001015 0.007043 0.000000 0.000000 0.000000
# 4 0.000000 0.000000 0.000000 0.027794 0.000000 0.000000
# 5 0.000000 0.000000 0.000000 0.000000 0.030504 0.000000
# 6 0.000000 0.000000 0.000000 0.000000 0.000000 0.056018
#
#
# Mechanical properties :
#
#
# Convention : Reuss Voigt Hill
#
# Bulk Modulus (GPa) = 53.66949 59.61955 56.64452
# Shear Modulus (GPa) = 25.72284 30.94987 28.33636
#
# Velocity S-wave (km/s) = 3.53500 3.87757 3.71024
# Velocity P-wave (km/s) = 6.53716 7.00077 6.77293
#
# Compressibility (1/GPa) = 0.01863256
#
# Stress axis : x y z
#
# Youngs Moduli (GPa) = 51.91792 50.15232 141.99419
#
# Poissons Ratio (x) = 0.47725 0.46495
# Poissons Ratio (y) = 0.49405 0.14411
# Poissons Ratio (z) = 0.17000 0.05090
#
# Static dielectric constant tensor:
#      x y z
#    x 3.748530 0.000000 0.000000 
#    y 0.000000 3.457310 0.000000 
#    z 0.000000 0.000000 4.262550 
# 
# 
# High freq. dielectric constant tensor:
#      x y z
#    x 1.815140 0.000000 0.000000 
#    y 0.000000 1.768380 0.000000 
#    z 0.000000 0.000000 1.837950 
# 
# From -- ./inp_files/1324.got.cif
#   From: 2010.03.12/outbox.cif.g09.slc.cpg/sg17_1_cif.got.tgz:1324.got - 2010.04.10 18:46:23.
