data_PCOD8155513
_publ_section_title
;
Structure prediction by ZEFSAII (Michael W. Deem and Ramdas Pophale) SiO2 
 PCOD8155513
Probable space group: P 2 2 21
;
_chemical_formula_sum "Si O2"
_cell_formula_units_Z 24
_cell_length_a 7.580896
_cell_length_b 8.548772
_cell_length_c 18.748016
_cell_angle_alpha 90.000000
_cell_angle_beta 90.000000
_cell_angle_gamma 90.000000
_cell_volume 1215.009262
_symmetry_space_group_name_H-M "P 2 2 21"
_symmetry_group_IT_number 17
_symmetry_cell_setting 'orthorhombic'
loop_
_space_group_symop_operation_xyz
x,y,z
-x,-y,1/2+z
x,-y,-z
-x,y,1/2-z
loop_
_atom_site_type_symbol
_atom_site_label
_atom_site_fract_x
_atom_site_fract_y
_atom_site_fract_z
Si Si1 0.319787 0.318269 0.172825
Si Si2 0.319787 0.318269 0.827175
Si Si3 0.307262 0.816744 0.675845
Si Si4 0.977952 0.817582 0.582168
Si Si5 0.977952 0.182418 0.582168
Si Si6 0.307262 0.816744 0.324155
O O1 0.309715 0.500000 0.191406
O O2 0.518520 0.274457 0.150707
O O3 0.259474 0.221794 0.242442
O O4 0.192539 0.277436 0.107545
O O5 0.192539 0.277436 0.892455
O O6 0.518520 0.274458 0.849293
O O7 0.259474 0.221794 0.757558
O O8 0.148057 0.760504 0.625957
O O9 0.342924 0.000000 0.667703
O O10 0.012547 0.778527 0.500000
O O11 0.942038 0.000000 0.594919
O O12 0.148057 0.239496 0.625958
#
# Coordination Sequence:
#
# PCOD8155513 Si02
#       6
#     4   4   4   4   4   4
#     4  11  22  36  57  85 115 146 181 227 281 333
#     4  11  22  36  57  85 115 146 181 227 281 333
#     4  10  20  37  61  84 108 145 191 234 273 320
#     4  10  22  39  58  81 110 146 187 229 274 327
#     4  10  22  39  58  81 110 146 187 229 274 327
#     4  10  20  37  61  84 108 145 191 234 273 320
#
# _framework density 19.752936999999999
#
# number of rings (size 3 to 8) (size 9 to 14) (size 15 to 20)
#    0.000    1.667    0.000    7.000    0.000    8.667 
#    0.000    3.333    0.000    0.000    0.000    0.000 
#    0.000    0.000    0.000    0.000    0.000    0.000 
#
# Total GULP energy -297749.490209 kJ/mol
# GULP energy per Si atom -12406.228759 kJ/mol
# Density = 1.970798 g / cm^3
# Si number density = 19.752937 Si / 1000 Ang^3
#
#
#
# Elastic Constant Matrix: (Units=GPa)
#
#
# Indices 1 2 3 4 5 6 
#
# 1 114.1429 29.6135 61.8583 0.0000 0.0000 0.0000
# 2 29.6135 53.3940 15.5345 0.0000 0.0000 0.0000
# 3 61.8583 15.5345 80.4679 0.0000 0.0000 0.0000
# 4 0.0000 0.0000 0.0000 8.1074 0.0000 0.0000
# 5 0.0000 0.0000 0.0000 0.0000 20.7013 0.0000
# 6 0.0000 0.0000 0.0000 0.0000 0.0000 6.2180
#
#
#
# Elastic Compliance Matrix: (Units=1/GPa)
#
#
# Indices 1 2 3 4 5 6 
#
# 1 0.016558 -0.005806 -0.011608 0.000000 0.000000 0.000000
# 2 -0.005806 0.021879 0.000240 0.000000 0.000000 0.000000
# 3 -0.011608 0.000240 0.021304 0.000000 0.000000 0.000000
# 4 0.000000 0.000000 0.000000 0.123344 0.000000 0.000000
# 5 0.000000 0.000000 0.000000 0.000000 0.048306 0.000000
# 6 0.000000 0.000000 0.000000 0.000000 0.000000 0.160823
#
#
# Mechanical properties :
#
#
# Convention : Reuss Voigt Hill
#
# Bulk Modulus (GPa) = 39.38126 51.33527 45.35827
# Shear Modulus (GPa) = 11.49352 16.40525 13.94938
#
# Velocity S-wave (km/s) = 2.41480 2.88500 2.66031
# Velocity P-wave (km/s) = 5.26832 6.09449 5.69640
#
# Compressibility (1/GPa) = 0.02539279
#
# Stress axis : x y z
#
# Youngs Moduli (GPa) = 60.39364 45.70539 46.93881
#
# Poissons Ratio (x) = 0.26538 0.54486
# Poissons Ratio (y) = 0.35066 -0.01125
# Poissons Ratio (z) = 0.70104 -0.01095
#
# Static dielectric constant tensor:
#      x y z
#    x 3.686240 0.000000 0.000000 
#    y 0.000000 3.544730 0.000000 
#    z 0.000000 0.000000 3.497980 
# 
# 
# High freq. dielectric constant tensor:
#      x y z
#    x 1.781280 0.000000 0.000000 
#    y 0.000000 1.770590 0.000000 
#    z 0.000000 0.000000 1.761020 
# 
# From -- ./inp_files/9403.got.cif
#   From: 2010.03.12/outbox.cif.g09.slc.cpg/sg17_5_cif.got.tgz:9403.got - 2010.04.10 18:46:23.
