data_PCOD8155328
_publ_section_title
;
Structure prediction by ZEFSAII (Michael W. Deem and Ramdas Pophale) SiO2 
 PCOD8155328
Probable space group: P 2 2 2
;
_chemical_formula_sum "Si O2"
_cell_formula_units_Z 20
_cell_length_a 8.679750
_cell_length_b 9.364359
_cell_length_c 11.382911
_cell_angle_alpha 90.000000
_cell_angle_beta 90.000000
_cell_angle_gamma 90.000000
_cell_volume 925.206364
_symmetry_space_group_name_H-M "P 2 2 2"
_symmetry_group_IT_number 16
_symmetry_cell_setting 'orthorhombic'
loop_
_space_group_symop_operation_xyz
x,y,z
-x,-y,z
x,-y,-z
-x,y,-z
loop_
_atom_site_type_symbol
_atom_site_label
_atom_site_fract_x
_atom_site_fract_y
_atom_site_fract_z
Si Si1 0.818609 0.025656 0.368651
Si Si2 0.500000 0.500000 0.500000
Si Si3 0.000000 0.000000 0.000000
Si Si4 0.500000 0.000000 0.000000
Si Si5 0.253733 0.849124 0.847741
Si Si6 0.318608 0.525655 0.868648
Si Si7 0.753734 0.650877 0.652259
Si Si8 0.000000 0.500000 0.500000
O O1 0.763493 0.180886 0.328154
O O2 0.757772 0.000000 0.500000
O O3 0.736733 0.914841 0.281968
O O4 0.000000 0.000000 0.360533
O O5 0.600542 0.602083 0.583519
O O6 0.100542 0.102083 0.083519
O O7 0.401727 0.894515 0.920835
O O8 0.263490 0.680885 0.828155
O O9 0.500000 0.500000 0.860519
O O10 0.236728 0.414841 0.781969
O O11 0.257783 0.500000 0.000000
O O12 0.901727 0.605486 0.579163
#
# Coordination Sequence:
#
# PCOD8155328 Si02
#       8
#     4   1   1   1   4   4   4   1
#     4  11  26  45  71 102 143 183 235 283 350 415
#     4  10  24  46  72 102 140 186 238 288 348 410
#     4  10  24  46  72 102 140 186 238 288 348 410
#     4  10  24  42  72  98 144 194 230 284 352 406
#     4  11  25  45  72 101 145 184 236 289 347 417
#     4  11  26  45  71 102 143 183 235 283 350 415
#     4  11  25  45  72 101 145 184 236 289 347 417
#     4  10  24  42  72  98 144 194 230 284 352 406
#
# _framework density 21.616799
#
# number of rings (size 3 to 8) (size 9 to 14) (size 15 to 20)
#    0.000    1.200    2.000    2.400   16.800    0.000 
#    0.000    0.000    0.000    0.000    0.000    0.000 
#    0.000    0.000    0.000    0.000    0.000    0.000 
#
# Total GULP energy -248113.533720 kJ/mol
# GULP energy per Si atom -12405.676686 kJ/mol
# Density = 2.156760 g / cm^3
# Si number density = 21.616799 Si / 1000 Ang^3
#
#
#
# Elastic Constant Matrix: (Units=GPa)
#
#
# Indices 1 2 3 4 5 6 
#
# 1 99.9133 46.3506 51.3590 0.0000 0.0000 0.0000
# 2 46.3506 202.2945 88.3436 0.0000 0.0000 0.0000
# 3 51.3590 88.3436 201.3934 0.0000 0.0000 0.0000
# 4 0.0000 0.0000 0.0000 47.9654 0.0000 0.0000
# 5 0.0000 0.0000 0.0000 0.0000 1096.5572 0.0000
# 6 0.0000 0.0000 0.0000 0.0000 0.0000 30.1273
#
#
#
# Elastic Compliance Matrix: (Units=1/GPa)
#
#
# Indices 1 2 3 4 5 6 
#
# 1 0.011998 -0.001748 -0.002293 0.000000 0.000000 0.000000
# 2 -0.001748 0.006369 -0.002348 0.000000 0.000000 0.000000
# 3 -0.002293 -0.002348 0.006580 0.000000 0.000000 0.000000
# 4 0.000000 0.000000 0.000000 0.020848 0.000000 0.000000
# 5 0.000000 0.000000 0.000000 0.000000 0.000912 0.000000
# 6 0.000000 0.000000 0.000000 0.000000 0.000000 0.033192
#
#
# Mechanical properties :
#
#
# Convention : Reuss Voigt Hill
#
# Bulk Modulus (GPa) = 82.17180 97.30085 89.73632
# Shear Modulus (GPa) = 51.68757 256.09986 153.89371
#
# Velocity S-wave (km/s) = 4.89518 10.89632 8.44667
# Velocity P-wave (km/s) = 8.36934 14.26239 11.69319
#
# Compressibility (1/GPa) = 0.01216963
#
# Stress axis : x y z
#
# Youngs Moduli (GPa) = 83.34598 157.00524 151.96917
#
# Poissons Ratio (x) = 0.27439 0.34849
# Poissons Ratio (y) = 0.14566 0.35686
# Poissons Ratio (z) = 0.19112 0.36869
#
# Static dielectric constant tensor:
#      x y z
#    x 3.648170 0.000000 0.000000 
#    y 0.000000 3.899540 0.000000 
#    z 0.000000 0.000000 4.293160 
# 
# 
# High freq. dielectric constant tensor:
#      x y z
#    x 1.846250 0.000000 0.000000 
#    y 0.000000 1.856030 0.000000 
#    z 0.000000 0.000000 1.872560 
# 
# From -- ./inp_files/6434.got.cif
#   From: 2010.03.12/outbox.cif.g09.slc.cpg/sg16_4_cif.got.tgz:6434.got - 2010.03.31 00:51:45.
