data_PCOD8155573
_publ_section_title
;
Structure prediction by ZEFSAII (Michael W. Deem and Ramdas Pophale) SiO2 
 PCOD8155573
Probable space group: P 2 2 21
;
_chemical_formula_sum "Si O2"
_cell_formula_units_Z 18
_cell_length_a 16.415298
_cell_length_b 13.050480
_cell_length_c 5.014608
_cell_angle_alpha 90.000000
_cell_angle_beta 90.000000
_cell_angle_gamma 90.000000
_cell_volume 1074.267027
_symmetry_space_group_name_H-M "P 2 2 21"
_symmetry_group_IT_number 17
_symmetry_cell_setting 'orthorhombic'
loop_
_space_group_symop_operation_xyz
x,y,z
-x,-y,1/2+z
x,-y,-z
-x,y,1/2-z
loop_
_atom_site_type_symbol
_atom_site_label
_atom_site_fract_x
_atom_site_fract_y
_atom_site_fract_z
Si Si1 0.843702 0.306011 0.586493
Si Si2 0.412844 0.572112 0.747317
Si Si3 0.056001 0.883229 0.000993
Si Si4 0.754775 0.381301 0.078516
Si Si5 0.000000 0.431508 0.750000
O O1 0.863861 0.188011 0.514696
O O2 0.816873 0.362308 0.317833
O O3 0.924255 0.360425 0.687788
O O4 0.775654 0.312031 0.819991
O O5 0.425950 0.500000 0.500000
O O6 0.500000 0.633463 0.750000
O O7 0.336083 0.646789 0.687818
O O8 0.393047 0.500000 0.000000
O O9 0.000000 0.860476 0.250000
O O10 0.000000 0.856258 0.750000
O O11 0.087614 0.000000 0.000000
O O12 0.759320 0.500000 0.000000
O O13 0.025313 0.500000 0.500000
#
# Coordination Sequence:
#
# PCOD8155573 Si02
#       5
#     4   4   4   4   2
#     4  12  22  34  49  69  96 129 168 201 243 285
#     4   9  17  30  48  68  94 132 170 198 232 280
#     4  10  21  38  55  69  87 120 168 218 257 284
#     4  11  21  33  47  71 103 133 160 196 237 285
#     4  12  24  32  44  64  96 134 166 190 220 282
#
# _framework density 16.755610000000001
#
# number of rings (size 3 to 8) (size 9 to 14) (size 15 to 20)
#    0.000    1.333    1.111    8.000    1.556    0.000 
#    0.000    0.000    0.000    0.000    0.000    0.000 
#    0.000    3.556    0.000    3.111    0.000    0.000 
#
# Total GULP energy -223120.652874 kJ/mol
# GULP energy per Si atom -12395.591826 kJ/mol
# Density = 1.671747 g / cm^3
# Si number density = 16.755610 Si / 1000 Ang^3
#
#
#
# Elastic Constant Matrix: (Units=GPa)
#
#
# Indices 1 2 3 4 5 6 
#
# 1 106.3509 53.9246 38.1905 0.0000 0.0000 0.0000
# 2 53.9246 77.8532 34.4970 0.0000 0.0000 0.0000
# 3 38.1905 34.4970 127.0331 0.0000 0.0000 0.0000
# 4 0.0000 0.0000 0.0000 18.7989 0.0000 0.0000
# 5 0.0000 0.0000 0.0000 0.0000 55.6384 0.0000
# 6 0.0000 0.0000 0.0000 0.0000 0.0000 3.7642
#
#
#
# Elastic Compliance Matrix: (Units=1/GPa)
#
#
# Indices 1 2 3 4 5 6 
#
# 1 0.014887 -0.009468 -0.001905 0.000000 0.000000 0.000000
# 2 -0.009468 0.020623 -0.002754 0.000000 0.000000 0.000000
# 3 -0.001905 -0.002754 0.009192 0.000000 0.000000 0.000000
# 4 0.000000 0.000000 0.000000 0.053195 0.000000 0.000000
# 5 0.000000 0.000000 0.000000 0.000000 0.017973 0.000000
# 6 0.000000 0.000000 0.000000 0.000000 0.000000 0.265663
#
#
# Mechanical properties :
#
#
# Convention : Reuss Voigt Hill
#
# Bulk Modulus (GPa) = 60.79053 62.71793 61.75423
# Shear Modulus (GPa) = 12.04041 27.94866 19.99453
#
# Velocity S-wave (km/s) = 2.68356 4.08857 3.45817
# Velocity P-wave (km/s) = 6.77949 7.73310 7.27194
#
# Compressibility (1/GPa) = 0.01644993
#
# Stress axis : x y z
#
# Youngs Moduli (GPa) = 67.17143 48.49025 108.78531
#
# Poissons Ratio (x) = 0.45909 0.20719
# Poissons Ratio (y) = 0.63596 0.29959
# Poissons Ratio (z) = 0.12793 0.13354
#
# Static dielectric constant tensor:
#      x y z
#    x 3.819160 0.000000 0.000000 
#    y 0.000000 1.304300 0.000000 
#    z 0.000000 0.000000 3.454130 
# 
# 
# High freq. dielectric constant tensor:
#      x y z
#    x 1.643640 0.000000 0.000000 
#    y 0.000000 1.594000 0.000000 
#    z 0.000000 0.000000 1.680180 
# 
# From -- ./inp_files/2000.got.cif
#   From: 2010.03.12/outbox.cif.g09.slc.cpg/sg17_1_cif.got.tgz:2000.got - 2010.04.10 18:46:23.
