data_PCOD8155010
_publ_section_title
;
Structure prediction by ZEFSAII (Michael W. Deem and Ramdas Pophale) SiO2 
 PCOD8155010
Probable space group: C 2/C
;
_chemical_formula_sum "Si O2"
_cell_formula_units_Z 40
_cell_length_a 14.374603
_cell_length_b 15.530055
_cell_length_c 13.927677
_cell_angle_alpha 90.000000
_cell_angle_beta 30.302306
_cell_angle_gamma 90.000000
_cell_volume 1568.781285
_symmetry_space_group_name_H-M "C 2/C"
_symmetry_group_IT_number 15
_symmetry_cell_setting 'monoclinic'
loop_
_space_group_symop_operation_xyz
x,y,z
-x,y,1/2-z
-x,-y,-z
x,-y,1/2+z
1/2+x,1/2+y,z
1/2-x,1/2+y,1/2-z
1/2-x,1/2-y,-z
1/2+x,1/2-y,1/2+z
loop_
_atom_site_type_symbol
_atom_site_label
_atom_site_fract_x
_atom_site_fract_y
_atom_site_fract_z
Si Si1 0.790408 0.986861 0.118398
Si Si2 0.240216 0.869451 0.690862
Si Si3 0.664331 0.179610 0.814565
Si Si4 0.500000 0.042540 0.250000
Si Si5 0.000000 0.948201 0.750000
Si Si6 0.298180 0.665730 0.902829
O O1 0.803310 0.886566 0.137016
O O2 0.830016 0.057560 0.167768
O O3 0.580093 0.990625 0.268414
O O4 0.925251 0.003715 0.907252
O O5 0.460574 0.861686 0.503633
O O6 0.149735 0.775358 0.785311
O O7 0.171425 0.894694 0.644481
O O8 0.771557 0.190157 0.817469
O O9 0.338072 0.092967 0.443990
O O10 0.500000 0.633162 0.750000
O O11 0.250000 0.750000 0.000000
#
# Coordination Sequence:
#
# PCOD8155010 Si02
#       6
#     8   8   8   4   4   8
#     4  12  28  52  78 118 165 208 276 340 403 487
#     4  12  27  52  81 116 162 211 275 332 416 484
#     4  12  27  52  79 115 166 209 265 350 398 489
#     4  12  26  47  77 118 158 210 266 325 407 482
#     4  12  30  49  83 116 156 226 274 335 407 486
#     4  12  25  46  77 118 159 210 266 327 405 480
#
# _framework density 25.497499999999999
#
# number of rings (size 3 to 8) (size 9 to 14) (size 15 to 20)
#    0.000    0.000    3.000    6.000    4.200    5.600 
#    0.000    0.000    0.000    0.000    0.000    0.000 
#    0.000    0.000    0.000    0.000    0.000    0.000 
#
# Total GULP energy -247794.204880 kJ/mol
# GULP energy per Si atom -12389.710244 kJ/mol
# Density = 2.543947 g / cm^3
# Si number density = 25.497500 Si / 1000 Ang^3
#
#
#
# Elastic Constant Matrix: (Units=GPa)
#
#
# Indices 1 2 3 4 5 6 
#
# 1 195.3139 35.5567 28.9402 -0.0469 -6.7814 0.0068
# 2 35.5567 153.0400 24.5723 -0.0724 21.0517 0.0196
# 3 28.9402 24.5723 102.6336 -0.0866 4.7982 0.0232
# 4 -0.0469 -0.0724 -0.0866 43.4071 0.0463 3.7233
# 5 -6.7814 21.0517 4.7982 0.0463 45.1838 -0.0089
# 6 0.0068 0.0196 0.0232 3.7233 -0.0089 43.1418
#
#
#
# Elastic Compliance Matrix: (Units=1/GPa)
#
#
# Indices 1 2 3 4 5 6 
#
# 1 0.005612 -0.001307 -0.001344 -0.000001 0.001594 0.000001
# 2 -0.001307 0.007533 -0.001268 0.000013 -0.003571 -0.000004
# 3 -0.001344 -0.001268 0.010460 0.000019 -0.000722 -0.000007
# 4 -0.000001 0.000013 0.000019 0.023210 -0.000032 -0.002003
# 5 0.001594 -0.003571 -0.000722 -0.000032 0.024112 0.000010
# 6 0.000001 -0.000004 -0.000007 -0.002003 0.000010 0.023352
#
#
# Mechanical properties :
#
#
# Convention : Reuss Voigt Hill
#
# Bulk Modulus (GPa) = 63.42679 69.90289 66.66484
# Shear Modulus (GPa) = 46.56673 50.47444 48.52058
#
# Velocity S-wave (km/s) = 4.27819 4.45408 4.36702
# Velocity P-wave (km/s) = 7.02379 7.34349 7.18542
#
# Compressibility (1/GPa) = 0.01576621
#
# Stress axis : x y z
#
# Youngs Moduli (GPa) = 178.17376 132.75210 95.60498
#
# Poissons Ratio (x) = 0.17357 0.12850
# Poissons Ratio (y) = 0.23296 0.12121
# Poissons Ratio (z) = 0.23948 0.16831
#
# Static dielectric constant tensor:
#      x y z
#    x 5.671170 -0.000100 -0.380050 
#    y -0.000100 4.843210 0.000090 
#    z -0.380050 0.000090 4.751330 
# 
# 
# High freq. dielectric constant tensor:
#      x y z
#    x 2.046360 0.000000 -0.018500 
#    y 0.000000 2.030670 0.000000 
#    z -0.018500 0.000000 2.029120 
# 
# From -- ./inp_files/155390.got.cif
#   From: 2010.06.25/outbox.cif.g09.slc.cpg/sg15_78_cif.got.tgz:155390.got - 2010.06.28 07:06:18.
