data_PCOD8155470
_publ_section_title
;
Structure prediction by ZEFSAII (Michael W. Deem and Ramdas Pophale) SiO2 
 PCOD8155470
Probable space group: P 2 2 21
;
_chemical_formula_sum "Si O2"
_cell_formula_units_Z 26
_cell_length_a 12.841648
_cell_length_b 5.336656
_cell_length_c 18.096825
_cell_angle_alpha 90.000000
_cell_angle_beta 90.000000
_cell_angle_gamma 90.000000
_cell_volume 1240.201800
_symmetry_space_group_name_H-M "P 2 2 21"
_symmetry_group_IT_number 17
_symmetry_cell_setting 'orthorhombic'
loop_
_space_group_symop_operation_xyz
x,y,z
-x,-y,1/2+z
x,-y,-z
-x,y,1/2-z
loop_
_atom_site_type_symbol
_atom_site_label
_atom_site_fract_x
_atom_site_fract_y
_atom_site_fract_z
Si Si1 0.528215 0.514900 0.336933
Si Si2 0.217713 0.073022 0.274022
Si Si3 0.803650 0.000000 0.500000
Si Si4 0.744675 0.679997 0.626633
Si Si5 0.558121 0.015036 0.171605
Si Si6 0.906652 0.572848 0.197157
Si Si7 0.067381 0.621993 0.078640
O O1 0.500000 0.519061 0.250000
O O2 0.651185 0.511659 0.354806
O O3 0.479716 0.766941 0.372669
O O4 0.476636 0.265493 0.372533
O O5 0.317906 0.008649 0.322849
O O6 0.145136 0.829615 0.275039
O O7 0.253901 0.108158 0.189538
O O8 0.168596 0.330811 0.306416
O O9 0.732143 0.201608 0.456171
O O10 0.878415 0.110938 0.563974
O O11 0.853756 0.533245 0.630855
O O12 0.500000 0.019921 0.250000
O O13 0.000000 0.495684 0.250000
O O14 0.955045 0.638676 0.116989
O O15 0.048595 0.500000 0.000000
#
# Coordination Sequence:
#
# PCOD8155470 Si02
#       7
#     4   4   2   4   4   4   4
#     4  10  20  33  60  89 126 162 200 256 322 379
#     4  12  24  38  63  96 136 163 220 274 333 388
#     4  10  24  40  66  86 136 180 222 266 332 412
#     4  11  22  39  62  97 132 168 223 273 333 407
#     4  10  20  35  56  92 123 165 194 252 322 382
#     4  12  25  38  62  98 131 167 212 279 329 388
#     4  10  24  43  63  92 130 178 223 268 337 405
#
# _framework density 20.96433
#
# number of rings (size 3 to 8) (size 9 to 14) (size 15 to 20)
#    0.000    1.231    4.615    2.308    8.615    0.000 
#    0.000    0.000    0.000    0.000    8.000    0.000 
#    0.000    0.000    0.000    0.000    0.000    0.000 
#
# Total GULP energy -322261.553229 kJ/mol
# GULP energy per Si atom -12394.675124 kJ/mol
# Density = 2.091661 g / cm^3
# Si number density = 20.964330 Si / 1000 Ang^3
#
#
#
# Elastic Constant Matrix: (Units=GPa)
#
#
# Indices 1 2 3 4 5 6 
#
# 1 116.2055 50.6679 37.5493 0.0000 0.0000 0.0000
# 2 50.6679 166.1601 19.6045 0.0000 0.0000 0.0000
# 3 37.5493 19.6045 47.8247 0.0000 0.0000 0.0000
# 4 0.0000 0.0000 0.0000 10.1213 0.0000 0.0000
# 5 0.0000 0.0000 0.0000 0.0000 20.1673 0.0000
# 6 0.0000 0.0000 0.0000 0.0000 0.0000 19.6661
#
#
#
# Elastic Compliance Matrix: (Units=1/GPa)
#
#
# Indices 1 2 3 4 5 6 
#
# 1 0.012682 -0.002829 -0.008797 0.000000 0.000000 0.000000
# 2 -0.002829 0.006955 -0.000630 0.000000 0.000000 0.000000
# 3 -0.008797 -0.000630 0.028075 0.000000 0.000000 0.000000
# 4 0.000000 0.000000 0.000000 0.098802 0.000000 0.000000
# 5 0.000000 0.000000 0.000000 0.000000 0.049585 0.000000
# 6 0.000000 0.000000 0.000000 0.000000 0.000000 0.050849
#
#
# Mechanical properties :
#
#
# Convention : Reuss Voigt Hill
#
# Bulk Modulus (GPa) = 43.10432 60.64818 51.87625
# Shear Modulus (GPa) = 17.90874 24.81551 21.36212
#
# Velocity S-wave (km/s) = 2.92592 3.44423 3.19560
# Velocity P-wave (km/s) = 5.65863 6.69395 6.19795
#
# Compressibility (1/GPa) = 0.02319953
#
# Stress axis : x y z
#
# Youngs Moduli (GPa) = 78.85430 143.77514 35.61891
#
# Poissons Ratio (x) = 0.40676 0.31335
# Poissons Ratio (y) = 0.22309 0.02244
# Poissons Ratio (z) = 0.69370 0.09056
#
# Static dielectric constant tensor:
#      x y z
#    x 3.870530 0.000000 0.000000 
#    y 0.000000 5.316240 0.000000 
#    z 0.000000 0.000000 3.492540 
# 
# 
# High freq. dielectric constant tensor:
#      x y z
#    x 1.817010 0.000000 0.000000 
#    y 0.000000 1.847350 0.000000 
#    z 0.000000 0.000000 1.772730 
# 
# From -- ./inp_files/9600.got.cif
#   From: 2010.03.12/outbox.cif.g09.slc.cpg/sg17_5_cif.got.tgz:9600.got - 2010.04.10 18:46:23.
