data_PCOD8155066
_publ_section_title
;
Structure prediction by ZEFSAII (Michael W. Deem and Ramdas Pophale) SiO2 
 PCOD8155066
Probable space group: C 2/C
;
_chemical_formula_sum "Si O2"
_cell_formula_units_Z 32
_cell_length_a 15.438287
_cell_length_b 5.642942
_cell_length_c 14.695376
_cell_angle_alpha 90.000000
_cell_angle_beta 113.158046
_cell_angle_gamma 90.000000
_cell_volume 1177.066564
_symmetry_space_group_name_H-M "C 2/C"
_symmetry_group_IT_number 15
_symmetry_cell_setting 'monoclinic'
loop_
_space_group_symop_operation_xyz
x,y,z
-x,y,1/2-z
-x,-y,-z
x,-y,1/2+z
1/2+x,1/2+y,z
1/2-x,1/2+y,1/2-z
1/2-x,1/2-y,-z
1/2+x,1/2-y,1/2+z
loop_
_atom_site_type_symbol
_atom_site_label
_atom_site_fract_x
_atom_site_fract_y
_atom_site_fract_z
Si Si1 0.668114 0.113471 0.638144
Si Si2 0.141601 0.312771 0.462983
Si Si3 0.024642 0.943519 0.666543
Si Si4 0.355011 0.843187 0.697319
O O1 0.598993 0.334049 0.627410
O O2 0.767376 0.177111 0.631458
O O3 0.618332 0.920905 0.552588
O O4 0.691025 0.015227 0.747369
O O5 0.250000 0.250000 0.500000
O O6 0.110689 0.512304 0.376568
O O7 0.077940 0.071699 0.426322
O O8 0.000000 0.795436 0.750000
O O9 0.060085 0.198803 0.718253
#
# Coordination Sequence:
#
# PCOD8155066 Si02
#       4
#     8   8   8   8
#     4  12  25  50  80 114 161 205 269 322 398 476
#     4  12  28  53  81 122 155 209 272 329 395 478
#     4  12  27  49  78 112 158 215 258 325 398 467
#     4  12  26  52  80 114 162 210 259 333 402 468
#
# _framework density 27.186229000000001
#
# number of rings (size 3 to 8) (size 9 to 14) (size 15 to 20)
#    0.000    0.000    5.000    4.500    3.500    1.000 
#    0.000    0.000    0.000    0.000    0.000    0.000 
#    0.000    0.000    0.000    0.000    0.000    0.000 
#
# Total GULP energy -198212.618469 kJ/mol
# GULP energy per Si atom -12388.288654 kJ/mol
# Density = 2.712435 g / cm^3
# Si number density = 27.186229 Si / 1000 Ang^3
#
#
#
# Elastic Constant Matrix: (Units=GPa)
#
#
# Indices 1 2 3 4 5 6 
#
# 1 118.5609 32.8551 12.3792 0.0000 21.7265 0.0000
# 2 32.8551 61.8087 20.4334 0.0000 25.5639 0.0000
# 3 12.3792 20.4334 101.2227 0.0000 -2.9256 0.0000
# 4 0.0000 0.0000 0.0000 57.0781 0.0000 10.7638
# 5 21.7265 25.5639 -2.9256 0.0000 55.3907 0.0000
# 6 0.0000 0.0000 0.0000 10.7638 0.0000 34.9188
#
#
#
# Elastic Compliance Matrix: (Units=1/GPa)
#
#
# Indices 1 2 3 4 5 6 
#
# 1 0.010052 -0.004417 -0.000393 0.000000 -0.001925 0.000000
# 2 -0.004417 0.024009 -0.004583 0.000000 -0.009590 0.000000
# 3 -0.000393 -0.004583 0.010935 0.000000 0.002847 0.000000
# 4 0.000000 0.000000 0.000000 0.018601 0.000000 -0.005734
# 5 -0.001925 -0.009590 0.002847 0.000000 0.023385 0.000000
# 6 0.000000 0.000000 0.000000 -0.005734 0.000000 0.030405
#
#
# Mechanical properties :
#
#
# Convention : Reuss Voigt Hill
#
# Bulk Modulus (GPa) = 38.15656 45.88085 42.01871
# Shear Modulus (GPa) = 34.50384 43.87249 39.18817
#
# Velocity S-wave (km/s) = 3.56640 4.02154 3.80079
# Velocity P-wave (km/s) = 5.56998 6.20297 5.89498
#
# Compressibility (1/GPa) = 0.02620781
#
# Stress axis : x y z
#
# Youngs Moduli (GPa) = 99.47860 41.65169 91.45075
#
# Poissons Ratio (x) = 0.18398 0.03597
# Poissons Ratio (y) = 0.43942 0.41916
# Poissons Ratio (z) = 0.03913 0.19091
#
# Static dielectric constant tensor:
#      x y z
#    x 5.031650 0.000000 -0.097320 
#    y 0.000000 4.738900 0.000000 
#    z -0.097320 0.000000 5.266720 
# 
# 
# High freq. dielectric constant tensor:
#      x y z
#    x 2.110910 0.000000 -0.001800 
#    y 0.000000 2.074020 0.000000 
#    z -0.001800 0.000000 2.102050 
# 
# From -- ./inp_files/158168.got.cif
#   From: 2010.06.25/outbox.cif.g09.slc.cpg/sg15_80_cif.got.tgz:158168.got - 2010.06.28 07:06:18.
