data_PCOD8155964
_publ_section_title
;
Structure prediction by ZEFSAII (Michael W. Deem and Ramdas Pophale) SiO2 
 PCOD8155964
Probable space group: P 21 21 2
;
_chemical_formula_sum "Si O2"
_cell_formula_units_Z 22
_cell_length_a 15.650203
_cell_length_b 11.414908
_cell_length_c 5.099674
_cell_angle_alpha 90.000000
_cell_angle_beta 90.000000
_cell_angle_gamma 90.000000
_cell_volume 911.034461
_symmetry_space_group_name_H-M "P 21 21 2"
_symmetry_group_IT_number 18
_symmetry_cell_setting 'orthorhombic'
loop_
_space_group_symop_operation_xyz
x,y,z
-x,-y,z
1/2+x,1/2-y,-z
1/2-x,1/2+y,-z
loop_
_atom_site_type_symbol
_atom_site_label
_atom_site_fract_x
_atom_site_fract_y
_atom_site_fract_z
Si Si1 0.557703 0.681317 0.563951
Si Si2 0.727387 0.583585 0.521339
Si Si3 0.461597 0.743691 0.078279
Si Si4 0.000000 0.500000 0.045569
Si Si5 0.230085 0.271394 0.015118
Si Si6 0.658935 0.893924 0.701744
O O1 0.623386 0.572012 0.532249
O O2 0.483436 0.677429 0.348160
O O3 0.617065 0.795658 0.516828
O O4 0.519405 0.685632 0.853831
O O5 0.761483 0.624667 0.803141
O O6 0.767404 0.457205 0.465331
O O7 0.755896 0.677244 0.302497
O O8 0.483721 0.881916 0.120076
O O9 0.364534 0.718437 0.004829
O O10 0.085577 0.513656 0.219374
O O11 0.298112 0.168315 0.955281
#
# Coordination Sequence:
#
# PCOD8155964 Si02
#       6
#     4   4   4   2   4   4
#     4  10  23  39  62  91 128 161 214 262 316 380
#     4  11  22  41  62  92 129 171 207 263 330 380
#     4  11  22  39  62  94 128 163 210 269 315 380
#     4  10  20  36  64  96 120 158 222 256 320 360
#     4  11  24  40  62  96 133 167 210 268 330 380
#     4  10  23  40  65  96 126 166 214 267 320 382
#
# _framework density 24.148374
#
# number of rings (size 3 to 8) (size 9 to 14) (size 15 to 20)
#    0.000    1.455    1.818    4.364    5.091    3.636 
#    0.000    0.909    0.000    4.364    0.000    0.000 
#    0.000    0.000    0.000    0.000    0.000    0.000 
#
# Total GULP energy -272798.783314 kJ/mol
# GULP energy per Si atom -12399.944696 kJ/mol
# Density = 2.409341 g / cm^3
# Si number density = 24.148374 Si / 1000 Ang^3
#
#
#
# Elastic Constant Matrix: (Units=GPa)
#
#
# Indices 1 2 3 4 5 6 
#
# 1 99.3815 2.6542 12.1444 0.0000 0.0000 0.0000
# 2 2.6542 35.6765 -1.7756 0.0000 0.0000 0.0000
# 3 12.1444 -1.7756 63.2044 0.0000 0.0000 0.0000
# 4 0.0000 0.0000 0.0000 18.3755 0.0000 0.0000
# 5 0.0000 0.0000 0.0000 0.0000 38.7548 0.0000
# 6 0.0000 0.0000 0.0000 0.0000 0.0000 41.4153
#
#
#
# Elastic Compliance Matrix: (Units=1/GPa)
#
#
# Indices 1 2 3 4 5 6 
#
# 1 0.010331 -0.000869 -0.002009 0.000000 0.000000 0.000000
# 2 -0.000869 0.028142 0.000958 0.000000 0.000000 0.000000
# 3 -0.002009 0.000958 0.016235 0.000000 0.000000 0.000000
# 4 0.000000 0.000000 0.000000 0.054420 0.000000 0.000000
# 5 0.000000 0.000000 0.000000 0.000000 0.025803 0.000000
# 6 0.000000 0.000000 0.000000 0.000000 0.000000 0.024146
#
#
# Mechanical properties :
#
#
# Convention : Reuss Voigt Hill
#
# Bulk Modulus (GPa) = 19.65929 24.92316 22.29123
# Shear Modulus (GPa) = 27.79731 32.05841 29.92786
#
# Velocity S-wave (km/s) = 3.39647 3.64752 3.52423
# Velocity P-wave (km/s) = 4.85181 5.29929 5.08048
#
# Compressibility (1/GPa) = 0.05086653
#
# Stress axis : x y z
#
# Youngs Moduli (GPa) = 96.79619 35.53411 61.59649
#
# Poissons Ratio (x) = 0.03087 0.12378
# Poissons Ratio (y) = 0.08408 -0.05898
# Poissons Ratio (z) = 0.19451 -0.03402
#
# Static dielectric constant tensor:
#      x y z
#    x 4.828390 0.000000 0.000000 
#    y 0.000000 4.181330 0.000000 
#    z 0.000000 0.000000 4.036820 
# 
# 
# High freq. dielectric constant tensor:
#      x y z
#    x 1.981580 0.000000 0.000000 
#    y 0.000000 1.929650 0.000000 
#    z 0.000000 0.000000 1.951380 
# 
# From -- ./inp_files/1458.got.cif
#   From: 2010.03.12/outbox.cif.g09.slc.cpg/sg18_1_cif.got.tgz:1458.got - 2010.04.10 18:53:55.
