data_PCOD8155035
_publ_section_title
;
Structure prediction by ZEFSAII (Michael W. Deem and Ramdas Pophale) SiO2 
 PCOD8155035
Probable space group: C 2/C
;
_chemical_formula_sum "Si O2"
_cell_formula_units_Z 24
_cell_length_a 10.165380
_cell_length_b 10.254408
_cell_length_c 12.121710
_cell_angle_alpha 90.000000
_cell_angle_beta 51.101253
_cell_angle_gamma 90.000000
_cell_volume 983.379318
_symmetry_space_group_name_H-M "C 2/C"
_symmetry_group_IT_number 15
_symmetry_cell_setting 'monoclinic'
loop_
_space_group_symop_operation_xyz
x,y,z
-x,y,1/2-z
-x,-y,-z
x,-y,1/2+z
1/2+x,1/2+y,z
1/2-x,1/2+y,1/2-z
1/2-x,1/2-y,-z
1/2+x,1/2-y,1/2+z
loop_
_atom_site_type_symbol
_atom_site_label
_atom_site_fract_x
_atom_site_fract_y
_atom_site_fract_z
Si Si1 0.585566 0.404242 0.539712
Si Si2 0.690268 0.361833 0.115123
Si Si3 0.638778 0.188842 0.752153
O O1 0.500000 0.500000 0.500000
O O2 0.700411 0.494528 0.557536
O O3 0.698052 0.298258 0.413782
O O4 0.439297 0.331810 0.684739
O O5 0.500000 0.325271 0.250000
O O6 0.811995 0.374873 0.157631
O O7 0.750000 0.250000 0.000000
O O8 0.500000 0.109366 0.750000
#
# Coordination Sequence:
#
# PCOD8155035 Si02
#       3
#     8   8   8
#     4  12  26  50  79 114 160 201 269 328 379 481
#     4  12  25  47  80 114 157 203 264 327 388 459
#     4  12  27  49  78 113 159 210 259 322 403 454
#
# _framework density 24.405639000000001
#
# number of rings (size 3 to 8) (size 9 to 14) (size 15 to 20)
#    0.000    0.000    6.667    2.000    0.000    2.667 
#    6.000    0.000    0.000    0.000    0.000    0.000 
#    0.000    0.000    0.000    0.000    0.000    0.000 
#
# Total GULP energy -148696.098468 kJ/mol
# GULP energy per Si atom -12391.341539 kJ/mol
# Density = 2.435009 g / cm^3
# Si number density = 24.405639 Si / 1000 Ang^3
#
#
#
# Elastic Constant Matrix: (Units=GPa)
#
#
# Indices 1 2 3 4 5 6 
#
# 1 215.4532 54.0430 68.3478 0.0000 49.6730 0.0000
# 2 54.0430 140.5835 99.1877 0.0000 -1.0671 0.0000
# 3 68.3478 99.1877 182.5869 0.0000 -0.9048 0.0000
# 4 0.0000 0.0000 0.0000 58.9750 0.0000 -3.5425
# 5 49.6730 -1.0671 -0.9048 0.0000 60.4093 0.0000
# 6 0.0000 0.0000 0.0000 -3.5425 0.0000 40.3407
#
#
#
# Elastic Compliance Matrix: (Units=1/GPa)
#
#
# Indices 1 2 3 4 5 6 
#
# 1 0.006898 -0.001384 -0.001859 0.000000 -0.005724 0.000000
# 2 -0.001384 0.011812 -0.005893 0.000000 0.001258 0.000000
# 3 -0.001859 -0.005893 0.009381 0.000000 0.001565 0.000000
# 4 0.000000 0.000000 0.000000 0.017046 0.000000 0.001497
# 5 -0.005724 0.001258 0.001565 0.000000 0.021306 0.000000
# 6 0.000000 0.000000 0.000000 0.001497 0.000000 0.024920
#
#
# Mechanical properties :
#
#
# Convention : Reuss Voigt Hill
#
# Bulk Modulus (GPa) = 101.81882 109.08671 105.45277
# Shear Modulus (GPa) = 44.28378 53.08133 48.68256
#
# Velocity S-wave (km/s) = 4.26430 4.66871 4.47108
# Velocity P-wave (km/s) = 8.12746 8.59400 8.36399
#
# Compressibility (1/GPa) = 0.00982137
#
# Stress axis : x y z
#
# Youngs Moduli (GPa) = 144.97322 84.65863 106.59316
#
# Poissons Ratio (x) = 0.11714 0.19813
# Poissons Ratio (y) = 0.20059 0.62811
# Poissons Ratio (z) = 0.26947 0.49886
#
# Static dielectric constant tensor:
#      x y z
#    x 5.206420 0.000000 0.304730 
#    y 0.000000 4.716860 0.000000 
#    z 0.304730 0.000000 3.510220 
# 
# 
# High freq. dielectric constant tensor:
#      x y z
#    x 1.994280 0.000000 0.023480 
#    y 0.000000 1.941800 0.000000 
#    z 0.023480 0.000000 1.998640 
# 
# From -- ./inp_files/131376.got.cif
#   From: 2010.06.25/outbox.cif.g09.slc.cpg/sg15_66_cif.got.tgz:131376.got - 2010.06.28 07:06:18.
