data_PCOD8155133
_publ_section_title
;
Structure prediction by ZEFSAII (Michael W. Deem and Ramdas Pophale) SiO2 
 PCOD8155133
Probable space group: C 2/C
;
_chemical_formula_sum "Si O2"
_cell_formula_units_Z 28
_cell_length_a 8.909652
_cell_length_b 16.481808
_cell_length_c 9.701665
_cell_angle_alpha 90.000000
_cell_angle_beta 48.723465
_cell_angle_gamma 90.000000
_cell_volume 1070.682520
_symmetry_space_group_name_H-M "C 2/C"
_symmetry_group_IT_number 15
_symmetry_cell_setting 'monoclinic'
loop_
_space_group_symop_operation_xyz
x,y,z
-x,y,1/2-z
-x,-y,-z
x,-y,1/2+z
1/2+x,1/2+y,z
1/2-x,1/2+y,1/2-z
1/2-x,1/2-y,-z
1/2+x,1/2-y,1/2+z
loop_
_atom_site_type_symbol
_atom_site_label
_atom_site_fract_x
_atom_site_fract_y
_atom_site_fract_z
Si Si1 0.000000 0.440148 0.750000
Si Si2 0.663345 0.441428 0.543514
Si Si3 0.875177 0.153790 0.687506
Si Si4 0.071196 0.331813 0.952340
O O1 0.162274 0.492694 0.570146
O O2 0.115076 0.383121 0.787982
O O3 0.500000 0.475063 0.750000
O O4 0.567149 0.419638 0.452530
O O5 0.758243 0.356550 0.542032
O O6 0.927321 0.237563 0.582305
O O7 0.000000 0.143175 0.750000
O O8 0.642430 0.145647 0.856908
#
# Coordination Sequence:
#
# PCOD8155133 Si02
#       4
#     4   8   8   8
#     4  12  28  52  76 118 162 198 258 322 390 458
#     4  12  28  51  81 113 157 209 257 317 389 461
#     4  12  26  49  81 116 154 205 263 318 384 459
#     4  12  26  51  78 116 159 201 262 323 379 464
#
# _framework density 26.151543
#
# number of rings (size 3 to 8) (size 9 to 14) (size 15 to 20)
#    0.000    0.000    4.286    4.286    4.000    2.286 
#    0.000    0.000    0.000    0.000    0.000    0.000 
#    0.000    0.000    0.000    0.000    0.000    0.000 
#
# Total GULP energy -173756.561810 kJ/mol
# GULP energy per Si atom -12411.182986 kJ/mol
# Density = 2.609202 g / cm^3
# Si number density = 26.151543 Si / 1000 Ang^3
#
#
#
# Elastic Constant Matrix: (Units=GPa)
#
#
# Indices 1 2 3 4 5 6 
#
# 1 53.5489 -28.6963 10.5750 0.0000 5.1887 0.0000
# 2 -28.6963 79.0153 11.7962 0.0000 4.0713 0.0000
# 3 10.5750 11.7962 147.6293 0.0000 -15.6457 0.0000
# 4 0.0000 0.0000 0.0000 46.5877 0.0000 6.2227
# 5 5.1887 4.0713 -15.6457 0.0000 52.3403 0.0000
# 6 0.0000 0.0000 0.0000 6.2227 0.0000 37.5345
#
#
#
# Elastic Compliance Matrix: (Units=1/GPa)
#
#
# Indices 1 2 3 4 5 6 
#
# 1 0.024853 0.009684 -0.002990 0.000000 -0.004111 0.000000
# 2 0.009684 0.016674 -0.002339 0.000000 -0.002956 0.000000
# 3 -0.002990 -0.002339 0.007462 0.000000 0.002709 0.000000
# 4 0.000000 0.000000 0.000000 0.021951 0.000000 -0.003639
# 5 -0.004111 -0.002956 0.002709 0.000000 0.020553 0.000000
# 6 0.000000 0.000000 0.000000 -0.003639 0.000000 0.027245
#
#
# Mechanical properties :
#
#
# Convention : Reuss Voigt Hill
#
# Bulk Modulus (GPa) = 17.33130 29.72704 23.52917
# Shear Modulus (GPa) = 38.68126 46.39375 42.53750
#
# Velocity S-wave (km/s) = 3.85010 4.21650 4.03746
# Velocity P-wave (km/s) = 5.13868 5.92428 5.54541
#
# Compressibility (1/GPa) = 0.05769907
#
# Stress axis : x y z
#
# Youngs Moduli (GPa) = 40.23684 59.97236 134.01426
#
# Poissons Ratio (x) = -0.58078 0.40067
# Poissons Ratio (y) = -0.38966 0.31351
# Poissons Ratio (z) = 0.12030 0.14030
#
# Static dielectric constant tensor:
#      x y z
#    x 4.850260 0.000000 0.167010 
#    y 0.000000 4.816220 0.000000 
#    z 0.167010 0.000000 4.918240 
# 
# 
# High freq. dielectric constant tensor:
#      x y z
#    x 2.055680 0.000000 0.007950 
#    y 0.000000 2.062130 0.000000 
#    z 0.007950 0.000000 2.064230 
# 
# From -- ./inp_files/22485.got.cif
#   From: 2010.06.25/outbox.cif.g09.slc.cpg/sg15_12_cif.got.tgz:22485.got - 2010.06.28 07:06:18.
