data_PCOD8155851
_publ_section_title
;
Structure prediction by ZEFSAII (Michael W. Deem and Ramdas Pophale) SiO2 
 PCOD8155851
Probable space group: P 21 21 2
;
_chemical_formula_sum "Si O2"
_cell_formula_units_Z 32
_cell_length_a 9.244825
_cell_length_b 15.576888
_cell_length_c 11.541548
_cell_angle_alpha 90.000000
_cell_angle_beta 90.000000
_cell_angle_gamma 90.000000
_cell_volume 1662.047586
_symmetry_space_group_name_H-M "P 21 21 2"
_symmetry_group_IT_number 18
_symmetry_cell_setting 'orthorhombic'
loop_
_space_group_symop_operation_xyz
x,y,z
-x,-y,z
1/2+x,1/2-y,-z
1/2-x,1/2+y,-z
loop_
_atom_site_type_symbol
_atom_site_label
_atom_site_fract_x
_atom_site_fract_y
_atom_site_fract_z
Si Si1 0.164724 0.637210 0.482696
Si Si2 0.319303 0.183558 0.096962
Si Si3 0.330745 0.993521 0.142698
Si Si4 0.328344 0.503478 0.618389
Si Si5 0.151957 0.369415 0.486700
Si Si6 0.651322 0.273009 0.315618
Si Si7 0.346436 0.806331 0.074565
Si Si8 0.663312 0.729720 0.332375
O O1 0.276605 0.595144 0.572556
O O2 0.239199 0.652149 0.357111
O O3 0.132521 0.727920 0.542703
O O4 0.009162 0.590523 0.467179
O O5 0.282627 0.081860 0.077426
O O6 0.482521 0.201942 0.060544
O O7 0.291173 0.203360 0.232352
O O8 0.220019 0.248336 0.025709
O O9 0.500000 0.000000 0.177874
O O10 0.238976 0.981100 0.258214
O O11 0.302873 0.907926 0.064887
O O12 0.500000 0.500000 0.627075
O O13 0.268348 0.440163 0.520816
O O14 0.143663 0.300451 0.588458
O O15 0.206315 0.336018 0.360084
O O16 0.708548 0.231206 0.196907
O O17 0.490488 0.313447 0.296425
#
# Coordination Sequence:
#
# PCOD8155851 Si02
#       8
#     4   4   4   4   4   4   4   4
#     4  10  19  33  54  79 112 147 182 225 284 348
#     4  10  21  38  61  85 116 155 199 245 294 347
#     4  10  20  40  61  82 113 154 197 243 293 349
#     4  12  22  32  53  86 117 146 189 241 287 345
#     4  10  19  33  54  79 112 147 182 225 284 348
#     4   9  18  34  54  79 109 144 185 233 285 337
#     4  10  21  38  61  85 116 155 199 245 294 347
#     4   9  18  34  54  79 109 144 185 233 285 337
#
# _framework density 19.253361999999999
#
# number of rings (size 3 to 8) (size 9 to 14) (size 15 to 20)
#    0.000    2.000    2.500    1.875    0.000    3.000 
#    0.000    1.250    0.000    6.000    0.000    0.000 
#    0.000    0.000    0.000    0.000    0.000    0.000 
#
# Total GULP energy -396487.106933 kJ/mol
# GULP energy per Si atom -12390.222092 kJ/mol
# Density = 1.920954 g / cm^3
# Si number density = 19.253362 Si / 1000 Ang^3
#
#
#
# Elastic Constant Matrix: (Units=GPa)
#
#
# Indices 1 2 3 4 5 6 
#
# 1 104.2603 44.7925 32.3642 0.0000 0.0000 0.0000
# 2 44.7925 82.0913 36.7335 0.0000 0.0000 0.0000
# 3 32.3642 36.7335 66.7914 0.0000 0.0000 0.0000
# 4 0.0000 0.0000 0.0000 30.8749 0.0000 0.0000
# 5 0.0000 0.0000 0.0000 0.0000 31.0043 0.0000
# 6 0.0000 0.0000 0.0000 0.0000 0.0000 29.4264
#
#
#
# Elastic Compliance Matrix: (Units=1/GPa)
#
#
# Indices 1 2 3 4 5 6 
#
# 1 0.013020 -0.005679 -0.003186 0.000000 0.000000 0.000000
# 2 -0.005679 0.018635 -0.007497 0.000000 0.000000 0.000000
# 3 -0.003186 -0.007497 0.020639 0.000000 0.000000 0.000000
# 4 0.000000 0.000000 0.000000 0.032389 0.000000 0.000000
# 5 0.000000 0.000000 0.000000 0.000000 0.032254 0.000000
# 6 0.000000 0.000000 0.000000 0.000000 0.000000 0.033983
#
#
# Mechanical properties :
#
#
# Convention : Reuss Voigt Hill
#
# Bulk Modulus (GPa) = 51.09692 53.43593 52.26643
# Shear Modulus (GPa) = 26.29286 27.54463 26.91874
#
# Velocity S-wave (km/s) = 3.69944 3.78648 3.74322
# Velocity P-wave (km/s) = 6.69662 6.85062 6.77405
#
# Compressibility (1/GPa) = 0.01957065
#
# Stress axis : x y z
#
# Youngs Moduli (GPa) = 76.80498 53.66301 48.45230
#
# Poissons Ratio (x) = 0.30474 0.15436
# Poissons Ratio (y) = 0.43615 0.36325
# Poissons Ratio (z) = 0.24468 0.40231
#
# Static dielectric constant tensor:
#      x y z
#    x 3.723930 0.000000 0.000000 
#    y 0.000000 3.535060 0.000000 
#    z 0.000000 0.000000 3.283620 
# 
# 
# High freq. dielectric constant tensor:
#      x y z
#    x 1.753480 0.000000 0.000000 
#    y 0.000000 1.737290 0.000000 
#    z 0.000000 0.000000 1.720490 
# 
# From -- ./inp_files/5661.got.cif
#   From: 2010.03.12/outbox.cif.g09.slc.cpg/sg18_3_cif.got.tgz:5661.got - 2010.04.10 18:53:55.
