data_PCOD8155521
_publ_section_title
;
Structure prediction by ZEFSAII (Michael W. Deem and Ramdas Pophale) SiO2 
 PCOD8155521
Probable space group: P 2 2 21
;
_chemical_formula_sum "Si O2"
_cell_formula_units_Z 20
_cell_length_a 7.655865
_cell_length_b 5.187332
_cell_length_c 25.351477
_cell_angle_alpha 90.000000
_cell_angle_beta 90.000000
_cell_angle_gamma 90.000000
_cell_volume 1006.796224
_symmetry_space_group_name_H-M "P 2 2 21"
_symmetry_group_IT_number 17
_symmetry_cell_setting 'orthorhombic'
loop_
_space_group_symop_operation_xyz
x,y,z
-x,-y,1/2+z
x,-y,-z
-x,y,1/2-z
loop_
_atom_site_type_symbol
_atom_site_label
_atom_site_fract_x
_atom_site_fract_y
_atom_site_fract_z
Si Si1 0.563024 0.715958 0.847729
Si Si2 0.008852 0.286560 0.872241
Si Si3 0.923341 0.783069 0.807706
Si Si4 0.695867 0.570766 0.060269
Si Si5 0.599573 0.223567 0.621205
O O1 0.712615 0.748326 0.803524
O O2 0.665193 0.686654 0.904307
O O3 0.450024 0.455920 0.838085
O O4 0.432768 0.957093 0.848227
O O5 0.200314 0.241180 0.896947
O O6 0.009124 0.558886 0.842499
O O7 0.870777 0.284032 0.920144
O O8 0.963011 0.062488 0.831445
O O9 0.000000 0.767271 0.750000
O O10 0.526386 0.755927 0.069623
O O11 0.718188 0.500000 0.000000
#
# Coordination Sequence:
#
# PCOD8155521 Si02
#       5
#     4   4   4   4   4
#     4   9  19  39  58  80 121 149 187 247 289 341
#     4  11  22  39  62  88 120 155 196 250 287 355
#     4  11  21  40  63  87 118 160 197 242 300 355
#     4   9  21  38  63  82 121 155 198 238 304 348
#     4  10  20  38  59  83 121 148 193 239 296 335
#
# _framework density 19.864991
#
# number of rings (size 3 to 8) (size 9 to 14) (size 15 to 20)
#    1.200    0.800    2.000    1.800    0.000    1.600 
#    0.000    6.000    8.800    0.000    0.000    0.000 
#    0.000    0.000    0.000    0.000    0.000    0.000 
#
# Total GULP energy -247843.246824 kJ/mol
# GULP energy per Si atom -12392.162341 kJ/mol
# Density = 1.981978 g / cm^3
# Si number density = 19.864991 Si / 1000 Ang^3
#
#
#
# Elastic Constant Matrix: (Units=GPa)
#
#
# Indices 1 2 3 4 5 6 
#
# 1 141.8069 17.5909 -4.2868 0.0000 0.0000 0.0000
# 2 17.5909 104.6754 -1.5161 0.0000 0.0000 0.0000
# 3 -4.2868 -1.5161 33.4536 0.0000 0.0000 0.0000
# 4 0.0000 0.0000 0.0000 17.6157 0.0000 0.0000
# 5 0.0000 0.0000 0.0000 0.0000 6.3105 0.0000
# 6 0.0000 0.0000 0.0000 0.0000 0.0000 31.6565
#
#
#
# Elastic Compliance Matrix: (Units=1/GPa)
#
#
# Indices 1 2 3 4 5 6 
#
# 1 0.007227 -0.001202 0.000872 0.000000 0.000000 0.000000
# 2 -0.001202 0.009760 0.000288 0.000000 0.000000 0.000000
# 3 0.000872 0.000288 0.030017 0.000000 0.000000 0.000000
# 4 0.000000 0.000000 0.000000 0.056767 0.000000 0.000000
# 5 0.000000 0.000000 0.000000 0.000000 0.158466 0.000000
# 6 0.000000 0.000000 0.000000 0.000000 0.000000 0.031589
#
#
# Mechanical properties :
#
#
# Convention : Reuss Voigt Hill
#
# Bulk Modulus (GPa) = 21.31304 33.72355 27.51829
# Shear Modulus (GPa) = 16.15246 28.99307 22.57277
#
# Velocity S-wave (km/s) = 2.85460 3.82449 3.37458
# Velocity P-wave (km/s) = 4.64944 6.04281 5.39133
#
# Compressibility (1/GPa) = 0.04691964
#
# Stress axis : x y z
#
# Youngs Moduli (GPa) = 138.36447 102.46419 33.31460
#
# Poissons Ratio (x) = 0.12316 -0.02904
# Poissons Ratio (y) = 0.16631 -0.00960
# Poissons Ratio (z) = -0.12061 -0.02954
#
# Static dielectric constant tensor:
#      x y z
#    x 3.751000 0.000000 0.000000 
#    y 0.000000 3.721000 0.000000 
#    z 0.000000 0.000000 3.090840 
# 
# 
# High freq. dielectric constant tensor:
#      x y z
#    x 1.788500 0.000000 0.000000 
#    y 0.000000 1.787240 0.000000 
#    z 0.000000 0.000000 1.723950 
# 
# From -- ./inp_files/10932.got.cif
#   From: 2010.03.12/outbox.cif.g09.slc.cpg/sg17_6_cif.got.tgz:10932.got - 2010.04.10 18:46:23.
