data_PCOD8155018
_publ_section_title
;
Structure prediction by ZEFSAII (Michael W. Deem and Ramdas Pophale) SiO2 
 PCOD8155018
Probable space group: C 2/C
;
_chemical_formula_sum "Si O2"
_cell_formula_units_Z 40
_cell_length_a 25.268171
_cell_length_b 7.021444
_cell_length_c 8.448857
_cell_angle_alpha 90.000000
_cell_angle_beta 88.175298
_cell_angle_gamma 90.000000
_cell_volume 1498.228064
_symmetry_space_group_name_H-M "C 2/C"
_symmetry_group_IT_number 15
_symmetry_cell_setting 'monoclinic'
loop_
_space_group_symop_operation_xyz
x,y,z
-x,y,1/2-z
-x,-y,-z
x,-y,1/2+z
1/2+x,1/2+y,z
1/2-x,1/2+y,1/2-z
1/2-x,1/2-y,-z
1/2+x,1/2-y,1/2+z
loop_
_atom_site_type_symbol
_atom_site_label
_atom_site_fract_x
_atom_site_fract_y
_atom_site_fract_z
Si Si1 0.867257 0.609590 0.812707
Si Si2 0.059358 0.748031 0.199780
Si Si3 0.787565 0.905014 0.418553
Si Si4 0.697935 0.166052 0.379639
Si Si5 0.103197 0.061144 0.411185
O O1 0.909243 0.443829 0.845249
O O2 0.819140 0.524601 0.714575
O O3 0.896946 0.785532 0.729874
O O4 0.843854 0.694786 0.976437
O O5 0.000000 0.693524 0.250000
O O6 0.088211 0.854869 0.342909
O O7 0.058897 0.879691 0.043592
O O8 0.750000 0.750000 0.500000
O O9 0.802667 0.849121 0.236779
O O10 0.840058 0.934718 0.511436
O O11 0.758336 0.111644 0.428118
#
# Coordination Sequence:
#
# PCOD8155018 Si02
#       5
#     8   8   8   8   8
#     4  12  25  52  77 111 160 206 256 322 383 463
#     4  12  29  52  81 114 149 205 268 327 399 453
#     4  12  25  47  72 115 154 207 253 303 388 463
#     4  12  25  49  73 114 161 204 257 305 386 472
#     4  12  29  50  78 117 158 201 262 325 385 464
#
# _framework density 26.698205000000002
#
# number of rings (size 3 to 8) (size 9 to 14) (size 15 to 20)
#    0.000    0.000    8.000    0.600    5.600    2.400 
#   10.800    0.000    0.000    0.000    0.000    0.000 
#    0.000    0.000    0.000    0.000    0.000    0.000 
#
# Total GULP energy -248202.408506 kJ/mol
# GULP energy per Si atom -12410.120425 kJ/mol
# Density = 2.663744 g / cm^3
# Si number density = 26.698205 Si / 1000 Ang^3
#
#
#
# Elastic Constant Matrix: (Units=GPa)
#
#
# Indices 1 2 3 4 5 6 
#
# 1 149.2150 42.2861 59.0603 0.0000 -24.0247 0.0000
# 2 42.2861 120.6147 30.5036 0.0000 -5.3836 0.0000
# 3 59.0603 30.5036 161.1852 0.0000 -33.0910 0.0000
# 4 0.0000 0.0000 0.0000 55.4779 0.0000 -5.3192
# 5 -24.0247 -5.3836 -33.0910 0.0000 40.0201 0.0000
# 6 0.0000 0.0000 0.0000 -5.3192 0.0000 33.2801
#
#
#
# Elastic Compliance Matrix: (Units=1/GPa)
#
#
# Indices 1 2 3 4 5 6 
#
# 1 0.008717 -0.002386 -0.002089 0.000000 0.003185 0.000000
# 2 -0.002386 0.009362 -0.001124 0.000000 -0.001102 0.000000
# 3 -0.002089 -0.001124 0.008303 0.000000 0.005460 0.000000
# 4 0.000000 0.000000 0.000000 0.018306 0.000000 0.002926
# 5 0.003185 -0.001102 0.005460 0.000000 0.031266 0.000000
# 6 0.000000 0.000000 0.000000 0.002926 0.000000 0.030516
#
#
# Mechanical properties :
#
#
# Convention : Reuss Voigt Hill
#
# Bulk Modulus (GPa) = 65.85008 77.19054 71.52031
# Shear Modulus (GPa) = 40.74009 45.69997 43.22003
#
# Velocity S-wave (km/s) = 3.91058 4.14179 4.02784
# Velocity P-wave (km/s) = 6.71627 7.20053 6.96261
#
# Compressibility (1/GPa) = 0.01518601
#
# Stress axis : x y z
#
# Youngs Moduli (GPa) = 114.71265 106.81104 120.43721
#
# Poissons Ratio (x) = 0.25483 0.25157
# Poissons Ratio (y) = 0.27368 0.13535
# Poissons Ratio (z) = 0.23961 0.12004
#
# Static dielectric constant tensor:
#      x y z
#    x 4.883890 0.000000 -0.158090 
#    y 0.000000 5.258510 0.000000 
#    z -0.158090 0.000000 5.420480 
# 
# 
# High freq. dielectric constant tensor:
#      x y z
#    x 2.060630 0.000000 -0.008280 
#    y 0.000000 2.097630 0.000000 
#    z -0.008280 0.000000 2.097440 
# 
# From -- ./inp_files/64564.got.cif
#   From: 2010.06.25/outbox.cif.g09.slc.cpg/sg15_33_cif.got.tgz:64564.got - 2010.06.28 07:06:18.
