data_PCOD8155631
_publ_section_title
;
Structure prediction by ZEFSAII (Michael W. Deem and Ramdas Pophale) SiO2 
 PCOD8155631
Probable space group: P 2 2 21
;
_chemical_formula_sum "Si O2"
_cell_formula_units_Z 18
_cell_length_a 8.419768
_cell_length_b 6.463989
_cell_length_c 15.002246
_cell_angle_alpha 90.000000
_cell_angle_beta 90.000000
_cell_angle_gamma 90.000000
_cell_volume 816.501555
_symmetry_space_group_name_H-M "P 2 2 21"
_symmetry_group_IT_number 17
_symmetry_cell_setting 'orthorhombic'
loop_
_space_group_symop_operation_xyz
x,y,z
-x,-y,1/2+z
x,-y,-z
-x,y,1/2-z
loop_
_atom_site_type_symbol
_atom_site_label
_atom_site_fract_x
_atom_site_fract_y
_atom_site_fract_z
Si Si1 0.223517 0.532051 0.837629
Si Si2 0.500000 0.780817 0.750000
Si Si3 0.000000 0.211132 0.750000
Si Si4 0.634066 0.157460 0.075061
Si Si5 0.991346 0.107013 0.091627
Si Si6 0.585491 0.500000 0.500000
O O1 0.353351 0.637168 0.776100
O O2 0.144635 0.360990 0.775024
O O3 0.106929 0.713737 0.873789
O O4 0.298404 0.411041 0.922724
O O5 0.432298 0.925145 0.670400
O O6 0.960381 0.069692 0.834825
O O7 0.529861 0.354083 0.053934
O O8 0.820177 0.211615 0.073943
O O9 0.586652 0.000000 0.000000
O O10 0.054642 0.000000 0.000000
#
# Coordination Sequence:
#
# PCOD8155631 Si02
#       6
#     4   2   2   4   4   2
#     4  11  24  43  66  96 131 169 223 268 325 401
#     4  10  22  40  62  92 130 164 206 270 316 378
#     4  12  24  42  70  94 128 180 220 272 332 386
#     4  10  23  41  63  93 129 168 214 263 324 389
#     4  11  25  43  67  99 132 171 222 276 325 389
#     4  10  24  42  64  94 130 170 210 272 330 382
#
# _framework density 22.045272000000001
#
# number of rings (size 3 to 8) (size 9 to 14) (size 15 to 20)
#    0.000    1.333    0.000    4.667    0.000   20.444 
#    0.000    2.222    0.000    0.000    0.000    0.000 
#    0.000    0.000    0.000    0.000    0.000    0.000 
#
# Total GULP energy -223057.677856 kJ/mol
# GULP energy per Si atom -12392.093214 kJ/mol
# Density = 2.199510 g / cm^3
# Si number density = 22.045272 Si / 1000 Ang^3
#
#
#
# Elastic Constant Matrix: (Units=GPa)
#
#
# Indices 1 2 3 4 5 6 
#
# 1 117.2023 43.0079 52.6286 0.0000 0.0000 0.0000
# 2 43.0079 72.0329 47.6097 0.0000 0.0000 0.0000
# 3 52.6286 47.6097 168.4394 0.0000 0.0000 0.0000
# 4 0.0000 0.0000 0.0000 33.4335 0.0000 0.0000
# 5 0.0000 0.0000 0.0000 0.0000 24.3713 0.0000
# 6 0.0000 0.0000 0.0000 0.0000 0.0000 17.4409
#
#
#
# Elastic Compliance Matrix: (Units=1/GPa)
#
#
# Indices 1 2 3 4 5 6 
#
# 1 0.011462 -0.005505 -0.002025 0.000000 0.000000 0.000000
# 2 -0.005505 0.019716 -0.003853 0.000000 0.000000 0.000000
# 3 -0.002025 -0.003853 0.007659 0.000000 0.000000 0.000000
# 4 0.000000 0.000000 0.000000 0.029910 0.000000 0.000000
# 5 0.000000 0.000000 0.000000 0.000000 0.041032 0.000000
# 6 0.000000 0.000000 0.000000 0.000000 0.000000 0.057336
#
#
# Mechanical properties :
#
#
# Convention : Reuss Voigt Hill
#
# Bulk Modulus (GPa) = 62.22573 71.57412 66.89993
# Shear Modulus (GPa) = 25.60996 29.34436 27.47716
#
# Velocity S-wave (km/s) = 3.41207 3.65238 3.53426
# Velocity P-wave (km/s) = 6.61895 7.09393 6.86055
#
# Compressibility (1/GPa) = 0.01607052
#
# Stress axis : x y z
#
# Youngs Moduli (GPa) = 87.24748 50.72125 130.57175
#
# Poissons Ratio (x) = 0.27920 0.26444
# Poissons Ratio (y) = 0.48027 0.50306
# Poissons Ratio (z) = 0.17670 0.19542
#
# Static dielectric constant tensor:
#      x y z
#    x 4.260160 0.000000 0.000000 
#    y 0.000000 4.205960 0.000000 
#    z 0.000000 0.000000 4.825150 
# 
# 
# High freq. dielectric constant tensor:
#      x y z
#    x 1.888210 0.000000 0.000000 
#    y 0.000000 1.835330 0.000000 
#    z 0.000000 0.000000 1.903130 
# 
# From -- ./inp_files/9233.got.cif
#   From: 2010.03.12/outbox.cif.g09.slc.cpg/sg17_5_cif.got.tgz:9233.got - 2010.04.10 18:46:23.
