data_PCOD8155146
_publ_section_title
;
Structure prediction by ZEFSAII (Michael W. Deem and Ramdas Pophale) SiO2 
 PCOD8155146
Probable space group: C 2/C
;
_chemical_formula_sum "Si O2"
_cell_formula_units_Z 36
_cell_length_a 11.374708
_cell_length_b 9.107102
_cell_length_c 14.624744
_cell_angle_alpha 90.000000
_cell_angle_beta 116.272258
_cell_angle_gamma 90.000000
_cell_volume 1358.489588
_symmetry_space_group_name_H-M "C 2/C"
_symmetry_group_IT_number 15
_symmetry_cell_setting 'monoclinic'
loop_
_space_group_symop_operation_xyz
x,y,z
-x,y,1/2-z
-x,-y,-z
x,-y,1/2+z
1/2+x,1/2+y,z
1/2-x,1/2+y,1/2-z
1/2-x,1/2-y,-z
1/2+x,1/2-y,1/2+z
loop_
_atom_site_type_symbol
_atom_site_label
_atom_site_fract_x
_atom_site_fract_y
_atom_site_fract_z
Si Si1 0.839575 0.554061 0.668142
Si Si2 0.768831 0.749050 0.226993
Si Si3 0.602742 0.424290 0.968880
Si Si4 0.014813 0.373219 0.076441
Si Si5 0.000000 0.947644 0.250000
O O1 0.808396 0.421466 0.729534
O O2 0.796873 0.710898 0.697496
O O3 0.748533 0.524595 0.547129
O O4 0.987398 0.560948 0.671364
O O5 0.658114 0.799146 0.115773
O O6 0.897940 0.844319 0.265039
O O7 0.594661 0.248931 0.980142
O O8 0.570026 0.455567 0.851521
O O9 0.500000 0.500000 0.000000
O O10 0.000000 0.500000 0.000000
#
# Coordination Sequence:
#
# PCOD8155146 Si02
#       5
#     8   8   8   8   4
#     4  12  29  51  82 114 166 211 269 338 405 479
#     4  12  28  48  79 120 159 205 275 325 406 479
#     4  12  26  53  76 111 159 212 262 328 409 470
#     4  12  29  48  80 114 160 210 275 332 402 485
#     4  12  28  48  86 106 164 216 260 334 408 474
#
# _framework density 26.500019999999999
#
# number of rings (size 3 to 8) (size 9 to 14) (size 15 to 20)
#    0.000    0.000    4.444    2.667   15.556    1.778 
#    0.000    0.000    0.000    0.000    0.000    0.000 
#    0.000    0.000    0.000    0.000    0.000    0.000 
#
# Total GULP energy -223194.725445 kJ/mol
# GULP energy per Si atom -12399.706969 kJ/mol
# Density = 2.643970 g / cm^3
# Si number density = 26.500020 Si / 1000 Ang^3
#
#
#
# Elastic Constant Matrix: (Units=GPa)
#
#
# Indices 1 2 3 4 5 6 
#
# 1 127.0558 44.0396 3.1166 0.0000 -5.0993 0.0000
# 2 44.0396 149.1481 34.7401 0.0000 -16.9052 0.0000
# 3 3.1166 34.7401 100.1939 0.0000 -19.6797 0.0000
# 4 0.0000 0.0000 0.0000 44.4685 0.0000 -1.8201
# 5 -5.0993 -16.9052 -19.6797 0.0000 49.1812 0.0000
# 6 0.0000 0.0000 0.0000 -1.8201 0.0000 38.9547
#
#
#
# Elastic Compliance Matrix: (Units=1/GPa)
#
#
# Indices 1 2 3 4 5 6 
#
# 1 0.008814 -0.002742 0.000728 0.000000 0.000263 0.000000
# 2 -0.002742 0.008268 -0.002474 0.000000 0.001568 0.000000
# 3 0.000728 -0.002474 0.011573 0.000000 0.003856 0.000000
# 4 0.000000 0.000000 0.000000 0.022531 0.000000 0.001053
# 5 0.000263 0.001568 0.003856 0.000000 0.022442 0.000000
# 6 0.000000 0.000000 0.000000 0.001053 0.000000 0.025720
#
#
# Mechanical properties :
#
#
# Convention : Reuss Voigt Hill
#
# Bulk Modulus (GPa) = 50.81330 60.02114 55.41722
# Shear Modulus (GPa) = 43.52226 46.15430 44.83828
#
# Velocity S-wave (km/s) = 4.05699 4.17786 4.11787
# Velocity P-wave (km/s) = 6.41576 6.78022 6.60050
#
# Compressibility (1/GPa) = 0.01967989
#
# Stress axis : x y z
#
# Youngs Moduli (GPa) = 113.45869 120.94279 86.40739
#
# Poissons Ratio (x) = 0.33167 -0.06293
# Poissons Ratio (y) = 0.31114 0.21374
# Poissons Ratio (z) = -0.08263 0.29916
#
# Static dielectric constant tensor:
#      x y z
#    x 5.321010 0.000000 0.378580 
#    y 0.000000 4.773650 0.000000 
#    z 0.378580 0.000000 5.288590 
# 
# 
# High freq. dielectric constant tensor:
#      x y z
#    x 2.083340 0.000000 0.017870 
#    y 0.000000 2.061850 0.000000 
#    z 0.017870 0.000000 2.084070 
# 
# From -- ./inp_files/195294.got.cif
#   From: 2010.06.25/outbox.cif.g09.slc.cpg/sg15_98_cif.got.tgz:195294.got - 2010.06.28 07:06:18.
