data_PCOD8155787
_publ_section_title
;
Structure prediction by ZEFSAII (Michael W. Deem and Ramdas Pophale) SiO2 
 PCOD8155787
Probable space group: P 21 21 2
;
_chemical_formula_sum "Si O2"
_cell_formula_units_Z 32
_cell_length_a 5.305611
_cell_length_b 32.954523
_cell_length_c 8.465767
_cell_angle_alpha 90.000000
_cell_angle_beta 90.000000
_cell_angle_gamma 90.000000
_cell_volume 1480.187547
_symmetry_space_group_name_H-M "P 21 21 2"
_symmetry_group_IT_number 18
_symmetry_cell_setting 'orthorhombic'
loop_
_space_group_symop_operation_xyz
x,y,z
-x,-y,z
1/2+x,1/2-y,-z
1/2-x,1/2+y,-z
loop_
_atom_site_type_symbol
_atom_site_label
_atom_site_fract_x
_atom_site_fract_y
_atom_site_fract_z
Si Si1 0.506065 0.299610 0.658277
Si Si2 0.992247 0.454279 0.438695
Si Si3 0.004151 0.425000 0.773649
Si Si4 0.497569 0.547122 0.941321
Si Si5 0.494064 0.832573 0.321412
Si Si6 0.993624 0.077882 0.714186
Si Si7 0.506399 0.328807 0.305333
Si Si8 0.006266 0.294744 0.335449
O O1 0.256277 0.312387 0.756256
O O2 0.504514 0.325097 0.495485
O O3 0.508021 0.252256 0.617815
O O4 0.754901 0.312700 0.756565
O O5 0.016397 0.455859 0.627678
O O6 0.226191 0.429572 0.368462
O O7 0.274752 0.566048 0.398258
O O8 0.000000 0.500000 0.372682
O O9 0.007287 0.380239 0.702283
O O10 0.247324 0.431569 0.882687
O O11 0.748890 0.431550 0.870788
O O12 0.500000 0.500000 0.894437
O O13 0.485550 0.551386 0.128892
O O14 0.495517 0.821762 0.506690
O O15 0.011125 0.125225 0.753627
O O16 0.256227 0.306624 0.236283
O O17 0.755115 0.306141 0.236658
#
# Coordination Sequence:
#
# PCOD8155787 Si02
#       8
#     4   4   4   4   4   4   4   4
#     4  10  17  30  53  88 124 156 192 248 308 364
#     4  12  23  40  64  94 121 154 204 269 328 375
#     4  12  25  42  65  93 127 165 208 265 321 375
#     4  12  26  46  64  88 124 173 218 255 313 395
#     4  10  18  31  51  81 116 150 193 244 295 351
#     4  12  25  42  65  92 126 166 210 266 320 374
#     4  10  18  31  50  80 116 150 193 245 296 350
#     4  10  18  30  52  88 124 156 192 248 307 364
#
# _framework density 21.618881999999999
#
# number of rings (size 3 to 8) (size 9 to 14) (size 15 to 20)
#    0.000    1.000    0.000   12.000    0.000    0.000 
#    0.000    0.000    0.000    0.000    0.000   29.750 
#    0.000    0.000    0.000    0.000    0.000    0.000 
#
# Total GULP energy -396751.059254 kJ/mol
# GULP energy per Si atom -12398.470602 kJ/mol
# Density = 2.156968 g / cm^3
# Si number density = 21.618882 Si / 1000 Ang^3
#
#
#
# Elastic Constant Matrix: (Units=GPa)
#
#
# Indices 1 2 3 4 5 6 
#
# 1 208.8147 58.9515 9.4785 0.0000 0.0000 0.0000
# 2 58.9515 112.0863 2.8681 0.0000 0.0000 0.0000
# 3 9.4785 2.8681 46.2663 0.0000 0.0000 0.0000
# 4 0.0000 0.0000 0.0000 21.4288 0.0000 0.0000
# 5 0.0000 0.0000 0.0000 0.0000 15.6033 0.0000
# 6 0.0000 0.0000 0.0000 0.0000 0.0000 20.7424
#
#
#
# Elastic Compliance Matrix: (Units=1/GPa)
#
#
# Indices 1 2 3 4 5 6 
#
# 1 0.005668 -0.002956 -0.000978 0.000000 0.000000 0.000000
# 2 -0.002956 0.010477 -0.000044 0.000000 0.000000 0.000000
# 3 -0.000978 -0.000044 0.021817 0.000000 0.000000 0.000000
# 4 0.000000 0.000000 0.000000 0.046666 0.000000 0.000000
# 5 0.000000 0.000000 0.000000 0.000000 0.064089 0.000000
# 6 0.000000 0.000000 0.000000 0.000000 0.000000 0.048210
#
#
# Mechanical properties :
#
#
# Convention : Reuss Voigt Hill
#
# Bulk Modulus (GPa) = 33.32576 56.64038 44.98307
# Shear Modulus (GPa) = 23.26814 31.27950 27.27382
#
# Velocity S-wave (km/s) = 3.28424 3.80789 3.55572
# Velocity P-wave (km/s) = 5.46171 6.75202 6.14085
#
# Compressibility (1/GPa) = 0.03000682
#
# Stress axis : x y z
#
# Youngs Moduli (GPa) = 176.43423 95.44263 45.83564
#
# Poissons Ratio (x) = 0.28212 0.04482
# Poissons Ratio (y) = 0.52153 0.00201
# Poissons Ratio (z) = 0.17254 0.00419
#
# Static dielectric constant tensor:
#      x y z
#    x 5.944040 0.000000 0.000000 
#    y 0.000000 3.885840 0.000000 
#    z 0.000000 0.000000 3.322480 
# 
# 
# High freq. dielectric constant tensor:
#      x y z
#    x 1.893300 0.000000 0.000000 
#    y 0.000000 1.861690 0.000000 
#    z 0.000000 0.000000 1.783880 
# 
# From -- ./inp_files/2662.got.cif
#   From: 2010.03.12/outbox.cif.g09.slc.cpg/sg18_2_cif.got.tgz:2662.got - 2010.04.10 18:53:55.
