data_PCOD8155188
_publ_section_title
;
Structure prediction by ZEFSAII (Michael W. Deem and Ramdas Pophale) SiO2 
 PCOD8155188
Probable space group: C 2/C
;
_chemical_formula_sum "Si O2"
_cell_formula_units_Z 48
_cell_length_a 12.599341
_cell_length_b 12.339619
_cell_length_c 27.903747
_cell_angle_alpha 90.000000
_cell_angle_beta 138.884724
_cell_angle_gamma 90.000000
_cell_volume 2852.713449
_symmetry_space_group_name_H-M "C 2/C"
_symmetry_group_IT_number 15
_symmetry_cell_setting 'monoclinic'
loop_
_space_group_symop_operation_xyz
x,y,z
-x,y,1/2-z
-x,-y,-z
x,-y,1/2+z
1/2+x,1/2+y,z
1/2-x,1/2+y,1/2-z
1/2-x,1/2-y,-z
1/2+x,1/2-y,1/2+z
loop_
_atom_site_type_symbol
_atom_site_label
_atom_site_fract_x
_atom_site_fract_y
_atom_site_fract_z
Si Si1 0.205841 0.582988 0.097273
Si Si2 0.337359 0.869889 0.473400
Si Si3 0.351636 0.159926 0.086759
Si Si4 0.015048 0.761838 0.811858
Si Si5 0.200533 0.380395 0.703815
Si Si6 0.510172 0.019565 0.809989
O O1 0.238588 0.469403 0.081817
O O2 0.332920 0.668374 0.118837
O O3 0.239109 0.567553 0.165055
O O4 0.028013 0.630807 0.027398
O O5 0.293209 0.881151 0.514614
O O6 0.257662 0.756548 0.429078
O O7 0.540628 0.197045 0.145926
O O8 0.344681 0.057369 0.120852
O O9 0.040490 0.640472 0.839713
O O10 0.000000 0.757858 0.750000
O O11 0.849388 0.812722 0.775835
O O12 0.161125 0.479275 0.726504
O O13 0.500000 0.012242 0.750000
#
# Coordination Sequence:
#
# PCOD8155188 Si02
#       6
#     8   8   8   8   8   8
#     4   9  17  30  52  75  93 130 166 204 239 284
#     4   9  16  32  52  71 102 128 166 201 240 292
#     4   8  17  32  51  72  98 134 159 198 248 292
#     4   9  17  32  51  70  99 131 160 200 252 292
#     4   8  17  32  48  73  96 126 167 200 245 286
#     4   9  18  34  48  70 103 128 159 204 249 291
#
# _framework density 16.826084999999999
#
# number of rings (size 3 to 8) (size 9 to 14) (size 15 to 20)
#    1.000    2.333    0.000    0.000    0.000    1.333 
#    3.000    4.167    0.000    0.000    0.000    0.000 
#    0.000    0.000    0.000    0.000    0.000    0.000 
#
# Total GULP energy -297340.143000 kJ/mol
# GULP energy per Si atom -12389.172625 kJ/mol
# Density = 1.678779 g / cm^3
# Si number density = 16.826085 Si / 1000 Ang^3
#
#
#
# Elastic Constant Matrix: (Units=GPa)
#
#
# Indices 1 2 3 4 5 6 
#
# 1 68.3124 60.8441 29.9641 0.0000 4.2810 0.0000
# 2 60.8441 164.5948 65.5948 0.0000 7.1763 0.0000
# 3 29.9641 65.5948 63.4838 0.0000 4.7103 0.0000
# 4 0.0000 0.0000 0.0000 28.7309 0.0000 1.1041
# 5 4.2810 7.1763 4.7103 0.0000 18.7210 0.0000
# 6 0.0000 0.0000 0.0000 1.1041 0.0000 29.8945
#
#
#
# Elastic Compliance Matrix: (Units=1/GPa)
#
#
# Indices 1 2 3 4 5 6 
#
# 1 0.022298 -0.006843 -0.003332 0.000000 -0.001637 0.000000
# 2 -0.006843 0.012460 -0.009585 0.000000 -0.000800 0.000000
# 3 -0.003332 -0.009585 0.027411 0.000000 -0.002461 0.000000
# 4 0.000000 0.000000 0.000000 0.034855 0.000000 -0.001287
# 5 -0.001637 -0.000800 -0.002461 0.000000 0.054716 0.000000
# 6 0.000000 0.000000 0.000000 -0.001287 0.000000 0.033499
#
#
# Mechanical properties :
#
#
# Convention : Reuss Voigt Hill
#
# Bulk Modulus (GPa) = 44.15375 67.68855 55.92115
# Shear Modulus (GPa) = 21.52307 24.80180 23.16243
#
# Velocity S-wave (km/s) = 3.58040 3.84345 3.71425
# Velocity P-wave (km/s) = 6.58715 7.74673 7.19035
#
# Compressibility (1/GPa) = 0.02264813
#
# Stress axis : x y z
#
# Youngs Moduli (GPa) = 44.84697 80.25755 36.48176
#
# Poissons Ratio (x) = 0.54923 0.12156
# Poissons Ratio (y) = 0.30690 0.34967
# Poissons Ratio (z) = 0.14944 0.76925
#
# Static dielectric constant tensor:
#      x y z
#    x 3.044780 0.000000 0.100440 
#    y 0.000000 3.163900 0.000000 
#    z 0.100440 0.000000 3.013860 
# 
# 
# High freq. dielectric constant tensor:
#      x y z
#    x 1.634740 0.000000 0.004550 
#    y 0.000000 1.641110 0.000000 
#    z 0.004550 0.000000 1.632540 
# 
# From -- ./inp_files/242943.got.cif
#   From: 2010.06.25/outbox.cif.g09.slc.cpg/sg15_122_cif.got.tgz:242943.got - 2010.06.28 07:06:18.
