data_PCOD8155576
_publ_section_title
;
Structure prediction by ZEFSAII (Michael W. Deem and Ramdas Pophale) SiO2 
 PCOD8155576
Probable space group: P 2 2 21
;
_chemical_formula_sum "Si O2"
_cell_formula_units_Z 16
_cell_length_a 8.757819
_cell_length_b 18.147504
_cell_length_c 5.001362
_cell_angle_alpha 90.000000
_cell_angle_beta 90.000000
_cell_angle_gamma 90.000000
_cell_volume 794.879243
_symmetry_space_group_name_H-M "P 2 2 21"
_symmetry_group_IT_number 17
_symmetry_cell_setting 'orthorhombic'
loop_
_space_group_symop_operation_xyz
x,y,z
-x,-y,1/2+z
x,-y,-z
-x,y,1/2-z
loop_
_atom_site_type_symbol
_atom_site_label
_atom_site_fract_x
_atom_site_fract_y
_atom_site_fract_z
Si Si1 0.392184 0.578593 0.505137
Si Si2 0.319668 0.273846 0.273084
Si Si3 0.325347 0.949582 0.246723
Si Si4 0.178388 0.796543 0.237311
O O1 0.299974 0.500000 0.500000
O O2 0.500000 0.562793 0.750000
O O3 0.281579 0.646147 0.592112
O O4 0.500000 0.598925 0.250000
O O5 0.500000 0.263882 0.250000
O O6 0.252038 0.214291 0.472502
O O7 0.246564 0.260182 0.982246
O O8 0.500000 0.920675 0.250000
O O9 0.213589 0.881660 0.186447
O O10 0.283324 0.000000 0.500000
O O11 0.295123 0.000000 0.000000
O O12 0.000000 0.781601 0.250000
#
# Coordination Sequence:
#
# PCOD8155576 Si02
#       4
#     4   4   4   4
#     4   9  17  31  55  89 119 145 192 254 300 337
#     4  11  21  38  62  87 116 156 201 243 291 350
#     4  10  21  38  60  84 111 148 195 243 290 346
#     4  12  25  39  58  88 125 157 192 242 297 353
#
# _framework density 20.128844999999998
#
# number of rings (size 3 to 8) (size 9 to 14) (size 15 to 20)
#    0.000    1.500    0.000    7.500    0.000    3.000 
#    0.000    0.000    0.000    3.000    0.000    1.750 
#    0.000    0.000    0.000    0.000    0.000    0.000 
#
# Total GULP energy -198229.578639 kJ/mol
# GULP energy per Si atom -12389.348665 kJ/mol
# Density = 2.008303 g / cm^3
# Si number density = 20.128845 Si / 1000 Ang^3
#
#
#
# Elastic Constant Matrix: (Units=GPa)
#
#
# Indices 1 2 3 4 5 6 
#
# 1 106.4441 41.3853 37.9870 0.0000 0.0000 0.0000
# 2 41.3853 110.2916 24.0830 0.0000 0.0000 0.0000
# 3 37.9870 24.0830 115.3441 0.0000 0.0000 0.0000
# 4 0.0000 0.0000 0.0000 59.3621 0.0000 0.0000
# 5 0.0000 0.0000 0.0000 0.0000 20.8176 0.0000
# 6 0.0000 0.0000 0.0000 0.0000 0.0000 16.5459
#
#
#
# Elastic Compliance Matrix: (Units=1/GPa)
#
#
# Indices 1 2 3 4 5 6 
#
# 1 0.012005 -0.003815 -0.003157 0.000000 0.000000 0.000000
# 2 -0.003815 0.010713 -0.000980 0.000000 0.000000 0.000000
# 3 -0.003157 -0.000980 0.009914 0.000000 0.000000 0.000000
# 4 0.000000 0.000000 0.000000 0.016846 0.000000 0.000000
# 5 0.000000 0.000000 0.000000 0.000000 0.048036 0.000000
# 6 0.000000 0.000000 0.000000 0.000000 0.000000 0.060438
#
#
# Mechanical properties :
#
#
# Convention : Reuss Voigt Hill
#
# Bulk Modulus (GPa) = 59.78561 59.88780 59.83671
# Shear Modulus (GPa) = 27.86580 34.58676 31.22628
#
# Velocity S-wave (km/s) = 3.72475 4.14970 3.94295
# Velocity P-wave (km/s) = 6.94725 7.26476 7.10778
#
# Compressibility (1/GPa) = 0.01672643
#
# Stress axis : x y z
#
# Youngs Moduli (GPa) = 83.30158 93.34885 100.86674
#
# Poissons Ratio (x) = 0.35614 0.31843
# Poissons Ratio (y) = 0.31781 0.09887
# Poissons Ratio (z) = 0.26298 0.09150
#
# Static dielectric constant tensor:
#      x y z
#    x 3.094880 0.000000 0.000000 
#    y 0.000000 4.162460 0.000000 
#    z 0.000000 0.000000 3.839920 
# 
# 
# High freq. dielectric constant tensor:
#      x y z
#    x 1.735340 0.000000 0.000000 
#    y 0.000000 1.805940 0.000000 
#    z 0.000000 0.000000 1.814290 
# 
# From -- ./inp_files/746.got.cif
#   From: 2010.03.12/outbox.cif.g09.slc.cpg/sg17_1_cif.got.tgz:746.got - 2010.04.10 18:46:23.
