data_PCOD8155385
_publ_section_title
;
Structure prediction by ZEFSAII (Michael W. Deem and Ramdas Pophale) SiO2 
 PCOD8155385
Probable space group: P 2 2 21
;
_chemical_formula_sum "Si O2"
_cell_formula_units_Z 32
_cell_length_a 12.956787
_cell_length_b 14.159749
_cell_length_c 8.651281
_cell_angle_alpha 90.000000
_cell_angle_beta 90.000000
_cell_angle_gamma 90.000000
_cell_volume 1587.205986
_symmetry_space_group_name_H-M "P 2 2 21"
_symmetry_group_IT_number 17
_symmetry_cell_setting 'orthorhombic'
loop_
_space_group_symop_operation_xyz
x,y,z
-x,-y,1/2+z
x,-y,-z
-x,y,1/2-z
loop_
_atom_site_type_symbol
_atom_site_label
_atom_site_fract_x
_atom_site_fract_y
_atom_site_fract_z
Si Si1 0.711234 0.396520 0.567418
Si Si2 0.385404 0.101421 0.068091
Si Si3 0.711233 0.603480 0.067418
Si Si4 0.500000 0.395442 0.065770
Si Si5 0.196174 0.224467 0.433230
Si Si6 1.000000 0.895344 0.932601
Si Si7 0.385403 0.898579 0.568091
Si Si8 0.196174 0.775534 0.933231
O O1 0.733518 0.500000 0.500000
O O2 0.702356 0.404831 0.750000
O O3 0.605701 0.349770 0.497688
O O4 0.804161 0.327040 0.515890
O O5 0.500000 0.137127 0.018928
O O6 0.377258 0.092083 0.250000
O O7 0.299312 0.172710 0.006740
O O8 0.360873 0.000000 0.000000
O O9 0.733516 0.500000 0.000000
O O10 0.605701 0.650231 0.997689
O O11 0.804161 0.672960 0.015889
O O12 0.500000 0.390916 0.250000
O O13 0.500001 0.500000 0.000000
O O14 0.299311 0.172709 0.493259
O O15 0.193337 0.239426 0.250000
O O16 0.099346 0.162941 0.490375
O O17 0.099346 0.837060 0.990375
O O18 0.000000 0.905476 0.750000
O O19 0.999999 0.000000 0.000000
O O20 0.360873 0.000000 0.500000
#
# Coordination Sequence:
#
# PCOD8155385 Si02
#       8
#     4   4   4   4   4   4   4   4
#     4  11  22  37  57  85 118 155 198 243 291 348
#     4   9  18  32  51  77 109 145 182 227 286 347
#     4  11  22  37  57  85 118 155 198 243 291 348
#     4  10  18  32  54  80 115 156 193 234 282 338
#     4  10  21  37  57  83 114 152 197 242 296 349
#     4  10  22  40  63  88 117 152 197 250 298 352
#     4   9  18  32  51  77 109 145 182 227 286 347
#     4  10  21  37  57  83 114 152 197 242 296 349
#
# _framework density 20.161214000000001
#
# number of rings (size 3 to 8) (size 9 to 14) (size 15 to 20)
#    0.000    2.000    0.000    5.625    1.750    2.000 
#    0.000    0.625    0.000    0.000    0.000    0.000 
#    0.000    0.000    0.000    0.000    0.000    0.000 
#
# Total GULP energy -396730.883440 kJ/mol
# GULP energy per Si atom -12397.840107 kJ/mol
# Density = 2.011533 g / cm^3
# Si number density = 20.161214 Si / 1000 Ang^3
#
#
#
# Elastic Constant Matrix: (Units=GPa)
#
#
# Indices 1 2 3 4 5 6 
#
# 1 119.8610 96.2251 42.5638 0.0000 0.0000 0.0000
# 2 96.2251 131.7039 46.0642 0.0000 0.0000 0.0000
# 3 42.5638 46.0642 94.8990 0.0000 0.0000 0.0000
# 4 0.0000 0.0000 0.0000 34.7559 0.0000 0.0000
# 5 0.0000 0.0000 0.0000 0.0000 18.8180 0.0000
# 6 0.0000 0.0000 0.0000 0.0000 0.0000 39.2325
#
#
#
# Elastic Compliance Matrix: (Units=1/GPa)
#
#
# Indices 1 2 3 4 5 6 
#
# 1 0.020597 -0.014234 -0.002329 0.000000 0.000000 0.000000
# 2 -0.014234 0.018982 -0.002830 0.000000 0.000000 0.000000
# 3 -0.002329 -0.002830 0.012956 0.000000 0.000000 0.000000
# 4 0.000000 0.000000 0.000000 0.028772 0.000000 0.000000
# 5 0.000000 0.000000 0.000000 0.000000 0.053141 0.000000
# 6 0.000000 0.000000 0.000000 0.000000 0.000000 0.025489
#
#
# Mechanical properties :
#
#
# Convention : Reuss Voigt Hill
#
# Bulk Modulus (GPa) = 72.73011 79.57445 76.15228
# Shear Modulus (GPa) = 24.59348 29.33533 26.96441
#
# Velocity S-wave (km/s) = 3.49641 3.81863 3.66107
# Velocity P-wave (km/s) = 7.24241 7.68098 7.46491
#
# Compressibility (1/GPa) = 0.01374946
#
# Stress axis : x y z
#
# Youngs Moduli (GPa) = 48.55006 52.68086 77.18641
#
# Poissons Ratio (x) = 0.74987 0.17976
# Poissons Ratio (y) = 0.69107 0.21842
# Poissons Ratio (z) = 0.11307 0.14907
#
# Static dielectric constant tensor:
#      x y z
#    x 4.065740 0.000000 0.000000 
#    y 0.000000 3.696670 0.000000 
#    z 0.000000 0.000000 3.360170 
# 
# 
# High freq. dielectric constant tensor:
#      x y z
#    x 1.777460 0.000000 0.000000 
#    y 0.000000 1.794760 0.000000 
#    z 0.000000 0.000000 1.778490 
# 
# From -- ./inp_files/4939.got.cif
#   From: 2010.03.12/outbox.cif.g09.slc.cpg/sg17_3_cif.got.tgz:4939.got - 2010.04.10 18:46:23.
