data_PCOD8155614
_publ_section_title
;
Structure prediction by ZEFSAII (Michael W. Deem and Ramdas Pophale) SiO2 
 PCOD8155614
Probable space group: P 2 2 21
;
_chemical_formula_sum "Si O2"
_cell_formula_units_Z 26
_cell_length_a 6.778740
_cell_length_b 9.362930
_cell_length_c 19.915414
_cell_angle_alpha 90.000000
_cell_angle_beta 90.000000
_cell_angle_gamma 90.000000
_cell_volume 1264.008784
_symmetry_space_group_name_H-M "P 2 2 21"
_symmetry_group_IT_number 17
_symmetry_cell_setting 'orthorhombic'
loop_
_space_group_symop_operation_xyz
x,y,z
-x,-y,1/2+z
x,-y,-z
-x,y,1/2-z
loop_
_atom_site_type_symbol
_atom_site_label
_atom_site_fract_x
_atom_site_fract_y
_atom_site_fract_z
Si Si1 0.759504 0.354196 0.922534
Si Si2 0.074023 0.981655 0.174608
Si Si3 0.614414 0.532686 0.611822
Si Si4 0.066705 0.500000 0.000000
Si Si5 0.282868 0.030344 0.578994
Si Si6 0.906612 0.659167 0.320444
Si Si7 0.556519 0.161385 0.328474
O O1 0.575537 0.462849 0.923995
O O2 0.666944 0.197665 0.914905
O O3 0.907962 0.392955 0.863307
O O4 0.911852 0.369947 0.985455
O O5 0.161119 0.822338 0.167080
O O6 0.000000 0.000359 0.250000
O O7 0.921158 0.004991 0.114849
O O8 0.223220 0.108830 0.162573
O O9 0.790286 0.556540 0.558625
O O10 0.706834 0.431090 0.669152
O O11 0.540663 0.676848 0.646705
O O12 0.278928 0.000000 0.500000
O O13 0.437865 0.938262 0.620431
O O14 0.000000 0.630662 0.250000
O O15 0.500000 0.145237 0.250000
#
# Coordination Sequence:
#
# PCOD8155614 Si02
#       7
#     4   4   4   2   4   4   4
#     4  10  23  43  66  92 129 172 223 273 334 404
#     4  10  21  46  69  93 137 180 227 284 337 411
#     4  11  25  41  68  98 135 175 218 281 342 410
#     4  10  24  44  68  92 130 176 220 276 336 408
#     4  11  26  43  71 101 131 182 231 285 341 410
#     4   9  21  40  66  95 123 173 225 270 327 399
#     4  12  27  43  67 105 139 179 227 287 355 410
#
# _framework density 20.569478
#
# number of rings (size 3 to 8) (size 9 to 14) (size 15 to 20)
#    0.000    1.538    1.538    1.385    8.615    2.462 
#    0.000    0.000    0.000    0.000    0.000    0.000 
#    0.000    0.000    0.000    0.000    0.000    0.000 
#
# Total GULP energy -322112.156737 kJ/mol
# GULP energy per Si atom -12388.929105 kJ/mol
# Density = 2.052266 g / cm^3
# Si number density = 20.569478 Si / 1000 Ang^3
#
#
#
# Elastic Constant Matrix: (Units=GPa)
#
#
# Indices 1 2 3 4 5 6 
#
# 1 112.9070 70.2497 53.3993 0.0000 0.0000 0.0000
# 2 70.2497 124.7852 56.4904 0.0000 0.0000 0.0000
# 3 53.3993 56.4904 156.5931 0.0000 0.0000 0.0000
# 4 0.0000 0.0000 0.0000 78.9180 0.0000 0.0000
# 5 0.0000 0.0000 0.0000 0.0000 40.4167 0.0000
# 6 0.0000 0.0000 0.0000 0.0000 0.0000 45.0254
#
#
#
# Elastic Compliance Matrix: (Units=1/GPa)
#
#
# Indices 1 2 3 4 5 6 
#
# 1 0.014327 -0.006996 -0.002362 0.000000 0.000000 0.000000
# 2 -0.006996 0.012995 -0.002302 0.000000 0.000000 0.000000
# 3 -0.002362 -0.002302 0.008022 0.000000 0.000000 0.000000
# 4 0.000000 0.000000 0.000000 0.012671 0.000000 0.000000
# 5 0.000000 0.000000 0.000000 0.000000 0.024742 0.000000
# 6 0.000000 0.000000 0.000000 0.000000 0.000000 0.022210
#
#
# Mechanical properties :
#
#
# Convention : Reuss Voigt Hill
#
# Bulk Modulus (GPa) = 83.17222 83.84044 83.50633
# Shear Modulus (GPa) = 40.88497 47.14839 44.01668
#
# Velocity S-wave (km/s) = 4.46315 4.79284 4.63093
# Velocity P-wave (km/s) = 8.19037 8.45438 8.32342
#
# Compressibility (1/GPa) = 0.01202325
#
# Stress axis : x y z
#
# Youngs Moduli (GPa) = 69.79873 76.95498 124.66149
#
# Poissons Ratio (x) = 0.53841 0.29440
# Poissons Ratio (y) = 0.48834 0.28696
# Poissons Ratio (z) = 0.16484 0.17714
#
# Static dielectric constant tensor:
#      x y z
#    x 3.713520 0.000000 0.000000 
#    y 0.000000 3.765300 0.000000 
#    z 0.000000 0.000000 3.324000 
# 
# 
# High freq. dielectric constant tensor:
#      x y z
#    x 1.811900 0.000000 0.000000 
#    y 0.000000 1.803160 0.000000 
#    z 0.000000 0.000000 1.817500 
# 
# From -- ./inp_files/10454.got.cif
#   From: 2010.03.12/outbox.cif.g09.slc.cpg/sg17_6_cif.got.tgz:10454.got - 2010.04.10 18:46:23.
