data_PCOD8155439
_publ_section_title
;
Structure prediction by ZEFSAII (Michael W. Deem and Ramdas Pophale) SiO2 
 PCOD8155439
Probable space group: P 2 2 21
;
_chemical_formula_sum "Si O2"
_cell_formula_units_Z 24
_cell_length_a 10.562693
_cell_length_b 8.917438
_cell_length_c 12.531843
_cell_angle_alpha 90.000000
_cell_angle_beta 90.000000
_cell_angle_gamma 90.000000
_cell_volume 1180.401360
_symmetry_space_group_name_H-M "P 2 2 21"
_symmetry_group_IT_number 17
_symmetry_cell_setting 'orthorhombic'
loop_
_space_group_symop_operation_xyz
x,y,z
-x,-y,1/2+z
x,-y,-z
-x,y,1/2-z
loop_
_atom_site_type_symbol
_atom_site_label
_atom_site_fract_x
_atom_site_fract_y
_atom_site_fract_z
Si Si1 0.333452 0.097356 0.107652
Si Si2 0.487661 0.676344 0.000534
Si Si3 0.861670 0.169253 0.223943
Si Si4 0.123760 0.823238 0.315118
Si Si5 0.373829 0.202185 0.801854
Si Si6 0.224390 0.323589 0.487031
O O1 0.439455 0.229042 0.101667
O O2 0.209687 0.171073 0.161834
O O3 0.385779 0.977831 0.193455
O O4 0.301341 0.000000 0.000000
O O5 0.632770 0.724097 0.022557
O O6 0.477438 0.500000 0.000000
O O7 0.378113 0.728140 0.081310
O O8 0.796774 0.275993 0.135669
O O9 0.000000 0.233678 0.250000
O O10 0.870133 0.001873 0.176630
O O11 0.245166 0.749702 0.256422
O O12 0.124232 0.759894 0.435756
O O13 0.000000 0.770599 0.250000
O O14 0.500000 0.271509 0.750000
O O15 0.204973 0.500000 0.500000
#
# Coordination Sequence:
#
# PCOD8155439 Si02
#       6
#     4   4   4   4   4   4
#     4   9  21  37  61  89 117 150 201 255 307 362
#     4  10  22  38  57  88 122 157 198 254 310 363
#     4  10  23  40  62  88 119 160 203 255 311 366
#     4  10  22  40  63  90 119 161 203 254 307 362
#     4  10  19  36  61  87 116 150 202 249 297 355
#     4  11  24  39  58  88 125 162 205 251 307 380
#
# _framework density 20.332066999999999
#
# number of rings (size 3 to 8) (size 9 to 14) (size 15 to 20)
#    0.000    2.000    1.667    0.500    4.667    8.667 
#    0.000    1.667    0.000    0.000    0.000    0.000 
#    0.000    0.000    0.000    0.000    0.000    0.000 
#
# Total GULP energy -297369.139056 kJ/mol
# GULP energy per Si atom -12390.380794 kJ/mol
# Density = 2.028579 g / cm^3
# Si number density = 20.332067 Si / 1000 Ang^3
#
#
#
# Elastic Constant Matrix: (Units=GPa)
#
#
# Indices 1 2 3 4 5 6 
#
# 1 127.0534 40.9668 47.7328 0.0000 0.0000 0.0000
# 2 40.9668 73.0693 31.6343 0.0000 0.0000 0.0000
# 3 47.7328 31.6343 85.3684 0.0000 0.0000 0.0000
# 4 0.0000 0.0000 0.0000 21.8920 0.0000 0.0000
# 5 0.0000 0.0000 0.0000 0.0000 38.4961 0.0000
# 6 0.0000 0.0000 0.0000 0.0000 0.0000 19.8217
#
#
#
# Elastic Compliance Matrix: (Units=1/GPa)
#
#
# Indices 1 2 3 4 5 6 
#
# 1 0.010925 -0.004146 -0.004573 0.000000 0.000000 0.000000
# 2 -0.004146 0.017874 -0.004305 0.000000 0.000000 0.000000
# 3 -0.004573 -0.004305 0.015866 0.000000 0.000000 0.000000
# 4 0.000000 0.000000 0.000000 0.045679 0.000000 0.000000
# 5 0.000000 0.000000 0.000000 0.000000 0.025977 0.000000
# 6 0.000000 0.000000 0.000000 0.000000 0.000000 0.050450
#
#
# Mechanical properties :
#
#
# Convention : Reuss Voigt Hill
#
# Bulk Modulus (GPa) = 53.71141 58.46211 56.08676
# Shear Modulus (GPa) = 25.12264 27.05244 26.08754
#
# Velocity S-wave (km/s) = 3.51895 3.65160 3.58589
# Velocity P-wave (km/s) = 6.55630 6.82605 6.69254
#
# Compressibility (1/GPa) = 0.01861802
#
# Stress axis : x y z
#
# Youngs Moduli (GPa) = 91.53059 55.94746 63.02783
#
# Poissons Ratio (x) = 0.23194 0.28820
# Poissons Ratio (y) = 0.37946 0.27136
# Poissons Ratio (z) = 0.41853 0.24087
#
# Static dielectric constant tensor:
#      x y z
#    x 3.827180 0.000000 0.000000 
#    y 0.000000 3.603800 0.000000 
#    z 0.000000 0.000000 3.842110 
# 
# 
# High freq. dielectric constant tensor:
#      x y z
#    x 1.791920 0.000000 0.000000 
#    y 0.000000 1.778620 0.000000 
#    z 0.000000 0.000000 1.795390 
# 
# From -- ./inp_files/6923.got.cif
#   From: 2010.03.12/outbox.cif.g09.slc.cpg/sg17_4_cif.got.tgz:6923.got - 2010.04.10 18:46:23.
