data_PCOD8155726
_publ_section_title
;
Structure prediction by ZEFSAII (Michael W. Deem and Ramdas Pophale) SiO2 
 PCOD8155726
Probable space group: P 2 2 21
;
_chemical_formula_sum "Si O2"
_cell_formula_units_Z 20
_cell_length_a 5.163080
_cell_length_b 11.415693
_cell_length_c 15.123498
_cell_angle_alpha 90.000000
_cell_angle_beta 90.000000
_cell_angle_gamma 90.000000
_cell_volume 891.381032
_symmetry_space_group_name_H-M "P 2 2 21"
_symmetry_group_IT_number 17
_symmetry_cell_setting 'orthorhombic'
loop_
_space_group_symop_operation_xyz
x,y,z
-x,-y,1/2+z
x,-y,-z
-x,y,1/2-z
loop_
_atom_site_type_symbol
_atom_site_label
_atom_site_fract_x
_atom_site_fract_y
_atom_site_fract_z
Si Si1 0.811420 0.741117 0.926674
Si Si2 0.763203 0.775739 0.304366
Si Si3 0.000000 0.667852 0.750000
Si Si4 0.335711 0.500000 0.500000
Si Si5 0.316345 0.474059 0.832177
Si Si6 0.692861 0.863317 0.496141
O O1 0.816910 0.740855 0.817706
O O2 0.840413 0.611250 0.971220
O O3 0.536091 0.793360 0.955396
O O4 0.038741 0.825337 0.959318
O O5 0.500000 0.775633 0.250000
O O6 0.856272 0.643483 0.328784
O O7 0.704949 0.844671 0.392307
O O8 0.000000 0.834794 0.250000
O O9 0.855086 0.590178 0.675587
O O10 0.519840 0.533362 0.420162
O O11 0.500000 0.477243 0.750000
O O12 0.641880 0.000000 0.500000
#
# Coordination Sequence:
#
# PCOD8155726 Si02
#       6
#     4   4   2   2   4   4
#     4  12  28  46  76 110 148 194 245 308 381 447
#     4  11  24  44  71 106 138 188 247 303 364 431
#     4  12  26  42  72 114 156 190 240 310 392 466
#     4  12  24  44  74 110 152 198 240 306 394 452
#     4  11  23  41  66 107 153 192 231 299 372 461
#     4  12  28  53  76 102 146 202 259 305 359 438
#
# _framework density 22.437092
#
# number of rings (size 3 to 8) (size 9 to 14) (size 15 to 20)
#    0.000    0.400    5.000    3.000    5.600    0.800 
#    5.400    0.000    0.000    0.000    0.000    0.000 
#    0.000    0.000    0.000    0.000    0.000    0.000 
#
# Total GULP energy -247927.848053 kJ/mol
# GULP energy per Si atom -12396.392403 kJ/mol
# Density = 2.238602 g / cm^3
# Si number density = 22.437092 Si / 1000 Ang^3
#
#
#
# Elastic Constant Matrix: (Units=GPa)
#
#
# Indices 1 2 3 4 5 6 
#
# 1 108.0886 20.7886 54.0145 0.0000 0.0000 0.0000
# 2 20.7886 98.5132 35.8965 0.0000 0.0000 0.0000
# 3 54.0145 35.8965 185.3298 0.0000 0.0000 0.0000
# 4 0.0000 0.0000 0.0000 129.8430 0.0000 0.0000
# 5 0.0000 0.0000 0.0000 0.0000 49.4673 0.0000
# 6 0.0000 0.0000 0.0000 0.0000 0.0000 29.8119
#
#
#
# Elastic Compliance Matrix: (Units=1/GPa)
#
#
# Indices 1 2 3 4 5 6 
#
# 1 0.010967 -0.001237 -0.002957 0.000000 0.000000 0.000000
# 2 -0.001237 0.011061 -0.001782 0.000000 0.000000 0.000000
# 3 -0.002957 -0.001782 0.006603 0.000000 0.000000 0.000000
# 4 0.000000 0.000000 0.000000 0.007702 0.000000 0.000000
# 5 0.000000 0.000000 0.000000 0.000000 0.020215 0.000000
# 6 0.000000 0.000000 0.000000 0.000000 0.000000 0.033544
#
#
# Mechanical properties :
#
#
# Convention : Reuss Voigt Hill
#
# Bulk Modulus (GPa) = 59.95294 68.14787 64.05041
# Shear Modulus (GPa) = 46.46709 60.57323 53.52016
#
# Velocity S-wave (km/s) = 4.55576 5.20149 4.88930
# Velocity P-wave (km/s) = 7.37914 8.15554 7.77703
#
# Compressibility (1/GPa) = 0.01667975
#
# Stress axis : x y z
#
# Youngs Moduli (GPa) = 91.18137 90.40567 151.45328
#
# Poissons Ratio (x) = 0.11182 0.44782
# Poissons Ratio (y) = 0.11278 0.26988
# Poissons Ratio (z) = 0.26961 0.16110
#
# Static dielectric constant tensor:
#      x y z
#    x 3.760000 0.000000 0.000000 
#    y 0.000000 4.297280 0.000000 
#    z 0.000000 0.000000 4.150230 
# 
# 
# High freq. dielectric constant tensor:
#      x y z
#    x 1.890640 0.000000 0.000000 
#    y 0.000000 1.863910 0.000000 
#    z 0.000000 0.000000 1.911160 
# 
# From -- ./inp_files/7637.got.cif
#   From: 2010.03.12/outbox.cif.g09.slc.cpg/sg17_4_cif.got.tgz:7637.got - 2010.04.10 18:46:23.
