data_PCOD8155241
_publ_section_title
;
Structure prediction by ZEFSAII (Michael W. Deem and Ramdas Pophale) SiO2 
 PCOD8155241
Probable space group: P 2 2 2
;
_chemical_formula_sum "Si O2"
_cell_formula_units_Z 32
_cell_length_a 8.751293
_cell_length_b 11.964499
_cell_length_c 15.531305
_cell_angle_alpha 90.000000
_cell_angle_beta 90.000000
_cell_angle_gamma 90.000000
_cell_volume 1626.202748
_symmetry_space_group_name_H-M "P 2 2 2"
_symmetry_group_IT_number 16
_symmetry_cell_setting 'orthorhombic'
loop_
_space_group_symop_operation_xyz
x,y,z
-x,-y,z
x,-y,-z
-x,y,-z
loop_
_atom_site_type_symbol
_atom_site_label
_atom_site_fract_x
_atom_site_fract_y
_atom_site_fract_z
Si Si1 0.181075 0.261375 0.842348
Si Si2 0.321772 0.130921 0.000000
Si Si3 0.181294 0.500000 0.096415
Si Si4 0.318601 0.736000 0.336235
Si Si5 0.318709 0.500000 0.596327
Si Si6 0.818925 0.738625 0.157652
Si Si7 0.318294 0.125492 0.500000
Si Si8 0.318601 0.736000 0.663765
O O1 0.240041 0.388754 0.855650
O O2 0.241180 0.218620 0.750447
O O3 0.000000 0.254090 0.846401
O O4 0.247420 0.182115 0.915228
O O5 0.247420 0.182115 0.084772
O O6 0.500000 0.158310 0.000000
O O7 0.288291 0.000000 0.000000
O O8 0.240041 0.388754 0.144350
O O9 0.000000 0.500000 0.092300
O O10 0.248937 0.500000 0.000000
O O11 0.262164 0.609408 0.353142
O O12 0.258932 0.811907 0.414833
O O13 0.500000 0.743305 0.326643
O O14 0.500000 0.500000 0.588866
O O15 0.249463 0.500000 0.500000
O O16 0.262164 0.609408 0.646858
O O17 0.758820 0.781380 0.249553
O O18 0.500000 0.126493 0.500000
O O19 0.258932 0.188093 0.414833
O O20 0.253074 0.000000 0.500000
#
# Coordination Sequence:
#
# PCOD8155241 Si02
#       8
#     4   4   4   4   4   4   4   4
#     4  11  22  38  61  87 118 153 188 229 285 348
#     4  11  25  44  63  84 112 147 192 243 286 331
#     4   9  17  34  58  83 113 151 186 222 273 338
#     4  10  19  33  55  82 112 146 188 236 284 333
#     4   9  15  28  53  82 110 146 192 241 283 326
#     4  11  22  38  61  87 118 153 188 229 285 348
#     4   9  18  33  54  78 105 143 188 232 280 331
#     4  10  19  33  55  82 112 146 188 236 284 333
#
# _framework density 19.677741000000001
#
# number of rings (size 3 to 8) (size 9 to 14) (size 15 to 20)
#    0.000    2.000    2.500    1.875    0.000    2.000 
#    0.000    5.625    0.000    1.500    0.000    0.000 
#    0.000    0.000    0.000    0.000    0.000    0.000 
#
# Total GULP energy -396842.209607 kJ/mol
# GULP energy per Si atom -12401.319050 kJ/mol
# Density = 1.963295 g / cm^3
# Si number density = 19.677741 Si / 1000 Ang^3
#
#
#
# Elastic Constant Matrix: (Units=GPa)
#
#
# Indices 1 2 3 4 5 6 
#
# 1 54.0430 42.7774 47.1216 0.0000 0.0000 0.0000
# 2 42.7774 138.7001 80.0411 0.0000 0.0000 0.0000
# 3 47.1216 80.0411 199.4380 0.0000 0.0000 0.0000
# 4 0.0000 0.0000 0.0000 17.4064 0.0000 0.0000
# 5 0.0000 0.0000 0.0000 0.0000 6.4340 0.0000
# 6 0.0000 0.0000 0.0000 0.0000 0.0000 18.8947
#
#
#
# Elastic Compliance Matrix: (Units=1/GPa)
#
#
# Indices 1 2 3 4 5 6 
#
# 1 0.026620 -0.005961 -0.003897 0.000000 0.000000 0.000000
# 2 -0.005961 0.010718 -0.002893 0.000000 0.000000 0.000000
# 3 -0.003897 -0.002893 0.007096 0.000000 0.000000 0.000000
# 4 0.000000 0.000000 0.000000 0.057450 0.000000 0.000000
# 5 0.000000 0.000000 0.000000 0.000000 0.155423 0.000000
# 6 0.000000 0.000000 0.000000 0.000000 0.000000 0.052925
#
#
# Mechanical properties :
#
#
# Convention : Reuss Voigt Hill
#
# Bulk Modulus (GPa) = 52.82220 81.34017 67.08119
# Shear Modulus (GPa) = 14.61793 23.36309 18.99051
#
# Velocity S-wave (km/s) = 2.72851 3.44944 3.10994
# Velocity P-wave (km/s) = 6.06863 7.56906 6.85999
#
# Compressibility (1/GPa) = 0.01893143
#
# Stress axis : x y z
#
# Youngs Moduli (GPa) = 37.56514 93.30285 140.92565
#
# Poissons Ratio (x) = 0.55619 0.54922
# Poissons Ratio (y) = 0.22393 0.40769
# Poissons Ratio (z) = 0.14640 0.26992
#
# Static dielectric constant tensor:
#      x y z
#    x 3.141490 0.000000 0.000000 
#    y 0.000000 3.786380 0.000000 
#    z 0.000000 0.000000 3.695000 
# 
# 
# High freq. dielectric constant tensor:
#      x y z
#    x 1.727570 0.000000 0.000000 
#    y 0.000000 1.768810 0.000000 
#    z 0.000000 0.000000 1.784490 
# 
# From -- ./inp_files/7994.got.cif
#   From: 2010.03.12/outbox.cif.g09.slc.cpg/sg16_4_cif.got.tgz:7994.got - 2010.03.31 00:51:45.
