data_PCOD8155545
_publ_section_title
;
Structure prediction by ZEFSAII (Michael W. Deem and Ramdas Pophale) SiO2 
 PCOD8155545
Probable space group: P 2 2 21
;
_chemical_formula_sum "Si O2"
_cell_formula_units_Z 20
_cell_length_a 11.226007
_cell_length_b 9.543198
_cell_length_c 9.546417
_cell_angle_alpha 90.000000
_cell_angle_beta 90.000000
_cell_angle_gamma 90.000000
_cell_volume 1022.726818
_symmetry_space_group_name_H-M "P 2 2 21"
_symmetry_group_IT_number 17
_symmetry_cell_setting 'orthorhombic'
loop_
_space_group_symop_operation_xyz
x,y,z
-x,-y,1/2+z
x,-y,-z
-x,y,1/2-z
loop_
_atom_site_type_symbol
_atom_site_label
_atom_site_fract_x
_atom_site_fract_y
_atom_site_fract_z
Si Si1 0.013907 0.135764 0.917515
Si Si2 0.783991 0.654913 0.510046
Si Si3 0.633639 0.332931 0.750198
Si Si4 0.251840 0.838322 0.478232
Si Si5 0.637336 0.347557 0.217170
O O1 0.000000 0.110671 0.750000
O O2 0.889844 0.181447 0.988983
O O3 0.110349 0.250938 0.953489
O O4 0.060071 0.000000 0.000000
O O5 0.839121 0.500000 0.500000
O O6 0.669701 0.661414 0.410848
O O7 0.731278 0.694587 0.661430
O O8 0.500000 0.279155 0.750000
O O9 0.712271 0.214897 0.824941
O O10 0.647005 0.487333 0.819145
O O11 0.322764 0.741909 0.585338
O O12 0.288083 0.000000 0.500000
O O13 0.500000 0.309224 0.250000
#
# Coordination Sequence:
#
# PCOD8155545 Si02
#       5
#     4   4   4   4   4
#     4  11  25  44  64  88 123 165 205 251 309 365
#     4  10  22  39  63  93 121 157 206 257 303 354
#     4  10  20  40  65  89 123 163 199 254 309 361
#     4  11  24  39  60  91 123 161 208 248 303 362
#     4  10  22  40  64  93 124 160 203 246 308 368
#
# _framework density 19.555565999999999
#
# number of rings (size 3 to 8) (size 9 to 14) (size 15 to 20)
#    0.000    1.600    2.000    1.800    5.600    5.600 
#    0.000    2.000    0.000    0.000    0.000    0.000 
#    0.000    0.000    0.000    0.000    0.000    0.000 
#
# Total GULP energy -247973.767896 kJ/mol
# GULP energy per Si atom -12398.688395 kJ/mol
# Density = 1.951106 g / cm^3
# Si number density = 19.555566 Si / 1000 Ang^3
#
#
#
# Elastic Constant Matrix: (Units=GPa)
#
#
# Indices 1 2 3 4 5 6 
#
# 1 86.0705 49.6209 15.1267 0.0000 0.0000 0.0000
# 2 49.6209 92.0272 31.9891 0.0000 0.0000 0.0000
# 3 15.1267 31.9891 69.5624 0.0000 0.0000 0.0000
# 4 0.0000 0.0000 0.0000 34.1444 0.0000 0.0000
# 5 0.0000 0.0000 0.0000 0.0000 29.4377 0.0000
# 6 0.0000 0.0000 0.0000 0.0000 0.0000 9.9185
#
#
#
# Elastic Compliance Matrix: (Units=1/GPa)
#
#
# Indices 1 2 3 4 5 6 
#
# 1 0.016881 -0.009315 0.000613 0.000000 0.000000 0.000000
# 2 -0.009315 0.018074 -0.006286 0.000000 0.000000 0.000000
# 3 0.000613 -0.006286 0.017133 0.000000 0.000000 0.000000
# 4 0.000000 0.000000 0.000000 0.029287 0.000000 0.000000
# 5 0.000000 0.000000 0.000000 0.000000 0.033970 0.000000
# 6 0.000000 0.000000 0.000000 0.000000 0.000000 0.100822
#
#
# Mechanical properties :
#
#
# Convention : Reuss Voigt Hill
#
# Bulk Modulus (GPa) = 45.22541 49.01482 47.12011
# Shear Modulus (GPa) = 19.72273 24.76168 22.24220
#
# Velocity S-wave (km/s) = 3.17921 3.56226 3.37617
# Velocity P-wave (km/s) = 6.05420 6.48370 6.27263
#
# Compressibility (1/GPa) = 0.02211147
#
# Stress axis : x y z
#
# Youngs Moduli (GPa) = 59.23805 55.32764 58.36695
#
# Poissons Ratio (x) = 0.51539 -0.03577
# Poissons Ratio (y) = 0.55182 0.36689
# Poissons Ratio (z) = -0.03630 0.34779
#
# Static dielectric constant tensor:
#      x y z
#    x 3.546560 0.000000 0.000000 
#    y 0.000000 3.730220 0.000000 
#    z 0.000000 0.000000 3.673240 
# 
# 
# High freq. dielectric constant tensor:
#      x y z
#    x 1.770610 0.000000 0.000000 
#    y 0.000000 1.759060 0.000000 
#    z 0.000000 0.000000 1.771580 
# 
# From -- ./inp_files/4004.got.cif
#   From: 2010.03.12/outbox.cif.g09.slc.cpg/sg17_3_cif.got.tgz:4004.got - 2010.04.10 18:46:23.
