data_PCOD8155102
_publ_section_title
;
Structure prediction by ZEFSAII (Michael W. Deem and Ramdas Pophale) SiO2 
 PCOD8155102
Probable space group: C 2/C
;
_chemical_formula_sum "Si O2"
_cell_formula_units_Z 40
_cell_length_a 26.742604
_cell_length_b 8.145177
_cell_length_c 12.155352
_cell_angle_alpha 90.000000
_cell_angle_beta 139.454208
_cell_angle_gamma 90.000000
_cell_volume 1721.163968
_symmetry_space_group_name_H-M "C 2/C"
_symmetry_group_IT_number 15
_symmetry_cell_setting 'monoclinic'
loop_
_space_group_symop_operation_xyz
x,y,z
-x,y,1/2-z
-x,-y,-z
x,-y,1/2+z
1/2+x,1/2+y,z
1/2-x,1/2+y,1/2-z
1/2-x,1/2-y,-z
1/2+x,1/2-y,1/2+z
loop_
_atom_site_type_symbol
_atom_site_label
_atom_site_fract_x
_atom_site_fract_y
_atom_site_fract_z
Si Si1 0.332951 0.823144 0.108921
Si Si2 0.033935 0.177263 0.031309
Si Si3 0.145576 0.833582 0.526500
Si Si4 0.200105 0.193841 0.666181
Si Si5 0.377007 0.186471 0.245073
O O1 0.399621 0.709956 0.269579
O O2 0.343222 0.007000 0.168970
O O3 0.250000 0.750000 0.000000
O O4 0.339202 0.819928 0.986366
O O5 0.067013 0.183234 0.963088
O O6 0.966968 0.314712 0.929663
O O7 0.000000 0.000000 0.000000
O O8 0.207334 0.706930 0.680821
O O9 0.129775 0.799712 0.373104
O O10 0.180914 0.012968 0.595129
O O11 0.171896 0.228057 0.741627
#
# Coordination Sequence:
#
# PCOD8155102 Si02
#       5
#     8   8   8   8   8
#     4  12  27  50  80 110 159 206 261 319 387 474
#     4  12  26  52  78 114 158 205 258 328 398 457
#     4  12  26  48  78 112 158 207 258 324 392 468
#     4  12  26  47  79 112 154 203 266 320 388 469
#     4  12  28  49  79 115 156 204 264 324 397 460
#
# _framework density 23.240089000000001
#
# number of rings (size 3 to 8) (size 9 to 14) (size 15 to 20)
#    0.000    0.000    4.000    5.400    2.800    0.800 
#    3.600    0.000    0.000    0.000    0.000    0.000 
#    0.000    0.000    0.000    0.000    0.000    0.000 
#
# Total GULP energy -248120.011187 kJ/mol
# GULP energy per Si atom -12406.000559 kJ/mol
# Density = 2.318719 g / cm^3
# Si number density = 23.240089 Si / 1000 Ang^3
#
#
#
# Elastic Constant Matrix: (Units=GPa)
#
#
# Indices 1 2 3 4 5 6 
#
# 1 151.6333 58.6350 48.5766 0.0000 -1.8017 0.0000
# 2 58.6350 106.7632 33.0573 0.0000 11.2494 0.0000
# 3 48.5766 33.0573 105.4465 0.0000 2.1227 0.0000
# 4 0.0000 0.0000 0.0000 54.7275 0.0000 3.1507
# 5 -1.8017 11.2494 2.1227 0.0000 57.6924 0.0000
# 6 0.0000 0.0000 0.0000 3.1507 0.0000 36.9574
#
#
#
# Elastic Compliance Matrix: (Units=1/GPa)
#
#
# Indices 1 2 3 4 5 6 
#
# 1 0.009199 -0.004277 -0.002922 0.000000 0.001229 0.000000
# 2 -0.004277 0.012575 -0.001921 0.000000 -0.002515 0.000000
# 3 -0.002922 -0.001921 0.011435 0.000000 -0.000137 0.000000
# 4 0.000000 0.000000 0.000000 0.018362 0.000000 -0.001565
# 5 0.001229 -0.002515 -0.000137 0.000000 0.017867 0.000000
# 6 0.000000 0.000000 0.000000 -0.001565 0.000000 0.027192
#
#
# Mechanical properties :
#
#
# Convention : Reuss Voigt Hill
#
# Bulk Modulus (GPa) = 66.80558 71.59787 69.20173
# Shear Modulus (GPa) = 41.71498 44.78040 43.24769
#
# Velocity S-wave (km/s) = 4.24129 4.39436 4.31851
# Velocity P-wave (km/s) = 7.26588 7.52476 7.39645
#
# Compressibility (1/GPa) = 0.01496881
#
# Stress axis : x y z
#
# Youngs Moduli (GPa) = 108.70260 79.51970 87.45388
#
# Poissons Ratio (x) = 0.34012 0.25552
# Poissons Ratio (y) = 0.46494 0.16803
# Poissons Ratio (z) = 0.31761 0.15279
#
# Static dielectric constant tensor:
#      x y z
#    x 4.416050 0.000000 0.040120 
#    y 0.000000 4.159100 0.000000 
#    z 0.040120 0.000000 4.832610 
# 
# 
# High freq. dielectric constant tensor:
#      x y z
#    x 1.930610 0.000000 -0.002900 
#    y 0.000000 1.922120 0.000000 
#    z -0.002900 0.000000 1.941610 
# 
# From -- ./inp_files/125743.got.cif
#   From: 2010.06.25/outbox.cif.g09.slc.cpg/sg15_63_cif.got.tgz:125743.got - 2010.06.28 07:06:18.
