data_PCOD8155524
_publ_section_title
;
Structure prediction by ZEFSAII (Michael W. Deem and Ramdas Pophale) SiO2 
 PCOD8155524
Probable space group: P 2 2 21
;
_chemical_formula_sum "Si O2"
_cell_formula_units_Z 32
_cell_length_a 9.068055
_cell_length_b 10.278970
_cell_length_c 17.546848
_cell_angle_alpha 90.000000
_cell_angle_beta 90.000000
_cell_angle_gamma 90.000000
_cell_volume 1635.546357
_symmetry_space_group_name_H-M "P 2 2 21"
_symmetry_group_IT_number 17
_symmetry_cell_setting 'orthorhombic'
loop_
_space_group_symop_operation_xyz
x,y,z
-x,-y,1/2+z
x,-y,-z
-x,y,1/2-z
loop_
_atom_site_type_symbol
_atom_site_label
_atom_site_fract_x
_atom_site_fract_y
_atom_site_fract_z
Si Si1 0.562357 0.269334 0.097562
Si Si2 0.568312 0.007125 0.172010
Si Si3 0.915240 0.011741 0.171650
Si Si4 0.895909 0.245730 0.913557
Si Si5 0.050964 0.483797 0.837088
Si Si6 0.900959 0.273265 0.091580
Si Si7 0.559396 0.239940 0.921950
Si Si8 0.638247 0.514250 0.410282
O O1 0.506612 0.148736 0.148421
O O2 0.732462 0.302311 0.114272
O O3 0.464569 0.394700 0.115078
O O4 0.548934 0.222144 0.011571
O O5 0.500000 0.960549 0.250000
O O6 0.741776 0.014773 0.184236
O O7 0.515732 0.899982 0.111305
O O8 0.966055 0.147638 0.134740
O O9 0.000000 0.988381 0.250000
O O10 0.951236 0.895072 0.113908
O O11 0.724930 0.274793 0.895478
O O12 0.990160 0.349414 0.868088
O O13 0.925557 0.251793 0.002683
O O14 0.226339 0.483202 0.851411
O O15 0.000000 0.501987 0.750000
O O16 0.993458 0.602437 0.886344
O O17 0.451063 0.353548 0.894617
O O18 0.683253 0.500000 0.500000
#
# Coordination Sequence:
#
# PCOD8155524 Si02
#       8
#     4   4   4   4   4   4   4   4
#     4   9  19  37  61  84 108 141 186 234 278 327
#     4  10  21  35  55  83 115 148 179 219 276 337
#     4  10  21  37  57  85 117 146 184 233 278 327
#     4  10  20  38  61  83 109 149 193 231 277 338
#     4  12  25  38  54  82 118 152 185 230 284 336
#     4  10  20  38  61  83 109 149 193 231 277 338
#     4   9  19  37  61  84 108 141 186 234 278 327
#     4  10  21  38  59  84 111 142 185 238 284 332
#
# _framework density 19.565325999999999
#
# number of rings (size 3 to 8) (size 9 to 14) (size 15 to 20)
#    0.000    2.000    0.000    3.375    0.000   11.000 
#    0.000    1.875    0.000    4.500    0.000    0.000 
#    0.000    0.000    0.000    0.000    0.000    0.000 
#
# Total GULP energy -396822.235955 kJ/mol
# GULP energy per Si atom -12400.694874 kJ/mol
# Density = 1.952079 g / cm^3
# Si number density = 19.565326 Si / 1000 Ang^3
#
#
#
# Elastic Constant Matrix: (Units=GPa)
#
#
# Indices 1 2 3 4 5 6 
#
# 1 71.6043 45.3647 35.3873 0.0000 0.0000 0.0000
# 2 45.3647 105.3034 22.8348 0.0000 0.0000 0.0000
# 3 35.3873 22.8348 69.3043 0.0000 0.0000 0.0000
# 4 0.0000 0.0000 0.0000 26.0130 0.0000 0.0000
# 5 0.0000 0.0000 0.0000 0.0000 17.0296 0.0000
# 6 0.0000 0.0000 0.0000 0.0000 0.0000 -24.3110
#
#
#
# Elastic Compliance Matrix: (Units=1/GPa)
#
#
# Indices 1 2 3 4 5 6 
#
# 1 0.023857 -0.008224 -0.009472 0.000000 0.000000 0.000000
# 2 -0.008224 0.013062 -0.000105 0.000000 0.000000 0.000000
# 3 -0.009472 -0.000105 0.019300 0.000000 0.000000 0.000000
# 4 0.000000 0.000000 0.000000 0.038442 0.000000 0.000000
# 5 0.000000 0.000000 0.000000 0.000000 0.058721 0.000000
# 6 0.000000 0.000000 0.000000 0.000000 0.000000 -0.041134
#
#
# Mechanical properties :
#
#
# Convention : Reuss Voigt Hill
#
# Bulk Modulus (GPa) = 48.50051 50.37618 49.43835
# Shear Modulus (GPa) = 32.31622 13.25469 22.78546
#
# Velocity S-wave (km/s) = 4.06853 2.60563 3.41630
# Velocity P-wave (km/s) = 6.84934 5.90389 6.39411
#
# Compressibility (1/GPa) = 0.02061834
#
# Stress axis : x y z
#
# Youngs Moduli (GPa) = 41.91698 76.55935 51.81341
#
# Poissons Ratio (x) = 0.62959 0.49077
# Poissons Ratio (y) = 0.34470 0.00542
# Poissons Ratio (z) = 0.39703 0.00801
#
# Static dielectric constant tensor:
#      x y z
#    x 3.608290 0.000000 0.000000 
#    y 0.000000 4.076480 0.000000 
#    z 0.000000 0.000000 3.631560 
# 
# 
# High freq. dielectric constant tensor:
#      x y z
#    x 1.752780 0.000000 0.000000 
#    y 0.000000 1.781520 0.000000 
#    z 0.000000 0.000000 1.761640 
# 
# From -- ./inp_files/8271.got.cif
#   From: 2010.03.12/outbox.cif.g09.slc.cpg/sg17_5_cif.got.tgz:8271.got - 2010.04.10 18:46:23.
