data_PCOD8155637
_publ_section_title
;
Structure prediction by ZEFSAII (Michael W. Deem and Ramdas Pophale) SiO2 
 PCOD8155637
Probable space group: P 2 2 21
;
_chemical_formula_sum "Si O2"
_cell_formula_units_Z 24
_cell_length_a 17.040768
_cell_length_b 5.816474
_cell_length_c 11.116201
_cell_angle_alpha 90.000000
_cell_angle_beta 90.000000
_cell_angle_gamma 90.000000
_cell_volume 1101.806540
_symmetry_space_group_name_H-M "P 2 2 21"
_symmetry_group_IT_number 17
_symmetry_cell_setting 'orthorhombic'
loop_
_space_group_symop_operation_xyz
x,y,z
-x,-y,1/2+z
x,-y,-z
-x,y,1/2-z
loop_
_atom_site_type_symbol
_atom_site_label
_atom_site_fract_x
_atom_site_fract_y
_atom_site_fract_z
Si Si1 0.958199 0.500000 0.000000
Si Si2 0.874292 0.000000 0.000000
Si Si3 0.588565 0.763369 0.714563
Si Si4 0.294894 0.140054 0.831642
Si Si5 0.832269 0.848165 0.763559
Si Si6 0.287403 0.488567 0.357827
Si Si7 0.351949 0.500000 0.000000
Si Si8 0.000000 0.648898 0.750000
O O1 0.917219 0.249239 0.009019
O O2 0.002784 0.509915 0.129110
O O3 0.822736 0.985314 0.119948
O O4 0.500000 0.812100 0.750000
O O5 0.639128 0.679437 0.829582
O O6 0.591841 0.574511 0.608877
O O7 0.625669 0.993328 0.660357
O O8 0.301263 0.266559 0.703032
O O9 0.216714 0.980300 0.839952
O O10 0.293575 0.303996 0.948468
O O11 0.791862 0.605055 0.794428
O O12 0.923665 0.811865 0.733390
O O13 0.274896 0.500000 0.500000
#
# Coordination Sequence:
#
# PCOD8155637 Si02
#       8
#     2   2   4   4   4   4   2   2
#     4  10  24  44  67 101 140 186 236 310 368 431
#     4  10  22  40  74  94 138 182 234 302 364 414
#     4  10  23  42  66  98 133 175 222 277 343 414
#     4  10  22  42  67  96 134 180 225 279 354 418
#     4  10  22  40  68  98 133 183 231 294 348 421
#     4  10  22  40  67 102 130 175 227 280 341 417
#     4  10  22  44  67  91 138 180 220 282 346 421
#     4  10  24  44  70 104 140 186 242 298 362 422
#
# _framework density 21.782406999999999
#
# number of rings (size 3 to 8) (size 9 to 14) (size 15 to 20)
#    0.000    2.000    0.000    1.500   10.500    7.333 
#    3.000    9.167   22.000    0.000    0.000    0.000 
#    0.000    0.000    0.000    0.000    0.000    0.000 
#
# Total GULP energy -297313.337574 kJ/mol
# GULP energy per Si atom -12388.055732 kJ/mol
# Density = 2.173283 g / cm^3
# Si number density = 21.782407 Si / 1000 Ang^3
#
#
#
# Elastic Constant Matrix: (Units=GPa)
#
#
# Indices 1 2 3 4 5 6 
#
# 1 159.6062 47.4575 36.4092 0.0000 0.0000 0.0000
# 2 47.4575 112.7408 34.4611 0.0000 0.0000 0.0000
# 3 36.4092 34.4611 115.3887 0.0000 0.0000 0.0000
# 4 0.0000 0.0000 0.0000 42.5363 0.0000 0.0000
# 5 0.0000 0.0000 0.0000 0.0000 17.5908 0.0000
# 6 0.0000 0.0000 0.0000 0.0000 0.0000 12.1198
#
#
#
# Elastic Compliance Matrix: (Units=1/GPa)
#
#
# Indices 1 2 3 4 5 6 
#
# 1 0.007404 -0.002644 -0.001547 0.000000 0.000000 0.000000
# 2 -0.002644 0.010705 -0.002363 0.000000 0.000000 0.000000
# 3 -0.001547 -0.002363 0.009860 0.000000 0.000000 0.000000
# 4 0.000000 0.000000 0.000000 0.023509 0.000000 0.000000
# 5 0.000000 0.000000 0.000000 0.000000 0.056848 0.000000
# 6 0.000000 0.000000 0.000000 0.000000 0.000000 0.082510
#
#
# Mechanical properties :
#
#
# Convention : Reuss Voigt Hill
#
# Bulk Modulus (GPa) = 67.28363 69.37682 68.33023
# Shear Modulus (GPa) = 23.93512 32.40990 28.17251
#
# Velocity S-wave (km/s) = 3.31845 3.86151 3.60023
# Velocity P-wave (km/s) = 6.75566 7.19727 6.97996
#
# Compressibility (1/GPa) = 0.01486246
#
# Stress axis : x y z
#
# Youngs Moduli (GPa) = 135.05402 93.41304 101.41926
#
# Poissons Ratio (x) = 0.24699 0.15687
# Poissons Ratio (y) = 0.35709 0.23964
# Poissons Ratio (z) = 0.20889 0.22072
#
# Static dielectric constant tensor:
#      x y z
#    x 3.680130 0.000000 0.000000 
#    y 0.000000 4.084790 0.000000 
#    z 0.000000 0.000000 4.472160 
# 
# 
# High freq. dielectric constant tensor:
#      x y z
#    x 1.830680 0.000000 0.000000 
#    y 0.000000 1.867780 0.000000 
#    z 0.000000 0.000000 1.865910 
# 
# From -- ./inp_files/7368.got.cif
#   From: 2010.03.12/outbox.cif.g09.slc.cpg/sg17_4_cif.got.tgz:7368.got - 2010.04.10 18:46:23.
