data_PCOD8155064
_publ_section_title
;
Structure prediction by ZEFSAII (Michael W. Deem and Ramdas Pophale) SiO2 
 PCOD8155064
Probable space group: C 2/C
;
_chemical_formula_sum "Si O2"
_cell_formula_units_Z 32
_cell_length_a 11.788313
_cell_length_b 16.192327
_cell_length_c 14.496180
_cell_angle_alpha 90.000000
_cell_angle_beta 29.022833
_cell_angle_gamma 90.000000
_cell_volume 1342.449039
_symmetry_space_group_name_H-M "C 2/C"
_symmetry_group_IT_number 15
_symmetry_cell_setting 'monoclinic'
loop_
_space_group_symop_operation_xyz
x,y,z
-x,y,1/2-z
-x,-y,-z
x,-y,1/2+z
1/2+x,1/2+y,z
1/2-x,1/2+y,1/2-z
1/2-x,1/2-y,-z
1/2+x,1/2-y,1/2+z
loop_
_atom_site_type_symbol
_atom_site_label
_atom_site_fract_x
_atom_site_fract_y
_atom_site_fract_z
Si Si1 0.053743 0.135078 0.485974
Si Si2 0.446775 0.178417 0.071787
Si Si3 0.241526 0.934421 0.036814
Si Si4 0.049581 0.594601 0.814856
O O1 0.950123 0.224225 0.587755
O O2 0.827924 0.077799 0.627685
O O3 0.210641 0.141412 0.283231
O O4 0.214850 0.097862 0.451780
O O5 0.676363 0.140152 0.956129
O O6 0.446548 0.157090 0.963728
O O7 0.000000 0.968364 0.250000
O O8 0.432164 0.005730 0.906389
O O9 0.000000 0.634768 0.750000
#
# Coordination Sequence:
#
# PCOD8155064 Si02
#       4
#     8   8   8   8
#     4  12  26  50  77 108 148 193 252 306 364 438
#     4  12  25  50  77 109 147 197 245 308 368 434
#     4  12  26  47  79 111 148 191 252 309 367 431
#     4  12  29  47  72 113 148 201 241 301 374 440
#
# _framework density 23.837032000000001
#
# number of rings (size 3 to 8) (size 9 to 14) (size 15 to 20)
#    0.000    0.000    5.000    3.750    3.500    3.000 
#    0.000    0.000    0.000    0.000    0.000    0.000 
#    0.000    0.000    0.000    0.000    0.000    0.000 
#
# Total GULP energy -198556.209966 kJ/mol
# GULP energy per Si atom -12409.763123 kJ/mol
# Density = 2.378278 g / cm^3
# Si number density = 23.837032 Si / 1000 Ang^3
#
#
#
# Elastic Constant Matrix: (Units=GPa)
#
#
# Indices 1 2 3 4 5 6 
#
# 1 159.3546 52.9469 53.2667 0.0443 4.2865 -0.0195
# 2 52.9469 87.5307 37.4251 0.2887 -16.1232 -0.1776
# 3 53.2667 37.4251 161.4688 0.3040 -6.3910 -0.1883
# 4 0.0443 0.2887 0.3040 41.2719 -0.0350 -0.1697
# 5 4.2865 -16.1232 -6.3910 -0.0350 43.1942 0.0164
# 6 -0.0195 -0.1776 -0.1883 -0.1697 0.0164 33.9194
#
#
#
# Elastic Compliance Matrix: (Units=1/GPa)
#
#
# Indices 1 2 3 4 5 6 
#
# 1 0.008617 -0.004991 -0.001804 0.000036 -0.002985 -0.000030
# 2 -0.004991 0.016430 -0.001910 -0.000090 0.006345 0.000069
# 3 -0.001804 -0.001910 0.007252 -0.000038 0.000539 0.000029
# 4 0.000036 -0.000090 -0.000038 0.024231 -0.000023 0.000121
# 5 -0.002985 0.006345 0.000539 -0.000023 0.025896 0.000022
# 6 -0.000030 0.000069 0.000029 0.000121 0.000022 0.029483
#
#
# Mechanical properties :
#
#
# Convention : Reuss Voigt Hill
#
# Bulk Modulus (GPa) = 67.16599 77.29239 72.22919
# Shear Modulus (GPa) = 37.23519 41.32479 39.27999
#
# Velocity S-wave (km/s) = 3.95659 4.16822 4.06378
# Velocity P-wave (km/s) = 7.00794 7.46064 7.23783
#
# Compressibility (1/GPa) = 0.01488849
#
# Stress axis : x y z
#
# Youngs Moduli (GPa) = 116.05058 60.86601 137.88425
#
# Poissons Ratio (x) = 0.30378 0.24875
# Poissons Ratio (y) = 0.57921 0.26338
# Poissons Ratio (z) = 0.20936 0.11626
#
# Static dielectric constant tensor:
#      x y z
#    x 4.466230 -0.000020 0.068810 
#    y -0.000020 4.128170 0.000090 
#    z 0.068810 0.000090 4.532980 
# 
# 
# High freq. dielectric constant tensor:
#      x y z
#    x 1.946200 0.000000 0.004820 
#    y 0.000000 1.938540 0.000010 
#    z 0.004820 0.000010 1.975010 
# 
# From -- ./inp_files/145338.got.cif
#   From: 2010.06.25/outbox.cif.g09.slc.cpg/sg15_73_cif.got.tgz:145338.got - 2010.06.28 07:06:18.
