data_PCOD8155694
_publ_section_title
;
Structure prediction by ZEFSAII (Michael W. Deem and Ramdas Pophale) SiO2 
 PCOD8155694
Probable space group: P 2 2 21
;
_chemical_formula_sum "Si O2"
_cell_formula_units_Z 16
_cell_length_a 6.271624
_cell_length_b 20.573855
_cell_length_c 5.038470
_cell_angle_alpha 90.000000
_cell_angle_beta 90.000000
_cell_angle_gamma 90.000000
_cell_volume 650.121255
_symmetry_space_group_name_H-M "P 2 2 21"
_symmetry_group_IT_number 17
_symmetry_cell_setting 'orthorhombic'
loop_
_space_group_symop_operation_xyz
x,y,z
-x,-y,1/2+z
x,-y,-z
-x,y,1/2-z
loop_
_atom_site_type_symbol
_atom_site_label
_atom_site_fract_x
_atom_site_fract_y
_atom_site_fract_z
Si Si1 0.144474 0.924693 0.996668
Si Si2 0.500000 0.158544 0.250000
Si Si3 0.141237 0.240440 0.505489
Si Si4 0.362940 0.629545 0.506083
Si Si5 0.867246 0.500000 0.000000
O O1 0.362259 0.884581 0.957509
O O2 0.000000 0.906055 0.750000
O O3 0.000000 0.905875 0.250000
O O4 0.210003 0.000000 0.000000
O O5 0.359750 0.201461 0.453886
O O6 0.189738 0.315914 0.566014
O O7 0.000000 0.232788 0.250000
O O8 0.000000 0.212513 0.750000
O O9 0.500000 0.613812 0.250000
O O10 0.264976 0.561578 0.603553
O O11 0.500000 0.657629 0.750000
O O12 0.000000 0.525768 0.250000
#
# Coordination Sequence:
#
# PCOD8155694 Si02
#       5
#     4   2   4   4   2
#     4  10  25  50  78 112 152 194 249 311 376 453
#     4  12  28  50  78 114 150 206 248 312 384 452
#     4  12  28  49  73 107 152 198 251 312 375 454
#     4  12  24  46  72 104 143 196 251 308 373 445
#     4  12  24  42  70 106 144 192 248 310 372 440
#
# _framework density 24.610793000000001
#
# number of rings (size 3 to 8) (size 9 to 14) (size 15 to 20)
#    0.000    0.500    1.250    6.000    0.000   10.000 
#    0.000    2.500    0.000    0.000    0.000    0.000 
#    0.000    0.000    0.000    0.000    0.000    0.000 
#
# Total GULP energy -198466.235383 kJ/mol
# GULP energy per Si atom -12404.139711 kJ/mol
# Density = 2.455478 g / cm^3
# Si number density = 24.610793 Si / 1000 Ang^3
#
#
#
# Elastic Constant Matrix: (Units=GPa)
#
#
# Indices 1 2 3 4 5 6 
#
# 1 149.8142 76.8546 71.7023 0.0000 0.0000 0.0000
# 2 76.8546 160.5583 26.5380 0.0000 0.0000 0.0000
# 3 71.7023 26.5380 175.9063 0.0000 0.0000 0.0000
# 4 0.0000 0.0000 0.0000 42.2311 0.0000 0.0000
# 5 0.0000 0.0000 0.0000 0.0000 55.6268 0.0000
# 6 0.0000 0.0000 0.0000 0.0000 0.0000 26.1665
#
#
#
# Elastic Compliance Matrix: (Units=1/GPa)
#
#
# Indices 1 2 3 4 5 6 
#
# 1 0.010784 -0.004549 -0.003709 0.000000 0.000000 0.000000
# 2 -0.004549 0.008306 0.000601 0.000000 0.000000 0.000000
# 3 -0.003709 0.000601 0.007106 0.000000 0.000000 0.000000
# 4 0.000000 0.000000 0.000000 0.023679 0.000000 0.000000
# 5 0.000000 0.000000 0.000000 0.000000 0.017977 0.000000
# 6 0.000000 0.000000 0.000000 0.000000 0.000000 0.038217
#
#
# Mechanical properties :
#
#
# Convention : Reuss Voigt Hill
#
# Bulk Modulus (GPa) = 91.89508 92.94096 92.41802
# Shear Modulus (GPa) = 39.99651 45.55048 42.77350
#
# Velocity S-wave (km/s) = 4.03570 4.30680 4.17345
# Velocity P-wave (km/s) = 7.69001 7.91060 7.80109
#
# Compressibility (1/GPa) = 0.01088198
#
# Stress axis : x y z
#
# Youngs Moduli (GPa) = 92.73155 120.39053 140.72243
#
# Poissons Ratio (x) = 0.54763 0.52200
# Poissons Ratio (y) = 0.42182 -0.08458
# Poissons Ratio (z) = 0.34398 -0.07236
#
# Static dielectric constant tensor:
#      x y z
#    x 4.486270 0.000000 0.000000 
#    y 0.000000 5.681170 0.000000 
#    z 0.000000 0.000000 4.201210 
# 
# 
# High freq. dielectric constant tensor:
#      x y z
#    x 1.982350 0.000000 0.000000 
#    y 0.000000 2.005880 0.000000 
#    z 0.000000 0.000000 1.987890 
# 
# From -- ./inp_files/343.got.cif
#   From: 2010.03.12/outbox.cif.g09.slc.cpg/sg17_1_cif.got.tgz:343.got - 2010.04.10 18:46:23.
