data_PCOD8155203
_publ_section_title
;
Structure prediction by ZEFSAII (Michael W. Deem and Ramdas Pophale) SiO2 
 PCOD8155203
Probable space group: C 2/C
;
_chemical_formula_sum "Si O2"
_cell_formula_units_Z 48
_cell_length_a 10.234654
_cell_length_b 9.335691
_cell_length_c 27.498972
_cell_angle_alpha 90.000000
_cell_angle_beta 98.855540
_cell_angle_gamma 90.000000
_cell_volume 2596.139555
_symmetry_space_group_name_H-M "C 2/C"
_symmetry_group_IT_number 15
_symmetry_cell_setting 'monoclinic'
loop_
_space_group_symop_operation_xyz
x,y,z
-x,y,1/2-z
-x,-y,-z
x,-y,1/2+z
1/2+x,1/2+y,z
1/2-x,1/2+y,1/2-z
1/2-x,1/2-y,-z
1/2+x,1/2-y,1/2+z
loop_
_atom_site_type_symbol
_atom_site_label
_atom_site_fract_x
_atom_site_fract_y
_atom_site_fract_z
Si Si1 0.754687 0.824280 0.052437
Si Si2 0.909137 0.081526 0.428800
Si Si3 0.691111 0.405739 0.992070
Si Si4 0.882561 0.287847 0.777553
Si Si5 0.523799 0.380280 0.363954
Si Si6 0.859524 0.999086 0.222569
O O1 0.653888 0.740541 0.082179
O O2 0.899614 0.813575 0.085453
O O3 0.750000 0.750000 0.000000
O O4 0.724271 0.993348 0.040642
O O5 0.044835 0.110294 0.463674
O O6 0.812867 0.981127 0.455494
O O7 0.925158 0.004686 0.377644
O O8 0.750000 0.250000 0.000000
O O9 0.761658 0.394696 0.777086
O O10 0.000000 0.352274 0.750000
O O11 0.942775 0.247441 0.833664
O O12 0.826027 0.143184 0.750828
O O13 0.626745 0.456776 0.333171
O O14 0.000000 0.063617 0.250000
#
# Coordination Sequence:
#
# PCOD8155203 Si02
#       6
#     8   8   8   8   8   8
#     4   9  18  34  52  73 106 145 182 222 265 311
#     4   9  18  33  49  69 103 137 171 220 268 311
#     4   9  18  32  50  70  96 137 183 223 264 308
#     4   9  20  38  59  82 110 142 177 222 276 333
#     4   9  19  33  54  80 108 140 178 223 272 324
#     4   9  20  38  58  81 109 139 177 224 275 333
#
# _framework density 18.488993000000001
#
# number of rings (size 3 to 8) (size 9 to 14) (size 15 to 20)
#    0.000    3.333    0.000    1.000    0.000    9.333 
#    0.000    3.333    0.000    0.000    0.000    0.000 
#    0.000    0.000    0.000    0.000    0.000    0.000 
#
# Total GULP energy -297330.359078 kJ/mol
# GULP energy per Si atom -12388.764962 kJ/mol
# Density = 1.844691 g / cm^3
# Si number density = 18.488993 Si / 1000 Ang^3
#
#
#
# Elastic Constant Matrix: (Units=GPa)
#
#
# Indices 1 2 3 4 5 6 
#
# 1 104.2773 72.6467 35.2160 0.0000 -2.5778 0.0000
# 2 72.6467 120.2177 32.4372 0.0000 1.1766 0.0000
# 3 35.2160 32.4372 88.6775 0.0000 6.9844 0.0000
# 4 0.0000 0.0000 0.0000 16.5718 0.0000 -2.7606
# 5 -2.5778 1.1766 6.9844 0.0000 17.0688 0.0000
# 6 0.0000 0.0000 0.0000 -2.7606 0.0000 54.4434
#
#
#
# Elastic Compliance Matrix: (Units=1/GPa)
#
#
# Indices 1 2 3 4 5 6 
#
# 1 0.017841 -0.009778 -0.003900 0.000000 0.004964 0.000000
# 2 -0.009778 0.014598 -0.001303 0.000000 -0.001950 0.000000
# 3 -0.003900 -0.001303 0.013786 0.000000 -0.006140 0.000000
# 4 0.000000 0.000000 0.000000 0.060857 0.000000 0.003086
# 5 0.004964 -0.001950 -0.006140 0.000000 0.061983 0.000000
# 6 0.000000 0.000000 0.000000 0.003086 0.000000 0.018524
#
#
# Mechanical properties :
#
#
# Convention : Reuss Voigt Hill
#
# Bulk Modulus (GPa) = 61.48667 65.97469 63.73068
# Shear Modulus (GPa) = 22.42437 29.14163 25.78300
#
# Velocity S-wave (km/s) = 3.48638 3.97440 3.73836
# Velocity P-wave (km/s) = 7.03807 7.53802 7.29233
#
# Compressibility (1/GPa) = 0.01626369
#
# Stress axis : x y z
#
# Youngs Moduli (GPa) = 56.04938 68.50447 72.53891
#
# Poissons Ratio (x) = 0.66982 0.28288
# Poissons Ratio (y) = 0.54804 0.09452
# Poissons Ratio (z) = 0.21857 0.08926
#
# Static dielectric constant tensor:
#      x y z
#    x 3.356440 0.000000 -0.113990 
#    y 0.000000 3.510470 0.000000 
#    z -0.113990 0.000000 3.499800 
# 
# 
# High freq. dielectric constant tensor:
#      x y z
#    x 1.698670 0.000000 -0.000480 
#    y 0.000000 1.709000 0.000000 
#    z -0.000480 0.000000 1.720840 
# 
# From -- ./inp_files/290847.got.cif
#   From: 2010.06.25/outbox.cif.g09.slc.cpg/sg15_146_cif.got.tgz:290847.got - 2010.06.28 07:06:18.
