data_PCOD8155305
_publ_section_title
;
Structure prediction by ZEFSAII (Michael W. Deem and Ramdas Pophale) SiO2 
 PCOD8155305
Probable space group: P 2 2 2
;
_chemical_formula_sum "Si O2"
_cell_formula_units_Z 24
_cell_length_a 11.867053
_cell_length_b 11.473536
_cell_length_c 7.713300
_cell_angle_alpha 90.000000
_cell_angle_beta 90.000000
_cell_angle_gamma 90.000000
_cell_volume 1050.220249
_symmetry_space_group_name_H-M "P 2 2 2"
_symmetry_group_IT_number 16
_symmetry_cell_setting 'orthorhombic'
loop_
_space_group_symop_operation_xyz
x,y,z
-x,-y,z
x,-y,-z
-x,y,-z
loop_
_atom_site_type_symbol
_atom_site_label
_atom_site_fract_x
_atom_site_fract_y
_atom_site_fract_z
Si Si1 0.805988 0.111896 0.086475
Si Si2 0.220760 0.706433 0.802894
Si Si3 0.187509 0.541612 0.313063
Si Si4 0.025608 0.743419 0.299159
Si Si5 0.614903 0.059378 0.326926
Si Si6 0.622333 0.692293 0.529948
O O1 0.892518 0.155980 0.231777
O O2 0.703685 0.044229 0.176533
O O3 0.748405 0.218665 0.973765
O O4 0.867125 0.000000 0.000000
O O5 0.210929 0.565217 0.820616
O O6 0.306691 0.727999 0.643323
O O7 0.094567 0.755855 0.787661
O O8 0.142301 0.500000 0.500000
O O9 0.087861 0.623343 0.242819
O O10 0.305049 0.608269 0.346563
O O11 0.000000 0.755332 0.500000
O O12 0.592210 0.194551 0.361247
O O13 0.500000 0.000000 0.265820
O O14 0.663006 0.000000 0.500000
O O15 0.500000 0.631448 0.500000
#
# Coordination Sequence:
#
# PCOD8155305 Si02
#       6
#     4   4   4   4   4   4
#     4  12  28  47  68 109 156 194 249 317 396 442
#     4  11  25  42  70 110 156 190 236 315 385 448
#     4  10  21  40  76 108 144 189 248 302 368 459
#     4  12  22  45  77 103 141 197 257 298 363 467
#     4  11  22  44  76 101 135 198 262 309 361 456
#     4  11  21  42  73 112 142 193 262 309 364 448
#
# _framework density 22.852350999999999
#
# number of rings (size 3 to 8) (size 9 to 14) (size 15 to 20)
#    0.000    0.833    6.667    2.000    0.000    5.333 
#    0.000    2.500    0.000    0.000    8.667    0.000 
#    0.000    0.000    0.000    0.000    0.000    0.000 
#
# Total GULP energy -297337.203897 kJ/mol
# GULP energy per Si atom -12389.050162 kJ/mol
# Density = 2.280034 g / cm^3
# Si number density = 22.852351 Si / 1000 Ang^3
#
#
#
# Elastic Constant Matrix: (Units=GPa)
#
#
# Indices 1 2 3 4 5 6 
#
# 1 151.3940 39.5100 42.8919 0.0000 0.0000 0.0000
# 2 39.5100 128.8395 56.5232 0.0000 0.0000 0.0000
# 3 42.8919 56.5232 57.5157 0.0000 0.0000 0.0000
# 4 0.0000 0.0000 0.0000 39.6287 0.0000 0.0000
# 5 0.0000 0.0000 0.0000 0.0000 18.8342 0.0000
# 6 0.0000 0.0000 0.0000 0.0000 0.0000 52.8623
#
#
#
# Elastic Compliance Matrix: (Units=1/GPa)
#
#
# Indices 1 2 3 4 5 6 
#
# 1 0.008381 0.000302 -0.006547 0.000000 0.000000 0.000000
# 2 0.000302 0.013655 -0.013645 0.000000 0.000000 0.000000
# 3 -0.006547 -0.013645 0.035678 0.000000 0.000000 0.000000
# 4 0.000000 0.000000 0.000000 0.025234 0.000000 0.000000
# 5 0.000000 0.000000 0.000000 0.000000 0.053095 0.000000
# 6 0.000000 0.000000 0.000000 0.000000 0.000000 0.018917
#
#
# Mechanical properties :
#
#
# Convention : Reuss Voigt Hill
#
# Bulk Modulus (GPa) = 55.75658 68.39996 62.07827
# Shear Modulus (GPa) = 24.91043 35.51996 30.21519
#
# Velocity S-wave (km/s) = 3.30519 3.94677 3.64014
# Velocity P-wave (km/s) = 6.24638 7.12499 6.70010
#
# Compressibility (1/GPa) = 0.01793510
#
# Stress axis : x y z
#
# Youngs Moduli (GPa) = 119.31239 73.23312 28.02818
#
# Poissons Ratio (x) = -0.02212 0.18351
# Poissons Ratio (y) = -0.03604 0.38244
# Poissons Ratio (z) = 0.78117 0.99924
#
# Static dielectric constant tensor:
#      x y z
#    x 4.912430 0.000000 0.000000 
#    y 0.000000 4.539130 0.000000 
#    z 0.000000 0.000000 3.252700 
# 
# 
# High freq. dielectric constant tensor:
#      x y z
#    x 1.906960 0.000000 0.000000 
#    y 0.000000 1.917880 0.000000 
#    z 0.000000 0.000000 1.881510 
# 
# From -- ./inp_files/4682.got.cif
#   From: 2010.03.12/outbox.cif.g09.slc.cpg/sg16_3_cif.got.tgz:4682.got - 2010.03.31 00:51:45.
