data_PCOD8155264
_publ_section_title
;
Structure prediction by ZEFSAII (Michael W. Deem and Ramdas Pophale) SiO2 
 PCOD8155264
Probable space group: P 2 2 2
;
_chemical_formula_sum "Si O2"
_cell_formula_units_Z 32
_cell_length_a 8.410857
_cell_length_b 14.246281
_cell_length_c 13.999108
_cell_angle_alpha 90.000000
_cell_angle_beta 90.000000
_cell_angle_gamma 90.000000
_cell_volume 1677.421169
_symmetry_space_group_name_H-M "P 2 2 2"
_symmetry_group_IT_number 16
_symmetry_cell_setting 'orthorhombic'
loop_
_space_group_symop_operation_xyz
x,y,z
-x,-y,z
x,-y,-z
-x,y,-z
loop_
_atom_site_type_symbol
_atom_site_label
_atom_site_fract_x
_atom_site_fract_y
_atom_site_fract_z
Si Si1 0.795199 0.679724 0.680495
Si Si2 0.322148 0.036360 0.689050
Si Si3 0.812103 0.826578 0.831333
Si Si4 0.674546 0.185897 0.461617
Si Si5 0.684608 0.893825 0.017330
Si Si6 0.849918 0.718642 0.366837
Si Si7 0.186774 0.487288 0.394976
Si Si8 0.835002 0.866798 0.216599
O O1 0.802070 0.720399 0.788663
O O2 0.661528 0.732463 0.618249
O O3 0.753653 0.568496 0.678714
O O4 0.960459 0.703644 0.625648
O O5 0.317528 0.107485 0.779086
O O6 0.266242 0.090608 0.592363
O O7 0.500000 0.000000 0.677326
O O8 0.204347 0.950055 0.709309
O O9 0.982072 0.874759 0.813592
O O10 0.777476 0.824909 0.944269
O O11 0.500000 0.166339 0.500000
O O12 0.794254 0.217040 0.544923
O O13 0.722007 0.865875 0.125058
O O14 0.500000 0.881425 0.000000
O O15 0.742091 0.000000 0.000000
O O16 0.764832 0.616744 0.360992
O O17 0.802224 0.768686 0.268845
O O18 0.263168 0.500000 0.500000
O O19 0.000000 0.500000 0.402200
#
# Coordination Sequence:
#
# PCOD8155264 Si02
#       8
#     4   4   4   4   4   4   4   4
#     4   9  19  36  57  81 107 139 181 225 269 315
#     4  11  22  36  51  71 107 150 188 213 260 319
#     4  10  21  36  57  83 106 134 180 232 269 306
#     4  11  22  34  50  74 107 150 185 221 258 308
#     4  11  22  37  59  80 106 143 179 214 267 327
#     4  10  20  35  56  82 108 141 182 221 267 319
#     4   9  15  30  59  81 105 141 178 219 266 318
#     4  11  22  35  56  83 109 136 179 229 267 310
#
# _framework density 19.076903000000001
#
# number of rings (size 3 to 8) (size 9 to 14) (size 15 to 20)
#    0.000    1.750    2.500    2.625    0.000    3.250 
#    0.000    2.500    0.000    9.750    0.000    5.250 
#    0.000    0.000    0.000    0.000    0.000    0.000 
#
# Total GULP energy -396670.084214 kJ/mol
# GULP energy per Si atom -12395.940132 kJ/mol
# Density = 1.903348 g / cm^3
# Si number density = 19.076903 Si / 1000 Ang^3
#
#
#
# Elastic Constant Matrix: (Units=GPa)
#
#
# Indices 1 2 3 4 5 6 
#
# 1 41.8681 34.7931 37.8220 0.0000 0.0000 0.0000
# 2 34.7931 139.4752 75.3850 0.0000 0.0000 0.0000
# 3 37.8220 75.3850 115.3504 0.0000 0.0000 0.0000
# 4 0.0000 0.0000 0.0000 26.5877 0.0000 0.0000
# 5 0.0000 0.0000 0.0000 0.0000 28.4273 0.0000
# 6 0.0000 0.0000 0.0000 0.0000 0.0000 15.5702
#
#
#
# Elastic Compliance Matrix: (Units=1/GPa)
#
#
# Indices 1 2 3 4 5 6 
#
# 1 0.035284 -0.003941 -0.008994 0.000000 0.000000 0.000000
# 2 -0.003941 0.011526 -0.006240 0.000000 0.000000 0.000000
# 3 -0.008994 -0.006240 0.015696 0.000000 0.000000 0.000000
# 4 0.000000 0.000000 0.000000 0.037611 0.000000 0.000000
# 5 0.000000 0.000000 0.000000 0.000000 0.035178 0.000000
# 6 0.000000 0.000000 0.000000 0.000000 0.000000 0.064225
#
#
# Mechanical properties :
#
#
# Convention : Reuss Voigt Hill
#
# Bulk Modulus (GPa) = 41.39683 65.85489 53.62586
# Shear Modulus (GPa) = 20.33167 24.02993 22.18080
#
# Velocity S-wave (km/s) = 3.26816 3.55298 3.41354
# Velocity P-wave (km/s) = 5.99902 7.17128 6.61118
#
# Compressibility (1/GPa) = 0.02415644
#
# Stress axis : x y z
#
# Youngs Moduli (GPa) = 28.34138 86.76384 63.70915
#
# Poissons Ratio (x) = 0.34192 0.57299
# Poissons Ratio (y) = 0.11169 0.39755
# Poissons Ratio (z) = 0.25490 0.54142
#
# Static dielectric constant tensor:
#      x y z
#    x 3.314540 0.000000 0.000000 
#    y 0.000000 3.708630 0.000000 
#    z 0.000000 0.000000 3.521640 
# 
# 
# High freq. dielectric constant tensor:
#      x y z
#    x 1.727590 0.000000 0.000000 
#    y 0.000000 1.732930 0.000000 
#    z 0.000000 0.000000 1.730090 
# 
# From -- ./inp_files/6630.got.cif
#   From: 2010.03.12/outbox.cif.g09.slc.cpg/sg16_4_cif.got.tgz:6630.got - 2010.03.31 00:51:45.
