data_PCOD8155313
_publ_section_title
;
Structure prediction by ZEFSAII (Michael W. Deem and Ramdas Pophale) SiO2 
 PCOD8155313
Probable space group: P 2 2 2
;
_chemical_formula_sum "Si O2"
_cell_formula_units_Z 32
_cell_length_a 12.562027
_cell_length_b 8.409008
_cell_length_c 14.675785
_cell_angle_alpha 90.000000
_cell_angle_beta 90.000000
_cell_angle_gamma 90.000000
_cell_volume 1550.264596
_symmetry_space_group_name_H-M "P 2 2 2"
_symmetry_group_IT_number 16
_symmetry_cell_setting 'orthorhombic'
loop_
_space_group_symop_operation_xyz
x,y,z
-x,-y,z
x,-y,-z
-x,y,-z
loop_
_atom_site_type_symbol
_atom_site_label
_atom_site_fract_x
_atom_site_fract_y
_atom_site_fract_z
Si Si1 0.015125 0.182325 0.097923
Si Si2 0.769253 0.674065 0.127854
Si Si3 0.433016 0.164450 0.779146
Si Si4 0.624890 0.336108 0.706361
Si Si5 0.892517 0.404921 0.217913
Si Si6 0.291567 0.328961 0.653738
Si Si7 0.622759 0.818946 0.979069
Si Si8 0.376837 0.816469 0.517270
O O1 0.135288 0.202879 0.129028
O O2 0.928079 0.243992 0.169147
O O3 0.000000 0.000000 0.085304
O O4 0.000000 0.269607 0.000000
O O5 0.705418 0.721951 0.216895
O O6 0.818160 0.497253 0.143677
O O7 0.696632 0.695660 0.036331
O O8 0.510261 0.308408 0.751570
O O9 0.341487 0.170609 0.702048
O O10 0.368384 0.207089 0.870940
O O11 0.500000 0.000000 0.784023
O O12 0.636275 0.518310 0.676896
O O13 0.648592 0.221934 0.621299
O O14 0.828470 0.362549 0.310674
O O15 0.000000 0.500000 0.244534
O O16 0.298960 0.291821 0.546082
O O17 0.500000 0.786449 0.000000
O O18 0.656715 0.000000 0.000000
O O19 0.500000 0.772869 0.500000
O O20 0.352953 0.000000 0.500000
#
# Coordination Sequence:
#
# PCOD8155313 Si02
#       8
#     4   4   4   4   4   4   4   4
#     4  10  23  40  63  91 118 160 220 275 323 377
#     4  10  22  40  65  88 125 173 208 268 323 376
#     4  12  22  36  57  86 129 173 220 259 303 380
#     4  11  22  40  60  89 127 166 210 257 311 386
#     4   9  22  45  65  93 126 161 219 277 335 380
#     4  11  24  39  66  92 123 175 209 263 331 380
#     4  11  21  37  57  88 130 178 217 257 312 377
#     4  11  23  39  62  95 130 168 210 253 309 387
#
# _framework density 20.641636999999999
#
# number of rings (size 3 to 8) (size 9 to 14) (size 15 to 20)
#    0.000    1.375    3.750    1.500    3.500    4.750 
#    2.250    0.000    0.000   12.750    0.000    8.750 
#    0.000    0.000    0.000    0.000    0.000    0.000 
#
# Total GULP energy -396585.609954 kJ/mol
# GULP energy per Si atom -12393.300311 kJ/mol
# Density = 2.059466 g / cm^3
# Si number density = 20.641637 Si / 1000 Ang^3
#
#
#
# Elastic Constant Matrix: (Units=GPa)
#
#
# Indices 1 2 3 4 5 6 
#
# 1 104.0237 38.9767 46.6307 0.0000 0.0000 0.0000
# 2 38.9767 69.6401 44.7830 0.0000 0.0000 0.0000
# 3 46.6307 44.7830 136.4128 0.0000 0.0000 0.0000
# 4 0.0000 0.0000 0.0000 29.3776 0.0000 0.0000
# 5 0.0000 0.0000 0.0000 0.0000 27.5699 0.0000
# 6 0.0000 0.0000 0.0000 0.0000 0.0000 19.6790
#
#
#
# Elastic Compliance Matrix: (Units=1/GPa)
#
#
# Indices 1 2 3 4 5 6 
#
# 1 0.012839 -0.005531 -0.002573 0.000000 0.000000 0.000000
# 2 -0.005531 0.020585 -0.004867 0.000000 0.000000 0.000000
# 3 -0.002573 -0.004867 0.009808 0.000000 0.000000 0.000000
# 4 0.000000 0.000000 0.000000 0.034040 0.000000 0.000000
# 5 0.000000 0.000000 0.000000 0.000000 0.036271 0.000000
# 6 0.000000 0.000000 0.000000 0.000000 0.000000 0.050816
#
#
# Mechanical properties :
#
#
# Convention : Reuss Voigt Hill
#
# Bulk Modulus (GPa) = 57.83841 63.42860 60.63351
# Shear Modulus (GPa) = 25.50174 27.30438 26.40306
#
# Velocity S-wave (km/s) = 3.51871 3.64095 3.58035
# Velocity P-wave (km/s) = 6.67754 6.96208 6.82129
#
# Compressibility (1/GPa) = 0.01728955
#
# Stress axis : x y z
#
# Youngs Moduli (GPa) = 77.88698 48.57849 101.95696
#
# Poissons Ratio (x) = 0.26870 0.26233
# Poissons Ratio (y) = 0.43082 0.49624
# Poissons Ratio (z) = 0.20040 0.23644
#
# Static dielectric constant tensor:
#      x y z
#    x 3.909420 0.000000 0.000000 
#    y 0.000000 3.697910 0.000000 
#    z 0.000000 0.000000 3.965060 
# 
# 
# High freq. dielectric constant tensor:
#      x y z
#    x 1.797940 0.000000 0.000000 
#    y 0.000000 1.805370 0.000000 
#    z 0.000000 0.000000 1.808610 
# 
# From -- ./inp_files/8213.got.cif
#   From: 2010.03.12/outbox.cif.g09.slc.cpg/sg16_5_cif.got.tgz:8213.got - 2010.03.31 00:51:45.
