data_PCOD8155218
_publ_section_title
;
Structure prediction by ZEFSAII (Michael W. Deem and Ramdas Pophale) SiO2 
 PCOD8155218
Probable space group: P 2 2 2
;
_chemical_formula_sum "Si O2"
_cell_formula_units_Z 19
_cell_length_a 8.835956
_cell_length_b 5.429316
_cell_length_c 18.678575
_cell_angle_alpha 90.000000
_cell_angle_beta 90.000000
_cell_angle_gamma 90.000000
_cell_volume 896.070963
_symmetry_space_group_name_H-M "P 2 2 2"
_symmetry_group_IT_number 16
_symmetry_cell_setting 'orthorhombic'
loop_
_space_group_symop_operation_xyz
x,y,z
-x,-y,z
x,-y,-z
-x,y,-z
loop_
_atom_site_type_symbol
_atom_site_label
_atom_site_fract_x
_atom_site_fract_y
_atom_site_fract_z
Si Si1 0.342995 0.874561 0.692421
Si Si2 0.000000 0.500000 0.500000
Si Si3 0.169200 0.749056 0.970582
Si Si4 0.903724 0.750940 0.192685
Si Si5 0.500000 0.500000 0.404663
Si Si6 0.757840 0.818150 0.564191
O O1 0.240807 0.772827 0.756104
O O2 0.379576 0.640708 0.644171
O O3 0.500000 0.000000 0.720319
O O4 0.247533 0.064471 0.643307
O O5 0.902085 0.644339 0.558607
O O6 0.168680 0.739508 0.885485
O O7 0.251658 0.500000 0.000000
O O8 0.000000 0.750021 0.000000
O O9 0.250272 0.000000 0.000000
O O10 0.000000 0.500000 0.208122
O O11 0.000000 0.000000 0.201277
O O12 0.599299 0.317660 0.453150
O O13 0.780611 0.000000 0.500000
#
# Coordination Sequence:
#
# PCOD8155218 Si02
#       6
#     4   1   4   4   2   4
#     4  10  26  46  64  93 132 182 225 272 344 420
#     4  12  26  42  68  98 128 166 204 304 334 390
#     4  10  16  34  59  96 134 170 215 276 339 403
#     4  12  24  39  68 106 136 173 229 291 345 402
#     4  10  24  47  68  86 121 178 220 264 325 420
#     4  11  25  45  66  93 125 167 222 270 338 398
#
# _framework density 21.203679999999999
#
# number of rings (size 3 to 8) (size 9 to 14) (size 15 to 20)
#    0.000    1.263    4.211    1.579    5.895   13.474 
#    1.895    0.000    0.000    0.632    0.000    0.000 
#    0.000    0.000    0.000    0.000    0.000    0.000 
#
# Total GULP energy -235492.475724 kJ/mol
# GULP energy per Si atom -12394.340828 kJ/mol
# Density = 2.115542 g / cm^3
# Si number density = 21.203680 Si / 1000 Ang^3
#
#
#
# Elastic Constant Matrix: (Units=GPa)
#
#
# Indices 1 2 3 4 5 6 
#
# 1 105.8092 57.0182 74.5422 0.0000 0.0000 0.0000
# 2 57.0182 165.7428 45.6328 0.0000 0.0000 0.0000
# 3 74.5422 45.6328 122.7514 0.0000 0.0000 0.0000
# 4 0.0000 0.0000 0.0000 4.3270 0.0000 0.0000
# 5 0.0000 0.0000 0.0000 0.0000 2.8995 0.0000
# 6 0.0000 0.0000 0.0000 0.0000 0.0000 30.6343
#
#
#
# Elastic Compliance Matrix: (Units=1/GPa)
#
#
# Indices 1 2 3 4 5 6 
#
# 1 0.018258 -0.003597 -0.009751 0.000000 0.000000 0.000000
# 2 -0.003597 0.007430 -0.000578 0.000000 0.000000 0.000000
# 3 -0.009751 -0.000578 0.014283 0.000000 0.000000 0.000000
# 4 0.000000 0.000000 0.000000 0.231106 0.000000 0.000000
# 5 0.000000 0.000000 0.000000 0.000000 0.344892 0.000000
# 6 0.000000 0.000000 0.000000 0.000000 0.000000 0.032643
#
#
# Mechanical properties :
#
#
# Convention : Reuss Voigt Hill
#
# Bulk Modulus (GPa) = 82.50492 83.18776 82.84634
# Shear Modulus (GPa) = 7.34751 22.04616 14.69684
#
# Velocity S-wave (km/s) = 1.86353 3.22799 2.63559
# Velocity P-wave (km/s) = 6.60496 7.29459 6.95832
#
# Compressibility (1/GPa) = 0.01212049
#
# Stress axis : x y z
#
# Youngs Moduli (GPa) = 54.76947 134.59198 70.01554
#
# Poissons Ratio (x) = 0.48408 0.68269
# Poissons Ratio (y) = 0.19698 0.04047
# Poissons Ratio (z) = 0.53403 0.07779
#
# Static dielectric constant tensor:
#      x y z
#    x 3.718980 0.000000 0.000000 
#    y 0.000000 5.857190 0.000000 
#    z 0.000000 0.000000 3.704930 
# 
# 
# High freq. dielectric constant tensor:
#      x y z
#    x 1.802100 0.000000 0.000000 
#    y 0.000000 1.864880 0.000000 
#    z 0.000000 0.000000 1.827540 
# 
# From -- ./inp_files/8797.got.cif
#   From: 2010.03.12/outbox.cif.g09.slc.cpg/sg16_5_cif.got.tgz:8797.got - 2010.03.31 00:51:45.
