data_PCOD8155852
_publ_section_title
;
Structure prediction by ZEFSAII (Michael W. Deem and Ramdas Pophale) SiO2 
 PCOD8155852
Probable space group: P 21 21 2
;
_chemical_formula_sum "Si O2"
_cell_formula_units_Z 32
_cell_length_a 15.971798
_cell_length_b 8.783621
_cell_length_c 11.786520
_cell_angle_alpha 90.000000
_cell_angle_beta 90.000000
_cell_angle_gamma 90.000000
_cell_volume 1653.533488
_symmetry_space_group_name_H-M "P 21 21 2"
_symmetry_group_IT_number 18
_symmetry_cell_setting 'orthorhombic'
loop_
_space_group_symop_operation_xyz
x,y,z
-x,-y,z
1/2+x,1/2-y,-z
1/2-x,1/2+y,-z
loop_
_atom_site_type_symbol
_atom_site_label
_atom_site_fract_x
_atom_site_fract_y
_atom_site_fract_z
Si Si1 0.336052 0.866591 0.197800
Si Si2 0.918560 0.087179 0.345419
Si Si3 0.575080 0.599801 0.396305
Si Si4 0.254163 0.074425 0.375526
Si Si5 0.243614 0.439228 0.385257
Si Si6 0.013757 0.677726 0.772389
Si Si7 0.827743 0.335108 0.211498
Si Si8 0.413037 0.066667 0.014660
O O1 0.417255 0.762644 0.231406
O O2 0.257570 0.756377 0.198192
O O3 0.318372 0.010681 0.281383
O O4 0.355600 0.937503 0.074203
O O5 0.938203 0.142887 0.472660
O O6 0.899710 0.236436 0.271805
O O7 0.839530 0.976038 0.344452
O O8 0.000000 0.000000 0.295521
O O9 0.500000 0.500000 0.347630
O O10 0.660119 0.507071 0.373461
O O11 0.572381 0.755932 0.325720
O O12 0.247709 0.256449 0.383367
O O13 0.287868 0.003564 0.494030
O O14 0.188169 0.510836 0.284344
O O15 0.000000 0.500000 0.753499
O O16 0.061339 0.698469 0.893733
O O17 0.858314 0.368974 0.086269
O O18 0.500000 0.000000 0.965131
#
# Coordination Sequence:
#
# PCOD8155852 Si02
#       8
#     4   4   4   4   4   4   4   4
#     4   9  19  37  58  79 107 143 187 233 274 320
#     4   9  21  39  55  80 116 147 177 223 278 334
#     4  10  19  33  55  83 112 138 173 222 270 322
#     4  10  20  35  56  83 113 144 180 226 276 330
#     4  11  21  34  55  84 116 145 180 222 274 336
#     4   9  18  35  56  76 105 141 178 225 272 314
#     4  11  22  37  58  81 108 147 187 225 277 333
#     4   9  21  38  54  76 108 141 181 230 273 321
#
# _framework density 19.352497
#
# number of rings (size 3 to 8) (size 9 to 14) (size 15 to 20)
#    0.000    2.500    0.000    4.500    0.000    5.000 
#    0.000    5.000    0.000    0.000    0.000    0.000 
#    0.000    0.000    0.000    0.000    0.000    0.000 
#
# Total GULP energy -396543.641534 kJ/mol
# GULP energy per Si atom -12391.988798 kJ/mol
# Density = 1.930845 g / cm^3
# Si number density = 19.352497 Si / 1000 Ang^3
#
#
#
# Elastic Constant Matrix: (Units=GPa)
#
#
# Indices 1 2 3 4 5 6 
#
# 1 51.8529 5.4640 31.1002 0.0000 0.0000 0.0000
# 2 5.4640 76.2633 45.4579 0.0000 0.0000 0.0000
# 3 31.1002 45.4579 96.9258 0.0000 0.0000 0.0000
# 4 0.0000 0.0000 0.0000 24.2200 0.0000 0.0000
# 5 0.0000 0.0000 0.0000 0.0000 29.9306 0.0000
# 6 0.0000 0.0000 0.0000 0.0000 0.0000 23.6934
#
#
#
# Elastic Compliance Matrix: (Units=1/GPa)
#
#
# Indices 1 2 3 4 5 6 
#
# 1 0.024777 0.004114 -0.009879 0.000000 0.000000 0.000000
# 2 0.004114 0.018883 -0.010176 0.000000 0.000000 0.000000
# 3 -0.009879 -0.010176 0.018260 0.000000 0.000000 0.000000
# 4 0.000000 0.000000 0.000000 0.041288 0.000000 0.000000
# 5 0.000000 0.000000 0.000000 0.000000 0.033411 0.000000
# 6 0.000000 0.000000 0.000000 0.000000 0.000000 0.042206
#
#
# Mechanical properties :
#
#
# Convention : Reuss Voigt Hill
#
# Bulk Modulus (GPa) = 33.29294 43.23181 38.26237
# Shear Modulus (GPa) = 22.65298 25.10344 23.87821
#
# Velocity S-wave (km/s) = 3.42504 3.60553 3.51644
# Velocity P-wave (km/s) = 5.73428 6.30244 6.02506
#
# Compressibility (1/GPa) = 0.03003640
#
# Stress axis : x y z
#
# Youngs Moduli (GPa) = 40.35940 52.95659 54.76524
#
# Poissons Ratio (x) = -0.21784 0.54105
# Poissons Ratio (y) = -0.16602 0.55730
# Poissons Ratio (z) = 0.39873 0.53890
#
# Static dielectric constant tensor:
#      x y z
#    x 4.051710 0.000000 0.000000 
#    y 0.000000 3.364580 0.000000 
#    z 0.000000 0.000000 3.483790 
# 
# 
# High freq. dielectric constant tensor:
#      x y z
#    x 1.772040 0.000000 0.000000 
#    y 0.000000 1.738160 0.000000 
#    z 0.000000 0.000000 1.742420 
# 
# From -- ./inp_files/6148.got.cif
#   From: 2010.03.12/outbox.cif.g09.slc.cpg/sg18_4_cif.got.tgz:6148.got - 2010.04.10 18:53:55.
