data_PCOD8155412
_publ_section_title
;
Structure prediction by ZEFSAII (Michael W. Deem and Ramdas Pophale) SiO2 
 PCOD8155412
Probable space group: P 2 2 21
;
_chemical_formula_sum "Si O2"
_cell_formula_units_Z 24
_cell_length_a 26.872127
_cell_length_b 8.832011
_cell_length_c 5.110872
_cell_angle_alpha 90.000000
_cell_angle_beta 90.000000
_cell_angle_gamma 90.000000
_cell_volume 1212.988404
_symmetry_space_group_name_H-M "P 2 2 21"
_symmetry_group_IT_number 17
_symmetry_cell_setting 'orthorhombic'
loop_
_space_group_symop_operation_xyz
x,y,z
-x,-y,1/2+z
x,-y,-z
-x,y,1/2-z
loop_
_atom_site_type_symbol
_atom_site_label
_atom_site_fract_x
_atom_site_fract_y
_atom_site_fract_z
Si Si1 0.806162 0.321415 0.485767
Si Si2 0.700314 0.820560 0.502092
Si Si3 0.529448 0.180665 0.998452
Si Si4 0.641222 0.819950 0.998375
Si Si5 0.942161 0.099024 0.756466
Si Si6 0.134775 0.677538 0.475462
O O1 0.800135 0.500000 0.500000
O O2 0.753730 0.246472 0.429533
O O3 0.822041 0.272234 0.775922
O O4 0.846804 0.268135 0.264132
O O5 0.663841 0.761859 0.727803
O O6 0.705599 0.000000 0.500000
O O7 0.676394 0.760370 0.232654
O O8 0.500000 0.243336 0.750000
O O9 0.500000 0.242238 0.250000
O O10 0.585437 0.245954 0.982932
O O11 0.530982 0.000000 0.000000
O O12 0.639025 0.000000 0.000000
O O13 0.913720 0.253531 0.829841
O O14 0.000000 0.142041 0.750000
O O15 0.926645 0.000000 0.500000
O O16 0.927340 0.000000 0.000000
O O17 0.124051 0.500000 0.500000
#
# Coordination Sequence:
#
# PCOD8155412 Si02
#       6
#     4   4   4   4   4   4
#     4  10  21  36  54  76 105 136 175 222 262 308
#     4  10  19  31  47  69  97 130 164 203 255 308
#     4   9  15  23  37  58  87 124 158 191 242 302
#     4   9  17  28  42  64  96 127 160 204 249 301
#     4  10  21  38  59  85 116 147 181 224 272 323
#     4  10  21  38  57  80 108 142 180 222 269 316
#
# _framework density 19.785844000000001
#
# number of rings (size 3 to 8) (size 9 to 14) (size 15 to 20)
#    0.000    2.333    0.000    3.000    0.000    6.000 
#    0.000    5.000    0.000    0.000    0.000    0.000 
#    0.000   13.333    0.000    0.000    0.000    0.000 
#
# Total GULP energy -297358.403027 kJ/mol
# GULP energy per Si atom -12389.933459 kJ/mol
# Density = 1.974081 g / cm^3
# Si number density = 19.785844 Si / 1000 Ang^3
#
#
#
# Elastic Constant Matrix: (Units=GPa)
#
#
# Indices 1 2 3 4 5 6 
#
# 1 121.7880 38.7891 53.8500 0.0000 0.0000 0.0000
# 2 38.7891 25.3626 32.0373 0.0000 0.0000 0.0000
# 3 53.8500 32.0373 163.5946 0.0000 0.0000 0.0000
# 4 0.0000 0.0000 0.0000 15.7213 0.0000 0.0000
# 5 0.0000 0.0000 0.0000 0.0000 41.8172 0.0000
# 6 0.0000 0.0000 0.0000 0.0000 0.0000 -1.9229
#
#
#
# Elastic Compliance Matrix: (Units=1/GPa)
#
#
# Indices 1 2 3 4 5 6 
#
# 1 0.016058 -0.023760 -0.000633 0.000000 0.000000 0.000000
# 2 -0.023760 0.087542 -0.009323 0.000000 0.000000 0.000000
# 3 -0.000633 -0.009323 0.008147 0.000000 0.000000 0.000000
# 4 0.000000 0.000000 0.000000 0.063608 0.000000 0.000000
# 5 0.000000 0.000000 0.000000 0.000000 0.023914 0.000000
# 6 0.000000 0.000000 0.000000 0.000000 0.000000 -0.520059
#
#
# Mechanical properties :
#
#
# Convention : Reuss Voigt Hill
#
# Bulk Modulus (GPa) = 22.56512 62.23313 42.39913
# Shear Modulus (GPa) = -20.95658 23.52773 1.28558
#
# Velocity S-wave (km/s) = -3.25802 3.45210 0.80694
# Velocity P-wave (km/s) = 1.65030 6.88556 4.72692
#
# Compressibility (1/GPa) = 0.04431617
#
# Stress axis : x y z
#
# Youngs Moduli (GPa) = 62.27354 11.42312 122.74901
#
# Poissons Ratio (x) = 0.27141 0.07769
# Poissons Ratio (y) = 1.47959 1.14436
# Poissons Ratio (z) = 0.03941 0.10649
#
# Static dielectric constant tensor:
#      x y z
#    x 3.653470 0.000000 0.000000 
#    y 0.000000 3.050050 0.000000 
#    z 0.000000 0.000000 4.050630 
# 
# 
# High freq. dielectric constant tensor:
#      x y z
#    x 1.778820 0.000000 0.000000 
#    y 0.000000 1.719290 0.000000 
#    z 0.000000 0.000000 1.795720 
# 
# From -- ./inp_files/1011.got.cif
#   From: 2010.03.12/outbox.cif.g09.slc.cpg/sg17_1_cif.got.tgz:1011.got - 2010.04.10 18:46:23.
