data_PCOD8155441
_publ_section_title
;
Structure prediction by ZEFSAII (Michael W. Deem and Ramdas Pophale) SiO2 
 PCOD8155441
Probable space group: P 2 2 21
;
_chemical_formula_sum "Si O2"
_cell_formula_units_Z 20
_cell_length_a 9.034442
_cell_length_b 11.417226
_cell_length_c 9.268743
_cell_angle_alpha 90.000000
_cell_angle_beta 90.000000
_cell_angle_gamma 90.000000
_cell_volume 956.054769
_symmetry_space_group_name_H-M "P 2 2 21"
_symmetry_group_IT_number 17
_symmetry_cell_setting 'orthorhombic'
loop_
_space_group_symop_operation_xyz
x,y,z
-x,-y,1/2+z
x,-y,-z
-x,y,1/2-z
loop_
_atom_site_type_symbol
_atom_site_label
_atom_site_fract_x
_atom_site_fract_y
_atom_site_fract_z
Si Si1 0.345778 0.672909 0.928052
Si Si2 0.332209 0.434909 0.777912
Si Si3 0.323435 0.716764 0.469785
Si Si4 0.638328 0.957518 0.155154
Si Si5 0.826781 0.833553 0.769640
O O1 0.318355 0.573123 0.805784
O O2 0.261039 0.787314 0.871561
O O3 0.273921 0.634063 0.080579
O O4 0.521125 0.693230 0.947953
O O5 0.500000 0.396099 0.750000
O O6 0.259145 0.393926 0.624630
O O7 0.332554 0.819078 0.348594
O O8 0.207559 0.753497 0.591424
O O9 0.500000 0.991436 0.250000
O O10 0.781291 0.031087 0.207631
O O11 0.588627 0.000000 0.000000
O O12 0.000000 0.826973 0.750000
#
# Coordination Sequence:
#
# PCOD8155441 Si02
#       5
#     4   4   4   4   4
#     4  10  19  36  62  86 113 149 192 242 299 357
#     4   9  18  33  59  92 115 141 189 248 301 351
#     4  10  20  38  60  87 117 146 191 245 294 351
#     4  10  20  37  60  85 111 147 194 245 296 346
#     4  11  23  38  55  80 118 161 200 239 290 349
#
# _framework density 20.919302999999999
#
# number of rings (size 3 to 8) (size 9 to 14) (size 15 to 20)
#    0.000    2.000    0.000    6.000    0.000    2.400 
#    0.000   20.000    0.000    0.000    0.000    0.000 
#    0.000    0.000    0.000    0.000    0.000    0.000 
#
# Total GULP energy -247849.673964 kJ/mol
# GULP energy per Si atom -12392.483698 kJ/mol
# Density = 2.087169 g / cm^3
# Si number density = 20.919303 Si / 1000 Ang^3
#
#
#
# Elastic Constant Matrix: (Units=GPa)
#
#
# Indices 1 2 3 4 5 6 
#
# 1 102.6166 32.8362 53.2210 0.0000 0.0000 0.0000
# 2 32.8362 101.5976 47.0798 0.0000 0.0000 0.0000
# 3 53.2210 47.0798 78.5864 0.0000 0.0000 0.0000
# 4 0.0000 0.0000 0.0000 29.4207 0.0000 0.0000
# 5 0.0000 0.0000 0.0000 0.0000 15.2626 0.0000
# 6 0.0000 0.0000 0.0000 0.0000 0.0000 -9.3469
#
#
#
# Elastic Compliance Matrix: (Units=1/GPa)
#
#
# Indices 1 2 3 4 5 6 
#
# 1 0.015024 -0.000195 -0.010058 0.000000 0.000000 0.000000
# 2 -0.000195 0.013628 -0.008032 0.000000 0.000000 0.000000
# 3 -0.010058 -0.008032 0.024348 0.000000 0.000000 0.000000
# 4 0.000000 0.000000 0.000000 0.033990 0.000000 0.000000
# 5 0.000000 0.000000 0.000000 0.000000 0.065520 0.000000
# 6 0.000000 0.000000 0.000000 0.000000 0.000000 -0.106988
#
#
# Mechanical properties :
#
#
# Convention : Reuss Voigt Hill
#
# Bulk Modulus (GPa) = 60.86412 61.00827 60.93620
# Shear Modulus (GPa) = 57.09872 17.04486 37.07179
#
# Velocity S-wave (km/s) = 5.23011 2.85755 4.21424
# Velocity P-wave (km/s) = 8.10123 6.33359 7.27132
#
# Compressibility (1/GPa) = 0.01643004
#
# Stress axis : x y z
#
# Youngs Moduli (GPa) = 66.56150 73.37927 41.07091
#
# Poissons Ratio (x) = 0.01431 0.41308
# Poissons Ratio (y) = 0.01298 0.32989
# Poissons Ratio (z) = 0.66945 0.58939
#
# Static dielectric constant tensor:
#      x y z
#    x 3.143720 0.000000 0.000000 
#    y 0.000000 4.194040 0.000000 
#    z 0.000000 0.000000 4.229340 
# 
# 
# High freq. dielectric constant tensor:
#      x y z
#    x 1.752340 0.000000 0.000000 
#    y 0.000000 1.830680 0.000000 
#    z 0.000000 0.000000 1.842610 
# 
# From -- ./inp_files/4031.got.cif
#   From: 2010.03.12/outbox.cif.g09.slc.cpg/sg17_3_cif.got.tgz:4031.got - 2010.04.10 18:46:23.
