data_PCOD8155865
_publ_section_title
;
Structure prediction by ZEFSAII (Michael W. Deem and Ramdas Pophale) SiO2 
 PCOD8155865
Probable space group: P 21 21 2
;
_chemical_formula_sum "Si O2"
_cell_formula_units_Z 28
_cell_length_a 26.181671
_cell_length_b 5.096315
_cell_length_c 10.307531
_cell_angle_alpha 90.000000
_cell_angle_beta 90.000000
_cell_angle_gamma 90.000000
_cell_volume 1375.334301
_symmetry_space_group_name_H-M "P 21 21 2"
_symmetry_group_IT_number 18
_symmetry_cell_setting 'orthorhombic'
loop_
_space_group_symop_operation_xyz
x,y,z
-x,-y,z
1/2+x,1/2-y,-z
1/2-x,1/2+y,-z
loop_
_atom_site_type_symbol
_atom_site_label
_atom_site_fract_x
_atom_site_fract_y
_atom_site_fract_z
Si Si1 0.892392 0.545271 0.830279
Si Si2 0.812754 0.481184 0.626305
Si Si3 0.847732 0.045573 0.952112
Si Si4 0.842554 0.501724 0.333512
Si Si5 0.390250 0.499674 0.772735
Si Si6 0.000000 0.500000 0.921781
Si Si7 0.000000 0.000000 0.102760
Si Si8 0.765690 0.980699 0.751728
O O1 0.869445 0.507469 0.687082
O O2 0.865166 0.344445 0.929185
O O3 0.885019 0.842968 0.878385
O O4 0.952076 0.480014 0.825834
O O5 0.817033 0.522086 0.474033
O O6 0.775678 0.696639 0.689261
O O7 0.789800 0.196363 0.655958
O O8 0.790460 0.003169 0.895921
O O9 0.851780 0.995897 0.104742
O O10 0.881605 0.737178 0.308398
O O11 0.795139 0.513417 0.232457
O O12 0.875428 0.239420 0.320173
O O13 0.449585 0.475713 0.809480
O O14 0.994712 0.748134 0.013743
#
# Coordination Sequence:
#
# PCOD8155865 Si02
#       8
#     4   4   4   4   4   2   2   4
#     4  10  19  34  59  87 109 140 195 255 292 332
#     4  10  21  39  60  86 121 154 201 241 289 347
#     4  10  20  37  56  88 118 149 188 252 292 336
#     4  12  24  38  60  88 122 166 194 233 291 369
#     4  12  24  39  58  86 121 154 201 238 298 354
#     4  12  18  36  64  86 104 142 202 246 306 336
#     4  12  24  40  62  84 114 158 196 242 284 372
#     4  10  21  38  64  86 118 158 202 245 291 340
#
# _framework density 20.358688000000001
#
# number of rings (size 3 to 8) (size 9 to 14) (size 15 to 20)
#    0.000    1.143    2.857    4.286    0.000    1.143 
#    0.000    1.429    0.000    0.000    0.000    0.000 
#    0.000    0.000    0.000    0.000    0.000    0.000 
#
# Total GULP energy -347293.472395 kJ/mol
# GULP energy per Si atom -12403.338300 kJ/mol
# Density = 2.031235 g / cm^3
# Si number density = 20.358688 Si / 1000 Ang^3
#
#
#
# Elastic Constant Matrix: (Units=GPa)
#
#
# Indices 1 2 3 4 5 6 
#
# 1 106.0884 16.4805 9.0425 0.0000 0.0000 0.0000
# 2 16.4805 95.8663 15.7429 0.0000 0.0000 0.0000
# 3 9.0425 15.7429 42.9353 0.0000 0.0000 0.0000
# 4 0.0000 0.0000 0.0000 27.6036 0.0000 0.0000
# 5 0.0000 0.0000 0.0000 0.0000 23.6773 0.0000
# 6 0.0000 0.0000 0.0000 0.0000 0.0000 20.5927
#
#
#
# Elastic Compliance Matrix: (Units=1/GPa)
#
#
# Indices 1 2 3 4 5 6 
#
# 1 0.009779 -0.001429 -0.001536 0.000000 0.000000 0.000000
# 2 -0.001429 0.011308 -0.003845 0.000000 0.000000 0.000000
# 3 -0.001536 -0.003845 0.025024 0.000000 0.000000 0.000000
# 4 0.000000 0.000000 0.000000 0.036227 0.000000 0.000000
# 5 0.000000 0.000000 0.000000 0.000000 0.042235 0.000000
# 6 0.000000 0.000000 0.000000 0.000000 0.000000 0.048561
#
#
# Mechanical properties :
#
#
# Convention : Reuss Voigt Hill
#
# Bulk Modulus (GPa) = 30.77716 36.38021 33.57869
# Shear Modulus (GPa) = 25.30560 27.94965 26.62763
#
# Velocity S-wave (km/s) = 3.52943 3.70923 3.62045
# Velocity P-wave (km/s) = 5.63555 6.02104 5.83148
#
# Compressibility (1/GPa) = 0.03249163
#
# Stress axis : x y z
#
# Youngs Moduli (GPa) = 102.26026 88.43035 39.96125
#
# Poissons Ratio (x) = 0.12636 0.06136
# Poissons Ratio (y) = 0.14612 0.15367
# Poissons Ratio (z) = 0.15703 0.34005
#
# Static dielectric constant tensor:
#      x y z
#    x 3.811240 0.000000 0.000000 
#    y 0.000000 3.963310 0.000000 
#    z 0.000000 0.000000 3.458650 
# 
# 
# High freq. dielectric constant tensor:
#      x y z
#    x 1.793020 0.000000 0.000000 
#    y 0.000000 1.821750 0.000000 
#    z 0.000000 0.000000 1.771460 
# 
# From -- ./inp_files/4818.got.cif
#   From: 2010.03.12/outbox.cif.g09.slc.cpg/sg18_3_cif.got.tgz:4818.got - 2010.04.10 18:53:55.
