data_PCOD8155850
_publ_section_title
;
Structure prediction by ZEFSAII (Michael W. Deem and Ramdas Pophale) SiO2 
 PCOD8155850
Probable space group: P 21 21 2
;
_chemical_formula_sum "Si O2"
_cell_formula_units_Z 32
_cell_length_a 15.271338
_cell_length_b 10.050626
_cell_length_c 10.636121
_cell_angle_alpha 90.000000
_cell_angle_beta 90.000000
_cell_angle_gamma 90.000000
_cell_volume 1632.501058
_symmetry_space_group_name_H-M "P 21 21 2"
_symmetry_group_IT_number 18
_symmetry_cell_setting 'orthorhombic'
loop_
_space_group_symop_operation_xyz
x,y,z
-x,-y,z
1/2+x,1/2-y,-z
1/2-x,1/2+y,-z
loop_
_atom_site_type_symbol
_atom_site_label
_atom_site_fract_x
_atom_site_fract_y
_atom_site_fract_z
Si Si1 0.414049 0.944399 0.477029
Si Si2 0.571364 0.096228 0.768002
Si Si3 0.602590 0.544284 0.304652
Si Si4 0.355379 0.671358 0.497630
Si Si5 0.249625 0.920973 0.895589
Si Si6 0.930222 0.890188 0.246711
Si Si7 0.748138 0.379921 0.881606
Si Si8 0.676577 0.817493 0.371110
O O1 0.385573 0.802586 0.419284
O O2 0.500000 0.000000 0.405340
O O3 0.436506 0.913454 0.619739
O O4 0.345748 0.063806 0.465773
O O5 0.670584 0.056916 0.799834
O O6 0.500000 0.000000 0.833629
O O7 0.544480 0.245513 0.808783
O O8 0.500000 0.500000 0.286137
O O9 0.655170 0.442715 0.394192
O O10 0.656599 0.546035 0.172705
O O11 0.610606 0.690423 0.370383
O O12 0.423527 0.616248 0.601501
O O13 0.271625 0.724368 0.577109
O O14 0.254488 0.767914 0.941808
O O15 0.271178 0.014859 0.012140
O O16 0.840502 0.932792 0.181297
O O17 0.000000 0.000000 0.206247
O O18 0.820215 0.375494 0.770563
#
# Coordination Sequence:
#
# PCOD8155850 Si02
#       8
#     4   4   4   4   4   4   4   4
#     4  10  19  33  53  79 111 139 169 213 268 329
#     4   9  19  35  55  80 108 143 181 225 282 336
#     4  11  22  36  57  85 117 150 187 232 284 338
#     4  10  19  33  54  82 111 144 179 218 270 330
#     4  10  21  40  55  76 110 143 186 239 280 329
#     4   9  18  33  53  79 109 135 174 227 272 327
#     4   9  21  37  56  76 104 144 186 228 279 330
#     4  10  20  37  55  77 110 146 182 228 275 325
#
# _framework density 19.601825000000002
#
# number of rings (size 3 to 8) (size 9 to 14) (size 15 to 20)
#    0.000    2.250    0.000    4.875    0.000    4.500 
#    0.000    6.875    0.000    0.000    0.000    0.000 
#    0.000    0.000    0.000    0.000    0.000    0.000 
#
# Total GULP energy -396472.813729 kJ/mol
# GULP energy per Si atom -12389.775429 kJ/mol
# Density = 1.955721 g / cm^3
# Si number density = 19.601825 Si / 1000 Ang^3
#
#
#
# Elastic Constant Matrix: (Units=GPa)
#
#
# Indices 1 2 3 4 5 6 
#
# 1 93.8205 48.5118 16.2419 0.0000 0.0000 0.0000
# 2 48.5118 131.3891 43.7075 0.0000 0.0000 0.0000
# 3 16.2419 43.7075 45.9597 0.0000 0.0000 0.0000
# 4 0.0000 0.0000 0.0000 35.0991 0.0000 0.0000
# 5 0.0000 0.0000 0.0000 0.0000 12.8432 0.0000
# 6 0.0000 0.0000 0.0000 0.0000 0.0000 39.2247
#
#
#
# Elastic Compliance Matrix: (Units=1/GPa)
#
#
# Indices 1 2 3 4 5 6 
#
# 1 0.013174 -0.004850 -0.000044 0.000000 0.000000 0.000000
# 2 -0.004850 0.012918 -0.010571 0.000000 0.000000 0.000000
# 3 -0.000044 -0.010571 0.031827 0.000000 0.000000 0.000000
# 4 0.000000 0.000000 0.000000 0.028491 0.000000 0.000000
# 5 0.000000 0.000000 0.000000 0.000000 0.077862 0.000000
# 6 0.000000 0.000000 0.000000 0.000000 0.000000 0.025494
#
#
# Mechanical properties :
#
#
# Convention : Reuss Voigt Hill
#
# Bulk Modulus (GPa) = 37.05098 54.23241 45.64169
# Shear Modulus (GPa) = 21.76830 28.28060 25.02445
#
# Velocity S-wave (km/s) = 3.33607 3.80248 3.57688
# Velocity P-wave (km/s) = 5.81223 6.85606 6.35561
#
# Compressibility (1/GPa) = 0.02698984
#
# Stress axis : x y z
#
# Youngs Moduli (GPa) = 75.90851 77.41039 31.41993
#
# Poissons Ratio (x) = 0.37540 0.00137
# Poissons Ratio (y) = 0.36812 0.33215
# Poissons Ratio (z) = 0.00331 0.81833
#
# Static dielectric constant tensor:
#      x y z
#    x 3.663980 0.000000 0.000000 
#    y 0.000000 3.925590 0.000000 
#    z 0.000000 0.000000 3.220550 
# 
# 
# High freq. dielectric constant tensor:
#      x y z
#    x 1.760610 0.000000 0.000000 
#    y 0.000000 1.779730 0.000000 
#    z 0.000000 0.000000 1.729900 
# 
# From -- ./inp_files/6139.got.cif
#   From: 2010.03.12/outbox.cif.g09.slc.cpg/sg18_4_cif.got.tgz:6139.got - 2010.04.10 18:53:55.
