data_PCOD8155664
_publ_section_title
;
Structure prediction by ZEFSAII (Michael W. Deem and Ramdas Pophale) SiO2 
 PCOD8155664
Probable space group: P 2 2 21
;
_chemical_formula_sum "Si O2"
_cell_formula_units_Z 20
_cell_length_a 5.035155
_cell_length_b 5.549685
_cell_length_c 27.781924
_cell_angle_alpha 90.000000
_cell_angle_beta 90.000000
_cell_angle_gamma 90.000000
_cell_volume 776.324865
_symmetry_space_group_name_H-M "P 2 2 21"
_symmetry_group_IT_number 17
_symmetry_cell_setting 'orthorhombic'
loop_
_space_group_symop_operation_xyz
x,y,z
-x,-y,1/2+z
x,-y,-z
-x,y,1/2-z
loop_
_atom_site_type_symbol
_atom_site_label
_atom_site_fract_x
_atom_site_fract_y
_atom_site_fract_z
Si Si1 0.885568 0.000000 0.500000
Si Si2 0.432359 0.500000 0.000000
Si Si3 0.969460 0.084245 0.397247
Si Si4 0.449023 0.606398 0.602575
Si Si5 0.500000 0.930940 0.750000
Si Si6 0.748784 0.727677 0.327508
Si Si7 0.000000 0.612485 0.750000
O O1 0.729381 0.748442 0.498273
O O2 0.060962 0.998090 0.548951
O O3 0.605769 0.501201 0.951085
O O4 0.673269 0.188849 0.399116
O O5 0.175224 0.281917 0.377883
O O6 0.966220 0.860312 0.360776
O O7 0.531736 0.399897 0.639322
O O8 0.250212 0.771341 0.733319
O O9 0.417686 0.088602 0.795348
O O10 0.915746 0.545661 0.295260
#
# Coordination Sequence:
#
# PCOD8155664 Si02
#       7
#     2   2   4   4   2   4   2
#     4  10  22  50  80 120 170 230 278 344 416 504
#     4  10  22  50  80 120 170 230 278 344 416 504
#     4  11  27  48  80 117 165 216 275 337 411 500
#     4  11  27  48  80 117 165 216 275 337 411 500
#     4  12  30  52  84 118 162 212 276 350 418 498
#     4  12  28  54  82 120 162 218 276 340 426 492
#     4  12  30  52  84 118 162 212 276 350 418 498
#
# _framework density 25.762414
#
# number of rings (size 3 to 8) (size 9 to 14) (size 15 to 20)
#    0.000    0.800    2.000    2.400    0.000   24.000 
#    0.000    0.000    0.000    0.000    0.000    0.000 
#    0.000    0.000    0.000    0.000    0.000    0.000 
#
# Total GULP energy -248029.834589 kJ/mol
# GULP energy per Si atom -12401.491729 kJ/mol
# Density = 2.570378 g / cm^3
# Si number density = 25.762414 Si / 1000 Ang^3
#
#
#
# Elastic Constant Matrix: (Units=GPa)
#
#
# Indices 1 2 3 4 5 6 
#
# 1 115.8834 61.0991 59.1759 0.0000 0.0000 0.0000
# 2 61.0991 181.5748 88.0862 0.0000 0.0000 0.0000
# 3 59.1759 88.0862 216.7428 0.0000 0.0000 0.0000
# 4 0.0000 0.0000 0.0000 8.4622 0.0000 0.0000
# 5 0.0000 0.0000 0.0000 0.0000 -62.9340 0.0000
# 6 0.0000 0.0000 0.0000 0.0000 0.0000 44.6969
#
#
#
# Elastic Compliance Matrix: (Units=1/GPa)
#
#
# Indices 1 2 3 4 5 6 
#
# 1 0.011073 -0.002814 -0.001879 0.000000 0.000000 0.000000
# 2 -0.002814 0.007575 -0.002310 0.000000 0.000000 0.000000
# 3 -0.001879 -0.002310 0.006066 0.000000 0.000000 0.000000
# 4 0.000000 0.000000 0.000000 0.118172 0.000000 0.000000
# 5 0.000000 0.000000 0.000000 0.000000 -0.015890 0.000000
# 6 0.000000 0.000000 0.000000 0.000000 0.000000 0.022373
#
#
# Mechanical properties :
#
#
# Convention : Reuss Voigt Hill
#
# Bulk Modulus (GPa) = 93.40562 103.43592 98.42077
# Shear Modulus (GPa) = 29.94985 18.43435 24.19210
#
# Velocity S-wave (km/s) = 3.41330 2.67788 3.06771
# Velocity P-wave (km/s) = 7.20204 7.05681 7.12979
#
# Compressibility (1/GPa) = 0.01070599
#
# Stress axis : x y z
#
# Youngs Moduli (GPa) = 90.31072 132.01154 164.85888
#
# Poissons Ratio (x) = 0.37151 0.30984
# Poissons Ratio (y) = 0.25415 0.38086
# Poissons Ratio (z) = 0.16973 0.30498
#
# Static dielectric constant tensor:
#      x y z
#    x 4.366190 0.000000 0.000000 
#    y 0.000000 4.952360 0.000000 
#    z 0.000000 0.000000 5.315200 
# 
# 
# High freq. dielectric constant tensor:
#      x y z
#    x 2.012040 0.000000 0.000000 
#    y 0.000000 2.048870 0.000000 
#    z 0.000000 0.000000 2.060590 
# 
# From -- ./inp_files/10789.got.cif
#   From: 2010.03.12/outbox.cif.g09.slc.cpg/sg17_6_cif.got.tgz:10789.got - 2010.04.10 18:46:23.
