data_PCOD8155885
_publ_section_title
;
Structure prediction by ZEFSAII (Michael W. Deem and Ramdas Pophale) SiO2 
 PCOD8155885
Probable space group: P 21 21 2
;
_chemical_formula_sum "Si O2"
_cell_formula_units_Z 24
_cell_length_a 8.648037
_cell_length_b 18.071532
_cell_length_c 7.596944
_cell_angle_alpha 90.000000
_cell_angle_beta 90.000000
_cell_angle_gamma 90.000000
_cell_volume 1187.275306
_symmetry_space_group_name_H-M "P 21 21 2"
_symmetry_group_IT_number 18
_symmetry_cell_setting 'orthorhombic'
loop_
_space_group_symop_operation_xyz
x,y,z
-x,-y,z
1/2+x,1/2-y,-z
1/2-x,1/2+y,-z
loop_
_atom_site_type_symbol
_atom_site_label
_atom_site_fract_x
_atom_site_fract_y
_atom_site_fract_z
Si Si1 0.889084 0.275233 0.107738
Si Si2 0.436501 0.074213 0.731387
Si Si3 0.323966 0.900971 0.421080
Si Si4 0.984708 0.180870 0.429481
Si Si5 0.844182 0.960318 0.504686
Si Si6 0.434402 0.771077 0.227823
O O1 0.945864 0.359088 0.133083
O O2 0.979373 0.221959 0.242787
O O3 0.707750 0.269902 0.136156
O O4 0.923816 0.256493 0.904169
O O5 0.543307 0.091845 0.564451
O O6 0.259380 0.061797 0.671742
O O7 0.500000 0.000000 0.825744
O O8 0.182282 0.849915 0.488712
O O9 0.397817 0.859154 0.252026
O O10 0.253379 0.982953 0.378378
O O11 0.109571 0.114869 0.402942
O O12 0.035400 0.237625 0.580292
O O13 0.000000 0.000000 0.575285
#
# Coordination Sequence:
#
# PCOD8155885 Si02
#       6
#     4   4   4   4   4   4
#     4  11  24  37  59  89 124 159 206 248 309 368
#     4  10  19  36  59  87 116 157 199 245 305 361
#     4   9  20  36  62  87 119 159 200 255 308 366
#     4  10  20  39  63  86 120 161 202 258 310 361
#     4   9  18  36  64  89 114 160 209 246 310 367
#     4  11  23  38  59  92 122 163 204 256 306 365
#
# _framework density 20.214351000000001
#
# number of rings (size 3 to 8) (size 9 to 14) (size 15 to 20)
#    0.000    2.000    3.333    0.000    2.333    1.333 
#    0.000    4.167    0.000    3.000    0.000    0.000 
#    0.000    0.000    0.000    0.000    0.000    0.000 
#
# Total GULP energy -297445.197267 kJ/mol
# GULP energy per Si atom -12393.549886 kJ/mol
# Density = 2.016834 g / cm^3
# Si number density = 20.214351 Si / 1000 Ang^3
#
#
#
# Elastic Constant Matrix: (Units=GPa)
#
#
# Indices 1 2 3 4 5 6 
#
# 1 61.7359 9.2114 8.3812 0.0000 0.0000 0.0000
# 2 9.2114 108.1077 16.6848 0.0000 0.0000 0.0000
# 3 8.3812 16.6848 56.5956 0.0000 0.0000 0.0000
# 4 0.0000 0.0000 0.0000 15.6318 0.0000 0.0000
# 5 0.0000 0.0000 0.0000 0.0000 22.7197 0.0000
# 6 0.0000 0.0000 0.0000 0.0000 0.0000 26.9418
#
#
#
# Elastic Compliance Matrix: (Units=1/GPa)
#
#
# Indices 1 2 3 4 5 6 
#
# 1 0.016652 -0.001088 -0.002145 0.000000 0.000000 0.000000
# 2 -0.001088 0.009762 -0.002717 0.000000 0.000000 0.000000
# 3 -0.002145 -0.002717 0.018788 0.000000 0.000000 0.000000
# 4 0.000000 0.000000 0.000000 0.063972 0.000000 0.000000
# 5 0.000000 0.000000 0.000000 0.000000 0.044015 0.000000
# 6 0.000000 0.000000 0.000000 0.000000 0.000000 0.037117
#
#
# Mechanical properties :
#
#
# Convention : Reuss Voigt Hill
#
# Bulk Modulus (GPa) = 30.02837 32.77709 31.40273
# Shear Modulus (GPa) = 23.44055 25.86944 24.65499
#
# Velocity S-wave (km/s) = 3.40898 3.58125 3.49618
# Velocity P-wave (km/s) = 5.51200 5.77498 5.64502
#
# Compressibility (1/GPa) = 0.03330184
#
# Stress axis : x y z
#
# Youngs Moduli (GPa) = 60.05441 102.43785 53.22593
#
# Poissons Ratio (x) = 0.11142 0.11418
# Poissons Ratio (y) = 0.06532 0.14461
# Poissons Ratio (z) = 0.12883 0.27831
#
# Static dielectric constant tensor:
#      x y z
#    x 3.857010 0.000000 0.000000 
#    y 0.000000 4.214140 0.000000 
#    z 0.000000 0.000000 3.134630 
# 
# 
# High freq. dielectric constant tensor:
#      x y z
#    x 1.806240 0.000000 0.000000 
#    y 0.000000 1.811440 0.000000 
#    z 0.000000 0.000000 1.733770 
# 
# From -- ./inp_files/3281.got.cif
#   From: 2010.03.12/outbox.cif.g09.slc.cpg/sg18_2_cif.got.tgz:3281.got - 2010.04.10 18:53:55.
