data_PCOD8155132
_publ_section_title
;
Structure prediction by ZEFSAII (Michael W. Deem and Ramdas Pophale) SiO2 
 PCOD8155132
Probable space group: C 2/C
;
_chemical_formula_sum "Si O2"
_cell_formula_units_Z 60
_cell_length_a 11.645005
_cell_length_b 14.415755
_cell_length_c 16.727366
_cell_angle_alpha 90.000000
_cell_angle_beta 68.549677
_cell_angle_gamma 90.000000
_cell_volume 2613.549140
_symmetry_space_group_name_H-M "C 2/C"
_symmetry_group_IT_number 15
_symmetry_cell_setting 'monoclinic'
loop_
_space_group_symop_operation_xyz
x,y,z
-x,y,1/2-z
-x,-y,-z
x,-y,1/2+z
1/2+x,1/2+y,z
1/2-x,1/2+y,1/2-z
1/2-x,1/2-y,-z
1/2+x,1/2-y,1/2+z
loop_
_atom_site_type_symbol
_atom_site_label
_atom_site_fract_x
_atom_site_fract_y
_atom_site_fract_z
Si Si1 0.756464 0.403741 0.393036
Si Si2 0.307826 0.947765 0.762066
Si Si3 0.643329 0.534869 0.548266
Si Si4 0.500000 0.798454 0.750000
Si Si5 0.526406 0.609567 0.331083
Si Si6 0.462583 0.204061 0.934954
Si Si7 0.112766 0.462632 0.417705
Si Si8 0.029205 0.201996 0.907114
O O1 0.839510 0.463512 0.310442
O O2 0.668243 0.472760 0.464619
O O3 0.665779 0.340687 0.363570
O O4 0.835962 0.338950 0.432179
O O5 0.378356 0.860264 0.778953
O O6 0.165231 0.923672 0.804969
O O7 0.350396 0.964798 0.660346
O O8 0.559112 0.479243 0.632037
O O9 0.772534 0.560558 0.555573
O O10 0.573425 0.627709 0.537793
O O11 0.487600 0.735674 0.831139
O O12 0.500000 0.647875 0.250000
O O13 0.489913 0.693665 0.397415
O O14 0.572155 0.133151 0.885602
O O15 0.457824 0.213734 0.032650
O O16 0.000000 0.500000 0.500000
#
# Coordination Sequence:
#
# PCOD8155132 Si02
#       8
#     8   8   8   4   8   8   8   8
#     4  12  26  49  81 109 153 199 257 306 380 455
#     4  12  28  51  75 109 155 198 253 310 383 459
#     4  12  26  51  78 110 154 207 245 308 388 460
#     4  12  32  46  74 114 154 194 252 328 370 448
#     4  12  27  48  79 113 151 200 258 314 375 455
#     4  12  28  46  77 115 149 201 253 319 369 446
#     4  12  27  50  79 111 154 201 251 307 386 452
#     4  12  28  48  75 113 154 196 252 311 385 444
#
# _framework density 22.957287999999998
#
# number of rings (size 3 to 8) (size 9 to 14) (size 15 to 20)
#    0.000    0.000    5.333    3.200   10.267    0.533 
#    0.000    0.000    0.000    0.000    0.000    0.000 
#    0.000    0.000    0.000    0.000    0.000    0.000 
#
# Total GULP energy -372159.254614 kJ/mol
# GULP energy per Si atom -12405.308487 kJ/mol
# Density = 2.290504 g / cm^3
# Si number density = 22.957288 Si / 1000 Ang^3
#
#
#
# Elastic Constant Matrix: (Units=GPa)
#
#
# Indices 1 2 3 4 5 6 
#
# 1 145.8213 53.6439 35.9123 0.0000 -0.8491 0.0000
# 2 53.6439 108.8524 35.1791 0.0000 0.5455 0.0000
# 3 35.9123 35.1791 115.1023 0.0000 7.8906 0.0000
# 4 0.0000 0.0000 0.0000 39.2130 0.0000 1.2647
# 5 -0.8491 0.5455 7.8906 0.0000 42.4984 0.0000
# 6 0.0000 0.0000 0.0000 1.2647 0.0000 40.9845
#
#
#
# Elastic Compliance Matrix: (Units=1/GPa)
#
#
# Indices 1 2 3 4 5 6 
#
# 1 0.008627 -0.003743 -0.001583 0.000000 0.000514 0.000000
# 2 -0.003743 0.011826 -0.002462 0.000000 0.000231 0.000000
# 3 -0.001583 -0.002462 0.010063 0.000000 -0.001868 0.000000
# 4 0.000000 0.000000 0.000000 0.025527 0.000000 -0.000788
# 5 0.000514 0.000231 -0.001868 0.000000 0.023884 0.000000
# 6 0.000000 0.000000 0.000000 -0.000788 0.000000 0.024424
#
#
# Mechanical properties :
#
#
# Convention : Reuss Voigt Hill
#
# Bulk Modulus (GPa) = 66.93762 68.80519 67.87140
# Shear Modulus (GPa) = 40.02962 40.87524 40.45243
#
# Velocity S-wave (km/s) = 4.18024 4.22416 4.20226
# Velocity P-wave (km/s) = 7.24707 7.33672 7.29203
#
# Compressibility (1/GPa) = 0.01493928
#
# Stress axis : x y z
#
# Youngs Moduli (GPa) = 115.90956 84.56062 99.37814
#
# Poissons Ratio (x) = 0.31648 0.15733
# Poissons Ratio (y) = 0.43381 0.24472
# Poissons Ratio (z) = 0.18350 0.20823
#
# Static dielectric constant tensor:
#      x y z
#    x 4.304240 0.000000 0.103670 
#    y 0.000000 4.265700 0.000000 
#    z 0.103670 0.000000 4.208680 
# 
# 
# High freq. dielectric constant tensor:
#      x y z
#    x 1.925360 0.000000 0.008250 
#    y 0.000000 1.914930 0.000000 
#    z 0.008250 0.000000 1.908840 
# 
# From -- ./inp_files/198275.got.cif
#   From: 2010.06.25/outbox.cif.g09.slc.cpg/sg15_100_cif.got.tgz:198275.got - 2010.06.28 07:06:18.
