data_PCOD8155029
_publ_section_title
;
Structure prediction by ZEFSAII (Michael W. Deem and Ramdas Pophale) SiO2 
 PCOD8155029
Probable space group: C 2/C
;
_chemical_formula_sum "Si O2"
_cell_formula_units_Z 28
_cell_length_a 9.522732
_cell_length_b 12.375140
_cell_length_c 14.432497
_cell_angle_alpha 90.000000
_cell_angle_beta 141.859945
_cell_angle_gamma 90.000000
_cell_volume 1050.389824
_symmetry_space_group_name_H-M "C 2/C"
_symmetry_group_IT_number 15
_symmetry_cell_setting 'monoclinic'
loop_
_space_group_symop_operation_xyz
x,y,z
-x,y,1/2-z
-x,-y,-z
x,-y,1/2+z
1/2+x,1/2+y,z
1/2-x,1/2+y,1/2-z
1/2-x,1/2-y,-z
1/2+x,1/2-y,1/2+z
loop_
_atom_site_type_symbol
_atom_site_label
_atom_site_fract_x
_atom_site_fract_y
_atom_site_fract_z
Si Si1 0.729553 0.835630 0.567631
Si Si2 0.000000 0.625916 0.250000
Si Si3 0.104189 0.029585 0.954491
Si Si4 0.245672 0.290309 0.230588
O O1 0.750000 0.750000 0.500000
O O2 0.811148 0.774961 0.703758
O O3 0.458039 0.861335 0.421111
O O4 0.892463 0.936451 0.622783
O O5 0.126424 0.553911 0.392817
O O6 0.203983 0.694745 0.313986
O O7 0.963450 0.132029 0.846059
O O8 0.000000 0.000000 0.000000
#
# Coordination Sequence:
#
# PCOD8155029 Si02
#       4
#     8   4   8   8
#     4  12  26  48  79 111 157 204 260 320 394 466
#     4  12  26  50  72 112 160 196 268 330 382 470
#     4  12  25  47  77 111 152 208 256 317 396 463
#     4  12  26  51  76 114 156 205 260 326 388 466
#
# _framework density 26.656770000000002
#
# number of rings (size 3 to 8) (size 9 to 14) (size 15 to 20)
#    0.000    0.000    5.714    3.429    0.000    1.143 
#   10.286    0.000    0.000    0.000    0.000    0.000 
#    0.000    0.000    0.000    0.000    0.000    0.000 
#
# Total GULP energy -173471.650759 kJ/mol
# GULP energy per Si atom -12390.832197 kJ/mol
# Density = 2.659610 g / cm^3
# Si number density = 26.656770 Si / 1000 Ang^3
#
#
#
# Elastic Constant Matrix: (Units=GPa)
#
#
# Indices 1 2 3 4 5 6 
#
# 1 102.9309 38.3753 10.7391 0.0000 -10.2872 0.0000
# 2 38.3753 128.8026 24.1108 -0.0001 -3.8639 -0.0001
# 3 10.7391 24.1108 146.8538 0.0001 5.9618 0.0000
# 4 0.0000 -0.0001 0.0001 32.9038 0.0000 4.7086
# 5 -10.2872 -3.8639 5.9618 0.0000 43.4031 0.0000
# 6 0.0000 -0.0001 0.0000 4.7086 0.0000 67.4804
#
#
#
# Elastic Compliance Matrix: (Units=1/GPa)
#
#
# Indices 1 2 3 4 5 6 
#
# 1 0.011186 -0.003187 -0.000393 0.000000 0.002422 0.000000
# 2 -0.003187 0.008953 -0.001245 0.000000 0.000213 0.000000
# 3 -0.000393 -0.001245 0.007091 0.000000 -0.001178 0.000000
# 4 0.000000 0.000000 0.000000 0.030698 0.000000 -0.002142
# 5 0.002422 0.000213 -0.001178 0.000000 0.023795 0.000000
# 6 0.000000 0.000000 0.000000 -0.002142 0.000000 0.014969
#
#
# Mechanical properties :
#
#
# Convention : Reuss Voigt Hill
#
# Bulk Modulus (GPa) = 56.88558 58.33752 57.61155
# Shear Modulus (GPa) = 44.56281 49.11495 46.83888
#
# Velocity S-wave (km/s) = 4.09311 4.29709 4.19634
# Velocity P-wave (km/s) = 6.61244 6.82291 6.71850
#
# Compressibility (1/GPa) = 0.01757915
#
# Stress axis : x y z
#
# Youngs Moduli (GPa) = 89.39465 111.69737 141.03262
#
# Poissons Ratio (x) = 0.35594 0.05545
# Poissons Ratio (y) = 0.28487 0.17566
# Poissons Ratio (z) = 0.03515 0.13912
#
# Static dielectric constant tensor:
#      x y z
#    x 4.114060 0.000000 -1.893850 
#    y 0.000000 4.049030 0.000000 
#    z -1.893850 0.000000 -0.941100 
# 
# 
# High freq. dielectric constant tensor:
#      x y z
#    x 2.076200 0.000000 0.009270 
#    y 0.000000 2.069870 0.000000 
#    z 0.009270 0.000000 2.100900 
# 
# From -- ./inp_files/55108.got.cif
#   From: 2010.06.25/outbox.cif.g09.slc.cpg/sg15_28_cif.got.tgz:55108.got - 2010.06.28 07:06:18.
