data_PCOD8155348
_publ_section_title
;
Structure prediction by ZEFSAII (Michael W. Deem and Ramdas Pophale) SiO2 
 PCOD8155348
Probable space group: P 2 2 2
;
_chemical_formula_sum "Si O2"
_cell_formula_units_Z 24
_cell_length_a 7.747047
_cell_length_b 16.764835
_cell_length_c 8.913789
_cell_angle_alpha 90.000000
_cell_angle_beta 90.000000
_cell_angle_gamma 90.000000
_cell_volume 1157.704773
_symmetry_space_group_name_H-M "P 2 2 2"
_symmetry_group_IT_number 16
_symmetry_cell_setting 'orthorhombic'
loop_
_space_group_symop_operation_xyz
x,y,z
-x,-y,z
x,-y,-z
-x,y,-z
loop_
_atom_site_type_symbol
_atom_site_label
_atom_site_fract_x
_atom_site_fract_y
_atom_site_fract_z
Si Si1 0.806202 0.814536 0.327250
Si Si2 0.193798 0.814536 0.327250
Si Si3 0.797866 0.500000 0.325255
Si Si4 0.697529 0.339296 0.829893
Si Si5 0.302471 0.339296 0.829893
Si Si6 0.500000 0.093748 0.826648
O O1 0.751361 0.807382 0.500000
O O2 0.808154 0.726471 0.256667
O O3 0.673947 0.872739 0.245636
O O4 1.000000 0.849551 0.310781
O O5 0.191846 0.726471 0.256667
O O6 0.326053 0.872739 0.245636
O O7 0.753483 0.500000 0.500000
O O8 0.712743 0.576617 0.251193
O O9 0.712743 0.423383 0.251193
O O10 0.000000 0.500000 0.293975
O O11 0.500000 0.310602 0.827177
O O12 0.765411 0.347206 1.000000
O O13 0.500000 0.000000 0.801632
O O14 0.500000 0.118185 0.000000
#
# Coordination Sequence:
#
# PCOD8155348 Si02
#       6
#     4   4   4   4   4   4
#     4  11  24  42  67  98 131 170 215 263 319 382
#     4  11  24  42  67  98 131 170 215 263 319 382
#     4  11  24  39  56  84 122 165 216 268 318 374
#     4  11  23  39  61  90 124 165 214 265 319 378
#     4  11  23  39  61  90 124 165 214 265 319 378
#     4  11  25  45  69  98 131 168 211 261 319 383
#
# _framework density 20.730671000000001
#
# number of rings (size 3 to 8) (size 9 to 14) (size 15 to 20)
#    0.000    1.000    1.667    4.500    0.000   14.000 
#    0.000    3.333    0.000    0.000    0.000    0.000 
#    0.000    0.000    0.000    0.000    0.000    0.000 
#
# Total GULP energy -297756.858481 kJ/mol
# GULP energy per Si atom -12406.535770 kJ/mol
# Density = 2.068349 g / cm^3
# Si number density = 20.730671 Si / 1000 Ang^3
#
#
#
# Elastic Constant Matrix: (Units=GPa)
#
#
# Indices 1 2 3 4 5 6 
#
# 1 111.6021 45.9588 66.0834 0.0000 0.0000 0.0000
# 2 45.9588 93.2671 67.3799 0.0000 0.0000 0.0000
# 3 66.0834 67.3799 175.1502 0.0000 0.0000 0.0000
# 4 0.0000 0.0000 0.0000 53.0379 0.0000 0.0000
# 5 0.0000 0.0000 0.0000 0.0000 6.0424 0.0000
# 6 0.0000 0.0000 0.0000 0.0000 0.0000 19.7483
#
#
#
# Elastic Compliance Matrix: (Units=1/GPa)
#
#
# Indices 1 2 3 4 5 6 
#
# 1 0.012437 -0.003792 -0.003233 0.000000 0.000000 0.000000
# 2 -0.003792 0.016005 -0.004726 0.000000 0.000000 0.000000
# 3 -0.003233 -0.004726 0.008748 0.000000 0.000000 0.000000
# 4 0.000000 0.000000 0.000000 0.018854 0.000000 0.000000
# 5 0.000000 0.000000 0.000000 0.000000 0.165498 0.000000
# 6 0.000000 0.000000 0.000000 0.000000 0.000000 0.050637
#
#
# Mechanical properties :
#
#
# Convention : Reuss Voigt Hill
#
# Bulk Modulus (GPa) = 73.07176 82.09596 77.58386
# Shear Modulus (GPa) = 16.65304 29.13886 22.89595
#
# Velocity S-wave (km/s) = 2.83734 3.75319 3.32693
# Velocity P-wave (km/s) = 6.78665 7.64651 7.22937
#
# Compressibility (1/GPa) = 0.01368518
#
# Stress axis : x y z
#
# Youngs Moduli (GPa) = 80.40667 62.47998 114.31827
#
# Poissons Ratio (x) = 0.23695 0.36963
# Poissons Ratio (y) = 0.30494 0.54030
# Poissons Ratio (z) = 0.25999 0.29530
#
# Static dielectric constant tensor:
#      x y z
#    x 3.801910 0.000000 0.000000 
#    y 0.000000 3.659950 0.000000 
#    z 0.000000 0.000000 3.987990 
# 
# 
# High freq. dielectric constant tensor:
#      x y z
#    x 1.823950 0.000000 0.000000 
#    y 0.000000 1.809590 0.000000 
#    z 0.000000 0.000000 1.830790 
# 
# From -- ./inp_files/4061.got.cif
#   From: 2010.03.12/outbox.cif.g09.slc.cpg/sg16_3_cif.got.tgz:4061.got - 2010.03.31 00:51:45.
