data_PCOD8155665
_publ_section_title
;
Structure prediction by ZEFSAII (Michael W. Deem and Ramdas Pophale) SiO2 
 PCOD8155665
Probable space group: P 2 2 21
;
_chemical_formula_sum "Si O2"
_cell_formula_units_Z 16
_cell_length_a 22.147996
_cell_length_b 5.287756
_cell_length_c 5.226510
_cell_angle_alpha 90.000000
_cell_angle_beta 90.000000
_cell_angle_gamma 90.000000
_cell_volume 612.093304
_symmetry_space_group_name_H-M "P 2 2 21"
_symmetry_group_IT_number 17
_symmetry_cell_setting 'orthorhombic'
loop_
_space_group_symop_operation_xyz
x,y,z
-x,-y,1/2+z
x,-y,-z
-x,y,1/2-z
loop_
_atom_site_type_symbol
_atom_site_label
_atom_site_fract_x
_atom_site_fract_y
_atom_site_fract_z
Si Si1 0.436502 0.831606 0.250633
Si Si2 0.129244 0.237249 0.346043
Si Si3 0.694182 0.829125 0.248609
Si Si4 0.785232 0.500000 0.500000
Si Si5 0.000000 0.333877 0.250000
O O1 0.500000 0.666912 0.250000
O O2 0.372005 0.686636 0.261560
O O3 0.439123 0.000000 0.500000
O O4 0.435352 0.000000 0.000000
O O5 0.128718 0.500000 0.500000
O O6 0.172402 0.273467 0.102029
O O7 0.060636 0.164102 0.264672
O O8 0.156218 0.000000 0.500000
O O9 0.743882 0.607600 0.268441
O O10 0.699072 0.000000 0.500000
O O11 0.706042 0.000000 0.000000
O O12 0.992348 0.500000 0.500000
#
# Coordination Sequence:
#
# PCOD8155665 Si02
#       5
#     4   4   4   2   2
#     4   8  14  30  58  93 130 180 242 309 378 446
#     4  11  28  49  80 114 157 206 262 322 393 466
#     4  10  24  42  69 101 145 198 253 315 385 462
#     4  12  28  46  74 110 158 200 262 312 394 464
#     4  10  22  52  80 116 156 202 258 328 390 462
#
# _framework density 26.139807000000001
#
# number of rings (size 3 to 8) (size 9 to 14) (size 15 to 20)
#    0.000    2.000    1.250    0.000    7.000    4.000 
#    0.000    0.000    0.000   15.000    0.000    0.000 
#    0.000    0.000    0.000    0.000    0.000    0.000 
#
# Total GULP energy -198209.303784 kJ/mol
# GULP energy per Si atom -12388.081487 kJ/mol
# Density = 2.608031 g / cm^3
# Si number density = 26.139807 Si / 1000 Ang^3
#
#
#
# Elastic Constant Matrix: (Units=GPa)
#
#
# Indices 1 2 3 4 5 6 
#
# 1 248.4346 51.1724 39.2929 0.0000 0.0000 0.0000
# 2 51.1724 93.2516 38.0524 0.0000 0.0000 0.0000
# 3 39.2929 38.0524 171.6851 0.0000 0.0000 0.0000
# 4 0.0000 0.0000 0.0000 42.4160 0.0000 0.0000
# 5 0.0000 0.0000 0.0000 0.0000 26.1366 0.0000
# 6 0.0000 0.0000 0.0000 0.0000 0.0000 -9.0278
#
#
#
# Elastic Compliance Matrix: (Units=1/GPa)
#
#
# Indices 1 2 3 4 5 6 
#
# 1 0.004583 -0.002295 -0.000540 0.000000 0.000000 0.000000
# 2 -0.002295 0.012939 -0.002343 0.000000 0.000000 0.000000
# 3 -0.000540 -0.002343 0.006468 0.000000 0.000000 0.000000
# 4 0.000000 0.000000 0.000000 0.023576 0.000000 0.000000
# 5 0.000000 0.000000 0.000000 0.000000 0.038261 0.000000
# 6 0.000000 0.000000 0.000000 0.000000 0.000000 -0.110769
#
#
# Mechanical properties :
#
#
# Convention : Reuss Voigt Hill
#
# Bulk Modulus (GPa) = 73.34386 85.60076 79.47231
# Shear Modulus (GPa) = -497.88318 37.56187 -230.16065
#
# Velocity S-wave (km/s) = -13.81604 3.79484 -9.39367
# Velocity P-wave (km/s) = 15.04630 7.21245 9.33734
#
# Compressibility (1/GPa) = 0.01363441
#
# Stress axis : x y z
#
# Youngs Moduli (GPa) = 218.18269 77.28703 154.61906
#
# Poissons Ratio (x) = 0.17734 0.08355
# Poissons Ratio (y) = 0.50064 0.36221
# Poissons Ratio (z) = 0.11790 0.18105
#
# Static dielectric constant tensor:
#      x y z
#    x 6.296270 0.000000 0.000000 
#    y 0.000000 3.973050 0.000000 
#    z 0.000000 0.000000 5.045280 
# 
# 
# High freq. dielectric constant tensor:
#      x y z
#    x 2.094190 0.000000 0.000000 
#    y 0.000000 1.984430 0.000000 
#    z 0.000000 0.000000 2.067290 
# 
# From -- ./inp_files/2806.got.cif
#   From: 2010.03.12/outbox.cif.g09.slc.cpg/sg17_2_cif.got.tgz:2806.got - 2010.04.10 18:46:23.
