data_PCOD8155384
_publ_section_title
;
Structure prediction by ZEFSAII (Michael W. Deem and Ramdas Pophale) SiO2 
 PCOD8155384
Probable space group: P 2 2 21
;
_chemical_formula_sum "Si O2"
_cell_formula_units_Z 32
_cell_length_a 15.517804
_cell_length_b 14.347737
_cell_length_c 8.683715
_cell_angle_alpha 90.000000
_cell_angle_beta 90.000000
_cell_angle_gamma 90.000000
_cell_volume 1933.388944
_symmetry_space_group_name_H-M "P 2 2 21"
_symmetry_group_IT_number 17
_symmetry_cell_setting 'orthorhombic'
loop_
_space_group_symop_operation_xyz
x,y,z
-x,-y,1/2+z
x,-y,-z
-x,y,1/2-z
loop_
_atom_site_type_symbol
_atom_site_label
_atom_site_fract_x
_atom_site_fract_y
_atom_site_fract_z
Si Si1 0.169275 0.289828 0.431770
Si Si2 0.674399 0.602251 0.431617
Si Si3 0.902826 0.905179 0.568808
Si Si4 0.000000 0.398564 0.431282
Si Si5 0.674399 0.602251 0.068383
Si Si6 0.097174 0.905179 0.568809
Si Si7 0.500000 0.603092 0.933092
Si Si8 0.169275 0.710172 0.931770
O O1 0.248851 0.328516 0.527550
O O2 0.157207 0.181679 0.477649
O O3 0.185456 0.302784 0.250000
O O4 0.084383 0.344185 0.487244
O O5 0.693209 0.500000 0.500000
O O6 0.664239 0.592125 0.250000
O O7 0.587673 0.649351 0.502632
O O8 0.751149 0.671484 0.472451
O O9 0.906397 0.914467 0.750000
O O10 0.842793 0.818320 0.522351
O O11 0.000000 0.889634 0.504731
O O12 0.862573 0.000000 0.500000
O O13 0.000001 0.500000 0.500000
O O14 0.915616 0.344185 0.487244
O O15 0.000000 0.405846 0.250000
O O16 0.693209 0.500000 0.000000
O O17 0.587673 0.649351 0.997368
O O18 0.137427 0.000000 0.500000
O O19 0.500000 0.604445 0.750000
O O20 0.500000 0.500000 0.000000
#
# Coordination Sequence:
#
# PCOD8155384 Si02
#       8
#     4   4   4   4   4   4   4   4
#     4  10  19  33  49  68  96 131 166 202 244 289
#     4  11  21  33  49  72 100 130 164 203 243 288
#     4   9  17  31  50  70  94 125 161 205 251 290
#     4  10  20  32  45  62  92 130 167 200 235 278
#     4  11  21  33  49  72 100 130 164 203 243 288
#     4   9  17  31  50  70  94 125 161 205 251 290
#     4  10  18  32  52  72  95 126 161 200 244 288
#     4  10  19  33  49  68  96 131 166 202 244 289
#
# _framework density 16.551247
#
# number of rings (size 3 to 8) (size 9 to 14) (size 15 to 20)
#    0.000    2.000    1.250    5.625    0.000    4.000 
#    0.000    0.000    0.000    0.000    0.000    0.875 
#    0.000    0.000    0.000    0.000    0.000    0.000 
#
# Total GULP energy -396749.965310 kJ/mol
# GULP energy per Si atom -12398.436416 kJ/mol
# Density = 1.651358 g / cm^3
# Si number density = 16.551247 Si / 1000 Ang^3
#
#
#
# Elastic Constant Matrix: (Units=GPa)
#
#
# Indices 1 2 3 4 5 6 
#
# 1 129.8936 57.4181 50.1709 0.0000 0.0000 0.0000
# 2 57.4181 114.1524 40.3554 0.0000 0.0000 0.0000
# 3 50.1709 40.3554 88.6654 0.0000 0.0000 0.0000
# 4 0.0000 0.0000 0.0000 26.7241 0.0000 0.0000
# 5 0.0000 0.0000 0.0000 0.0000 27.3516 0.0000
# 6 0.0000 0.0000 0.0000 0.0000 0.0000 1.8174
#
#
#
# Elastic Compliance Matrix: (Units=1/GPa)
#
#
# Indices 1 2 3 4 5 6 
#
# 1 0.011234 -0.004056 -0.004510 0.000000 0.000000 0.000000
# 2 -0.004056 0.011904 -0.003123 0.000000 0.000000 0.000000
# 3 -0.004510 -0.003123 0.015252 0.000000 0.000000 0.000000
# 4 0.000000 0.000000 0.000000 0.037419 0.000000 0.000000
# 5 0.000000 0.000000 0.000000 0.000000 0.036561 0.000000
# 6 0.000000 0.000000 0.000000 0.000000 0.000000 0.550234
#
#
# Mechanical properties :
#
#
# Convention : Reuss Voigt Hill
#
# Bulk Modulus (GPa) = 66.61787 69.84446 68.23116
# Shear Modulus (GPa) = 7.23602 23.49640 15.36621
#
# Velocity S-wave (km/s) = 2.09317 3.77187 3.05027
# Velocity P-wave (km/s) = 6.79549 7.82687 7.32934
#
# Compressibility (1/GPa) = 0.01501099
#
# Stress axis : x y z
#
# Youngs Moduli (GPa) = 89.01829 84.00223 65.56472
#
# Poissons Ratio (x) = 0.34071 0.29573
# Poissons Ratio (y) = 0.36105 0.20477
# Poissons Ratio (z) = 0.40152 0.26236
#
# Static dielectric constant tensor:
#      x y z
#    x 3.550030 0.000000 0.000000 
#    y 0.000000 3.055210 0.000000 
#    z 0.000000 0.000000 3.036160 
# 
# 
# High freq. dielectric constant tensor:
#      x y z
#    x 1.631980 0.000000 0.000000 
#    y 0.000000 1.615990 0.000000 
#    z 0.000000 0.000000 1.640610 
# 
# From -- ./inp_files/5313.got.cif
#   From: 2010.03.12/outbox.cif.g09.slc.cpg/sg17_3_cif.got.tgz:5313.got - 2010.04.10 18:46:23.
