data_PCOD8155763
_publ_section_title
;
Structure prediction by ZEFSAII (Michael W. Deem and Ramdas Pophale) SiO2 
 PCOD8155763
Probable space group: P 2 2 21
;
_chemical_formula_sum "Si O2"
_cell_formula_units_Z 20
_cell_length_a 12.055060
_cell_length_b 9.391335
_cell_length_c 8.123627
_cell_angle_alpha 90.000000
_cell_angle_beta 90.000000
_cell_angle_gamma 90.000000
_cell_volume 919.701052
_symmetry_space_group_name_H-M "P 2 2 21"
_symmetry_group_IT_number 17
_symmetry_cell_setting 'orthorhombic'
loop_
_space_group_symop_operation_xyz
x,y,z
-x,-y,1/2+z
x,-y,-z
-x,y,1/2-z
loop_
_atom_site_type_symbol
_atom_site_label
_atom_site_fract_x
_atom_site_fract_y
_atom_site_fract_z
Si Si1 0.150899 0.856660 0.579627
Si Si2 0.670519 0.658373 0.061916
Si Si3 0.718418 0.348338 0.558284
Si Si4 0.069968 0.751574 0.891633
Si Si5 0.527607 0.161027 0.441223
O O1 0.234516 0.727466 0.548930
O O2 0.138810 0.867667 0.779498
O O3 0.027631 0.826824 0.500079
O O4 0.201008 0.000000 0.500000
O O5 0.712299 0.662082 0.247403
O O6 0.647354 0.500000 0.000000
O O7 0.557254 0.746515 0.049125
O O8 0.670678 0.500000 0.500000
O O9 0.847769 0.337725 0.505216
O O10 0.649927 0.222705 0.471936
O O11 0.000000 0.659204 0.750000
O O12 0.500000 0.172861 0.250000
O O13 0.521751 0.000000 0.500000
#
# Coordination Sequence:
#
# PCOD8155763 Si02
#       5
#     4   4   4   4   4
#     4   9  20  40  64  91 130 171 223 278 333 395
#     4  12  25  42  68  99 137 178 228 275 343 399
#     4  12  25  44  68  97 135 181 224 282 337 404
#     4   8  22  41  62  94 136 168 231 270 343 387
#     4  12  26  46  71 101 138 175 226 278 338 408
#
# _framework density 21.746196000000001
#
# number of rings (size 3 to 8) (size 9 to 14) (size 15 to 20)
#    1.200    0.000    0.000    6.600    0.000    7.200 
#    0.000    0.000    0.000    0.000    0.000    0.000 
#    0.000    0.000    0.000    0.000    0.000    0.000 
#
# Total GULP energy -247814.435821 kJ/mol
# GULP energy per Si atom -12390.721791 kJ/mol
# Density = 2.169670 g / cm^3
# Si number density = 21.746196 Si / 1000 Ang^3
#
#
#
# Elastic Constant Matrix: (Units=GPa)
#
#
# Indices 1 2 3 4 5 6 
#
# 1 112.5024 47.8492 25.2765 0.0000 0.0000 0.0000
# 2 47.8492 141.3415 11.0412 0.0000 0.0000 0.0000
# 3 25.2765 11.0412 69.8508 0.0000 0.0000 0.0000
# 4 0.0000 0.0000 0.0000 27.3272 0.0000 0.0000
# 5 0.0000 0.0000 0.0000 0.0000 26.9985 0.0000
# 6 0.0000 0.0000 0.0000 0.0000 0.0000 28.3814
#
#
#
# Elastic Compliance Matrix: (Units=1/GPa)
#
#
# Indices 1 2 3 4 5 6 
#
# 1 0.011163 -0.003507 -0.003485 0.000000 0.000000 0.000000
# 2 -0.003507 0.008265 -0.000037 0.000000 0.000000 0.000000
# 3 -0.003485 -0.000037 0.015583 0.000000 0.000000 0.000000
# 4 0.000000 0.000000 0.000000 0.036594 0.000000 0.000000
# 5 0.000000 0.000000 0.000000 0.000000 0.037039 0.000000
# 6 0.000000 0.000000 0.000000 0.000000 0.000000 0.035234
#
#
# Mechanical properties :
#
#
# Convention : Reuss Voigt Hill
#
# Bulk Modulus (GPa) = 47.72678 54.66984 51.19831
# Shear Modulus (GPa) = 30.31729 32.50993 31.41361
#
# Velocity S-wave (km/s) = 3.73787 3.87068 3.80486
# Velocity P-wave (km/s) = 6.37368 6.72092 6.54960
#
# Compressibility (1/GPa) = 0.02095260
#
# Stress axis : x y z
#
# Youngs Moduli (GPa) = 89.57923 120.98914 64.17106
#
# Poissons Ratio (x) = 0.42430 0.22365
# Poissons Ratio (y) = 0.31415 0.00240
# Poissons Ratio (z) = 0.31221 0.00453
#
# Static dielectric constant tensor:
#      x y z
#    x 4.089450 0.000000 0.000000 
#    y 0.000000 3.782900 0.000000 
#    z 0.000000 0.000000 3.838320 
# 
# 
# High freq. dielectric constant tensor:
#      x y z
#    x 1.870440 0.000000 0.000000 
#    y 0.000000 1.835300 0.000000 
#    z 0.000000 0.000000 1.853370 
# 
# From -- ./inp_files/4622.got.cif
#   From: 2010.03.12/outbox.cif.g09.slc.cpg/sg17_3_cif.got.tgz:4622.got - 2010.04.10 18:46:23.
