data_PCOD8155334
_publ_section_title
;
Structure prediction by ZEFSAII (Michael W. Deem and Ramdas Pophale) SiO2 
 PCOD8155334
Probable space group: P 2 2 2
;
_chemical_formula_sum "Si O2"
_cell_formula_units_Z 21
_cell_length_a 10.102710
_cell_length_b 13.624473
_cell_length_c 7.355910
_cell_angle_alpha 90.000000
_cell_angle_beta 90.000000
_cell_angle_gamma 90.000000
_cell_volume 1012.497609
_symmetry_space_group_name_H-M "P 2 2 2"
_symmetry_group_IT_number 16
_symmetry_cell_setting 'orthorhombic'
loop_
_space_group_symop_operation_xyz
x,y,z
-x,-y,z
x,-y,-z
-x,y,-z
loop_
_atom_site_type_symbol
_atom_site_label
_atom_site_fract_x
_atom_site_fract_y
_atom_site_fract_z
Si Si1 0.015894 0.111855 0.213210
Si Si2 0.256068 0.759987 0.749286
Si Si3 0.845847 0.391203 0.035627
Si Si4 0.465520 0.853264 0.298161
Si Si5 0.500000 0.000000 0.000000
Si Si6 0.202473 0.738990 0.354580
O O1 0.166792 0.142188 0.249972
O O2 0.912574 0.180430 0.321445
O O3 0.000000 0.000000 0.278968
O O4 0.000000 0.124973 0.000000
O O5 0.406866 0.793533 0.769251
O O6 0.215032 0.705241 0.563147
O O7 0.230189 0.686268 0.912282
O O8 0.823766 0.360618 0.244172
O O9 0.789394 0.500000 0.000000
O O10 0.000000 0.385969 0.000000
O O11 0.500000 0.897283 0.500000
O O12 0.343916 0.780887 0.301104
O O13 0.419707 0.932980 0.145164
#
# Coordination Sequence:
#
# PCOD8155334 Si02
#       6
#     4   4   4   4   1   4
#     4  11  23  37  61  89 123 162 209 246 290 358
#     4  11  22  42  62  87 124 160 199 249 305 355
#     4  11  23  41  64  94 122 149 201 256 305 366
#     4  10  25  39  59  90 124 160 206 251 294 360
#     4  12  22  36  64  80 126 172 206 234 304 346
#     4  11  22  42  62  87 124 160 199 249 305 355
#
# _framework density 20.740788999999999
#
# number of rings (size 3 to 8) (size 9 to 14) (size 15 to 20)
#    0.000    1.143    3.810    2.000    2.667    2.286 
#    0.000    3.810    0.000    3.429    0.000    0.000 
#    0.000    0.000    0.000    0.000    0.000    0.000 
#
# Total GULP energy -260291.933564 kJ/mol
# GULP energy per Si atom -12394.853979 kJ/mol
# Density = 2.069358 g / cm^3
# Si number density = 20.740789 Si / 1000 Ang^3
#
#
#
# Elastic Constant Matrix: (Units=GPa)
#
#
# Indices 1 2 3 4 5 6 
#
# 1 96.1528 10.2935 -5.8657 0.0000 0.0000 0.0000
# 2 10.2935 91.3791 16.3581 0.0000 0.0000 0.0000
# 3 -5.8657 16.3581 89.2634 0.0000 0.0000 0.0000
# 4 0.0000 0.0000 0.0000 2884.5226 0.0000 0.0000
# 5 0.0000 0.0000 0.0000 0.0000 30.0337 0.0000
# 6 0.0000 0.0000 0.0000 0.0000 0.0000 1.7271
#
#
#
# Elastic Compliance Matrix: (Units=1/GPa)
#
#
# Indices 1 2 3 4 5 6 
#
# 1 0.010604 -0.001364 0.000947 0.000000 0.000000 0.000000
# 2 -0.001364 0.011490 -0.002195 0.000000 0.000000 0.000000
# 3 0.000947 -0.002195 0.011667 0.000000 0.000000 0.000000
# 4 0.000000 0.000000 0.000000 0.000347 0.000000 0.000000
# 5 0.000000 0.000000 0.000000 0.000000 0.033296 0.000000
# 6 0.000000 0.000000 0.000000 0.000000 0.000000 0.578995
#
#
# Mechanical properties :
#
#
# Convention : Reuss Voigt Hill
#
# Bulk Modulus (GPa) = 35.04307 35.37413 35.20860
# Shear Modulus (GPa) = 7.56274 600.32400 303.94337
#
# Velocity S-wave (km/s) = 1.91160 17.03143 12.11866
# Velocity P-wave (km/s) = 4.66955 20.09607 14.58864
#
# Compressibility (1/GPa) = 0.02853631
#
# Stress axis : x y z
#
# Youngs Moduli (GPa) = 94.30508 87.03188 85.70956
#
# Poissons Ratio (x) = 0.11871 -0.08115
# Poissons Ratio (y) = 0.12863 0.18815
# Poissons Ratio (z) = -0.08928 0.19106
#
# Static dielectric constant tensor:
#      x y z
#    x -2.714610 0.000000 0.000000 
#    y 0.000000 3.783200 0.000000 
#    z 0.000000 0.000000 4.417560 
# 
# 
# High freq. dielectric constant tensor:
#      x y z
#    x 1.812550 0.000000 0.000000 
#    y 0.000000 1.785650 0.000000 
#    z 0.000000 0.000000 1.838550 
# 
# From -- ./inp_files/3993.got.cif
#   From: 2010.03.12/outbox.cif.g09.slc.cpg/sg16_2_cif.got.tgz:3993.got - 2010.03.31 00:51:45.
