data_PCOD8155014
_publ_section_title
;
Structure prediction by ZEFSAII (Michael W. Deem and Ramdas Pophale) SiO2 
 PCOD8155014
Probable space group: C 2/C
;
_chemical_formula_sum "Si O2"
_cell_formula_units_Z 36
_cell_length_a 20.610309
_cell_length_b 15.261765
_cell_length_c 12.710387
_cell_angle_alpha 90.000000
_cell_angle_beta 155.450326
_cell_angle_gamma 90.000000
_cell_volume 1661.117114
_symmetry_space_group_name_H-M "C 2/C"
_symmetry_group_IT_number 15
_symmetry_cell_setting 'monoclinic'
loop_
_space_group_symop_operation_xyz
x,y,z
-x,y,1/2-z
-x,-y,-z
x,-y,1/2+z
1/2+x,1/2+y,z
1/2-x,1/2+y,1/2-z
1/2-x,1/2-y,-z
1/2+x,1/2-y,1/2+z
loop_
_atom_site_type_symbol
_atom_site_label
_atom_site_fract_x
_atom_site_fract_y
_atom_site_fract_z
Si Si1 0.536315 0.597084 0.517994
Si Si2 0.434243 0.733737 0.762288
Si Si3 0.243731 0.645880 0.981005
Si Si4 0.630937 0.902575 0.088192
Si Si5 0.000000 0.547316 0.750000
O O1 0.500000 0.500000 0.500000
O O2 0.499393 0.665985 0.555204
O O3 0.422919 0.615341 0.252664
O O4 0.713796 0.612961 0.749087
O O5 0.500000 0.694456 0.750000
O O6 0.250000 0.750000 0.500000
O O7 0.507315 0.828264 0.883822
O O8 0.250000 0.750000 0.000000
O O9 0.170831 0.601409 0.770023
O O10 0.144913 0.609030 0.933414
O O11 0.551172 0.991771 0.928791
#
# Coordination Sequence:
#
# PCOD8155014 Si02
#       5
#     8   8   8   8   4
#     4  12  26  50  72 111 149 191 253 309 371 453
#     4  12  25  46  81 108 149 200 251 304 374 448
#     4  12  28  45  76 108 148 194 246 309 381 443
#     4  12  25  49  74 108 151 194 249 309 373 444
#     4  12  26  50  72 106 148 196 248 308 374 452
#
# _framework density 21.672163000000001
#
# number of rings (size 3 to 8) (size 9 to 14) (size 15 to 20)
#    0.000    0.000    7.778    1.333    3.111    3.556 
#    0.000    0.000    0.000    0.000    0.000    0.000 
#    0.000    0.000    0.000    0.000    0.000    0.000 
#
# Total GULP energy -223177.243943 kJ/mol
# GULP energy per Si atom -12398.735775 kJ/mol
# Density = 2.162284 g / cm^3
# Si number density = 21.672163 Si / 1000 Ang^3
#
#
#
# Elastic Constant Matrix: (Units=GPa)
#
#
# Indices 1 2 3 4 5 6 
#
# 1 107.7635 50.4562 46.4862 0.0000 5.0956 0.0000
# 2 50.4562 158.7958 58.1051 0.0000 1.4754 0.0000
# 3 46.4862 58.1051 156.2081 0.0000 9.0525 0.0000
# 4 0.0000 0.0000 0.0000 42.5182 0.0000 2.4665
# 5 5.0956 1.4754 9.0525 0.0000 49.7025 0.0000
# 6 0.0000 0.0000 0.0000 2.4665 0.0000 42.8428
#
#
#
# Elastic Compliance Matrix: (Units=1/GPa)
#
#
# Indices 1 2 3 4 5 6 
#
# 1 0.011662 -0.002829 -0.002379 0.000000 -0.000678 0.000000
# 2 -0.002829 0.007980 -0.002152 0.000000 0.000445 0.000000
# 3 -0.002379 -0.002152 0.007977 0.000000 -0.001145 0.000000
# 4 0.000000 0.000000 0.000000 0.023598 0.000000 -0.001359
# 5 -0.000678 0.000445 -0.001145 0.000000 0.020385 0.000000
# 6 0.000000 0.000000 0.000000 -0.001359 0.000000 0.023419
#
#
# Mechanical properties :
#
#
# Convention : Reuss Voigt Hill
#
# Bulk Modulus (GPa) = 77.52828 81.42915 79.47872
# Shear Modulus (GPa) = 43.84413 44.86068 44.35240
#
# Velocity S-wave (km/s) = 4.50273 4.55463 4.52875
# Velocity P-wave (km/s) = 7.92992 8.08172 8.00618
#
# Compressibility (1/GPa) = 0.01289852
#
# Stress axis : x y z
#
# Youngs Moduli (GPa) = 85.74552 125.31970 125.36653
#
# Poissons Ratio (x) = 0.35451 0.29826
# Poissons Ratio (y) = 0.24256 0.26981
# Poissons Ratio (z) = 0.20400 0.26971
#
# Static dielectric constant tensor:
#      x y z
#    x 3.805200 0.000000 -0.049110 
#    y 0.000000 3.917540 0.000000 
#    z -0.049110 0.000000 3.927450 
# 
# 
# High freq. dielectric constant tensor:
#      x y z
#    x 1.854860 0.000000 0.002050 
#    y 0.000000 1.860190 0.000000 
#    z 0.002050 0.000000 1.876710 
# 
# From -- ./inp_files/85414.got.cif
#   From: 2010.06.25/outbox.cif.g09.slc.cpg/sg15_43_cif.got.tgz:85414.got - 2010.06.28 07:06:18.
