data_PCOD8155057
_publ_section_title
;
Structure prediction by ZEFSAII (Michael W. Deem and Ramdas Pophale) SiO2 
 PCOD8155057
Probable space group: C 2/C
;
_chemical_formula_sum "Si O2"
_cell_formula_units_Z 32
_cell_length_a 21.261529
_cell_length_b 4.976308
_cell_length_c 14.227001
_cell_angle_alpha 90.000000
_cell_angle_beta 56.758023
_cell_angle_gamma 90.000000
_cell_volume 1258.954052
_symmetry_space_group_name_H-M "C 2/C"
_symmetry_group_IT_number 15
_symmetry_cell_setting 'monoclinic'
loop_
_space_group_symop_operation_xyz
x,y,z
-x,y,1/2-z
-x,-y,-z
x,-y,1/2+z
1/2+x,1/2+y,z
1/2-x,1/2+y,1/2-z
1/2-x,1/2-y,-z
1/2+x,1/2-y,1/2+z
loop_
_atom_site_type_symbol
_atom_site_label
_atom_site_fract_x
_atom_site_fract_y
_atom_site_fract_z
Si Si1 0.228242 0.728519 0.359231
Si Si2 0.343764 0.138195 0.273329
Si Si3 0.498437 0.754564 0.933369
Si Si4 0.162920 0.224352 0.511581
O O1 0.198975 0.790459 0.277220
O O2 0.210125 0.428911 0.407403
O O3 0.317169 0.821126 0.289811
O O4 0.182079 0.923335 0.465996
O O5 0.431453 0.202108 0.193921
O O6 0.314485 0.245000 0.397888
O O7 0.425907 0.766307 0.926998
O O8 0.500000 0.500000 0.000000
O O9 0.500000 0.000000 0.000000
#
# Coordination Sequence:
#
# PCOD8155057 Si02
#       4
#     8   8   8   8
#     4  12  27  47  74 113 153 188 257 309 373 455
#     4  12  27  48  79 108 154 201 248 307 393 429
#     4  12  25  49  76 108 153 194 253 316 376 451
#     4  12  26  50  75 113 146 200 249 316 369 463
#
# _framework density 25.417926999999999
#
# number of rings (size 3 to 8) (size 9 to 14) (size 15 to 20)
#    0.000    0.000    5.000    3.750    0.000    8.000 
#    0.000    5.000    0.000    0.000    0.000    0.000 
#    0.000    0.000    0.000    0.000    0.000    0.000 
#
# Total GULP energy -198341.606505 kJ/mol
# GULP energy per Si atom -12396.350407 kJ/mol
# Density = 2.536007 g / cm^3
# Si number density = 25.417927 Si / 1000 Ang^3
#
#
#
# Elastic Constant Matrix: (Units=GPa)
#
#
# Indices 1 2 3 4 5 6 
#
# 1 158.6610 21.8660 41.7975 -0.0152 -2.9996 -0.0078
# 2 21.8660 80.8412 21.8249 -0.0406 -0.6224 0.0054
# 3 41.7975 21.8249 166.7198 -0.0122 6.6419 -0.0051
# 4 -0.0152 -0.0406 -0.0122 32.8959 -0.0037 -6.2406
# 5 -2.9996 -0.6224 6.6419 -0.0037 66.4209 0.0014
# 6 -0.0078 0.0054 -0.0051 -6.2406 0.0014 35.1166
#
#
#
# Elastic Compliance Matrix: (Units=1/GPa)
#
#
# Indices 1 2 3 4 5 6 
#
# 1 0.006923 -0.001447 -0.001564 0.000001 0.000456 0.000002
# 2 -0.001447 0.013131 -0.001364 0.000015 0.000194 0.000000
# 3 -0.001564 -0.001364 0.006598 0.000000 -0.000743 0.000001
# 4 0.000001 0.000015 0.000000 0.031460 0.000002 0.005591
# 5 0.000456 0.000194 -0.000743 0.000002 0.015152 0.000000
# 6 0.000002 0.000000 0.000001 0.005591 0.000000 0.029470
#
#
# Mechanical properties :
#
#
# Convention : Reuss Voigt Hill
#
# Bulk Modulus (GPa) = 55.85895 64.13320 59.99608
# Shear Modulus (GPa) = 42.57072 48.26890 45.41981
#
# Velocity S-wave (km/s) = 4.09691 4.36249 4.23178
# Velocity P-wave (km/s) = 6.66359 7.11768 6.89438
#
# Compressibility (1/GPa) = 0.01790223
#
# Stress axis : x y z
#
# Youngs Moduli (GPa) = 144.44927 76.15590 151.55073
#
# Poissons Ratio (x) = 0.11017 0.23708
# Poissons Ratio (y) = 0.20897 0.20671
# Poissons Ratio (z) = 0.22597 0.10388
#
# Static dielectric constant tensor:
#      x y z
#    x 4.739020 -0.000030 0.037490 
#    y -0.000030 4.526340 0.000010 
#    z 0.037490 0.000010 4.696380 
# 
# 
# High freq. dielectric constant tensor:
#      x y z
#    x 2.032620 0.000000 -0.000220 
#    y 0.000000 2.019700 0.000000 
#    z -0.000220 0.000000 2.040620 
# 
# From -- ./inp_files/170212.got.cif
#   From: 2010.06.25/outbox.cif.g09.slc.cpg/sg15_86_cif.got.tgz:170212.got - 2010.06.28 07:06:18.
