data_PCOD8155150
_publ_section_title
;
Structure prediction by ZEFSAII (Michael W. Deem and Ramdas Pophale) SiO2 
 PCOD8155150
Probable space group: C 2/C
;
_chemical_formula_sum "Si O2"
_cell_formula_units_Z 48
_cell_length_a 9.718910
_cell_length_b 20.595714
_cell_length_c 11.706768
_cell_angle_alpha 90.000000
_cell_angle_beta 108.773638
_cell_angle_gamma 90.000000
_cell_volume 2218.648475
_symmetry_space_group_name_H-M "C 2/C"
_symmetry_group_IT_number 15
_symmetry_cell_setting 'monoclinic'
loop_
_space_group_symop_operation_xyz
x,y,z
-x,y,1/2-z
-x,-y,-z
x,-y,1/2+z
1/2+x,1/2+y,z
1/2-x,1/2+y,1/2-z
1/2-x,1/2-y,-z
1/2+x,1/2-y,1/2+z
loop_
_atom_site_type_symbol
_atom_site_label
_atom_site_fract_x
_atom_site_fract_y
_atom_site_fract_z
Si Si1 0.345125 0.963581 0.961907
Si Si2 0.352565 0.859810 0.771799
Si Si3 0.163194 0.187146 0.016921
Si Si4 0.849901 0.766494 0.421430
Si Si5 0.336189 0.882844 0.188544
Si Si6 0.658470 0.572134 0.840905
O O1 0.313951 0.919824 0.842447
O O2 0.213114 0.014740 0.938240
O O3 0.328939 0.917600 0.065820
O O4 0.500000 0.000000 0.000000
O O5 0.500000 0.879641 0.750000
O O6 0.228759 0.848534 0.644601
O O7 0.379663 0.794854 0.850394
O O8 0.157741 0.139543 0.907715
O O9 0.001900 0.207516 0.010005
O O10 0.250000 0.250000 0.000000
O O11 0.750000 0.750000 0.500000
O O12 0.770102 0.821589 0.327590
O O13 0.500000 0.858821 0.250000
O O14 0.280810 0.929828 0.273900
O O15 0.500000 0.556416 0.750000
#
# Coordination Sequence:
#
# PCOD8155150 Si02
#       6
#     8   8   8   8   8   8
#     4  12  28  48  73 110 148 198 253 297 364 445
#     4  12  27  46  77 107 148 193 248 301 369 445
#     4  12  27  47  78 107 149 193 244 306 375 443
#     4  12  27  48  72 113 146 184 245 304 369 431
#     4  12  27  48  76 106 151 195 242 304 367 442
#     4  12  28  49  74 107 152 195 243 303 375 437
#
# _framework density 21.634792000000001
#
# number of rings (size 3 to 8) (size 9 to 14) (size 15 to 20)
#    0.000    0.000    6.667    2.000    9.333    2.000 
#    0.000    0.000    0.000    0.000    0.000    0.000 
#    0.000    0.000    0.000    0.000    0.000    0.000 
#
# Total GULP energy -297728.639596 kJ/mol
# GULP energy per Si atom -12405.359983 kJ/mol
# Density = 2.158555 g / cm^3
# Si number density = 21.634792 Si / 1000 Ang^3
#
#
#
# Elastic Constant Matrix: (Units=GPa)
#
#
# Indices 1 2 3 4 5 6 
#
# 1 139.1972 36.4674 51.4420 0.0000 20.7407 0.0000
# 2 36.4674 112.5185 35.9938 0.0000 13.9080 0.0000
# 3 51.4420 35.9938 117.8356 0.0000 13.9407 0.0000
# 4 0.0000 0.0000 0.0000 24.4179 0.0000 8.1388
# 5 20.7407 13.9080 13.9407 0.0000 52.9726 0.0000
# 6 0.0000 0.0000 0.0000 8.1388 0.0000 33.9899
#
#
#
# Elastic Compliance Matrix: (Units=1/GPa)
#
#
# Indices 1 2 3 4 5 6 
#
# 1 0.009149 -0.001651 -0.003217 0.000000 -0.002302 0.000000
# 2 -0.001651 0.010327 -0.002260 0.000000 -0.001470 0.000000
# 3 -0.003217 -0.002260 0.010695 0.000000 -0.000962 0.000000
# 4 0.000000 0.000000 0.000000 0.044506 0.000000 -0.010657
# 5 -0.002302 -0.001470 -0.000962 0.000000 0.020418 0.000000
# 6 0.000000 0.000000 0.000000 -0.010657 0.000000 0.031972
#
#
# Mechanical properties :
#
#
# Convention : Reuss Voigt Hill
#
# Bulk Modulus (GPa) = 62.83675 68.59531 65.71603
# Shear Modulus (GPa) = 34.09998 38.65262 36.37630
#
# Velocity S-wave (km/s) = 3.97440 4.23140 4.10491
# Velocity P-wave (km/s) = 7.08297 7.45975 7.27380
#
# Compressibility (1/GPa) = 0.01591425
#
# Stress axis : x y z
#
# Youngs Moduli (GPa) = 109.30633 96.83145 93.50287
#
# Poissons Ratio (x) = 0.15991 0.30081
# Poissons Ratio (y) = 0.18051 0.21128
# Poissons Ratio (z) = 0.35165 0.21881
#
# Static dielectric constant tensor:
#      x y z
#    x 3.963630 0.000000 -0.038290 
#    y 0.000000 3.893300 0.000000 
#    z -0.038290 0.000000 6.034570 
# 
# 
# High freq. dielectric constant tensor:
#      x y z
#    x 1.858360 0.000000 0.002650 
#    y 0.000000 1.863170 0.000000 
#    z 0.002650 0.000000 1.864530 
# 
# From -- ./inp_files/79881.got.cif
#   From: 2010.06.25/outbox.cif.g09.slc.cpg/sg15_40_cif.got.tgz:79881.got - 2010.06.28 07:06:18.
