data_PCOD8155543
_publ_section_title
;
Structure prediction by ZEFSAII (Michael W. Deem and Ramdas Pophale) SiO2 
 PCOD8155543
Probable space group: P 2 2 21
;
_chemical_formula_sum "Si O2"
_cell_formula_units_Z 22
_cell_length_a 6.709408
_cell_length_b 14.370711
_cell_length_c 10.390270
_cell_angle_alpha 90.000000
_cell_angle_beta 90.000000
_cell_angle_gamma 90.000000
_cell_volume 1001.819062
_symmetry_space_group_name_H-M "P 2 2 21"
_symmetry_group_IT_number 17
_symmetry_cell_setting 'orthorhombic'
loop_
_space_group_symop_operation_xyz
x,y,z
-x,-y,1/2+z
x,-y,-z
-x,y,1/2-z
loop_
_atom_site_type_symbol
_atom_site_label
_atom_site_fract_x
_atom_site_fract_y
_atom_site_fract_z
Si Si1 0.629613 0.660140 0.867747
Si Si2 0.000000 0.090692 0.750000
Si Si3 0.272584 0.748312 0.217155
Si Si4 0.000000 0.257203 0.250000
Si Si5 0.189413 0.000000 0.000000
Si Si6 0.818613 0.500000 0.000000
Si Si7 0.000000 0.419574 0.750000
Si Si8 0.315058 0.192118 0.057249
O O1 0.500000 0.617115 0.750000
O O2 0.658670 0.583897 0.978654
O O3 0.522026 0.756639 0.908426
O O4 0.859019 0.678022 0.834487
O O5 0.823289 0.162736 0.790874
O O6 0.946738 0.027808 0.624450
O O7 0.500000 0.751641 0.250000
O O8 0.191819 0.647090 0.252039
O O9 0.225113 0.758112 0.066694
O O10 0.854260 0.194443 0.334646
O O11 0.344706 0.917490 0.966526
O O12 0.965206 0.483072 0.877083
#
# Coordination Sequence:
#
# PCOD8155543 Si02
#       8
#     4   2   4   2   2   2   2   4
#     4  10  23  41  63  92 128 169 214 266 324 384
#     4   9  21  40  65  95 130 170 213 261 313 377
#     4  10  21  41  64  91 129 171 212 262 321 382
#     4  10  20  42  64  88 128 168 208 262 324 388
#     4  10  20  40  64  96 130 168 214 260 316 376
#     4  12  24  42  68  98 128 172 220 270 328 386
#     4  11  25  42  65  93 130 172 217 269 325 385
#     4  10  21  38  64  93 127 167 211 262 319 381
#
# _framework density 21.960052999999998
#
# number of rings (size 3 to 8) (size 9 to 14) (size 15 to 20)
#    0.000    1.818    0.000    3.273    0.000    6.545 
#    0.000   25.455    0.000    0.000    0.000    0.000 
#    0.000    0.000    0.000    0.000    0.000    0.000 
#
# Total GULP energy -272557.082294 kJ/mol
# GULP energy per Si atom -12388.958286 kJ/mol
# Density = 2.191007 g / cm^3
# Si number density = 21.960053 Si / 1000 Ang^3
#
#
#
# Elastic Constant Matrix: (Units=GPa)
#
#
# Indices 1 2 3 4 5 6 
#
# 1 142.9776 73.6901 35.5849 0.0000 0.0000 0.0000
# 2 73.6901 139.3902 68.9796 0.0000 0.0000 0.0000
# 3 35.5849 68.9796 124.1207 0.0000 0.0000 0.0000
# 4 0.0000 0.0000 0.0000 36.1296 0.0000 0.0000
# 5 0.0000 0.0000 0.0000 0.0000 22.2705 0.0000
# 6 0.0000 0.0000 0.0000 0.0000 0.0000 18.6514
#
#
#
# Elastic Compliance Matrix: (Units=1/GPa)
#
#
# Indices 1 2 3 4 5 6 
#
# 1 0.009614 -0.005129 0.000094 0.000000 0.000000 0.000000
# 2 -0.005129 0.012632 -0.005550 0.000000 0.000000 0.000000
# 3 0.000094 -0.005550 0.011114 0.000000 0.000000 0.000000
# 4 0.000000 0.000000 0.000000 0.027678 0.000000 0.000000
# 5 0.000000 0.000000 0.000000 0.000000 0.044903 0.000000
# 6 0.000000 0.000000 0.000000 0.000000 0.000000 0.053615
#
#
# Mechanical properties :
#
#
# Convention : Reuss Voigt Hill
#
# Bulk Modulus (GPa) = 82.02973 84.77754 83.40363
# Shear Modulus (GPa) = 27.05782 30.62588 28.84185
#
# Velocity S-wave (km/s) = 3.51399 3.73851 3.62799
# Velocity P-wave (km/s) = 7.34162 7.57129 7.45734
#
# Compressibility (1/GPa) = 0.01219070
#
# Stress axis : x y z
#
# Youngs Moduli (GPa) = 104.01189 79.16313 89.97748
#
# Poissons Ratio (x) = 0.40605 -0.00848
# Poissons Ratio (y) = 0.53351 0.49935
# Poissons Ratio (z) = -0.00980 0.43933
#
# Static dielectric constant tensor:
#      x y z
#    x 3.997850 0.000000 0.000000 
#    y 0.000000 4.070890 0.000000 
#    z 0.000000 0.000000 4.210400 
# 
# 
# High freq. dielectric constant tensor:
#      x y z
#    x 1.852750 0.000000 0.000000 
#    y 0.000000 1.869330 0.000000 
#    z 0.000000 0.000000 1.872860 
# 
# From -- ./inp_files/6010.got.cif
#   From: 2010.03.12/outbox.cif.g09.slc.cpg/sg17_4_cif.got.tgz:6010.got - 2010.04.10 18:46:23.
