data_PCOD8155284
_publ_section_title
;
Structure prediction by ZEFSAII (Michael W. Deem and Ramdas Pophale) SiO2 
 PCOD8155284
Probable space group: P 2 2 2
;
_chemical_formula_sum "Si O2"
_cell_formula_units_Z 24
_cell_length_a 13.909699
_cell_length_b 9.351647
_cell_length_c 9.270909
_cell_angle_alpha 90.000000
_cell_angle_beta 90.000000
_cell_angle_gamma 90.000000
_cell_volume 1205.946816
_symmetry_space_group_name_H-M "P 2 2 2"
_symmetry_group_IT_number 16
_symmetry_cell_setting 'orthorhombic'
loop_
_space_group_symop_operation_xyz
x,y,z
-x,-y,z
x,-y,-z
-x,y,-z
loop_
_atom_site_type_symbol
_atom_site_label
_atom_site_fract_x
_atom_site_fract_y
_atom_site_fract_z
Si Si1 0.301681 0.333046 0.462267
Si Si2 0.405456 0.170881 0.233706
Si Si3 0.909364 0.650511 0.078719
Si Si4 0.621770 0.851807 0.715384
Si Si5 0.263657 0.842747 0.012526
Si Si6 0.911288 0.349153 0.579697
O O1 0.307778 0.500000 0.500000
O O2 0.354942 0.305585 0.311236
O O3 0.359866 0.235733 0.572019
O O4 0.191735 0.275903 0.449350
O O5 0.518856 0.196254 0.222167
O O6 0.364049 0.161636 0.073170
O O7 0.379693 0.021903 0.315712
O O8 0.812122 0.734670 0.053148
O O9 0.929753 0.634000 0.249220
O O10 0.896178 0.500000 0.000000
O O11 0.000000 0.728327 0.000000
O O12 0.707861 0.807175 0.823500
O O13 0.217216 0.000000 0.000000
O O14 0.907116 0.500000 0.500000
O O15 0.000000 0.264030 0.500000
#
# Coordination Sequence:
#
# PCOD8155284 Si02
#       6
#     4   4   4   4   4   4
#     4  11  23  36  59  89 119 152 193 245 293 344
#     4  10  20  42  57  87 114 158 202 236 287 350
#     4  11  23  38  65  91 116 154 198 237 290 358
#     4  10  22  36  65  81 117 160 198 237 286 351
#     4  10  22  39  61  88 119 151 195 248 291 339
#     4  10  21  38  60  85 120 152 192 236 289 347
#
# _framework density 19.901377
#
# number of rings (size 3 to 8) (size 9 to 14) (size 15 to 20)
#    0.000    1.667    1.667    3.500    7.000    5.000 
#    0.000    0.000    0.000    5.000    0.000    0.000 
#    0.000    0.000    0.000    0.000    0.000    0.000 
#
# Total GULP energy -297483.663179 kJ/mol
# GULP energy per Si atom -12395.152632 kJ/mol
# Density = 1.985608 g / cm^3
# Si number density = 19.901377 Si / 1000 Ang^3
#
#
#
# Elastic Constant Matrix: (Units=GPa)
#
#
# Indices 1 2 3 4 5 6 
#
# 1 119.5745 31.2215 29.2520 0.0000 0.0000 0.0000
# 2 31.2215 53.6258 25.9581 0.0000 0.0000 0.0000
# 3 29.2520 25.9581 101.9804 0.0000 0.0000 0.0000
# 4 0.0000 0.0000 0.0000 21.8574 0.0000 0.0000
# 5 0.0000 0.0000 0.0000 0.0000 34.4535 0.0000
# 6 0.0000 0.0000 0.0000 0.0000 0.0000 24.2022
#
#
#
# Elastic Compliance Matrix: (Units=1/GPa)
#
#
# Indices 1 2 3 4 5 6 
#
# 1 0.010085 -0.005099 -0.001595 0.000000 0.000000 0.000000
# 2 -0.005099 0.023847 -0.004607 0.000000 0.000000 0.000000
# 3 -0.001595 -0.004607 0.011436 0.000000 0.000000 0.000000
# 4 0.000000 0.000000 0.000000 0.045751 0.000000 0.000000
# 5 0.000000 0.000000 0.000000 0.000000 0.029025 0.000000
# 6 0.000000 0.000000 0.000000 0.000000 0.000000 0.041319
#
#
# Mechanical properties :
#
#
# Convention : Reuss Voigt Hill
#
# Bulk Modulus (GPa) = 43.92764 49.78265 46.85514
# Shear Modulus (GPa) = 26.08887 28.68590 27.38739
#
# Velocity S-wave (km/s) = 3.62457 3.80070 3.71368
# Velocity P-wave (km/s) = 6.29582 6.65803 6.47946
#
# Compressibility (1/GPa) = 0.02276471
#
# Stress axis : x y z
#
# Youngs Moduli (GPa) = 99.16129 41.93416 87.44356
#
# Poissons Ratio (x) = 0.21384 0.13944
# Poissons Ratio (y) = 0.50567 0.40288
# Poissons Ratio (z) = 0.15813 0.19320
#
# Static dielectric constant tensor:
#      x y z
#    x 4.289820 0.000000 0.000000 
#    y 0.000000 3.427040 0.000000 
#    z 0.000000 0.000000 3.702460 
# 
# 
# High freq. dielectric constant tensor:
#      x y z
#    x 1.793220 0.000000 0.000000 
#    y 0.000000 1.743840 0.000000 
#    z 0.000000 0.000000 1.788560 
# 
# From -- ./inp_files/5107.got.cif
#   From: 2010.03.12/outbox.cif.g09.slc.cpg/sg16_3_cif.got.tgz:5107.got - 2010.03.31 00:51:45.
