data_PCOD8155812
_publ_section_title
;
Structure prediction by ZEFSAII (Michael W. Deem and Ramdas Pophale) SiO2 
 PCOD8155812
Probable space group: P 21 21 2
;
_chemical_formula_sum "Si O2"
_cell_formula_units_Z 28
_cell_length_a 17.412991
_cell_length_b 11.231918
_cell_length_c 6.332301
_cell_angle_alpha 90.000000
_cell_angle_beta 90.000000
_cell_angle_gamma 90.000000
_cell_volume 1238.479580
_symmetry_space_group_name_H-M "P 21 21 2"
_symmetry_group_IT_number 18
_symmetry_cell_setting 'orthorhombic'
loop_
_space_group_symop_operation_xyz
x,y,z
-x,-y,z
1/2+x,1/2-y,-z
1/2-x,1/2+y,-z
loop_
_atom_site_type_symbol
_atom_site_label
_atom_site_fract_x
_atom_site_fract_y
_atom_site_fract_z
Si Si1 0.624784 0.254874 0.509987
Si Si2 0.000000 0.500000 0.140979
Si Si3 0.878311 0.398380 0.451183
Si Si4 0.615748 0.498885 0.309331
Si Si5 0.458424 0.325785 0.607959
Si Si6 0.778539 0.575980 0.225329
Si Si7 0.124389 0.436802 0.836390
Si Si8 0.000000 0.000000 0.034936
O O1 0.646443 0.391225 0.458191
O O2 0.535291 0.247670 0.573006
O O3 0.679504 0.197099 0.690908
O O4 0.636874 0.179418 0.300368
O O5 0.947614 0.423917 0.292362
O O6 0.947860 0.583187 0.991237
O O7 0.881281 0.254966 0.430683
O O8 0.802077 0.460100 0.363172
O O9 0.890400 0.445880 0.690617
O O10 0.550778 0.572491 0.433056
O O11 0.686919 0.583740 0.244826
O O12 0.571985 0.450569 0.101435
O O13 0.465251 0.389637 0.833636
O O14 0.799698 0.550413 0.981433
#
# Coordination Sequence:
#
# PCOD8155812 Si02
#       8
#     4   2   4   4   4   4   4   2
#     4  11  23  45  73  99 139 185 232 295 352 417
#     4  10  18  34  64 106 134 170 220 284 354 408
#     4  10  22  39  68 100 138 177 226 288 350 411
#     4  12  27  47  67 106 138 188 242 287 355 428
#     4  12  24  46  72 102 136 191 233 297 347 419
#     4  10  26  45  68 107 138 185 229 290 366 417
#     4  10  21  41  66 103 135 177 226 291 346 424
#     4  12  26  46  68 104 140 186 240 286 344 430
#
# _framework density 22.608367000000001
#
# number of rings (size 3 to 8) (size 9 to 14) (size 15 to 20)
#    0.000    1.143    2.857    3.857    6.000    4.571 
#    2.571    0.000    0.000    0.000    0.000    0.000 
#    0.000    0.000    0.000    0.000    0.000    0.000 
#
# Total GULP energy -346978.341700 kJ/mol
# GULP energy per Si atom -12392.083632 kJ/mol
# Density = 2.255691 g / cm^3
# Si number density = 22.608367 Si / 1000 Ang^3
#
#
#
# Elastic Constant Matrix: (Units=GPa)
#
#
# Indices 1 2 3 4 5 6 
#
# 1 100.8875 21.9397 38.4843 0.0000 0.0000 0.0000
# 2 21.9397 96.9857 36.5106 0.0000 0.0000 0.0000
# 3 38.4843 36.5106 132.8974 0.0000 0.0000 0.0000
# 4 0.0000 0.0000 0.0000 28.3807 0.0000 0.0000
# 5 0.0000 0.0000 0.0000 0.0000 -566.0260 0.0000
# 6 0.0000 0.0000 0.0000 0.0000 0.0000 31.6720
#
#
#
# Elastic Compliance Matrix: (Units=1/GPa)
#
#
# Indices 1 2 3 4 5 6 
#
# 1 0.011331 -0.001481 -0.002874 0.000000 0.000000 0.000000
# 2 -0.001481 0.011694 -0.002784 0.000000 0.000000 0.000000
# 3 -0.002874 -0.002784 0.009122 0.000000 0.000000 0.000000
# 4 0.000000 0.000000 0.000000 0.035235 0.000000 0.000000
# 5 0.000000 0.000000 0.000000 0.000000 -0.001767 0.000000
# 6 0.000000 0.000000 0.000000 0.000000 0.000000 0.031574
#
#
# Mechanical properties :
#
#
# Convention : Reuss Voigt Hill
#
# Bulk Modulus (GPa) = 55.96621 58.29333 57.12977
# Shear Modulus (GPa) = 42.58144 -85.60559 -21.51207
#
# Velocity S-wave (km/s) = 4.34457 -6.16009 -3.08800
# Velocity P-wave (km/s) = 7.06933 4.97551 3.55103
#
# Compressibility (1/GPa) = 0.01786792
#
# Stress axis : x y z
#
# Youngs Moduli (GPa) = 88.25731 85.51548 109.62917
#
# Poissons Ratio (x) = 0.12666 0.31509
# Poissons Ratio (y) = 0.13072 0.30517
# Poissons Ratio (z) = 0.25367 0.23805
#
# Static dielectric constant tensor:
#      x y z
#    x 3.929730 0.000000 0.000000 
#    y 0.000000 4.408760 0.000000 
#    z 0.000000 0.000000 4.280490 
# 
# 
# High freq. dielectric constant tensor:
#      x y z
#    x 1.882780 0.000000 0.000000 
#    y 0.000000 1.882390 0.000000 
#    z 0.000000 0.000000 1.900140 
# 
# From -- ./inp_files/1980.got.cif
#   From: 2010.03.12/outbox.cif.g09.slc.cpg/sg18_1_cif.got.tgz:1980.got - 2010.04.10 18:53:55.
