data_PCOD8155268
_publ_section_title
;
Structure prediction by ZEFSAII (Michael W. Deem and Ramdas Pophale) SiO2 
 PCOD8155268
Probable space group: P 2 2 2
;
_chemical_formula_sum "Si O2"
_cell_formula_units_Z 32
_cell_length_a 11.918168
_cell_length_b 15.252604
_cell_length_c 9.160242
_cell_angle_alpha 90.000000
_cell_angle_beta 90.000000
_cell_angle_gamma 90.000000
_cell_volume 1665.177159
_symmetry_space_group_name_H-M "P 2 2 2"
_symmetry_group_IT_number 16
_symmetry_cell_setting 'orthorhombic'
loop_
_space_group_symop_operation_xyz
x,y,z
-x,-y,z
x,-y,-z
-x,y,-z
loop_
_atom_site_type_symbol
_atom_site_label
_atom_site_fract_x
_atom_site_fract_y
_atom_site_fract_z
Si Si1 0.706991 0.658562 0.335140
Si Si2 0.220760 0.144098 0.334543
Si Si3 0.277324 0.655188 0.336535
Si Si4 0.128683 0.504770 0.673152
Si Si5 0.898759 0.801715 0.592702
Si Si6 0.534995 0.096231 0.665697
Si Si7 0.492304 0.723048 0.174773
Si Si8 0.022321 0.898563 0.842968
O O1 0.764538 0.752087 0.330125
O O2 0.672569 0.633542 0.502093
O O3 0.802071 0.591205 0.275913
O O4 0.594376 0.663603 0.237168
O O5 0.155193 0.124574 0.485737
O O6 0.332385 0.088878 0.330847
O O7 0.152152 0.115728 0.193224
O O8 0.204682 0.575675 0.269679
O O9 0.192728 0.735052 0.350845
O O10 0.377060 0.677573 0.224945
O O11 0.119894 0.500000 0.500000
O O12 0.000000 0.500000 0.736898
O O13 0.000000 0.754825 0.500000
O O14 0.940965 0.851104 0.732773
O O15 0.500000 0.115973 0.500000
O O16 0.492636 0.176431 0.766224
O O17 0.500000 0.000000 0.723032
O O18 0.500000 0.725168 0.000000
O O19 0.000000 0.000000 0.842134
O O20 0.000000 0.856375 0.000000
#
# Coordination Sequence:
#
# PCOD8155268 Si02
#       8
#     4   4   4   4   4   4   4   4
#     4   9  19  38  60  83 119 146 187 244 296 348
#     4   9  19  35  56  80 110 148 179 230 288 339
#     4  10  20  35  61  89 113 149 190 242 295 346
#     4   9  19  32  61  95 117 141 187 249 304 348
#     4   9  19  32  56  82 110 144 184 227 288 350
#     4  10  21  38  62  89 115 144 190 247 300 343
#     4  11  23  39  58  82 117 162 202 232 284 348
#     4  10  22  36  50  74 108 148 190 229 275 334
#
# _framework density 19.217174
#
# number of rings (size 3 to 8) (size 9 to 14) (size 15 to 20)
#    0.000    2.375    0.000    2.625    7.000    8.000 
#    0.000    5.625    0.000    0.750    0.000    0.000 
#    0.000    0.000    0.000    0.000    0.000    0.000 
#
# Total GULP energy -396586.042408 kJ/mol
# GULP energy per Si atom -12393.313825 kJ/mol
# Density = 1.917344 g / cm^3
# Si number density = 19.217174 Si / 1000 Ang^3
#
#
#
# Elastic Constant Matrix: (Units=GPa)
#
#
# Indices 1 2 3 4 5 6 
#
# 1 170.9966 65.4456 72.1702 0.0000 0.0000 0.0000
# 2 65.4456 85.2832 43.1456 0.0000 0.0000 0.0000
# 3 72.1702 43.1456 122.9948 0.0000 0.0000 0.0000
# 4 0.0000 0.0000 0.0000 22.8086 0.0000 0.0000
# 5 0.0000 0.0000 0.0000 0.0000 40.8620 0.0000
# 6 0.0000 0.0000 0.0000 0.0000 0.0000 44.2233
#
#
#
# Elastic Compliance Matrix: (Units=1/GPa)
#
#
# Indices 1 2 3 4 5 6 
#
# 1 0.009461 -0.005412 -0.003653 0.000000 0.000000 0.000000
# 2 -0.005412 0.017352 -0.002911 0.000000 0.000000 0.000000
# 3 -0.003653 -0.002911 0.011295 0.000000 0.000000 0.000000
# 4 0.000000 0.000000 0.000000 0.043843 0.000000 0.000000
# 5 0.000000 0.000000 0.000000 0.000000 0.024473 0.000000
# 6 0.000000 0.000000 0.000000 0.000000 0.000000 0.022613
#
#
# Mechanical properties :
#
#
# Convention : Reuss Voigt Hill
#
# Bulk Modulus (GPa) = 70.64494 82.31081 76.47787
# Shear Modulus (GPa) = 31.70420 34.81300 33.25860
#
# Velocity S-wave (km/s) = 4.06616 4.26086 4.16465
# Velocity P-wave (km/s) = 7.67372 8.19338 7.93780
#
# Compressibility (1/GPa) = 0.01415530
#
# Stress axis : x y z
#
# Youngs Moduli (GPa) = 105.69287 57.63086 88.53412
#
# Poissons Ratio (x) = 0.31193 0.32342
# Poissons Ratio (y) = 0.57206 0.25772
# Poissons Ratio (z) = 0.38610 0.16776
#
# Static dielectric constant tensor:
#      x y z
#    x 3.831800 0.000000 0.000000 
#    y 0.000000 3.455800 0.000000 
#    z 0.000000 0.000000 3.593900 
# 
# 
# High freq. dielectric constant tensor:
#      x y z
#    x 1.765550 0.000000 0.000000 
#    y 0.000000 1.742790 0.000000 
#    z 0.000000 0.000000 1.719900 
# 
# From -- ./inp_files/4868.got.cif
#   From: 2010.03.12/outbox.cif.g09.slc.cpg/sg16_3_cif.got.tgz:4868.got - 2010.03.31 00:51:45.
