data_PCOD8155932
_publ_section_title
;
Structure prediction by ZEFSAII (Michael W. Deem and Ramdas Pophale) SiO2 
 PCOD8155932
Probable space group: P 21 21 2
;
_chemical_formula_sum "Si O2"
_cell_formula_units_Z 18
_cell_length_a 5.683402
_cell_length_b 16.272070
_cell_length_c 10.010284
_cell_angle_alpha 90.000000
_cell_angle_beta 90.000000
_cell_angle_gamma 90.000000
_cell_volume 925.758223
_symmetry_space_group_name_H-M "P 21 21 2"
_symmetry_group_IT_number 18
_symmetry_cell_setting 'orthorhombic'
loop_
_space_group_symop_operation_xyz
x,y,z
-x,-y,z
1/2+x,1/2-y,-z
1/2-x,1/2+y,-z
loop_
_atom_site_type_symbol
_atom_site_label
_atom_site_fract_x
_atom_site_fract_y
_atom_site_fract_z
Si Si1 0.733339 0.145707 0.442866
Si Si2 0.557847 0.796251 0.978519
Si Si3 0.342721 0.120538 0.233816
Si Si4 0.468394 0.776125 0.690456
Si Si5 0.500000 0.500000 0.657542
O O1 0.540148 0.110100 0.344282
O O2 0.650136 0.156366 0.594946
O O3 0.816230 0.234841 0.390098
O O4 0.930028 0.074795 0.440826
O O5 0.555571 0.824097 0.823034
O O6 0.809054 0.749604 0.993893
O O7 0.557807 0.872382 0.082455
O O8 0.204329 0.203817 0.265799
O O9 0.193336 0.036941 0.241388
#
# Coordination Sequence:
#
# PCOD8155932 Si02
#       5
#     4   4   4   4   2
#     4  11  19  37  58  92 122 159 209 260 313 379
#     4  10  20  36  61  96 122 151 201 265 315 362
#     4  10  20  37  59  88 123 159 208 255 315 376
#     4  10  20  33  62  96 117 153 209 265 312 359
#     4  10  24  36  60  88 122 174 206 252 320 386
#
# _framework density 19.443521
#
# number of rings (size 3 to 8) (size 9 to 14) (size 15 to 20)
#    0.000    1.778    4.444    0.667    0.000    0.000 
#    0.000    0.000    0.000    8.000    0.000    0.000 
#    0.000    0.000    0.000    0.000    0.000    0.000 
#
# Total GULP energy -222995.330413 kJ/mol
# GULP energy per Si atom -12388.629467 kJ/mol
# Density = 1.939927 g / cm^3
# Si number density = 19.443521 Si / 1000 Ang^3
#
#
#
# Elastic Constant Matrix: (Units=GPa)
#
#
# Indices 1 2 3 4 5 6 
#
# 1 68.2830 -7.2153 32.7907 0.0000 0.0000 0.0000
# 2 -7.2153 43.9153 46.9418 0.0000 0.0000 0.0000
# 3 32.7907 46.9418 184.6655 0.0000 0.0000 0.0000
# 4 0.0000 0.0000 0.0000 18.7441 0.0000 0.0000
# 5 0.0000 0.0000 0.0000 0.0000 29.1430 0.0000
# 6 0.0000 0.0000 0.0000 0.0000 0.0000 15.6855
#
#
#
# Elastic Compliance Matrix: (Units=1/GPa)
#
#
# Indices 1 2 3 4 5 6 
#
# 1 0.018215 0.008857 -0.005486 0.000000 0.000000 0.000000
# 2 0.008857 0.035573 -0.010615 0.000000 0.000000 0.000000
# 3 -0.005486 -0.010615 0.009088 0.000000 0.000000 0.000000
# 4 0.000000 0.000000 0.000000 0.053350 0.000000 0.000000
# 5 0.000000 0.000000 0.000000 0.000000 0.034314 0.000000
# 6 0.000000 0.000000 0.000000 0.000000 0.000000 0.063753
#
#
# Mechanical properties :
#
#
# Convention : Reuss Voigt Hill
#
# Bulk Modulus (GPa) = 20.66672 49.09982 34.88327
# Shear Modulus (GPa) = 20.41560 27.67096 24.04328
#
# Velocity S-wave (km/s) = 3.24388 3.77655 3.52030
# Velocity P-wave (km/s) = 4.96815 6.65761 5.87394
#
# Compressibility (1/GPa) = 0.04838698
#
# Stress axis : x y z
#
# Youngs Moduli (GPa) = 54.89938 28.11110 110.03889
#
# Poissons Ratio (x) = -0.24897 0.60365
# Poissons Ratio (y) = -0.48622 1.16810
# Poissons Ratio (z) = 0.30117 0.29841
#
# Static dielectric constant tensor:
#      x y z
#    x 3.875620 0.000000 0.000000 
#    y 0.000000 3.380100 0.000000 
#    z 0.000000 0.000000 3.877300 
# 
# 
# High freq. dielectric constant tensor:
#      x y z
#    x 1.773800 0.000000 0.000000 
#    y 0.000000 1.716610 0.000000 
#    z 0.000000 0.000000 1.761440 
# 
# From -- ./inp_files/2438.got.cif
#   From: 2010.03.12/outbox.cif.g09.slc.cpg/sg18_2_cif.got.tgz:2438.got - 2010.04.10 18:53:55.
