data_PCOD8155857
_publ_section_title
;
Structure prediction by ZEFSAII (Michael W. Deem and Ramdas Pophale) SiO2 
 PCOD8155857
Probable space group: P 21 21 2
;
_chemical_formula_sum "Si O2"
_cell_formula_units_Z 26
_cell_length_a 5.163181
_cell_length_b 24.896321
_cell_length_c 9.292387
_cell_angle_alpha 90.000000
_cell_angle_beta 90.000000
_cell_angle_gamma 90.000000
_cell_volume 1194.482560
_symmetry_space_group_name_H-M "P 21 21 2"
_symmetry_group_IT_number 18
_symmetry_cell_setting 'orthorhombic'
loop_
_space_group_symop_operation_xyz
x,y,z
-x,-y,z
1/2+x,1/2-y,-z
1/2-x,1/2+y,-z
loop_
_atom_site_type_symbol
_atom_site_label
_atom_site_fract_x
_atom_site_fract_y
_atom_site_fract_z
Si Si1 0.735963 0.196772 0.373751
Si Si2 0.500000 0.500000 0.358670
Si Si3 0.000000 0.500000 0.692202
Si Si4 0.150566 0.075058 0.873709
Si Si5 0.370178 0.865504 0.791475
Si Si6 0.730272 0.246934 0.689108
Si Si7 0.500000 0.500000 0.876473
Si Si8 0.853421 0.586497 0.504576
O O1 0.739130 0.223082 0.530122
O O2 0.493610 0.219941 0.281986
O O3 0.743262 0.132376 0.385463
O O4 0.994872 0.212114 0.288624
O O5 0.704712 0.470676 0.248752
O O6 0.629176 0.544683 0.459613
O O7 0.931644 0.448816 0.589296
O O8 0.252124 0.483413 0.782505
O O9 0.398459 0.114274 0.894965
O O10 0.900002 0.107418 0.825338
O O11 0.093463 0.049912 0.028333
O O12 0.318990 0.801806 0.801023
O O13 0.472611 0.883134 0.632954
#
# Coordination Sequence:
#
# PCOD8155857 Si02
#       8
#     4   2   2   4   4   4   2   4
#     4   9  18  30  47  73 114 145 167 204 259 333
#     4   9  19  34  54  82 113 139 180 230 274 327
#     4  12  24  38  54  76 110 150 182 214 250 326
#     4  10  20  36  56  79 106 139 178 233 277 310
#     4  10  19  33  59  86 109 135 174 227 283 325
#     4   9  17  30  48  78 109 138 169 209 267 329
#     4  11  25  40  54  76 107 145 190 220 260 315
#     4  10  21  34  54  83 114 147 178 214 272 327
#
# _framework density 21.766746000000001
#
# number of rings (size 3 to 8) (size 9 to 14) (size 15 to 20)
#    0.000    2.154    0.000    3.231    0.000   15.385 
#    0.000    0.000    0.000    0.000    0.000   21.538 
#    0.000    0.000    0.000    0.000    0.000    0.000 
#
# Total GULP energy -322263.933585 kJ/mol
# GULP energy per Si atom -12394.766676 kJ/mol
# Density = 2.171720 g / cm^3
# Si number density = 21.766746 Si / 1000 Ang^3
#
#
#
# Elastic Constant Matrix: (Units=GPa)
#
#
# Indices 1 2 3 4 5 6 
#
# 1 116.4891 32.2491 8.4025 0.0000 0.0000 0.0000
# 2 32.2491 93.7094 22.4937 0.0000 0.0000 0.0000
# 3 8.4025 22.4937 41.6920 0.0000 0.0000 0.0000
# 4 0.0000 0.0000 0.0000 10.2707 0.0000 0.0000
# 5 0.0000 0.0000 0.0000 0.0000 15.5767 0.0000
# 6 0.0000 0.0000 0.0000 0.0000 0.0000 36.0413
#
#
#
# Elastic Compliance Matrix: (Units=1/GPa)
#
#
# Indices 1 2 3 4 5 6 
#
# 1 0.009490 -0.003224 -0.000173 0.000000 0.000000 0.000000
# 2 -0.003224 0.013354 -0.006555 0.000000 0.000000 0.000000
# 3 -0.000173 -0.006555 0.027557 0.000000 0.000000 0.000000
# 4 0.000000 0.000000 0.000000 0.097365 0.000000 0.000000
# 5 0.000000 0.000000 0.000000 0.000000 0.064198 0.000000
# 6 0.000000 0.000000 0.000000 0.000000 0.000000 0.027746
#
#
# Mechanical properties :
#
#
# Convention : Reuss Voigt Hill
#
# Bulk Modulus (GPa) = 32.79099 42.02011 37.40555
# Shear Modulus (GPa) = 18.53362 24.96074 21.74718
#
# Velocity S-wave (km/s) = 2.92115 3.39003 3.16429
# Velocity P-wave (km/s) = 5.14538 5.88809 5.52922
#
# Compressibility (1/GPa) = 0.03049619
#
# Stress axis : x y z
#
# Youngs Moduli (GPa) = 105.37890 74.88200 36.28849
#
# Poissons Ratio (x) = 0.24144 0.00628
# Poissons Ratio (y) = 0.33976 0.23788
# Poissons Ratio (z) = 0.01823 0.49086
#
# Static dielectric constant tensor:
#      x y z
#    x 3.827320 0.000000 0.000000 
#    y 0.000000 4.204360 0.000000 
#    z 0.000000 0.000000 3.702080 
# 
# 
# High freq. dielectric constant tensor:
#      x y z
#    x 1.852150 0.000000 0.000000 
#    y 0.000000 1.862660 0.000000 
#    z 0.000000 0.000000 1.811650 
# 
# From -- ./inp_files/2583.got.cif
#   From: 2010.03.12/outbox.cif.g09.slc.cpg/sg18_2_cif.got.tgz:2583.got - 2010.04.10 18:53:55.
