data_PCOD8155088
_publ_section_title
;
Structure prediction by ZEFSAII (Michael W. Deem and Ramdas Pophale) SiO2 
 PCOD8155088
Probable space group: C 2/C
;
_chemical_formula_sum "Si O2"
_cell_formula_units_Z 36
_cell_length_a 21.218190
_cell_length_b 6.435457
_cell_length_c 20.605219
_cell_angle_alpha 90.000000
_cell_angle_beta 147.734471
_cell_angle_gamma 90.000000
_cell_volume 1502.031693
_symmetry_space_group_name_H-M "C 2/C"
_symmetry_group_IT_number 15
_symmetry_cell_setting 'monoclinic'
loop_
_space_group_symop_operation_xyz
x,y,z
-x,y,1/2-z
-x,-y,-z
x,-y,1/2+z
1/2+x,1/2+y,z
1/2-x,1/2+y,1/2-z
1/2-x,1/2-y,-z
1/2+x,1/2-y,1/2+z
loop_
_atom_site_type_symbol
_atom_site_label
_atom_site_fract_x
_atom_site_fract_y
_atom_site_fract_z
Si Si1 0.555230 0.616224 0.707825
Si Si2 0.000000 0.552804 0.250000
Si Si3 0.729199 0.719762 0.313998
Si Si4 0.906972 0.577774 0.366881
Si Si5 0.135393 0.219639 0.443791
O O1 0.590420 0.793183 0.791037
O O2 0.665892 0.466067 0.796974
O O3 0.533283 0.730964 0.619642
O O4 0.560871 0.491716 0.867683
O O5 0.057165 0.418008 0.356865
O O6 0.786389 0.652053 0.296129
O O7 0.833270 0.789979 0.452905
O O8 0.630534 0.894362 0.215001
O O9 0.000000 0.500000 0.500000
O O10 0.250000 0.250000 0.500000
#
# Coordination Sequence:
#
# PCOD8155088 Si02
#       5
#     8   4   8   8   8
#     4  12  26  47  75 105 154 194 247 320 376 452
#     4  12  26  48  72 108 142 196 254 312 386 450
#     4  12  26  47  73 110 152 199 251 310 381 450
#     4  12  27  45  74 111 151 202 254 306 379 456
#     4  12  27  47  75 109 148 197 258 315 381 452
#
# _framework density 23.967538999999999
#
# number of rings (size 3 to 8) (size 9 to 14) (size 15 to 20)
#    0.000    0.000    2.222    8.667    3.111    8.889 
#    0.000    0.000    0.000    0.000    0.000    0.000 
#    0.000    0.000    0.000    0.000    0.000    0.000 
#
# Total GULP energy -223177.137986 kJ/mol
# GULP energy per Si atom -12398.729888 kJ/mol
# Density = 2.391299 g / cm^3
# Si number density = 23.967539 Si / 1000 Ang^3
#
#
#
# Elastic Constant Matrix: (Units=GPa)
#
#
# Indices 1 2 3 4 5 6 
#
# 1 119.8873 54.9050 4.4863 0.0000 10.4245 0.0000
# 2 54.9050 146.9780 64.2413 0.0003 1.8129 0.0002
# 3 4.4863 64.2413 134.3584 0.0000 -13.8894 0.0000
# 4 0.0000 0.0003 0.0000 26.6151 0.0000 -13.5443
# 5 10.4245 1.8129 -13.8894 0.0000 34.5123 0.0000
# 6 0.0000 0.0002 0.0000 -13.5443 0.0000 64.3858
#
#
#
# Elastic Compliance Matrix: (Units=1/GPa)
#
#
# Indices 1 2 3 4 5 6 
#
# 1 0.010609 -0.004647 0.001629 0.000000 -0.002305 0.000000
# 2 -0.004647 0.010799 -0.005136 0.000000 -0.001231 0.000000
# 3 0.001629 -0.005136 0.010247 0.000000 0.003902 0.000000
# 4 0.000000 0.000000 0.000000 0.042077 0.000000 0.008851
# 5 -0.002305 -0.001231 0.003902 0.000000 0.031306 0.000000
# 6 0.000000 0.000000 0.000000 0.008851 0.000000 0.017393
#
#
# Mechanical properties :
#
#
# Convention : Reuss Voigt Hill
#
# Bulk Modulus (GPa) = 65.14982 72.05429 68.60206
# Shear Modulus (GPa) = 34.75738 43.60871 39.18305
#
# Velocity S-wave (km/s) = 3.81226 4.27018 4.04770
# Velocity P-wave (km/s) = 6.82783 7.37842 7.10846
#
# Compressibility (1/GPa) = 0.01534924
#
# Stress axis : x y z
#
# Youngs Moduli (GPa) = 94.26304 92.59783 97.58738
#
# Poissons Ratio (x) = 0.43027 -0.15899
# Poissons Ratio (y) = 0.43801 0.50117
# Poissons Ratio (z) = -0.15358 0.47555
#
# Static dielectric constant tensor:
#      x y z
#    x 4.702870 0.000000 -0.264490 
#    y 0.000000 4.664530 0.000000 
#    z -0.264490 0.000000 4.350370 
# 
# 
# High freq. dielectric constant tensor:
#      x y z
#    x 1.975210 0.000000 -0.016550 
#    y 0.000000 1.965750 0.000000 
#    z -0.016550 0.000000 1.935330 
# 
# From -- ./inp_files/175582.got.cif
#   From: 2010.06.25/outbox.cif.g09.slc.cpg/sg15_88_cif.got.tgz:175582.got - 2010.06.28 07:06:18.
