data_PCOD8155717
_publ_section_title
;
Structure prediction by ZEFSAII (Michael W. Deem and Ramdas Pophale) SiO2 
 PCOD8155717
Probable space group: P 2 2 21
;
_chemical_formula_sum "Si O2"
_cell_formula_units_Z 16
_cell_length_a 7.236461
_cell_length_b 9.148120
_cell_length_c 11.443513
_cell_angle_alpha 90.000000
_cell_angle_beta 90.000000
_cell_angle_gamma 90.000000
_cell_volume 757.560716
_symmetry_space_group_name_H-M "P 2 2 21"
_symmetry_group_IT_number 17
_symmetry_cell_setting 'orthorhombic'
loop_
_space_group_symop_operation_xyz
x,y,z
-x,-y,1/2+z
x,-y,-z
-x,y,1/2-z
loop_
_atom_site_type_symbol
_atom_site_label
_atom_site_fract_x
_atom_site_fract_y
_atom_site_fract_z
Si Si1 0.574904 0.851501 0.374301
Si Si2 0.787083 0.846236 0.969068
Si Si3 0.310113 0.167861 0.209828
Si Si4 0.130815 0.671884 0.995962
O O1 0.500000 0.796455 0.250000
O O2 0.417202 0.834534 0.474166
O O3 0.744411 0.746494 0.405017
O O4 0.643537 0.019075 0.362449
O O5 0.796978 0.858552 0.829370
O O6 0.916476 0.715540 0.015971
O O7 0.881882 0.000000 0.000000
O O8 0.500000 0.245857 0.250000
O O9 0.192303 0.276061 0.131608
O O10 0.152252 0.500000 0.000000
#
# Coordination Sequence:
#
# PCOD8155717 Si02
#       4
#     4   4   4   4
#     4  11  23  45  74 100 128 177 236 292 341 398
#     4  12  22  44  74 100 133 172 234 293 347 395
#     4  11  21  45  76  99 127 177 235 296 343 390
#     4  12  28  44  62 101 146 185 224 273 348 426
#
# _framework density 21.120419999999999
#
# number of rings (size 3 to 8) (size 9 to 14) (size 15 to 20)
#    0.000    0.500    7.500    3.000    0.000    3.000 
#    9.000    0.000    0.000    0.000    0.000    0.000 
#    0.000    0.000    0.000    0.000    0.000    0.000 
#
# Total GULP energy -198348.756375 kJ/mol
# GULP energy per Si atom -12396.797273 kJ/mol
# Density = 2.107235 g / cm^3
# Si number density = 21.120420 Si / 1000 Ang^3
#
#
#
# Elastic Constant Matrix: (Units=GPa)
#
#
# Indices 1 2 3 4 5 6 
#
# 1 115.9042 70.8171 39.1200 0.0000 0.0000 0.0000
# 2 70.8171 130.5125 59.8392 0.0000 0.0000 0.0000
# 3 39.1200 59.8392 137.8790 0.0000 0.0000 0.0000
# 4 0.0000 0.0000 0.0000 18.4722 0.0000 0.0000
# 5 0.0000 0.0000 0.0000 0.0000 27.4958 0.0000
# 6 0.0000 0.0000 0.0000 0.0000 0.0000 18.3099
#
#
#
# Elastic Compliance Matrix: (Units=1/GPa)
#
#
# Indices 1 2 3 4 5 6 
#
# 1 0.012974 -0.006682 -0.000781 0.000000 0.000000 0.000000
# 2 -0.006682 0.013006 -0.003749 0.000000 0.000000 0.000000
# 3 -0.000781 -0.003749 0.009101 0.000000 0.000000 0.000000
# 4 0.000000 0.000000 0.000000 0.054135 0.000000 0.000000
# 5 0.000000 0.000000 0.000000 0.000000 0.036369 0.000000
# 6 0.000000 0.000000 0.000000 0.000000 0.000000 0.054615
#
#
# Mechanical properties :
#
#
# Convention : Reuss Voigt Hill
#
# Bulk Modulus (GPa) = 79.00052 80.42759 79.71405
# Shear Modulus (GPa) = 24.17273 27.15689 25.66481
#
# Velocity S-wave (km/s) = 3.38674 3.58971 3.48970
# Velocity P-wave (km/s) = 7.26494 7.43939 7.35268
#
# Compressibility (1/GPa) = 0.01265814
#
# Stress axis : x y z
#
# Youngs Moduli (GPa) = 77.07785 76.88487 109.87222
#
# Poissons Ratio (x) = 0.51371 0.08584
# Poissons Ratio (y) = 0.51500 0.41192
# Poissons Ratio (z) = 0.06022 0.28824
#
# Static dielectric constant tensor:
#      x y z
#    x 3.947740 0.000000 0.000000 
#    y 0.000000 3.499550 0.000000 
#    z 0.000000 0.000000 4.221460 
# 
# 
# High freq. dielectric constant tensor:
#      x y z
#    x 1.838080 0.000000 0.000000 
#    y 0.000000 1.791540 0.000000 
#    z 0.000000 0.000000 1.851440 
# 
# From -- ./inp_files/6208.got.cif
#   From: 2010.03.12/outbox.cif.g09.slc.cpg/sg17_4_cif.got.tgz:6208.got - 2010.04.10 18:46:23.
