data_PCOD8155702
_publ_section_title
;
Structure prediction by ZEFSAII (Michael W. Deem and Ramdas Pophale) SiO2 
 PCOD8155702
Probable space group: P 2 2 21
;
_chemical_formula_sum "Si O2"
_cell_formula_units_Z 24
_cell_length_a 9.352978
_cell_length_b 10.742742
_cell_length_c 11.422749
_cell_angle_alpha 90.000000
_cell_angle_beta 90.000000
_cell_angle_gamma 90.000000
_cell_volume 1147.719320
_symmetry_space_group_name_H-M "P 2 2 21"
_symmetry_group_IT_number 17
_symmetry_cell_setting 'orthorhombic'
loop_
_space_group_symop_operation_xyz
x,y,z
-x,-y,1/2+z
x,-y,-z
-x,y,1/2-z
loop_
_atom_site_type_symbol
_atom_site_label
_atom_site_fract_x
_atom_site_fract_y
_atom_site_fract_z
Si Si1 0.837204 0.271008 0.747721
Si Si2 0.982227 0.237281 0.371586
Si Si3 0.258960 0.140521 0.976994
Si Si4 0.761780 0.644449 0.001347
Si Si5 0.798042 0.470938 0.369228
Si Si6 0.464746 0.683337 0.877897
O O1 0.746397 0.181170 0.660244
O O2 0.763947 0.282532 0.874653
O O3 0.840771 0.411746 0.705218
O O4 0.000000 0.220898 0.750000
O O5 0.899427 0.159024 0.469799
O O6 0.887770 0.353437 0.326839
O O7 0.000000 0.158495 0.250000
O O8 0.134956 0.277110 0.419069
O O9 0.374217 0.222219 0.044379
O O10 0.307243 0.000000 0.000000
O O11 0.812528 0.500000 0.000000
O O12 0.604646 0.647973 0.948795
O O13 0.844806 0.500000 0.500000
O O14 0.628433 0.442272 0.358283
O O15 0.500000 0.741027 0.750000
#
# Coordination Sequence:
#
# PCOD8155702 Si02
#       6
#     4   4   4   4   4   4
#     4  12  22  41  70 102 138 171 231 289 345 413
#     4  11  21  39  66  96 130 172 222 275 346 410
#     4  11  26  48  67  89 134 188 237 290 336 385
#     4  12  23  37  67 110 139 167 212 279 359 433
#     4  11  19  37  64  94 137 174 203 266 352 423
#     4  11  24  44  64  96 138 177 225 270 348 429
#
# _framework density 20.911037
#
# number of rings (size 3 to 8) (size 9 to 14) (size 15 to 20)
#    0.000    0.667    5.000    6.500    0.000    1.333 
#    3.000    0.833    0.000    0.000    0.000    0.000 
#    0.000    0.000    0.000    0.000    0.000    0.000 
#
# Total GULP energy -297543.805552 kJ/mol
# GULP energy per Si atom -12397.658565 kJ/mol
# Density = 2.086344 g / cm^3
# Si number density = 20.911037 Si / 1000 Ang^3
#
#
#
# Elastic Constant Matrix: (Units=GPa)
#
#
# Indices 1 2 3 4 5 6 
#
# 1 85.1242 -4.6319 29.2058 0.0000 0.0000 0.0000
# 2 -4.6319 50.0711 18.3263 0.0000 0.0000 0.0000
# 3 29.2058 18.3263 163.4078 0.0000 0.0000 0.0000
# 4 0.0000 0.0000 0.0000 17.0135 0.0000 0.0000
# 5 0.0000 0.0000 0.0000 0.0000 39.5236 0.0000
# 6 0.0000 0.0000 0.0000 0.0000 0.0000 -32.5805
#
#
#
# Elastic Compliance Matrix: (Units=1/GPa)
#
#
# Indices 1 2 3 4 5 6 
#
# 1 0.012722 0.002095 -0.002509 0.000000 0.000000 0.000000
# 2 0.002095 0.021172 -0.002749 0.000000 0.000000 0.000000
# 3 -0.002509 -0.002749 0.006876 0.000000 0.000000 0.000000
# 4 0.000000 0.000000 0.000000 0.058777 0.000000 0.000000
# 5 0.000000 0.000000 0.000000 0.000000 0.025301 0.000000
# 6 0.000000 0.000000 0.000000 0.000000 0.000000 -0.030693
#
#
# Mechanical properties :
#
#
# Convention : Reuss Voigt Hill
#
# Bulk Modulus (GPa) = 29.03169 42.71149 35.87159
# Shear Modulus (GPa) = 44.65801 21.83818 33.24809
#
# Velocity S-wave (km/s) = 4.62629 3.23513 3.99178
# Velocity P-wave (km/s) = 6.51539 5.86723 6.19979
#
# Compressibility (1/GPa) = 0.03444512
#
# Stress axis : x y z
#
# Youngs Moduli (GPa) = 78.60203 47.23322 145.42606
#
# Poissons Ratio (x) = -0.09896 0.36485
# Poissons Ratio (y) = -0.16468 0.39976
# Poissons Ratio (z) = 0.19720 0.12984
#
# Static dielectric constant tensor:
#      x y z
#    x 3.913640 0.000000 0.000000 
#    y 0.000000 3.510730 0.000000 
#    z 0.000000 0.000000 5.044800 
# 
# 
# High freq. dielectric constant tensor:
#      x y z
#    x 1.825080 0.000000 0.000000 
#    y 0.000000 1.774530 0.000000 
#    z 0.000000 0.000000 1.845320 
# 
# From -- ./inp_files/6535.got.cif
#   From: 2010.03.12/outbox.cif.g09.slc.cpg/sg17_4_cif.got.tgz:6535.got - 2010.04.10 18:46:23.
