data_PCOD8155581
_publ_section_title
;
Structure prediction by ZEFSAII (Michael W. Deem and Ramdas Pophale) SiO2 
 PCOD8155581
Probable space group: P 2 2 21
;
_chemical_formula_sum "Si O2"
_cell_formula_units_Z 22
_cell_length_a 11.377099
_cell_length_b 18.336038
_cell_length_c 5.218232
_cell_angle_alpha 90.000000
_cell_angle_beta 90.000000
_cell_angle_gamma 90.000000
_cell_volume 1088.580176
_symmetry_space_group_name_H-M "P 2 2 21"
_symmetry_group_IT_number 17
_symmetry_cell_setting 'orthorhombic'
loop_
_space_group_symop_operation_xyz
x,y,z
-x,-y,1/2+z
x,-y,-z
-x,y,1/2-z
loop_
_atom_site_type_symbol
_atom_site_label
_atom_site_fract_x
_atom_site_fract_y
_atom_site_fract_z
Si Si1 0.500000 0.708046 0.250000
Si Si2 0.000000 0.315149 0.250000
Si Si3 0.000000 0.589500 0.250000
Si Si4 0.762509 0.238338 0.295464
Si Si5 0.500000 0.047352 0.750000
Si Si6 0.197891 0.500000 0.000000
Si Si7 0.372869 0.623173 0.857456
Si Si8 0.332984 0.176365 0.670845
O O1 0.600144 0.655341 0.362418
O O2 0.567198 0.766346 0.067130
O O3 0.030237 0.364325 0.496928
O O4 0.895039 0.263363 0.336865
O O5 0.115445 0.539999 0.206637
O O6 0.687269 0.309842 0.208643
O O7 0.718511 0.201074 0.556223
O O8 0.760997 0.179779 0.061413
O O9 0.384701 0.095616 0.694091
O O10 0.527294 0.000000 0.500000
O O11 0.282850 0.443547 0.144331
O O12 0.500000 0.598998 0.750000
#
# Coordination Sequence:
#
# PCOD8155581 Si02
#       8
#     2   2   2   4   2   2   4   4
#     4   9  20  36  56  84 119 156 202 256 323 380
#     4  12  25  46  70  88 122 161 238 290 336 399
#     4  12  27  50  60  86 120 173 226 294 354 409
#     4  11  22  41  64  93 119 173 214 280 332 372
#     4  11  22  38  66 108 149 186 206 234 303 400
#     4  12  28  44  62  88 122 178 224 292 354 434
#     4  11  23  41  59  88 120 165 217 274 351 427
#     4  10  21  38  65  93 136 165 207 255 315 371
#
# _framework density 20.209811999999999
#
# number of rings (size 3 to 8) (size 9 to 14) (size 15 to 20)
#    0.000    1.091    3.636    2.727    3.818    0.000 
#    3.273    0.000    0.000    0.000    0.000   12.727 
#    0.000    0.000    0.000    0.000    0.000    0.000 
#
# Total GULP energy -272559.154232 kJ/mol
# GULP energy per Si atom -12389.052465 kJ/mol
# Density = 2.016381 g / cm^3
# Si number density = 20.209812 Si / 1000 Ang^3
#
#
#
# Elastic Constant Matrix: (Units=GPa)
#
#
# Indices 1 2 3 4 5 6 
#
# 1 125.8456 58.8588 34.0561 0.0000 0.0000 0.0000
# 2 58.8588 110.9558 55.3964 0.0000 0.0000 0.0000
# 3 34.0561 55.3964 122.8802 0.0000 0.0000 0.0000
# 4 0.0000 0.0000 0.0000 30.3404 0.0000 0.0000
# 5 0.0000 0.0000 0.0000 0.0000 30.9927 0.0000
# 6 0.0000 0.0000 0.0000 0.0000 0.0000 1.0971
#
#
#
# Elastic Compliance Matrix: (Units=1/GPa)
#
#
# Indices 1 2 3 4 5 6 
#
# 1 0.010594 -0.005360 -0.000520 0.000000 0.000000 0.000000
# 2 -0.005360 0.014343 -0.004980 0.000000 0.000000 0.000000
# 3 -0.000520 -0.004980 0.010527 0.000000 0.000000 0.000000
# 4 0.000000 0.000000 0.000000 0.032959 0.000000 0.000000
# 5 0.000000 0.000000 0.000000 0.000000 0.032266 0.000000
# 6 0.000000 0.000000 0.000000 0.000000 0.000000 0.911454
#
#
# Mechanical properties :
#
#
# Convention : Reuss Voigt Hill
#
# Bulk Modulus (GPa) = 72.76248 72.92267 72.84257
# Shear Modulus (GPa) = 4.81489 26.57741 15.69615
#
# Velocity S-wave (km/s) = 1.54519 3.63033 2.78989
# Velocity P-wave (km/s) = 6.26620 7.33032 6.81904
#
# Compressibility (1/GPa) = 0.01374335
#
# Stress axis : x y z
#
# Youngs Moduli (GPa) = 94.39373 69.72244 94.99223
#
# Poissons Ratio (x) = 0.37374 0.04935
# Poissons Ratio (y) = 0.50599 0.47308
# Poissons Ratio (z) = 0.04904 0.34724
#
# Static dielectric constant tensor:
#      x y z
#    x 3.380640 0.000000 0.000000 
#    y 0.000000 3.555360 0.000000 
#    z 0.000000 0.000000 3.603240 
# 
# 
# High freq. dielectric constant tensor:
#      x y z
#    x 1.787470 0.000000 0.000000 
#    y 0.000000 1.767650 0.000000 
#    z 0.000000 0.000000 1.795760 
# 
# From -- ./inp_files/1627.got.cif
#   From: 2010.03.12/outbox.cif.g09.slc.cpg/sg17_1_cif.got.tgz:1627.got - 2010.04.10 18:46:23.
