data_PCOD8155045
_publ_section_title
;
Structure prediction by ZEFSAII (Michael W. Deem and Ramdas Pophale) SiO2 
 PCOD8155045
Probable space group: C 2/C
;
_chemical_formula_sum "Si O2"
_cell_formula_units_Z 48
_cell_length_a 13.729017
_cell_length_b 11.259971
_cell_length_c 17.361303
_cell_angle_alpha 90.000000
_cell_angle_beta 129.240271
_cell_angle_gamma 90.000000
_cell_volume 2078.645799
_symmetry_space_group_name_H-M "C 2/C"
_symmetry_group_IT_number 15
_symmetry_cell_setting 'monoclinic'
loop_
_space_group_symop_operation_xyz
x,y,z
-x,y,1/2-z
-x,-y,-z
x,-y,1/2+z
1/2+x,1/2+y,z
1/2-x,1/2+y,1/2-z
1/2-x,1/2-y,-z
1/2+x,1/2-y,1/2+z
loop_
_atom_site_type_symbol
_atom_site_label
_atom_site_fract_x
_atom_site_fract_y
_atom_site_fract_z
Si Si1 0.288529 0.583377 0.323260
Si Si2 0.818045 0.677020 0.378352
Si Si3 0.641123 0.114385 0.837349
Si Si4 0.084873 0.750978 0.487365
Si Si5 0.011001 0.050539 0.846988
Si Si6 0.715382 0.990464 0.020441
O O1 0.216554 0.672719 0.229509
O O2 0.189203 0.486237 0.302704
O O3 0.339937 0.658295 0.420722
O O4 0.401254 0.519542 0.334652
O O5 0.732167 0.772569 0.379122
O O6 0.794378 0.545484 0.399552
O O7 0.964076 0.699536 0.471012
O O8 0.500000 0.157166 0.750000
O O9 0.631040 0.062581 0.918279
O O10 0.020674 0.814499 0.381623
O O11 0.178970 0.648266 0.505978
O O12 0.000000 0.050111 0.750000
O O13 0.142387 0.991654 0.937875
#
# Coordination Sequence:
#
# PCOD8155045 Si02
#       6
#     8   8   8   8   8   8
#     4  12  27  49  75 111 149 196 246 304 370 430
#     4  12  28  46  77 107 151 195 244 303 363 440
#     4  12  28  49  75 109 150 195 248 302 366 437
#     4  12  27  48  79 108 151 191 244 309 367 433
#     4  12  25  48  76 107 147 195 248 294 369 436
#     4  12  27  49  73 113 146 195 243 302 364 442
#
# _framework density 23.091958000000002
#
# number of rings (size 3 to 8) (size 9 to 14) (size 15 to 20)
#    0.000    0.000    5.000    4.000    9.333    0.667 
#    0.000    0.000    0.000    0.000    0.000    0.000 
#    0.000    0.000    0.000    0.000    0.000    0.000 
#
# Total GULP energy -297662.273995 kJ/mol
# GULP energy per Si atom -12402.594750 kJ/mol
# Density = 2.303940 g / cm^3
# Si number density = 23.091958 Si / 1000 Ang^3
#
#
#
# Elastic Constant Matrix: (Units=GPa)
#
#
# Indices 1 2 3 4 5 6 
#
# 1 74.9371 4.4245 22.5728 0.0000 3.2966 0.0000
# 2 4.4245 85.2346 19.0300 0.0000 -13.6817 0.0000
# 3 22.5728 19.0300 83.5977 0.0000 -6.7094 0.0000
# 4 0.0000 0.0000 0.0000 32.2761 0.0000 -0.3750
# 5 3.2966 -13.6817 -6.7094 0.0000 49.1593 0.0000
# 6 0.0000 0.0000 0.0000 -0.3750 0.0000 33.4907
#
#
#
# Elastic Compliance Matrix: (Units=1/GPa)
#
#
# Indices 1 2 3 4 5 6 
#
# 1 0.014641 -0.000106 -0.004055 0.000000 -0.001565 0.000000
# 2 -0.000106 0.012844 -0.002637 0.000000 0.003222 0.000000
# 3 -0.004055 -0.002637 0.013771 0.000000 0.001418 0.000000
# 4 0.000000 0.000000 0.000000 0.030987 0.000000 0.000347
# 5 -0.001565 0.003222 0.001418 0.000000 0.021537 0.000000
# 6 0.000000 0.000000 0.000000 0.000347 0.000000 0.029863
#
#
# Mechanical properties :
#
#
# Convention : Reuss Voigt Hill
#
# Bulk Modulus (GPa) = 36.15184 37.31376 36.73280
# Shear Modulus (GPa) = 34.13972 36.16804 35.15388
#
# Velocity S-wave (km/s) = 3.84920 3.96190 3.90595
# Velocity P-wave (km/s) = 5.95355 6.09284 6.02359
#
# Compressibility (1/GPa) = 0.02766111
#
# Stress axis : x y z
#
# Youngs Moduli (GPa) = 68.30131 77.85961 72.61709
#
# Poissons Ratio (x) = 0.00824 0.29445
# Poissons Ratio (y) = 0.00723 0.19146
# Poissons Ratio (z) = 0.27695 0.20528
#
# Static dielectric constant tensor:
#      x y z
#    x 4.295390 0.000000 0.097260 
#    y 0.000000 4.148190 0.000000 
#    z 0.097260 0.000000 4.255490 
# 
# 
# High freq. dielectric constant tensor:
#      x y z
#    x 1.926810 0.000000 0.005530 
#    y 0.000000 1.915860 0.000000 
#    z 0.005530 0.000000 1.923730 
# 
# From -- ./inp_files/243996.got.cif
#   From: 2010.06.25/outbox.cif.g09.slc.cpg/sg15_122_cif.got.tgz:243996.got - 2010.06.28 07:06:18.
