data_PCOD8155154
_publ_section_title
;
Structure prediction by ZEFSAII (Michael W. Deem and Ramdas Pophale) SiO2 
 PCOD8155154
Probable space group: C 2/C
;
_chemical_formula_sum "Si O2"
_cell_formula_units_Z 36
_cell_length_a 6.586922
_cell_length_b 22.090285
_cell_length_c 10.318512
_cell_angle_alpha 90.000000
_cell_angle_beta 87.297752
_cell_angle_gamma 90.000000
_cell_volume 1499.746028
_symmetry_space_group_name_H-M "C 2/C"
_symmetry_group_IT_number 15
_symmetry_cell_setting 'monoclinic'
loop_
_space_group_symop_operation_xyz
x,y,z
-x,y,1/2-z
-x,-y,-z
x,-y,1/2+z
1/2+x,1/2+y,z
1/2-x,1/2+y,1/2-z
1/2-x,1/2-y,-z
1/2+x,1/2-y,1/2+z
loop_
_atom_site_type_symbol
_atom_site_label
_atom_site_fract_x
_atom_site_fract_y
_atom_site_fract_z
Si Si1 0.000000 0.216382 0.250000
Si Si2 0.630249 0.000676 0.626307
Si Si3 0.741557 0.866370 0.614259
Si Si4 0.590344 0.198607 0.538411
Si Si5 0.085671 0.892563 0.389287
O O1 0.809853 0.169903 0.242671
O O2 0.051059 0.261805 0.364906
O O3 0.500000 0.028566 0.750000
O O4 0.685823 0.932668 0.664294
O O5 0.500000 0.000000 0.500000
O O6 0.839914 0.037794 0.598755
O O7 0.546051 0.830487 0.568763
O O8 0.920871 0.872170 0.501309
O O9 0.750000 0.250000 0.500000
O O10 0.707696 0.145042 0.605897
O O11 0.000000 0.880709 0.250000
#
# Coordination Sequence:
#
# PCOD8155154 Si02
#       5
#     4   8   8   8   8
#     4  12  28  44  78 108 152 194 254 310 380 456
#     4  12  28  50  80 112 156 201 261 323 389 458
#     4  12  28  50  76 113 152 201 257 315 388 459
#     4  12  27  48  73 109 153 198 252 312 378 461
#     4  12  27  49  79 109 153 205 253 317 390 459
#
# _framework density 24.004065000000001
#
# number of rings (size 3 to 8) (size 9 to 14) (size 15 to 20)
#    0.000    0.000    4.444    4.000   12.444    0.000 
#    0.000    0.000    0.000    0.000    0.000    0.000 
#    0.000    0.000    0.000    0.000    0.000    0.000 
#
# Total GULP energy -222998.048405 kJ/mol
# GULP energy per Si atom -12388.780467 kJ/mol
# Density = 2.394943 g / cm^3
# Si number density = 24.004065 Si / 1000 Ang^3
#
#
#
# Elastic Constant Matrix: (Units=GPa)
#
#
# Indices 1 2 3 4 5 6 
#
# 1 108.8196 42.7732 27.5965 0.0000 20.4651 0.0000
# 2 42.7732 144.6130 4.2599 0.0000 22.9126 0.0000
# 3 27.5965 4.2599 67.3279 0.0000 23.0601 0.0000
# 4 0.0000 0.0000 0.0000 35.7948 0.0000 7.2876
# 5 20.4651 22.9126 23.0601 0.0000 57.9165 0.0000
# 6 0.0000 0.0000 0.0000 7.2876 0.0000 54.2578
#
#
#
# Elastic Compliance Matrix: (Units=1/GPa)
#
#
# Indices 1 2 3 4 5 6 
#
# 1 0.011719 -0.003148 -0.004183 0.000000 -0.001230 0.000000
# 2 -0.003148 0.008245 0.001743 0.000000 -0.002843 0.000000
# 3 -0.004183 0.001743 0.018743 0.000000 -0.006674 0.000000
# 4 0.000000 0.000000 0.000000 0.028722 0.000000 -0.003858
# 5 -0.001230 -0.002843 -0.006674 0.000000 0.021483 0.000000
# 6 0.000000 0.000000 0.000000 -0.003858 0.000000 0.018949
#
#
# Mechanical properties :
#
#
# Convention : Reuss Voigt Hill
#
# Bulk Modulus (GPa) = 36.32382 52.22440 44.27411
# Shear Modulus (GPa) = 38.99692 46.00253 42.49973
#
# Velocity S-wave (km/s) = 4.03500 4.38247 4.21232
# Velocity P-wave (km/s) = 6.07236 6.88562 6.49174
#
# Compressibility (1/GPa) = 0.02753015
#
# Stress axis : x y z
#
# Youngs Moduli (GPa) = 85.33104 121.28084 53.35376
#
# Poissons Ratio (x) = 0.38181 0.22318
# Poissons Ratio (y) = 0.26863 -0.09297
# Poissons Ratio (z) = 0.35694 -0.21134
#
# Static dielectric constant tensor:
#      x y z
#    x 4.398270 0.000000 0.094570 
#    y 0.000000 4.819110 0.000000 
#    z 0.094570 0.000000 3.981400 
# 
# 
# High freq. dielectric constant tensor:
#      x y z
#    x 1.958020 0.000000 0.010140 
#    y 0.000000 1.982160 0.000000 
#    z 0.010140 0.000000 1.950860 
# 
# From -- ./inp_files/72428.got.cif
#   From: 2010.06.25/outbox.cif.g09.slc.cpg/sg15_37_cif.got.tgz:72428.got - 2010.06.28 07:06:18.
