data_PCOD8155807
_publ_section_title
;
Structure prediction by ZEFSAII (Michael W. Deem and Ramdas Pophale) SiO2 
 PCOD8155807
Probable space group: P 21 21 2
;
_chemical_formula_sum "Si O2"
_cell_formula_units_Z 30
_cell_length_a 18.729488
_cell_length_b 5.090581
_cell_length_c 15.740567
_cell_angle_alpha 90.000000
_cell_angle_beta 90.000000
_cell_angle_gamma 90.000000
_cell_volume 1500.768238
_symmetry_space_group_name_H-M "P 21 21 2"
_symmetry_group_IT_number 18
_symmetry_cell_setting 'orthorhombic'
loop_
_space_group_symop_operation_xyz
x,y,z
-x,-y,z
1/2+x,1/2-y,-z
1/2-x,1/2+y,-z
loop_
_atom_site_type_symbol
_atom_site_label
_atom_site_fract_x
_atom_site_fract_y
_atom_site_fract_z
Si Si1 0.500000 0.500000 0.649526
Si Si2 0.216448 0.994351 0.896698
Si Si3 0.576709 0.879020 0.544959
Si Si4 0.691114 0.505485 0.916776
Si Si5 0.920663 0.405126 0.653877
Si Si6 0.154585 0.095032 0.718216
Si Si7 0.875914 0.873598 0.243648
Si Si8 0.187599 0.604188 0.320604
O O1 0.562956 0.594620 0.586049
O O2 0.454592 0.678648 0.716129
O O3 0.280553 0.203563 0.896672
O O4 0.164102 0.051756 0.818377
O O5 0.246515 0.699780 0.891649
O O6 0.170635 0.025786 0.984066
O O7 0.593239 0.896607 0.446616
O O8 0.645663 0.992877 0.594149
O O9 0.500000 0.000000 0.570385
O O10 0.622159 0.452108 0.856539
O O11 0.869747 0.608707 0.700747
O O12 0.000000 0.500000 0.674231
O O13 0.904829 0.111635 0.686166
O O14 0.227938 0.068000 0.665069
O O15 0.833233 0.600432 0.247029
O O16 0.832098 0.102049 0.292749
#
# Coordination Sequence:
#
# PCOD8155807 Si02
#       8
#     2   4   4   4   4   4   4   4
#     4  10  22  34  64  82 122 160 202 240 296 364
#     4  10  20  33  60  89 117 151 192 241 298 353
#     4  10  22  40  58  86 119 160 203 237 300 360
#     4  10  18  34  57  91 121 150 191 238 293 367
#     4  11  27  41  64  80 116 160 212 252 298 369
#     4  12  22  41  61  92 116 157 200 261 305 342
#     4  11  19  35  56  92 119 156 189 237 300 362
#     4  11  22  35  62  89 123 150 194 251 300 355
#
# _framework density 19.989764999999998
#
# number of rings (size 3 to 8) (size 9 to 14) (size 15 to 20)
#    0.000    1.333    4.000    2.000    3.733    1.067 
#    0.000    0.000    2.933    0.000    0.000    0.000 
#    0.000    0.000    0.000    0.000    0.000    0.000 
#
# Total GULP energy -371662.505958 kJ/mol
# GULP energy per Si atom -12388.750199 kJ/mol
# Density = 1.994427 g / cm^3
# Si number density = 19.989765 Si / 1000 Ang^3
#
#
#
# Elastic Constant Matrix: (Units=GPa)
#
#
# Indices 1 2 3 4 5 6 
#
# 1 65.9163 7.7546 40.4499 0.0000 0.0000 0.0000
# 2 7.7546 76.6713 8.3028 0.0000 0.0000 0.0000
# 3 40.4499 8.3028 120.5291 0.0000 0.0000 0.0000
# 4 0.0000 0.0000 0.0000 27.8194 0.0000 0.0000
# 5 0.0000 0.0000 0.0000 0.0000 31.6274 0.0000
# 6 0.0000 0.0000 0.0000 0.0000 0.0000 30.6363
#
#
#
# Elastic Compliance Matrix: (Units=1/GPa)
#
#
# Indices 1 2 3 4 5 6 
#
# 1 0.019225 -0.001255 -0.006365 0.000000 0.000000 0.000000
# 2 -0.001255 0.013223 -0.000490 0.000000 0.000000 0.000000
# 3 -0.006365 -0.000490 0.010467 0.000000 0.000000 0.000000
# 4 0.000000 0.000000 0.000000 0.035946 0.000000 0.000000
# 5 0.000000 0.000000 0.000000 0.000000 0.031618 0.000000
# 6 0.000000 0.000000 0.000000 0.000000 0.000000 0.032641
#
#
# Mechanical properties :
#
#
# Convention : Reuss Voigt Hill
#
# Bulk Modulus (GPa) = 37.46198 41.79237 39.62718
# Shear Modulus (GPa) = 29.71992 31.79057 30.75525
#
# Velocity S-wave (km/s) = 3.86003 3.99224 3.92669
# Velocity P-wave (km/s) = 6.21673 6.49637 6.35809
#
# Compressibility (1/GPa) = 0.02669373
#
# Stress axis : x y z
#
# Youngs Moduli (GPa) = 52.01679 75.62781 95.54092
#
# Poissons Ratio (x) = 0.09492 0.60815
# Poissons Ratio (y) = 0.06529 0.04678
# Poissons Ratio (z) = 0.33111 0.03703
#
# Static dielectric constant tensor:
#      x y z
#    x 3.624220 0.000000 0.000000 
#    y 0.000000 3.777270 0.000000 
#    z 0.000000 0.000000 3.809440 
# 
# 
# High freq. dielectric constant tensor:
#      x y z
#    x 1.750400 0.000000 0.000000 
#    y 0.000000 1.792390 0.000000 
#    z 0.000000 0.000000 1.785830 
# 
# From -- ./inp_files/7014.got.cif
#   From: 2010.03.12/outbox.cif.g09.slc.cpg/sg18_4_cif.got.tgz:7014.got - 2010.04.10 18:53:55.
