data_PCOD8155729
_publ_section_title
;
Structure prediction by ZEFSAII (Michael W. Deem and Ramdas Pophale) SiO2 
 PCOD8155729
Probable space group: P 2 2 21
;
_chemical_formula_sum "Si O2"
_cell_formula_units_Z 20
_cell_length_a 9.732950
_cell_length_b 6.951246
_cell_length_c 13.045015
_cell_angle_alpha 90.000000
_cell_angle_beta 90.000000
_cell_angle_gamma 90.000000
_cell_volume 882.575228
_symmetry_space_group_name_H-M "P 2 2 21"
_symmetry_group_IT_number 17
_symmetry_cell_setting 'orthorhombic'
loop_
_space_group_symop_operation_xyz
x,y,z
-x,-y,1/2+z
x,-y,-z
-x,y,1/2-z
loop_
_atom_site_type_symbol
_atom_site_label
_atom_site_fract_x
_atom_site_fract_y
_atom_site_fract_z
Si Si1 0.687725 0.181762 0.688213
Si Si2 0.500000 0.864619 0.750000
Si Si3 0.513014 0.485254 0.117127
Si Si4 0.187734 0.510662 0.297757
Si Si5 0.167795 0.000000 0.000000
Si Si6 0.916645 0.626454 0.595027
O O1 0.631419 0.005540 0.756813
O O2 0.572809 0.351806 0.677294
O O3 0.816153 0.270574 0.752413
O O4 0.733678 0.113564 0.576983
O O5 0.527039 0.730008 0.651879
O O6 0.675431 0.494054 0.136263
O O7 0.476298 0.500000 0.000000
O O8 0.184561 0.378542 0.194008
O O9 0.062534 0.463206 0.372300
O O10 0.070651 0.151894 0.059729
O O11 0.858284 0.500000 0.500000
#
# Coordination Sequence:
#
# PCOD8155729 Si02
#       6
#     4   2   4   4   2   4
#     4  12  24  44  73 109 146 191 241 303 362 437
#     4  12  22  44  70 112 142 198 238 288 368 436
#     4  12  25  44  73 108 152 188 231 308 374 415
#     4  11  23  49  70 100 155 184 235 303 366 420
#     4  12  26  44  76 112 136 196 260 284 360 456
#     4  11  25  48  74 102 141 199 238 302 359 425
#
# _framework density 22.660957
#
# number of rings (size 3 to 8) (size 9 to 14) (size 15 to 20)
#    0.000    0.400    6.000    3.000    2.800    0.000 
#   10.800    0.000    0.000    0.000    0.000    0.000 
#    0.000    0.000    0.000    0.000    0.000    0.000 
#
# Total GULP energy -247818.493512 kJ/mol
# GULP energy per Si atom -12390.924676 kJ/mol
# Density = 2.260938 g / cm^3
# Si number density = 22.660957 Si / 1000 Ang^3
#
#
#
# Elastic Constant Matrix: (Units=GPa)
#
#
# Indices 1 2 3 4 5 6 
#
# 1 92.8387 54.7695 17.9218 0.0000 0.0000 0.0000
# 2 54.7695 181.7646 57.7870 0.0000 0.0000 0.0000
# 3 17.9218 57.7870 109.7991 0.0000 0.0000 0.0000
# 4 0.0000 0.0000 0.0000 46.2398 0.0000 0.0000
# 5 0.0000 0.0000 0.0000 0.0000 28.6854 0.0000
# 6 0.0000 0.0000 0.0000 0.0000 0.0000 49.2957
#
#
#
# Elastic Compliance Matrix: (Units=1/GPa)
#
#
# Indices 1 2 3 4 5 6 
#
# 1 0.013101 -0.003924 -0.000073 0.000000 0.000000 0.000000
# 2 -0.003924 0.007783 -0.003455 0.000000 0.000000 0.000000
# 3 -0.000073 -0.003455 0.010938 0.000000 0.000000 0.000000
# 4 0.000000 0.000000 0.000000 0.021626 0.000000 0.000000
# 5 0.000000 0.000000 0.000000 0.000000 0.034861 0.000000
# 6 0.000000 0.000000 0.000000 0.000000 0.000000 0.020286
#
#
# Mechanical properties :
#
#
# Convention : Reuss Voigt Hill
#
# Bulk Modulus (GPa) = 59.11619 71.70654 65.41136
# Shear Modulus (GPa) = 38.71814 41.77244 40.24529
#
# Velocity S-wave (km/s) = 4.13799 4.29810 4.21880
# Velocity P-wave (km/s) = 6.99817 7.50623 7.25665
#
# Compressibility (1/GPa) = 0.01691584
#
# Stress axis : x y z
#
# Youngs Moduli (GPa) = 76.33265 128.49091 91.42388
#
# Poissons Ratio (x) = 0.50423 0.00667
# Poissons Ratio (y) = 0.29955 0.31591
# Poissons Ratio (z) = 0.00557 0.44400
#
# Static dielectric constant tensor:
#      x y z
#    x 3.981890 0.000000 0.000000 
#    y 0.000000 4.414950 0.000000 
#    z 0.000000 0.000000 3.196100 
# 
# 
# High freq. dielectric constant tensor:
#      x y z
#    x 1.887160 0.000000 0.000000 
#    y 0.000000 1.901850 0.000000 
#    z 0.000000 0.000000 1.900860 
# 
# From -- ./inp_files/8369.got.cif
#   From: 2010.03.12/outbox.cif.g09.slc.cpg/sg17_5_cif.got.tgz:8369.got - 2010.04.10 18:46:23.
