data_PCOD8155890
_publ_section_title
;
Structure prediction by ZEFSAII (Michael W. Deem and Ramdas Pophale) SiO2 
 PCOD8155890
Probable space group: P 21 21 2
;
_chemical_formula_sum "Si O2"
_cell_formula_units_Z 24
_cell_length_a 13.603372
_cell_length_b 9.469899
_cell_length_c 9.303288
_cell_angle_alpha 90.000000
_cell_angle_beta 90.000000
_cell_angle_gamma 90.000000
_cell_volume 1198.473366
_symmetry_space_group_name_H-M "P 21 21 2"
_symmetry_group_IT_number 18
_symmetry_cell_setting 'orthorhombic'
loop_
_space_group_symop_operation_xyz
x,y,z
-x,-y,z
1/2+x,1/2-y,-z
1/2-x,1/2+y,-z
loop_
_atom_site_type_symbol
_atom_site_label
_atom_site_fract_x
_atom_site_fract_y
_atom_site_fract_z
Si Si1 0.401476 0.346727 0.985376
Si Si2 0.624949 0.375752 0.408110
Si Si3 0.115645 0.170290 0.049484
Si Si4 0.586392 0.683979 0.311992
Si Si5 0.741069 0.378852 0.691041
Si Si6 0.779460 0.686047 0.806746
O O1 0.502707 0.321016 0.898873
O O2 0.368894 0.509520 0.003676
O O3 0.319921 0.268302 0.889802
O O4 0.418226 0.280748 0.142691
O O5 0.622280 0.524882 0.329683
O O6 0.518624 0.297480 0.392505
O O7 0.656163 0.400781 0.572510
O O8 0.708809 0.282201 0.333748
O O9 0.188863 0.207990 0.180166
O O10 0.132817 0.279843 0.918791
O O11 0.667381 0.792005 0.375774
O O12 0.780782 0.525801 0.753403
#
# Coordination Sequence:
#
# PCOD8155890 Si02
#       6
#     4   4   4   4   4   4
#     4  10  19  36  65  91 116 164 210 244 295 367
#     4  11  23  41  63  88 124 167 204 245 312 379
#     4  10  19  38  61  89 121 160 207 247 293 364
#     4  11  21  40  65  83 120 168 205 244 309 373
#     4  11  25  37  62  98 125 154 206 263 306 359
#     4  11  21  38  64  93 122 160 207 262 300 355
#
# _framework density 20.025478
#
# number of rings (size 3 to 8) (size 9 to 14) (size 15 to 20)
#    0.000    1.333    5.000    2.000    0.000    7.333 
#    0.000    0.000    0.000    2.000    0.000    0.000 
#    0.000    0.000    0.000    0.000    0.000    0.000 
#
# Total GULP energy -297522.254210 kJ/mol
# GULP energy per Si atom -12396.760592 kJ/mol
# Density = 1.997990 g / cm^3
# Si number density = 20.025478 Si / 1000 Ang^3
#
#
#
# Elastic Constant Matrix: (Units=GPa)
#
#
# Indices 1 2 3 4 5 6 
#
# 1 127.0342 51.5238 45.2519 0.0000 0.0000 0.0000
# 2 51.5238 57.8769 30.7650 0.0000 0.0000 0.0000
# 3 45.2519 30.7650 85.8222 0.0000 0.0000 0.0000
# 4 0.0000 0.0000 0.0000 17.8392 0.0000 0.0000
# 5 0.0000 0.0000 0.0000 0.0000 37.0542 0.0000
# 6 0.0000 0.0000 0.0000 0.0000 0.0000 29.5777
#
#
#
# Elastic Compliance Matrix: (Units=1/GPa)
#
#
# Indices 1 2 3 4 5 6 
#
# 1 0.013060 -0.009841 -0.003358 0.000000 0.000000 0.000000
# 2 -0.009841 0.028761 -0.005121 0.000000 0.000000 0.000000
# 3 -0.003358 -0.005121 0.015259 0.000000 0.000000 0.000000
# 4 0.000000 0.000000 0.000000 0.056056 0.000000 0.000000
# 5 0.000000 0.000000 0.000000 0.000000 0.026988 0.000000
# 6 0.000000 0.000000 0.000000 0.000000 0.000000 0.033809
#
#
# Mechanical properties :
#
#
# Convention : Reuss Voigt Hill
#
# Bulk Modulus (GPa) = 48.92771 58.42387 53.67579
# Shear Modulus (GPa) = 23.00059 26.44038 24.72049
#
# Velocity S-wave (km/s) = 3.39273 3.63759 3.51729
# Velocity P-wave (km/s) = 6.31136 6.84696 6.58461
#
# Compressibility (1/GPa) = 0.02043832
#
# Stress axis : x y z
#
# Youngs Moduli (GPa) = 76.57237 34.76940 65.53704
#
# Poissons Ratio (x) = 0.34216 0.22009
# Poissons Ratio (y) = 0.75354 0.33563
# Poissons Ratio (z) = 0.25715 0.17806
#
# Static dielectric constant tensor:
#      x y z
#    x 3.844360 0.000000 0.000000 
#    y 0.000000 3.378070 0.000000 
#    z 0.000000 0.000000 3.622890 
# 
# 
# High freq. dielectric constant tensor:
#      x y z
#    x 1.791280 0.000000 0.000000 
#    y 0.000000 1.754610 0.000000 
#    z 0.000000 0.000000 1.778220 
# 
# From -- ./inp_files/4161.got.cif
#   From: 2010.03.12/outbox.cif.g09.slc.cpg/sg18_3_cif.got.tgz:4161.got - 2010.04.10 18:53:55.
