data_PCOD8155187
_publ_section_title
;
Structure prediction by ZEFSAII (Michael W. Deem and Ramdas Pophale) SiO2 
 PCOD8155187
Probable space group: C 2/C
;
_chemical_formula_sum "Si O2"
_cell_formula_units_Z 24
_cell_length_a 8.188331
_cell_length_b 11.781040
_cell_length_c 10.492928
_cell_angle_alpha 90.000000
_cell_angle_beta 104.700708
_cell_angle_gamma 90.000000
_cell_volume 979.086393
_symmetry_space_group_name_H-M "C 2/C"
_symmetry_group_IT_number 15
_symmetry_cell_setting 'monoclinic'
loop_
_space_group_symop_operation_xyz
x,y,z
-x,y,1/2-z
-x,-y,-z
x,-y,1/2+z
1/2+x,1/2+y,z
1/2-x,1/2+y,1/2-z
1/2-x,1/2-y,-z
1/2+x,1/2-y,1/2+z
loop_
_atom_site_type_symbol
_atom_site_label
_atom_site_fract_x
_atom_site_fract_y
_atom_site_fract_z
Si Si1 0.963367 0.168397 0.499882
Si Si2 0.149861 0.401796 0.078859
Si Si3 0.250562 0.520479 0.863231
O O1 0.980436 0.296553 0.450252
O O2 0.835373 0.156768 0.595305
O O3 0.150814 0.134839 0.579961
O O4 0.888459 0.081828 0.376907
O O5 0.145799 0.464639 0.213617
O O6 0.118504 0.491618 0.954280
#
# Coordination Sequence:
#
# PCOD8155187 Si02
#       3
#     8   8   8
#     4   8  17  27  49  76 101 136 168 205 266 300
#     4   9  16  30  49  77 100 134 171 210 257 307
#     4   9  16  29  51  73 102 133 171 211 255 306
#
# _framework density 24.512647999999999
#
# number of rings (size 3 to 8) (size 9 to 14) (size 15 to 20)
#    2.000    1.333    0.000    1.000    0.000    0.000 
#    0.000    1.667    0.000    2.000    0.000    0.000 
#    0.000    0.000    0.000    0.000    0.000    0.000 
#
# Total GULP energy -148738.481153 kJ/mol
# GULP energy per Si atom -12394.873429 kJ/mol
# Density = 2.445686 g / cm^3
# Si number density = 24.512648 Si / 1000 Ang^3
#
#
#
# Elastic Constant Matrix: (Units=GPa)
#
#
# Indices 1 2 3 4 5 6 
#
# 1 62.5705 25.5011 51.2900 0.0000 -10.3253 0.0000
# 2 25.5011 161.3691 99.8202 0.0000 -1.2283 0.0000
# 3 51.2900 99.8202 208.5136 0.0000 -18.7650 0.0000
# 4 0.0000 0.0000 0.0000 28.0077 0.0000 10.7931
# 5 -10.3253 -1.2283 -18.7650 0.0000 24.6342 0.0000
# 6 0.0000 0.0000 0.0000 10.7931 0.0000 31.6572
#
#
#
# Elastic Compliance Matrix: (Units=1/GPa)
#
#
# Indices 1 2 3 4 5 6 
#
# 1 0.020636 -0.000535 -0.004342 0.000000 0.005316 0.000000
# 2 -0.000535 0.009026 -0.004476 0.000000 -0.003184 0.000000
# 3 -0.004342 -0.004476 0.008398 0.000000 0.004355 0.000000
# 4 0.000000 0.000000 0.000000 0.041105 0.000000 -0.014014
# 5 0.005316 -0.003184 0.004355 0.000000 0.045980 0.000000
# 6 0.000000 0.000000 0.000000 -0.014014 0.000000 0.036366
#
#
# Mechanical properties :
#
#
# Convention : Reuss Voigt Hill
#
# Bulk Modulus (GPa) = 51.66478 87.29729 69.48104
# Shear Modulus (GPa) = 26.78541 33.91593 30.35067
#
# Velocity S-wave (km/s) = 3.30921 3.72373 3.52257
# Velocity P-wave (km/s) = 5.97693 7.36061 6.70457
#
# Compressibility (1/GPa) = 0.01935554
#
# Stress axis : x y z
#
# Youngs Moduli (GPa) = 48.45889 110.79140 119.07124
#
# Poissons Ratio (x) = 0.05928 0.51695
# Poissons Ratio (y) = 0.02593 0.53294
# Poissons Ratio (z) = 0.21038 0.49588
#
# Static dielectric constant tensor:
#      x y z
#    x 4.181220 0.000000 0.025070 
#    y 0.000000 4.235580 0.000000 
#    z 0.025070 0.000000 3.803820 
# 
# 
# High freq. dielectric constant tensor:
#      x y z
#    x 1.980260 0.000000 0.014330 
#    y 0.000000 1.971900 0.000000 
#    z 0.014330 0.000000 1.945790 
# 
# From -- ./inp_files/21017.got.cif
#   From: 2010.06.25/outbox.cif.g09.slc.cpg/sg15_11_cif.got.tgz:21017.got - 2010.06.28 07:06:18.
