data_PCOD8155476
_publ_section_title
;
Structure prediction by ZEFSAII (Michael W. Deem and Ramdas Pophale) SiO2 
 PCOD8155476
Probable space group: P 2 2 21
;
_chemical_formula_sum "Si O2"
_cell_formula_units_Z 28
_cell_length_a 12.057616
_cell_length_b 21.045984
_cell_length_c 5.537034
_cell_angle_alpha 90.000000
_cell_angle_beta 90.000000
_cell_angle_gamma 90.000000
_cell_volume 1405.102074
_symmetry_space_group_name_H-M "P 2 2 21"
_symmetry_group_IT_number 17
_symmetry_cell_setting 'orthorhombic'
loop_
_space_group_symop_operation_xyz
x,y,z
-x,-y,1/2+z
x,-y,-z
-x,y,1/2-z
loop_
_atom_site_type_symbol
_atom_site_label
_atom_site_fract_x
_atom_site_fract_y
_atom_site_fract_z
Si Si1 0.888383 0.778285 0.633614
Si Si2 0.000000 0.306614 0.750000
Si Si3 0.812167 0.339001 0.070443
Si Si4 0.500000 0.806614 0.750000
Si Si5 0.312167 0.839001 0.070443
Si Si6 0.131240 0.533169 0.751052
Si Si7 0.368760 0.966831 0.251052
Si Si8 0.388383 0.278285 0.633614
O O1 0.919097 0.738359 0.399366
O O2 0.828557 0.730522 0.817510
O O3 0.804924 0.835925 0.571373
O O4 0.000000 0.807913 0.750000
O O5 0.080456 0.352981 0.598741
O O6 0.812093 0.396760 0.260094
O O7 0.695076 0.335925 0.928627
O O8 0.580456 0.852981 0.598741
O O9 0.419097 0.761641 0.600633
O O10 0.312093 0.896760 0.260094
O O11 0.328557 0.769478 0.182489
O O12 0.171849 0.500000 0.500000
O O13 0.000000 0.539193 0.750000
O O14 0.172255 0.500000 0.000000
O O15 0.500000 0.960807 0.250000
O O16 0.327745 0.000000 0.500000
O O17 0.328151 0.000000 0.000000
O O18 0.500000 0.307913 0.750000
#
# Coordination Sequence:
#
# PCOD8155476 Si02
#       8
#     4   2   4   2   4   4   4   4
#     4  10  21  35  56  90 122 160 199 253 317 369
#     4  10  20  34  56  88 120 162 194 254 306 388
#     4  11  21  36  60  87 128 159 203 255 315 377
#     4  10  20  34  56  88 120 162 194 254 306 388
#     4  11  21  36  60  87 128 159 203 255 315 377
#     4  10  23  38  58  88 127 166 207 253 309 373
#     4  10  23  38  58  88 127 166 207 253 309 373
#     4  10  21  35  56  90 122 160 199 253 317 369
#
# _framework density 19.927378000000001
#
# number of rings (size 3 to 8) (size 9 to 14) (size 15 to 20)
#    0.000    1.714    2.857    2.571   10.000    0.000 
#    0.000    0.000    0.000    0.000    3.714    0.000 
#    0.000    0.000    0.000    0.000    0.000    0.000 
#
# Total GULP energy -347098.374033 kJ/mol
# GULP energy per Si atom -12396.370501 kJ/mol
# Density = 1.988202 g / cm^3
# Si number density = 19.927378 Si / 1000 Ang^3
#
#
#
# Elastic Constant Matrix: (Units=GPa)
#
#
# Indices 1 2 3 4 5 6 
#
# 1 106.6121 52.5511 43.9077 0.0000 0.0000 0.0000
# 2 52.5511 78.3712 35.4633 0.0000 0.0000 0.0000
# 3 43.9077 35.4633 113.8963 0.0000 0.0000 0.0000
# 4 0.0000 0.0000 0.0000 34.3540 0.0000 0.0000
# 5 0.0000 0.0000 0.0000 0.0000 29.4126 0.0000
# 6 0.0000 0.0000 0.0000 0.0000 0.0000 10.6810
#
#
#
# Elastic Compliance Matrix: (Units=1/GPa)
#
#
# Indices 1 2 3 4 5 6 
#
# 1 0.014873 -0.008589 -0.003060 0.000000 0.000000 0.000000
# 2 -0.008589 0.019812 -0.002858 0.000000 0.000000 0.000000
# 3 -0.003060 -0.002858 0.010849 0.000000 0.000000 0.000000
# 4 0.000000 0.000000 0.000000 0.029109 0.000000 0.000000
# 5 0.000000 0.000000 0.000000 0.000000 0.033999 0.000000
# 6 0.000000 0.000000 0.000000 0.000000 0.000000 0.093625
#
#
# Mechanical properties :
#
#
# Convention : Reuss Voigt Hill
#
# Bulk Modulus (GPa) = 60.52348 62.52488 61.52418
# Shear Modulus (GPa) = 21.11606 26.02002 23.56804
#
# Velocity S-wave (km/s) = 3.25876 3.61743 3.44277
# Velocity P-wave (km/s) = 6.67812 6.99229 6.83701
#
# Compressibility (1/GPa) = 0.01652251
#
# Stress axis : x y z
#
# Youngs Moduli (GPa) = 67.23403 50.47431 92.17271
#
# Poissons Ratio (x) = 0.43351 0.28201
# Poissons Ratio (y) = 0.57746 0.26341
# Poissons Ratio (z) = 0.20571 0.14424
#
# Static dielectric constant tensor:
#      x y z
#    x 3.600620 0.000000 0.000000 
#    y 0.000000 3.270690 0.000000 
#    z 0.000000 0.000000 4.048970 
# 
# 
# High freq. dielectric constant tensor:
#      x y z
#    x 1.757180 0.000000 0.000000 
#    y 0.000000 1.741350 0.000000 
#    z 0.000000 0.000000 1.794270 
# 
# From -- ./inp_files/1836.got.cif
#   From: 2010.03.12/outbox.cif.g09.slc.cpg/sg17_1_cif.got.tgz:1836.got - 2010.04.10 18:46:23.
