data_PCOD8155909
_publ_section_title
;
Structure prediction by ZEFSAII (Michael W. Deem and Ramdas Pophale) SiO2 
 PCOD8155909
Probable space group: P 21 21 2
;
_chemical_formula_sum "Si O2"
_cell_formula_units_Z 26
_cell_length_a 11.263131
_cell_length_b 9.816177
_cell_length_c 10.989233
_cell_angle_alpha 90.000000
_cell_angle_beta 90.000000
_cell_angle_gamma 90.000000
_cell_volume 1214.979353
_symmetry_space_group_name_H-M "P 21 21 2"
_symmetry_group_IT_number 18
_symmetry_cell_setting 'orthorhombic'
loop_
_space_group_symop_operation_xyz
x,y,z
-x,-y,z
1/2+x,1/2-y,-z
1/2-x,1/2+y,-z
loop_
_atom_site_type_symbol
_atom_site_label
_atom_site_fract_x
_atom_site_fract_y
_atom_site_fract_z
Si Si1 0.722860 0.188800 0.138416
Si Si2 0.961935 0.141492 0.255663
Si Si3 0.071886 0.363267 0.429118
Si Si4 0.693281 0.562439 0.317029
Si Si5 0.500000 0.500000 0.974010
Si Si6 0.048431 0.206087 0.674481
Si Si7 0.750742 0.981071 0.934219
O O1 0.818532 0.150552 0.243420
O O2 0.599214 0.221842 0.204385
O O3 0.775354 0.318833 0.062352
O O4 0.693871 0.062766 0.047231
O O5 0.021326 0.264086 0.325625
O O6 0.000000 0.000000 0.323616
O O7 0.009259 0.133019 0.115068
O O8 0.213838 0.385441 0.418039
O O9 0.048094 0.307926 0.562424
O O10 0.000000 0.500000 0.411003
O O11 0.632499 0.421557 0.358639
O O12 0.588537 0.671287 0.298148
O O13 0.778640 0.543094 0.198142
O O14 0.391550 0.496154 0.064363
#
# Coordination Sequence:
#
# PCOD8155909 Si02
#       7
#     4   4   4   4   2   4   4
#     4  10  21  40  69  97 133 172 231 273 339 413
#     4   9  22  41  63  94 129 178 221 272 342 411
#     4  12  26  42  69 100 136 172 236 287 331 401
#     4  10  24  42  70  95 131 189 221 269 354 403
#     4   8  18  36  64  90 126 172 222 264 344 412
#     4  10  24  45  66  94 136 177 224 282 338 410
#     4  10  19  38  66  93 132 171 219 280 332 408
#
# _framework density 21.399540999999999
#
# number of rings (size 3 to 8) (size 9 to 14) (size 15 to 20)
#    0.462    1.538    0.000    3.692    8.615    0.000 
#    2.769    0.000    0.000    0.000    0.000    0.000 
#    0.000    0.000    0.000    0.000    0.000    0.000 
#
# Total GULP energy -322218.882007 kJ/mol
# GULP energy per Si atom -12393.033923 kJ/mol
# Density = 2.135084 g / cm^3
# Si number density = 21.399541 Si / 1000 Ang^3
#
#
#
# Elastic Constant Matrix: (Units=GPa)
#
#
# Indices 1 2 3 4 5 6 
#
# 1 92.6966 44.7146 17.5291 0.0000 0.0000 0.0000
# 2 44.7146 133.4502 46.8585 0.0000 0.0000 0.0000
# 3 17.5291 46.8585 63.3903 0.0000 0.0000 0.0000
# 4 0.0000 0.0000 0.0000 23.2081 0.0000 0.0000
# 5 0.0000 0.0000 0.0000 0.0000 23.4852 0.0000
# 6 0.0000 0.0000 0.0000 0.0000 0.0000 29.8667
#
#
#
# Elastic Compliance Matrix: (Units=1/GPa)
#
#
# Indices 1 2 3 4 5 6 
#
# 1 0.012879 -0.004139 -0.000502 0.000000 0.000000 0.000000
# 2 -0.004139 0.011451 -0.007320 0.000000 0.000000 0.000000
# 3 -0.000502 -0.007320 0.021325 0.000000 0.000000 0.000000
# 4 0.000000 0.000000 0.000000 0.043088 0.000000 0.000000
# 5 0.000000 0.000000 0.000000 0.000000 0.042580 0.000000
# 6 0.000000 0.000000 0.000000 0.000000 0.000000 0.033482
#
#
# Mechanical properties :
#
#
# Convention : Reuss Voigt Hill
#
# Bulk Modulus (GPa) = 46.01216 56.41572 51.21394
# Shear Modulus (GPa) = 25.51395 27.34098 26.42747
#
# Velocity S-wave (km/s) = 3.45667 3.57829 3.51800
# Velocity P-wave (km/s) = 6.12205 6.59489 6.36286
#
# Compressibility (1/GPa) = 0.02173339
#
# Stress axis : x y z
#
# Youngs Moduli (GPa) = 77.64301 87.33213 46.89376
#
# Poissons Ratio (x) = 0.36149 0.02353
# Poissons Ratio (y) = 0.32139 0.34325
# Poissons Ratio (z) = 0.03895 0.63924
#
# Static dielectric constant tensor:
#      x y z
#    x 3.730220 0.000000 0.000000 
#    y 0.000000 3.942840 0.000000 
#    z 0.000000 0.000000 3.752970 
# 
# 
# High freq. dielectric constant tensor:
#      x y z
#    x 1.829440 0.000000 0.000000 
#    y 0.000000 1.837010 0.000000 
#    z 0.000000 0.000000 1.836880 
# 
# From -- ./inp_files/5870.got.cif
#   From: 2010.03.12/outbox.cif.g09.slc.cpg/sg18_3_cif.got.tgz:5870.got - 2010.04.10 18:53:55.
