data_PCOD8155079
_publ_section_title
;
Structure prediction by ZEFSAII (Michael W. Deem and Ramdas Pophale) SiO2 
 PCOD8155079
Probable space group: C 2/C
;
_chemical_formula_sum "Si O2"
_cell_formula_units_Z 40
_cell_length_a 8.338127
_cell_length_b 14.233690
_cell_length_c 15.930026
_cell_angle_alpha 90.000000
_cell_angle_beta 64.330205
_cell_angle_gamma 90.000000
_cell_volume 1704.019341
_symmetry_space_group_name_H-M "C 2/C"
_symmetry_group_IT_number 15
_symmetry_cell_setting 'monoclinic'
loop_
_space_group_symop_operation_xyz
x,y,z
-x,y,1/2-z
-x,-y,-z
x,-y,1/2+z
1/2+x,1/2+y,z
1/2-x,1/2+y,1/2-z
1/2-x,1/2-y,-z
1/2+x,1/2-y,1/2+z
loop_
_atom_site_type_symbol
_atom_site_label
_atom_site_fract_x
_atom_site_fract_y
_atom_site_fract_z
Si Si1 0.688363 0.788197 0.747081
Si Si2 0.484139 0.078592 0.572705
Si Si3 0.809231 0.015610 0.261512
Si Si4 0.598792 0.270165 0.967129
Si Si5 0.299266 0.624140 0.624134
O O1 0.500000 0.758245 0.750000
O O2 0.680352 0.893411 0.786894
O O3 0.832123 0.794801 0.640756
O O4 0.745361 0.713845 0.805972
O O5 0.506909 0.173593 0.515577
O O6 0.631798 0.084689 0.611056
O O7 0.500000 0.000000 0.500000
O O8 0.290741 0.063701 0.659806
O O9 0.000000 0.049541 0.250000
O O10 0.854695 0.967097 0.163334
O O11 0.750000 0.250000 0.000000
O O12 0.464364 0.351389 0.026346
#
# Coordination Sequence:
#
# PCOD8155079 Si02
#       5
#     8   8   8   8   8
#     4  12  26  48  76 109 152 203 252 315 387 447
#     4  12  28  49  75 111 150 198 257 312 382 455
#     4  12  28  47  75 108 151 199 254 314 384 453
#     4  12  26  45  76 106 151 198 256 312 376 456
#     4  12  26  50  75 108 155 202 251 321 381 451
#
# _framework density 23.473911999999999
#
# number of rings (size 3 to 8) (size 9 to 14) (size 15 to 20)
#    0.000    0.000    4.000    5.400    8.400    0.800 
#    0.000    0.000    0.000    0.000    0.000    0.000 
#    0.000    0.000    0.000    0.000    0.000    0.000 
#
# Total GULP energy -247997.044893 kJ/mol
# GULP energy per Si atom -12399.852245 kJ/mol
# Density = 2.342048 g / cm^3
# Si number density = 23.473912 Si / 1000 Ang^3
#
#
#
# Elastic Constant Matrix: (Units=GPa)
#
#
# Indices 1 2 3 4 5 6 
#
# 1 122.7082 33.1620 48.7836 0.0000 6.3246 0.0000
# 2 33.1620 112.2550 34.1234 0.0000 17.3299 0.0000
# 3 48.7836 34.1234 139.8093 0.0000 -3.2917 0.0000
# 4 0.0000 0.0000 0.0000 51.1312 0.0000 9.8378
# 5 6.3246 17.3299 -3.2917 0.0000 41.1524 0.0000
# 6 0.0000 0.0000 0.0000 9.8378 0.0000 43.6220
#
#
#
# Elastic Compliance Matrix: (Units=1/GPa)
#
#
# Indices 1 2 3 4 5 6 
#
# 1 0.009904 -0.001854 -0.003027 0.000000 -0.000983 0.000000
# 2 -0.001854 0.010772 -0.002086 0.000000 -0.004418 0.000000
# 3 -0.003027 -0.002086 0.008766 0.000000 0.002045 0.000000
# 4 0.000000 0.000000 0.000000 0.020445 0.000000 -0.004611
# 5 -0.000983 -0.004418 0.002045 0.000000 0.026475 0.000000
# 6 0.000000 0.000000 0.000000 -0.004611 0.000000 0.023964
#
#
# Mechanical properties :
#
#
# Convention : Reuss Voigt Hill
#
# Bulk Modulus (GPa) = 64.47932 67.43450 65.95691
# Shear Modulus (GPa) = 41.86544 44.42800 43.14672
#
# Velocity S-wave (km/s) = 4.22772 4.35518 4.29192
# Velocity P-wave (km/s) = 7.16656 7.35391 7.26084
#
# Compressibility (1/GPa) = 0.01550885
#
# Stress axis : x y z
#
# Youngs Moduli (GPa) = 100.96516 92.83057 114.07699
#
# Poissons Ratio (x) = 0.17212 0.34526
# Poissons Ratio (y) = 0.18720 0.23800
# Poissons Ratio (z) = 0.30558 0.19367
#
# Static dielectric constant tensor:
#      x y z
#    x 4.024120 0.000000 0.030940 
#    y 0.000000 4.414660 0.000000 
#    z 0.030940 0.000000 4.646340 
# 
# 
# High freq. dielectric constant tensor:
#      x y z
#    x 1.927790 0.000000 0.006950 
#    y 0.000000 1.943440 0.000000 
#    z 0.006950 0.000000 1.946120 
# 
# From -- ./inp_files/133056.got.cif
#   From: 2010.06.25/outbox.cif.g09.slc.cpg/sg15_67_cif.got.tgz:133056.got - 2010.06.28 07:06:18.
