data_PCOD8155209
_publ_section_title
;
Structure prediction by ZEFSAII (Michael W. Deem and Ramdas Pophale) SiO2 
 PCOD8155209
Probable space group: P 2 2 2
;
_chemical_formula_sum "Si O2"
_cell_formula_units_Z 32
_cell_length_a 12.954479
_cell_length_b 18.711321
_cell_length_c 7.714635
_cell_angle_alpha 90.000000
_cell_angle_beta 90.000000
_cell_angle_gamma 90.000000
_cell_volume 1869.992152
_symmetry_space_group_name_H-M "P 2 2 2"
_symmetry_group_IT_number 16
_symmetry_cell_setting 'orthorhombic'
loop_
_space_group_symop_operation_xyz
x,y,z
-x,-y,z
x,-y,-z
-x,y,-z
loop_
_atom_site_type_symbol
_atom_site_label
_atom_site_fract_x
_atom_site_fract_y
_atom_site_fract_z
Si Si1 0.885588 0.420051 0.794124
Si Si2 0.305356 0.329946 0.793706
Si Si3 0.618849 0.819457 0.305122
Si Si4 0.500000 0.419844 0.206021
Si Si5 0.305356 0.329946 0.206295
Si Si6 0.377593 0.079520 0.000001
Si Si7 0.114412 0.579949 0.205876
Si Si8 0.618849 0.819456 0.694880
O O1 0.800609 0.364858 0.722884
O O2 0.861929 0.500000 0.724509
O O3 1.000000 0.395843 0.732458
O O4 0.880230 0.421452 1.000000
O O5 0.399049 0.378838 0.725803
O O6 0.199390 0.364857 0.722884
O O7 0.313317 0.251583 0.712681
O O8 0.307756 0.323474 0.000000
O O9 0.686684 0.748418 0.287318
O O10 0.660498 0.879197 0.172188
O O11 0.629635 0.849856 0.500001
O O12 0.500000 0.800183 0.261028
O O13 0.500000 0.500000 0.282379
O O14 0.399050 0.378837 0.274197
O O15 0.500000 0.422711 0.000000
O O16 0.500000 0.073719 0.000000
O O17 0.339502 0.120804 0.827816
O O18 0.328895 0.000000 0.000000
#
# Coordination Sequence:
#
# PCOD8155209 Si02
#       8
#     4   4   4   4   4   4   4   4
#     4   8  14  24  39  62  90 121 162 208 247 281
#     4  10  16  25  43  62  90 125 158 196 238 280
#     4  10  19  30  46  68  97 128 156 188 232 278
#     4   9  16  22  35  61  85 115 161 200 233 278
#     4  10  16  25  43  62  90 125 158 196 238 280
#     4   9  18  32  50  70  95 126 159 189 220 270
#     4   8  14  24  39  62  90 121 162 208 247 281
#     4  10  19  30  46  68  97 128 156 188 232 278
#
# _framework density 17.112371
#
# number of rings (size 3 to 8) (size 9 to 14) (size 15 to 20)
#    0.000    2.750    2.500    1.500    0.000    3.500 
#    0.000    2.500    0.000    4.500    0.000    1.750 
#    0.000    2.000    0.000    2.250    0.000    0.250 
#
# Total GULP energy -396700.579684 kJ/mol
# GULP energy per Si atom -12396.893115 kJ/mol
# Density = 1.707342 g / cm^3
# Si number density = 17.112371 Si / 1000 Ang^3
#
#
#
# Elastic Constant Matrix: (Units=GPa)
#
#
# Indices 1 2 3 4 5 6 
#
# 1 96.7174 54.6803 22.4324 0.0000 0.0000 0.0000
# 2 54.6803 143.8513 43.2715 0.0000 0.0000 0.0000
# 3 22.4324 43.2715 67.0414 0.0000 0.0000 0.0000
# 4 0.0000 0.0000 0.0000 -0.7131 0.0000 0.0000
# 5 0.0000 0.0000 0.0000 0.0000 4.2430 0.0000
# 6 0.0000 0.0000 0.0000 0.0000 0.0000 16.3213
#
#
#
# Elastic Compliance Matrix: (Units=1/GPa)
#
#
# Indices 1 2 3 4 5 6 
#
# 1 0.013286 -0.004607 -0.001472 0.000000 0.000000 0.000000
# 2 -0.004607 0.010224 -0.005058 0.000000 0.000000 0.000000
# 3 -0.001472 -0.005058 0.018673 0.000000 0.000000 0.000000
# 4 0.000000 0.000000 0.000000 -1.402378 0.000000 0.000000
# 5 0.000000 0.000000 0.000000 0.000000 0.235682 0.000000
# 6 0.000000 0.000000 0.000000 0.000000 0.000000 0.061270
#
#
# Mechanical properties :
#
#
# Convention : Reuss Voigt Hill
#
# Bulk Modulus (GPa) = 50.22677 60.93094 55.57886
# Shear Modulus (GPa) = -4.83403 16.45196 5.80897
#
# Velocity S-wave (km/s) = -1.68256 3.10402 1.84444
# Velocity P-wave (km/s) = 5.06361 6.96637 6.08976
#
# Compressibility (1/GPa) = 0.01990970
#
# Stress axis : x y z
#
# Youngs Moduli (GPa) = 75.26971 97.80589 53.55335
#
# Poissons Ratio (x) = 0.45063 0.07881
# Poissons Ratio (y) = 0.34680 0.27085
# Poissons Ratio (z) = 0.11077 0.49466
#
# Static dielectric constant tensor:
#      x y z
#    x 3.163140 0.000000 0.000000 
#    y 0.000000 3.209140 0.000000 
#    z 0.000000 0.000000 2.978360 
# 
# 
# High freq. dielectric constant tensor:
#      x y z
#    x 1.624290 0.000000 0.000000 
#    y 0.000000 1.644920 0.000000 
#    z 0.000000 0.000000 1.647860 
# 
# From -- ./inp_files/4911.got.cif
#   From: 2010.03.12/outbox.cif.g09.slc.cpg/sg16_3_cif.got.tgz:4911.got - 2010.03.31 00:51:45.
