data_PCOD8155406
_publ_section_title
;
Structure prediction by ZEFSAII (Michael W. Deem and Ramdas Pophale) SiO2 
 PCOD8155406
Probable space group: P 2 2 21
;
_chemical_formula_sum "Si O2"
_cell_formula_units_Z 18
_cell_length_a 11.588713
_cell_length_b 13.518716
_cell_length_c 5.599204
_cell_angle_alpha 90.000000
_cell_angle_beta 90.000000
_cell_angle_gamma 90.000000
_cell_volume 877.196606
_symmetry_space_group_name_H-M "P 2 2 21"
_symmetry_group_IT_number 17
_symmetry_cell_setting 'orthorhombic'
loop_
_space_group_symop_operation_xyz
x,y,z
-x,-y,1/2+z
x,-y,-z
-x,y,1/2-z
loop_
_atom_site_type_symbol
_atom_site_label
_atom_site_fract_x
_atom_site_fract_y
_atom_site_fract_z
Si Si1 0.716611 0.000000 0.000000
Si Si2 0.369036 0.813073 0.719729
Si Si3 0.000000 0.168490 0.250000
Si Si4 0.186343 0.130527 0.899958
Si Si5 0.930740 0.500000 0.000000
Si Si6 0.819613 0.706743 0.026967
O O1 0.633613 0.091718 0.048635
O O2 0.798505 0.963772 0.220609
O O3 0.500000 0.779058 0.750000
O O4 0.307584 0.720781 0.587229
O O5 0.304886 0.851050 0.956836
O O6 0.096290 0.240370 0.346729
O O7 0.929031 0.104460 0.445745
O O8 0.164895 0.236500 0.776056
O O9 0.847887 0.592064 0.055456
O O10 0.000000 0.517772 0.750000
#
# Coordination Sequence:
#
# PCOD8155406 Si02
#       6
#     2   4   2   4   2   4
#     4  10  22  36  62  94 122 168 228 270 316 386
#     4  10  23  40  66  90 127 171 219 274 327 385
#     4  10  18  38  62  86 130 172 200 262 328 388
#     4  10  21  38  64  89 130 167 216 268 327 389
#     4  12  24  40  74 108 132 176 224 276 328 408
#     4  10  22  39  65  95 132 166 211 266 328 389
#
# _framework density 20.519915999999998
#
# number of rings (size 3 to 8) (size 9 to 14) (size 15 to 20)
#    0.000    1.778    1.111    2.667    6.222    2.667 
#    0.000    0.000  180.889    0.000    0.000    0.000 
#    0.000    0.000    0.000    0.000    0.000    0.000 
#
# Total GULP energy -223014.946996 kJ/mol
# GULP energy per Si atom -12389.719278 kJ/mol
# Density = 2.047321 g / cm^3
# Si number density = 20.519916 Si / 1000 Ang^3
#
#
#
# Elastic Constant Matrix: (Units=GPa)
#
#
# Indices 1 2 3 4 5 6 
#
# 1 148.0608 41.7950 51.9603 0.0000 0.0000 0.0000
# 2 41.7950 110.8010 18.5894 0.0000 0.0000 0.0000
# 3 51.9603 18.5894 106.3204 0.0000 0.0000 0.0000
# 4 0.0000 0.0000 0.0000 40.2147 0.0000 0.0000
# 5 0.0000 0.0000 0.0000 0.0000 20.0026 0.0000
# 6 0.0000 0.0000 0.0000 0.0000 0.0000 23.8410
#
#
#
# Elastic Compliance Matrix: (Units=1/GPa)
#
#
# Indices 1 2 3 4 5 6 
#
# 1 0.008872 -0.002698 -0.003864 0.000000 0.000000 0.000000
# 2 -0.002698 0.010119 -0.000451 0.000000 0.000000 0.000000
# 3 -0.003864 -0.000451 0.011373 0.000000 0.000000 0.000000
# 4 0.000000 0.000000 0.000000 0.024867 0.000000 0.000000
# 5 0.000000 0.000000 0.000000 0.000000 0.049994 0.000000
# 6 0.000000 0.000000 0.000000 0.000000 0.000000 0.041945
#
#
# Mechanical properties :
#
#
# Convention : Reuss Voigt Hill
#
# Bulk Modulus (GPa) = 61.20859 65.54128 63.37494
# Shear Modulus (GPa) = 30.00504 33.66748 31.83626
#
# Velocity S-wave (km/s) = 3.82807 4.05498 3.94316
# Velocity P-wave (km/s) = 7.03082 7.34394 7.18909
#
# Compressibility (1/GPa) = 0.01633758
#
# Stress axis : x y z
#
# Youngs Moduli (GPa) = 112.71866 98.82833 87.93014
#
# Poissons Ratio (x) = 0.26666 0.33976
# Poissons Ratio (y) = 0.30414 0.03961
# Poissons Ratio (z) = 0.43554 0.04452
#
# Static dielectric constant tensor:
#      x y z
#    x 3.459400 0.000000 0.000000 
#    y 0.000000 3.634610 0.000000 
#    z 0.000000 0.000000 4.293080 
# 
# 
# High freq. dielectric constant tensor:
#      x y z
#    x 1.788600 0.000000 0.000000 
#    y 0.000000 1.783510 0.000000 
#    z 0.000000 0.000000 1.824310 
# 
# From -- ./inp_files/1435.got.cif
#   From: 2010.03.12/outbox.cif.g09.slc.cpg/sg17_1_cif.got.tgz:1435.got - 2010.04.10 18:46:23.
