data_PCOD8155094
_publ_section_title
;
Structure prediction by ZEFSAII (Michael W. Deem and Ramdas Pophale) SiO2 
 PCOD8155094
Probable space group: C 2/C
;
_chemical_formula_sum "Si O2"
_cell_formula_units_Z 40
_cell_length_a 15.850875
_cell_length_b 7.930035
_cell_length_c 23.526662
_cell_angle_alpha 90.000000
_cell_angle_beta 148.308535
_cell_angle_gamma 90.000000
_cell_volume 1553.578431
_symmetry_space_group_name_H-M "C 2/C"
_symmetry_group_IT_number 15
_symmetry_cell_setting 'monoclinic'
loop_
_space_group_symop_operation_xyz
x,y,z
-x,y,1/2-z
-x,-y,-z
x,-y,1/2+z
1/2+x,1/2+y,z
1/2-x,1/2+y,1/2-z
1/2-x,1/2-y,-z
1/2+x,1/2-y,1/2+z
loop_
_atom_site_type_symbol
_atom_site_label
_atom_site_fract_x
_atom_site_fract_y
_atom_site_fract_z
Si Si1 0.676063 0.795573 0.632749
Si Si2 0.272779 0.936274 0.036531
Si Si3 0.370824 0.008745 0.788408
Si Si4 0.821906 0.049470 0.630935
Si Si5 0.848294 0.126448 0.429049
O O1 0.807290 0.700545 0.746900
O O2 0.543859 0.650407 0.537592
O O3 0.610016 0.947819 0.634924
O O4 0.758859 0.875778 0.624321
O O5 0.457208 0.995672 0.143123
O O6 0.201583 0.971514 0.057999
O O7 0.250000 0.750000 0.000000
O O8 0.171671 0.043410 0.933347
O O9 0.243788 0.889241 0.683331
O O10 0.698258 0.194485 0.573180
O O11 0.000000 0.097968 0.750000
#
# Coordination Sequence:
#
# PCOD8155094 Si02
#       5
#     8   8   8   8   8
#     4  12  28  47  77 114 151 204 249 319 379 457
#     4  12  27  47  76 107 148 197 255 313 384 456
#     4  12  27  46  75 108 156 192 258 308 386 452
#     4  12  26  47  76 108 154 197 255 309 382 452
#     4  12  27  49  77 111 151 201 256 316 384 454
#
# _framework density 25.747008999999998
#
# number of rings (size 3 to 8) (size 9 to 14) (size 15 to 20)
#    0.000    0.000    2.000    7.200   11.200    0.000 
#    0.000    0.000    0.000    0.000    0.000    0.000 
#    0.000    0.000    0.000    0.000    0.000    0.000 
#
# Total GULP energy -248005.683276 kJ/mol
# GULP energy per Si atom -12400.284164 kJ/mol
# Density = 2.568841 g / cm^3
# Si number density = 25.747009 Si / 1000 Ang^3
#
#
#
# Elastic Constant Matrix: (Units=GPa)
#
#
# Indices 1 2 3 4 5 6 
#
# 1 109.6152 5.3498 34.4406 0.0001 4.8093 0.0000
# 2 5.3498 74.8967 5.9200 0.0001 -3.2125 0.0000
# 3 34.4406 5.9200 141.3566 0.0000 12.6533 0.0001
# 4 0.0001 0.0001 0.0000 50.2161 0.0000 -1.3613
# 5 4.8093 -3.2125 12.6533 0.0000 40.1575 0.0000
# 6 0.0000 0.0000 0.0001 -1.3613 0.0000 13.9930
#
#
#
# Elastic Compliance Matrix: (Units=1/GPa)
#
#
# Indices 1 2 3 4 5 6 
#
# 1 0.009908 -0.000543 -0.002347 0.000000 -0.000490 0.000000
# 2 -0.000543 0.013491 -0.000551 0.000000 0.001318 0.000000
# 3 -0.002347 -0.000551 0.007870 0.000000 -0.002243 0.000000
# 4 0.000000 0.000000 0.000000 0.019967 0.000000 0.001943
# 5 -0.000490 0.001318 -0.002243 0.000000 0.025773 0.000000
# 6 0.000000 0.000000 0.000000 0.001943 0.000000 0.071653
#
#
# Mechanical properties :
#
#
# Convention : Reuss Voigt Hill
#
# Bulk Modulus (GPa) = 41.00636 46.36549 43.68593
# Shear Modulus (GPa) = 30.54866 39.55051 35.04959
#
# Velocity S-wave (km/s) = 3.44829 3.92359 3.69359
# Velocity P-wave (km/s) = 5.64052 6.21074 5.93249
#
# Compressibility (1/GPa) = 0.02438646
#
# Stress axis : x y z
#
# Youngs Moduli (GPa) = 100.92433 74.12588 127.06371
#
# Poissons Ratio (x) = 0.04027 0.29828
# Poissons Ratio (y) = 0.05483 0.06996
# Poissons Ratio (z) = 0.23692 0.04081
#
# Static dielectric constant tensor:
#      x y z
#    x 5.187720 0.000000 -0.249650 
#    y 0.000000 4.858260 0.000000 
#    z -0.249650 0.000000 4.752290 
# 
# 
# High freq. dielectric constant tensor:
#      x y z
#    x 2.033250 0.000000 0.000210 
#    y 0.000000 2.051280 0.000000 
#    z 0.000210 0.000000 2.042470 
# 
# From -- ./inp_files/247215.got.cif
#   From: 2010.06.25/outbox.cif.g09.slc.cpg/sg15_124_cif.got.tgz:247215.got - 2010.06.28 07:06:18.
