data_PCOD8155296
_publ_section_title
;
Structure prediction by ZEFSAII (Michael W. Deem and Ramdas Pophale) SiO2 
 PCOD8155296
Probable space group: P 2 2 2
;
_chemical_formula_sum "Si O2"
_cell_formula_units_Z 28
_cell_length_a 17.986226
_cell_length_b 8.812434
_cell_length_c 9.577344
_cell_angle_alpha 90.000000
_cell_angle_beta 90.000000
_cell_angle_gamma 90.000000
_cell_volume 1518.032292
_symmetry_space_group_name_H-M "P 2 2 2"
_symmetry_group_IT_number 16
_symmetry_cell_setting 'orthorhombic'
loop_
_space_group_symop_operation_xyz
x,y,z
-x,-y,z
x,-y,-z
-x,y,-z
loop_
_atom_site_type_symbol
_atom_site_label
_atom_site_fract_x
_atom_site_fract_y
_atom_site_fract_z
Si Si1 0.283210 0.824860 0.338554
Si Si2 0.128901 0.321622 0.339786
Si Si3 0.581796 0.180351 0.842930
Si Si4 0.283210 0.175140 0.338554
Si Si5 0.128901 0.321622 0.660214
Si Si6 1.000000 0.820612 0.839501
Si Si7 0.581796 0.180351 0.157070
O O1 0.302457 0.806544 0.500000
O O2 0.211393 0.728191 0.296172
O O3 0.353566 0.755167 0.256189
O O4 0.267988 0.000000 0.299237
O O5 0.211393 0.271809 0.296172
O O6 0.112265 0.273230 0.500000
O O7 0.120218 0.500000 0.321174
O O8 0.072733 0.239909 0.236890
O O9 0.646434 0.244833 0.743811
O O10 0.500000 0.238971 0.794651
O O11 0.582308 0.000000 0.835841
O O12 0.597842 0.235992 0.000000
O O13 0.072733 0.239909 0.763110
O O14 0.000000 0.000000 0.830730
O O15 0.000000 0.764855 0.000000
#
# Coordination Sequence:
#
# PCOD8155296 Si02
#       7
#     4   4   4   4   4   4   4
#     4   9  17  29  47  72  99 127 163 207 251 295
#     4  10  21  37  56  77 103 136 171 206 249 302
#     4   8  14  25  42  66  96 128 162 203 251 298
#     4   9  17  29  47  72  99 127 163 207 251 295
#     4  10  21  37  56  77 103 136 171 206 249 302
#     4  11  24  39  56  80 106 131 164 207 252 298
#     4   8  14  25  42  66  96 128 162 203 251 298
#
# _framework density 18.444928000000001
#
# number of rings (size 3 to 8) (size 9 to 14) (size 15 to 20)
#    0.000    2.714    0.000    2.571    0.000    6.286 
#    0.000    5.714    0.000    0.857    0.000    6.000 
#    0.000    0.000    0.000    0.000    0.000    0.000 
#
# Total GULP energy -347152.341465 kJ/mol
# GULP energy per Si atom -12398.297909 kJ/mol
# Density = 1.840295 g / cm^3
# Si number density = 18.444928 Si / 1000 Ang^3
#
#
#
# Elastic Constant Matrix: (Units=GPa)
#
#
# Indices 1 2 3 4 5 6 
#
# 1 165.1384 35.9119 100.6031 0.0000 0.0000 0.0000
# 2 35.9119 40.7555 36.2320 0.0000 0.0000 0.0000
# 3 100.6031 36.2320 111.9103 0.0000 0.0000 0.0000
# 4 0.0000 0.0000 0.0000 17.2142 0.0000 0.0000
# 5 0.0000 0.0000 0.0000 0.0000 23.4581 0.0000
# 6 0.0000 0.0000 0.0000 0.0000 0.0000 -12.4198
#
#
#
# Elastic Compliance Matrix: (Units=1/GPa)
#
#
# Indices 1 2 3 4 5 6 
#
# 1 0.013456 -0.001549 -0.011595 0.000000 0.000000 0.000000
# 2 -0.001549 0.034631 -0.009820 0.000000 0.000000 0.000000
# 3 -0.011595 -0.009820 0.022539 0.000000 0.000000 0.000000
# 4 0.000000 0.000000 0.000000 0.058091 0.000000 0.000000
# 5 0.000000 0.000000 0.000000 0.000000 0.042629 0.000000
# 6 0.000000 0.000000 0.000000 0.000000 0.000000 -0.080516
#
#
# Mechanical properties :
#
#
# Convention : Reuss Voigt Hill
#
# Bulk Modulus (GPa) = 40.48849 73.69981 57.09415
# Shear Modulus (GPa) = 34.48500 15.32099 24.90299
#
# Velocity S-wave (km/s) = 4.32860 2.88520 3.67839
# Velocity P-wave (km/s) = 6.85427 7.15140 7.00441
#
# Compressibility (1/GPa) = 0.02469838
#
# Stress axis : x y z
#
# Youngs Moduli (GPa) = 74.31554 28.87564 44.36838
#
# Poissons Ratio (x) = 0.04472 0.51446
# Poissons Ratio (y) = 0.11510 0.43569
# Poissons Ratio (z) = 0.86170 0.28356
#
# Static dielectric constant tensor:
#      x y z
#    x 3.742690 0.000000 0.000000 
#    y 0.000000 3.103220 0.000000 
#    z 0.000000 0.000000 3.515700 
# 
# 
# High freq. dielectric constant tensor:
#      x y z
#    x 1.731170 0.000000 0.000000 
#    y 0.000000 1.684100 0.000000 
#    z 0.000000 0.000000 1.712100 
# 
# From -- ./inp_files/5507.got.cif
#   From: 2010.03.12/outbox.cif.g09.slc.cpg/sg16_3_cif.got.tgz:5507.got - 2010.03.31 00:51:45.
