data_PCOD8155451
_publ_section_title
;
Structure prediction by ZEFSAII (Michael W. Deem and Ramdas Pophale) SiO2 
 PCOD8155451
Probable space group: P 2 2 21
;
_chemical_formula_sum "Si O2"
_cell_formula_units_Z 30
_cell_length_a 8.350453
_cell_length_b 8.203314
_cell_length_c 22.676438
_cell_angle_alpha 90.000000
_cell_angle_beta 90.000000
_cell_angle_gamma 90.000000
_cell_volume 1553.367478
_symmetry_space_group_name_H-M "P 2 2 21"
_symmetry_group_IT_number 17
_symmetry_cell_setting 'orthorhombic'
loop_
_space_group_symop_operation_xyz
x,y,z
-x,-y,1/2+z
x,-y,-z
-x,y,1/2-z
loop_
_atom_site_type_symbol
_atom_site_label
_atom_site_fract_x
_atom_site_fract_y
_atom_site_fract_z
Si Si1 0.108255 0.678007 0.017629
Si Si2 0.624246 0.160999 0.838148
Si Si3 0.695984 0.210732 0.618683
Si Si4 0.827431 0.718118 0.720155
Si Si5 0.180417 0.337062 0.762113
Si Si6 0.158211 0.871861 0.905349
Si Si7 0.500000 0.095909 0.250000
Si Si8 0.859829 0.067538 0.940025
O O1 0.197754 0.767268 0.963513
O O2 0.049088 0.500000 0.000000
O O3 0.236944 0.665262 0.070106
O O4 0.952723 0.768226 0.043015
O O5 0.488802 0.261483 0.873112
O O6 0.710389 0.278771 0.792036
O O7 0.738700 0.093345 0.887714
O O8 0.526108 0.014808 0.807381
O O9 0.783644 0.231699 0.680730
O O10 0.719628 0.023106 0.598299
O O11 0.794912 0.527904 0.728795
O O12 0.837701 0.755883 0.651213
O O13 0.667475 0.804409 0.745633
O O14 0.000000 0.769489 0.750000
O O15 0.000000 0.290207 0.750000
O O16 0.978692 0.933980 0.913750
O O17 0.776176 0.000000 0.000000
#
# Coordination Sequence:
#
# PCOD8155451 Si02
#       8
#     4   4   4   4   4   4   2   4
#     4  10  21  39  62  87 119 160 211 261 321 385
#     4  12  22  40  60  92 126 166 213 265 329 381
#     4  11  21  37  59  88 119 162 203 251 317 381
#     4  11  24  40  63  96 129 170 210 262 334 390
#     4  11  23  39  63  89 125 167 213 262 325 391
#     4  10  19  39  61  86 118 159 211 259 307 386
#     4  12  24  40  64  94 132 168 210 276 310 396
#     4   9  21  38  65  89 119 162 217 271 314 388
#
# _framework density 19.31288
#
# number of rings (size 3 to 8) (size 9 to 14) (size 15 to 20)
#    0.000    1.333    2.667    4.400    1.867    3.200 
#    0.000    0.667    0.000    0.000    0.000    0.000 
#    0.000    0.000    0.000    0.000    0.000    0.000 
#
# Total GULP energy -371867.244516 kJ/mol
# GULP energy per Si atom -12395.574817 kJ/mol
# Density = 1.926892 g / cm^3
# Si number density = 19.312880 Si / 1000 Ang^3
#
#
#
# Elastic Constant Matrix: (Units=GPa)
#
#
# Indices 1 2 3 4 5 6 
#
# 1 109.7005 33.6456 51.8849 0.0000 0.0000 0.0000
# 2 33.6456 82.5568 32.7219 0.0000 0.0000 0.0000
# 3 51.8849 32.7219 130.0664 0.0000 0.0000 0.0000
# 4 0.0000 0.0000 0.0000 34.3378 0.0000 0.0000
# 5 0.0000 0.0000 0.0000 0.0000 29.1417 0.0000
# 6 0.0000 0.0000 0.0000 0.0000 0.0000 28.5251
#
#
#
# Elastic Compliance Matrix: (Units=1/GPa)
#
#
# Indices 1 2 3 4 5 6 
#
# 1 0.012005 -0.003326 -0.003952 0.000000 0.000000 0.000000
# 2 -0.003326 0.014376 -0.002290 0.000000 0.000000 0.000000
# 3 -0.003952 -0.002290 0.009841 0.000000 0.000000 0.000000
# 4 0.000000 0.000000 0.000000 0.029122 0.000000 0.000000
# 5 0.000000 0.000000 0.000000 0.000000 0.034315 0.000000
# 6 0.000000 0.000000 0.000000 0.000000 0.000000 0.035057
#
#
# Mechanical properties :
#
#
# Convention : Reuss Voigt Hill
#
# Bulk Modulus (GPa) = 58.52818 62.09205 60.31011
# Shear Modulus (GPa) = 31.33848 32.00567 31.67208
#
# Velocity S-wave (km/s) = 4.03261 4.07531 4.05402
# Velocity P-wave (km/s) = 7.21482 7.37324 7.29446
#
# Compressibility (1/GPa) = 0.01708579
#
# Stress axis : x y z
#
# Youngs Moduli (GPa) = 83.29770 69.56026 101.61530
#
# Poissons Ratio (x) = 0.23137 0.40160
# Poissons Ratio (y) = 0.27706 0.23268
# Poissons Ratio (z) = 0.32921 0.15928
#
# Static dielectric constant tensor:
#      x y z
#    x 3.520410 0.000000 0.000000 
#    y 0.000000 3.473680 0.000000 
#    z 0.000000 0.000000 3.779780 
# 
# 
# High freq. dielectric constant tensor:
#      x y z
#    x 1.748340 0.000000 0.000000 
#    y 0.000000 1.744930 0.000000 
#    z 0.000000 0.000000 1.772650 
# 
# From -- ./inp_files/10116.got.cif
#   From: 2010.03.12/outbox.cif.g09.slc.cpg/sg17_6_cif.got.tgz:10116.got - 2010.04.10 18:46:23.
