data_PCOD8155299
_publ_section_title
;
Structure prediction by ZEFSAII (Michael W. Deem and Ramdas Pophale) SiO2 
 PCOD8155299
Probable space group: P 2 2 2
;
_chemical_formula_sum "Si O2"
_cell_formula_units_Z 32
_cell_length_a 11.437515
_cell_length_b 15.767468
_cell_length_c 8.713174
_cell_angle_alpha 90.000000
_cell_angle_beta 90.000000
_cell_angle_gamma 90.000000
_cell_volume 1571.339478
_symmetry_space_group_name_H-M "P 2 2 2"
_symmetry_group_IT_number 16
_symmetry_cell_setting 'orthorhombic'
loop_
_space_group_symop_operation_xyz
x,y,z
-x,-y,z
x,-y,-z
-x,y,-z
loop_
_atom_site_type_symbol
_atom_site_label
_atom_site_fract_x
_atom_site_fract_y
_atom_site_fract_z
Si Si1 0.699689 0.650437 0.312971
Si Si2 0.234135 0.158529 0.296143
Si Si3 0.257354 0.650750 0.341031
Si Si4 0.136733 0.505987 0.818269
Si Si5 0.877785 0.811038 0.589267
Si Si6 0.537982 0.090928 0.823231
Si Si7 0.479067 0.722110 0.180820
Si Si8 0.999474 0.907129 0.821002
O O1 0.737669 0.744281 0.268212
O O2 0.688013 0.628760 0.493155
O O3 0.796638 0.590967 0.234016
O O4 0.567189 0.649996 0.247662
O O5 0.222093 0.145527 0.481374
O O6 0.323507 0.095096 0.211394
O O7 0.111245 0.146846 0.217899
O O8 0.206203 0.568566 0.262480
O O9 0.150968 0.714700 0.369855
O O10 0.350398 0.691790 0.225206
O O11 0.000000 0.500000 0.768091
O O12 0.147241 0.500000 0.000000
O O13 0.000000 0.813893 0.500000
O O14 0.885302 0.861777 0.749546
O O15 0.489732 0.180391 0.751699
O O16 0.500000 0.000000 0.747476
O O17 0.500000 0.087770 0.000000
O O18 0.500000 0.726083 0.000000
O O19 0.000000 0.000000 0.745606
O O20 0.000000 0.913578 0.000000
#
# Coordination Sequence:
#
# PCOD8155299 Si02
#       8
#     4   4   4   4   4   4   4   4
#     4  10  22  42  63  86 125 161 204 250 302 376
#     4   9  20  38  59  85 122 166 199 253 311 360
#     4  11  23  39  66  91 119 163 204 252 307 369
#     4  11  26  42  62  95 126 156 200 256 313 371
#     4   9  21  39  60  88 122 161 203 249 311 372
#     4   9  19  35  60  91 125 164 211 259 306 366
#     4  10  21  39  63  92 125 165 208 255 312 361
#     4  10  22  36  56  86 117 157 208 253 306 371
#
# _framework density 20.364791
#
# number of rings (size 3 to 8) (size 9 to 14) (size 15 to 20)
#    0.000    2.125    0.000    1.500    5.250   10.250 
#    0.000    3.750    0.000    9.000    0.000    0.875 
#    0.000    0.000    0.000    0.000    0.000    0.000 
#
# Total GULP energy -396429.503701 kJ/mol
# GULP energy per Si atom -12388.421991 kJ/mol
# Density = 2.031844 g / cm^3
# Si number density = 20.364791 Si / 1000 Ang^3
#
#
#
# Elastic Constant Matrix: (Units=GPa)
#
#
# Indices 1 2 3 4 5 6 
#
# 1 84.3712 50.8942 33.6528 0.0000 0.0000 0.0000
# 2 50.8942 102.7001 43.2067 0.0000 0.0000 0.0000
# 3 33.6528 43.2067 90.9577 0.0000 0.0000 0.0000
# 4 0.0000 0.0000 0.0000 31.0202 0.0000 0.0000
# 5 0.0000 0.0000 0.0000 0.0000 31.3951 0.0000
# 6 0.0000 0.0000 0.0000 0.0000 0.0000 29.1053
#
#
#
# Elastic Compliance Matrix: (Units=1/GPa)
#
#
# Indices 1 2 3 4 5 6 
#
# 1 0.017516 -0.007441 -0.002946 0.000000 0.000000 0.000000
# 2 -0.007441 0.015330 -0.004529 0.000000 0.000000 0.000000
# 3 -0.002946 -0.004529 0.014235 0.000000 0.000000 0.000000
# 4 0.000000 0.000000 0.000000 0.032237 0.000000 0.000000
# 5 0.000000 0.000000 0.000000 0.000000 0.031852 0.000000
# 6 0.000000 0.000000 0.000000 0.000000 0.000000 0.034358
#
#
# Mechanical properties :
#
#
# Convention : Reuss Voigt Hill
#
# Bulk Modulus (GPa) = 57.97268 59.28182 58.62725
# Shear Modulus (GPa) = 27.60756 28.32248 27.96502
#
# Velocity S-wave (km/s) = 3.68591 3.73333 3.70970
# Velocity P-wave (km/s) = 6.82961 6.91063 6.87024
#
# Compressibility (1/GPa) = 0.01724950
#
# Stress axis : x y z
#
# Youngs Moduli (GPa) = 57.09115 65.23238 70.24695
#
# Poissons Ratio (x) = 0.48538 0.20695
# Poissons Ratio (y) = 0.42480 0.31815
# Poissons Ratio (z) = 0.16820 0.29544
#
# Static dielectric constant tensor:
#      x y z
#    x 4.000640 0.000000 0.000000 
#    y 0.000000 4.085930 0.000000 
#    z 0.000000 0.000000 4.398170 
# 
# 
# High freq. dielectric constant tensor:
#      x y z
#    x 1.796790 0.000000 0.000000 
#    y 0.000000 1.800290 0.000000 
#    z 0.000000 0.000000 1.796540 
# 
# From -- ./inp_files/4866.got.cif
#   From: 2010.03.12/outbox.cif.g09.slc.cpg/sg16_3_cif.got.tgz:4866.got - 2010.03.31 00:51:45.
