data_PCOD8155505
_publ_section_title
;
Structure prediction by ZEFSAII (Michael W. Deem and Ramdas Pophale) SiO2 
 PCOD8155505
Probable space group: P 2 2 21
;
_chemical_formula_sum "Si O2"
_cell_formula_units_Z 24
_cell_length_a 13.966901
_cell_length_b 9.875651
_cell_length_c 8.463973
_cell_angle_alpha 90.000000
_cell_angle_beta 90.000000
_cell_angle_gamma 90.000000
_cell_volume 1167.454754
_symmetry_space_group_name_H-M "P 2 2 21"
_symmetry_group_IT_number 17
_symmetry_cell_setting 'orthorhombic'
loop_
_space_group_symop_operation_xyz
x,y,z
-x,-y,1/2+z
x,-y,-z
-x,y,1/2-z
loop_
_atom_site_type_symbol
_atom_site_label
_atom_site_fract_x
_atom_site_fract_y
_atom_site_fract_z
Si Si1 0.398650 0.656658 0.814763
Si Si2 0.398508 0.341826 0.814195
Si Si3 0.792068 0.772946 0.185067
Si Si4 0.794258 0.274376 0.181794
Si Si5 0.894647 0.022765 0.314943
Si Si6 0.895499 0.475524 0.684914
O O1 0.500000 0.709404 0.750000
O O2 0.384966 0.499145 0.771312
O O3 0.316802 0.744458 0.728886
O O4 0.391846 0.682377 0.000120
O O5 0.500000 0.289242 0.750000
O O6 0.317883 0.254513 0.727517
O O7 0.818221 0.926176 0.228726
O O8 0.863355 0.677531 0.283788
O O9 0.810194 0.751335 0.001315
O O10 0.822302 0.427378 0.224374
O O11 0.862684 0.175776 0.280964
O O12 0.000000 0.993795 0.250000
O O13 0.893833 0.000000 0.500000
O O14 0.890910 0.500000 0.500000
O O15 0.000000 0.504151 0.750000
#
# Coordination Sequence:
#
# PCOD8155505 Si02
#       6
#     4   4   4   4   4   4
#     4  10  20  36  61  93 129 166 207 255 312 371
#     4  10  20  36  61  93 129 166 207 255 312 371
#     4  12  24  41  64  93 126 164 209 258 313 372
#     4  12  24  41  64  93 126 164 209 258 313 372
#     4  12  26  46  67  90 125 168 212 258 314 378
#     4  12  24  40  61  90 123 160 206 260 314 368
#
# _framework density 20.557542000000002
#
# number of rings (size 3 to 8) (size 9 to 14) (size 15 to 20)
#    0.000    0.667    1.667    8.000    0.000    1.333 
#    0.000    0.833    0.000    0.000    0.000    0.000 
#    0.000    0.000    0.000    0.000    0.000    0.000 
#
# Total GULP energy -297810.669545 kJ/mol
# GULP energy per Si atom -12408.777898 kJ/mol
# Density = 2.051075 g / cm^3
# Si number density = 20.557542 Si / 1000 Ang^3
#
#
#
# Elastic Constant Matrix: (Units=GPa)
#
#
# Indices 1 2 3 4 5 6 
#
# 1 138.4211 18.9046 35.8849 0.0000 0.0000 0.0000
# 2 18.9046 50.1412 7.4206 0.0000 0.0000 0.0000
# 3 35.8849 7.4206 118.9305 0.0000 0.0000 0.0000
# 4 0.0000 0.0000 0.0000 56.9150 0.0000 0.0000
# 5 0.0000 0.0000 0.0000 0.0000 3.4821 0.0000
# 6 0.0000 0.0000 0.0000 0.0000 0.0000 36.1672
#
#
#
# Elastic Compliance Matrix: (Units=1/GPa)
#
#
# Indices 1 2 3 4 5 6 
#
# 1 0.008197 -0.002750 -0.002302 0.000000 0.000000 0.000000
# 2 -0.002750 0.021052 -0.000484 0.000000 0.000000 0.000000
# 3 -0.002302 -0.000484 0.009133 0.000000 0.000000 0.000000
# 4 0.000000 0.000000 0.000000 0.017570 0.000000 0.000000
# 5 0.000000 0.000000 0.000000 0.000000 0.287180 0.000000
# 6 0.000000 0.000000 0.000000 0.000000 0.000000 0.027649
#
#
# Mechanical properties :
#
#
# Convention : Reuss Voigt Hill
#
# Bulk Modulus (GPa) = 36.61502 47.99032 42.30267
# Shear Modulus (GPa) = 12.78921 35.66503 24.22712
#
# Velocity S-wave (km/s) = 2.49693 4.16972 3.43666
# Velocity P-wave (km/s) = 5.11494 6.82474 6.03074
#
# Compressibility (1/GPa) = 0.02731120
#
# Stress axis : x y z
#
# Youngs Moduli (GPa) = 122.00270 47.50140 109.49409
#
# Poissons Ratio (x) = 0.13061 0.25201
# Poissons Ratio (y) = 0.33547 0.05298
# Poissons Ratio (z) = 0.28080 0.02298
#
# Static dielectric constant tensor:
#      x y z
#    x 3.770380 0.000000 0.000000 
#    y 0.000000 4.031640 0.000000 
#    z 0.000000 0.000000 3.606960 
# 
# 
# High freq. dielectric constant tensor:
#      x y z
#    x 1.821490 0.000000 0.000000 
#    y 0.000000 1.782810 0.000000 
#    z 0.000000 0.000000 1.823420 
# 
# From -- ./inp_files/5130.got.cif
#   From: 2010.03.12/outbox.cif.g09.slc.cpg/sg17_3_cif.got.tgz:5130.got - 2010.04.10 18:46:23.
