data_PCOD8155211
_publ_section_title
;
Structure prediction by ZEFSAII (Michael W. Deem and Ramdas Pophale) SiO2 
 PCOD8155211
Probable space group: P 2 2 2
;
_chemical_formula_sum "Si O2"
_cell_formula_units_Z 32
_cell_length_a 11.732869
_cell_length_b 5.129047
_cell_length_c 30.420526
_cell_angle_alpha 90.000000
_cell_angle_beta 90.000000
_cell_angle_gamma 90.000000
_cell_volume 1830.659694
_symmetry_space_group_name_H-M "P 2 2 2"
_symmetry_group_IT_number 16
_symmetry_cell_setting 'orthorhombic'
loop_
_space_group_symop_operation_xyz
x,y,z
-x,-y,z
x,-y,-z
-x,y,-z
loop_
_atom_site_type_symbol
_atom_site_label
_atom_site_fract_x
_atom_site_fract_y
_atom_site_fract_z
Si Si1 0.631219 0.471621 0.714485
Si Si2 0.765782 0.025798 0.306498
Si Si3 0.129614 0.957843 0.215841
Si Si4 0.075686 0.246678 0.617874
Si Si5 0.872136 0.254052 0.480389
Si Si6 0.261971 0.443419 0.194654
Si Si7 0.635990 0.001211 0.049593
Si Si8 0.634975 0.499703 0.899243
O O1 0.500000 0.500000 0.701158
O O2 0.675160 0.761464 0.707479
O O3 0.646555 0.406649 0.766087
O O4 0.698253 0.249640 0.685431
O O5 0.856878 0.978113 0.267683
O O6 0.830649 0.151014 0.347644
O O7 0.168547 0.663821 0.205805
O O8 0.201547 0.165343 0.187571
O O9 0.000000 0.000000 0.202244
O O10 0.136124 0.299384 0.571677
O O11 0.000000 0.500000 0.633397
O O12 0.000000 0.000000 0.608044
O O13 0.804685 0.500000 0.500000
O O14 0.000000 0.252331 0.500000
O O15 0.808923 0.000000 0.500000
O O16 0.327190 0.519072 0.150837
O O17 0.683614 0.753737 0.076173
O O18 0.500000 0.000000 0.048766
O O19 0.683844 0.254184 0.074323
O O20 0.683917 0.000000 0.000000
O O21 0.500000 0.500000 0.900214
#
# Coordination Sequence:
#
# PCOD8155211 Si02
#       8
#     4   4   4   4   4   4   4   4
#     4  10  20  37  53  68  99 132 165 216 255 282
#     4  10  22  33  49  77  95 129 179 197 240 307
#     4  10  20  35  49  66 100 130 158 201 244 283
#     4  12  20  30  49  71 106 140 161 201 236 297
#     4  10  16  29  43  66  97 137 163 183 240 293
#     4  10  20  32  51  74  93 125 170 202 238 293
#     4   9  17  28  43  65  98 134 155 181 238 301
#     4  10  18  29  46  70  99 125 159 200 233 281
#
# _framework density 17.480036999999999
#
# number of rings (size 3 to 8) (size 9 to 14) (size 15 to 20)
#    0.000    1.875    2.500    3.375    0.000    3.500 
#    0.000    3.750    0.000    0.000    0.000    0.000 
#    0.000   42.500    0.000    0.000    0.000    0.000 
#
# Total GULP energy -396588.409767 kJ/mol
# GULP energy per Si atom -12393.387805 kJ/mol
# Density = 1.744025 g / cm^3
# Si number density = 17.480037 Si / 1000 Ang^3
#
#
#
# Elastic Constant Matrix: (Units=GPa)
#
#
# Indices 1 2 3 4 5 6 
#
# 1 38.8630 19.9342 16.3526 0.0000 0.0000 0.0000
# 2 19.9342 127.2122 30.5228 0.0000 0.0000 0.0000
# 3 16.3526 30.5228 103.4914 0.0000 0.0000 0.0000
# 4 0.0000 0.0000 0.0000 32.4648 0.0000 0.0000
# 5 0.0000 0.0000 0.0000 0.0000 22.8681 0.0000
# 6 0.0000 0.0000 0.0000 0.0000 0.0000 16.5433
#
#
#
# Elastic Compliance Matrix: (Units=1/GPa)
#
#
# Indices 1 2 3 4 5 6 
#
# 1 0.029114 -0.003722 -0.003503 0.000000 0.000000 0.000000
# 2 -0.003722 0.008935 -0.002047 0.000000 0.000000 0.000000
# 3 -0.003503 -0.002047 0.010820 0.000000 0.000000 0.000000
# 4 0.000000 0.000000 0.000000 0.030803 0.000000 0.000000
# 5 0.000000 0.000000 0.000000 0.000000 0.043729 0.000000
# 6 0.000000 0.000000 0.000000 0.000000 0.000000 0.060448
#
#
# Mechanical properties :
#
#
# Convention : Reuss Voigt Hill
#
# Bulk Modulus (GPa) = 32.97489 44.79845 38.88667
# Shear Modulus (GPa) = 23.52932 27.89234 25.71083
#
# Velocity S-wave (km/s) = 3.67286 3.99892 3.83935
# Velocity P-wave (km/s) = 6.07386 6.85607 6.47679
#
# Compressibility (1/GPa) = 0.03032610
#
# Stress axis : x y z
#
# Youngs Moduli (GPa) = 34.34736 111.91578 92.42247
#
# Poissons Ratio (x) = 0.41653 0.32372
# Poissons Ratio (y) = 0.12783 0.18921
# Poissons Ratio (z) = 0.12031 0.22912
#
# Static dielectric constant tensor:
#      x y z
#    x 2.741550 0.000000 0.000000 
#    y 0.000000 -1.427010 0.000000 
#    z 0.000000 0.000000 3.288680 
# 
# 
# High freq. dielectric constant tensor:
#      x y z
#    x 1.617210 0.000000 0.000000 
#    y 0.000000 1.708400 0.000000 
#    z 0.000000 0.000000 1.670560 
# 
# From -- ./inp_files/9671.got.cif
#   From: 2010.03.12/outbox.cif.g09.slc.cpg/sg16_5_cif.got.tgz:9671.got - 2010.03.31 00:51:45.
