data_PCOD8155350
_publ_section_title
;
Structure prediction by ZEFSAII (Michael W. Deem and Ramdas Pophale) SiO2 
 PCOD8155350
Probable space group: P 2 2 2
;
_chemical_formula_sum "Si O2"
_cell_formula_units_Z 19
_cell_length_a 12.005889
_cell_length_b 7.483995
_cell_length_c 9.462798
_cell_angle_alpha 90.000000
_cell_angle_beta 90.000000
_cell_angle_gamma 90.000000
_cell_volume 850.251451
_symmetry_space_group_name_H-M "P 2 2 2"
_symmetry_group_IT_number 16
_symmetry_cell_setting 'orthorhombic'
loop_
_space_group_symop_operation_xyz
x,y,z
-x,-y,z
x,-y,-z
-x,y,-z
loop_
_atom_site_type_symbol
_atom_site_label
_atom_site_fract_x
_atom_site_fract_y
_atom_site_fract_z
Si Si1 0.810455 0.170529 0.672691
Si Si2 0.500000 0.000000 0.500000
Si Si3 0.875756 0.295353 0.967772
Si Si4 0.500000 0.000000 0.000000
Si Si5 0.000000 0.000000 0.500000
Si Si6 0.651373 0.318062 0.440184
Si Si7 0.302958 0.846347 0.176064
O O1 0.844706 0.288858 0.804435
O O2 0.745559 0.284828 0.556192
O O3 0.731807 0.008865 0.721350
O O4 0.925406 0.117350 0.602073
O O5 0.572984 0.143146 0.412704
O O6 0.862826 0.500000 0.000000
O O7 0.790790 0.175419 0.057238
O O8 0.000000 0.223754 0.000000
O O9 0.421628 0.123016 0.901032
O O10 0.592580 0.500000 0.500000
O O11 0.695472 0.331807 0.277776
#
# Coordination Sequence:
#
# PCOD8155350 Si02
#       7
#     4   1   4   1   1   4   4
#     4  12  23  44  71 103 145 189 248 299 377 454
#     4  12  22  48  68  98 134 184 232 302 354 428
#     4  11  25  44  69 103 146 190 245 310 378 456
#     4  12  26  44  78 100 150 202 254 306 376 436
#     4  12  22  40  76 110 144 198 252 312 384 460
#     4  12  26  45  73 105 144 188 239 304 370 435
#     4  12  23  47  72 103 144 195 247 308 366 454
#
# _framework density 22.346329999999998
#
# number of rings (size 3 to 8) (size 9 to 14) (size 15 to 20)
#    0.000    0.211    6.316    3.474    0.000    0.842 
#    0.000    0.526    0.000    0.000    0.000    0.000 
#    0.000    0.000    0.000    0.000    0.000    0.000 
#
# Total GULP energy -235427.488167 kJ/mol
# GULP energy per Si atom -12390.920430 kJ/mol
# Density = 2.229547 g / cm^3
# Si number density = 22.346330 Si / 1000 Ang^3
#
#
#
# Elastic Constant Matrix: (Units=GPa)
#
#
# Indices 1 2 3 4 5 6 
#
# 1 157.0053 44.1243 72.7936 0.0000 0.0000 0.0000
# 2 44.1243 105.7777 48.0588 0.0000 0.0000 0.0000
# 3 72.7936 48.0588 189.7173 0.0000 0.0000 0.0000
# 4 0.0000 0.0000 0.0000 48.8834 0.0000 0.0000
# 5 0.0000 0.0000 0.0000 0.0000 63.3745 0.0000
# 6 0.0000 0.0000 0.0000 0.0000 0.0000 12.9882
#
#
#
# Elastic Compliance Matrix: (Units=1/GPa)
#
#
# Indices 1 2 3 4 5 6 
#
# 1 0.008195 -0.002249 -0.002575 0.000000 0.000000 0.000000
# 2 -0.002249 0.011300 -0.002000 0.000000 0.000000 0.000000
# 3 -0.002575 -0.002000 0.006765 0.000000 0.000000 0.000000
# 4 0.000000 0.000000 0.000000 0.020457 0.000000 0.000000
# 5 0.000000 0.000000 0.000000 0.000000 0.015779 0.000000
# 6 0.000000 0.000000 0.000000 0.000000 0.000000 0.076993
#
#
# Mechanical properties :
#
#
# Convention : Reuss Voigt Hill
#
# Bulk Modulus (GPa) = 79.27417 86.93930 83.10674
# Shear Modulus (GPa) = 31.77813 44.21746 37.99780
#
# Velocity S-wave (km/s) = 3.77513 4.45312 4.12807
# Velocity P-wave (km/s) = 7.38610 8.08890 7.74547
#
# Compressibility (1/GPa) = 0.01261445
#
# Stress axis : x y z
#
# Youngs Moduli (GPa) = 122.02704 88.49267 147.80882
#
# Poissons Ratio (x) = 0.19899 0.38057
# Poissons Ratio (y) = 0.27439 0.29559
# Poissons Ratio (z) = 0.31419 0.17697
#
# Static dielectric constant tensor:
#      x y z
#    x 4.254350 0.000000 0.000000 
#    y 0.000000 3.535170 0.000000 
#    z 0.000000 0.000000 4.488460 
# 
# 
# High freq. dielectric constant tensor:
#      x y z
#    x 1.893910 0.000000 0.000000 
#    y 0.000000 1.866210 0.000000 
#    z 0.000000 0.000000 1.905950 
# 
# From -- ./inp_files/4563.got.cif
#   From: 2010.03.12/outbox.cif.g09.slc.cpg/sg16_3_cif.got.tgz:4563.got - 2010.03.31 00:51:45.
