data_PCOD8155056
_publ_section_title
;
Structure prediction by ZEFSAII (Michael W. Deem and Ramdas Pophale) SiO2 
 PCOD8155056
Probable space group: C 2/C
;
_chemical_formula_sum "Si O2"
_cell_formula_units_Z 52
_cell_length_a 10.949948
_cell_length_b 15.745429
_cell_length_c 14.550290
_cell_angle_alpha 90.000000
_cell_angle_beta 112.782754
_cell_angle_gamma 90.000000
_cell_volume 2312.914545
_symmetry_space_group_name_H-M "C 2/C"
_symmetry_group_IT_number 15
_symmetry_cell_setting 'monoclinic'
loop_
_space_group_symop_operation_xyz
x,y,z
-x,y,1/2-z
-x,-y,-z
x,-y,1/2+z
1/2+x,1/2+y,z
1/2-x,1/2+y,1/2-z
1/2-x,1/2-y,-z
1/2+x,1/2-y,1/2+z
loop_
_atom_site_type_symbol
_atom_site_label
_atom_site_fract_x
_atom_site_fract_y
_atom_site_fract_z
Si Si1 0.234467 0.545137 0.700323
Si Si2 0.500000 0.356886 0.250000
Si Si3 0.503945 0.835867 0.076883
Si Si4 0.754012 0.575067 0.132412
Si Si5 0.110239 0.721193 0.418662
Si Si6 0.005444 0.153824 0.357194
Si Si7 0.254769 0.053046 0.477700
O O1 0.382613 0.581663 0.748583
O O2 0.136819 0.622889 0.654807
O O3 0.197351 0.497283 0.783528
O O4 0.216288 0.474865 0.617135
O O5 0.540577 0.299970 0.348693
O O6 0.478236 0.754510 0.132316
O O7 0.516232 0.810515 0.973425
O O8 0.382724 0.899874 0.055089
O O9 0.868311 0.645101 0.148416
O O10 0.625782 0.624057 0.130182
O O11 0.721603 0.530860 0.026124
O O12 0.250000 0.750000 0.500000
O O13 0.129757 0.114478 0.445891
O O14 0.000000 0.124329 0.250000
#
# Coordination Sequence:
#
# PCOD8155056 Si02
#       7
#     8   4   8   8   8   8   8
#     4  12  26  47  70 109 143 191 245 304 363 435
#     4  12  26  44  78 104 146 194 250 294 366 444
#     4  12  28  48  73 102 155 185 248 305 372 444
#     4  12  26  46  77 104 149 190 246 309 365 441
#     4  12  25  49  75 109 146 198 247 307 374 448
#     4  12  26  48  73 105 145 189 245 300 367 447
#     4  12  27  48  72 106 145 194 239 306 373 432
#
# _framework density 22.482455999999999
#
# number of rings (size 3 to 8) (size 9 to 14) (size 15 to 20)
#    0.000    0.000    6.154    2.308    6.462    1.231 
#    0.000    0.000    0.000    0.000    0.000    0.000 
#    0.000    0.000    0.000    0.000    0.000    0.000 
#
# Total GULP energy -322640.597601 kJ/mol
# GULP energy per Si atom -12409.253754 kJ/mol
# Density = 2.243128 g / cm^3
# Si number density = 22.482456 Si / 1000 Ang^3
#
#
#
# Elastic Constant Matrix: (Units=GPa)
#
#
# Indices 1 2 3 4 5 6 
#
# 1 50.8950 14.3896 19.1596 0.0000 -0.8565 0.0000
# 2 14.3896 105.8239 20.5816 0.0000 3.5218 0.0000
# 3 19.1596 20.5816 78.5543 0.0000 -1.8513 0.0000
# 4 0.0000 0.0000 0.0000 48.9826 0.0000 -2.3928
# 5 -0.8565 3.5218 -1.8513 0.0000 38.3487 0.0000
# 6 0.0000 0.0000 0.0000 -2.3928 0.0000 46.5319
#
#
#
# Elastic Compliance Matrix: (Units=1/GPa)
#
#
# Indices 1 2 3 4 5 6 
#
# 1 0.022060 -0.002076 -0.004826 0.000000 0.000450 0.000000
# 2 -0.002076 0.010194 -0.002190 0.000000 -0.001088 0.000000
# 3 -0.004826 -0.002190 0.014500 0.000000 0.000793 0.000000
# 4 0.000000 0.000000 0.000000 0.020467 0.000000 0.001052
# 5 0.000450 -0.001088 0.000793 0.000000 0.026225 0.000000
# 6 0.000000 0.000000 0.000000 0.001052 0.000000 0.021545
#
#
# Mechanical properties :
#
#
# Convention : Reuss Voigt Hill
#
# Bulk Modulus (GPa) = 35.00274 38.17053 36.58664
# Shear Modulus (GPa) = 35.03930 38.84880 36.94405
#
# Velocity S-wave (km/s) = 3.95209 4.16138 4.05809
# Velocity P-wave (km/s) = 6.03557 6.33279 6.18596
#
# Compressibility (1/GPa) = 0.02856919
#
# Stress axis : x y z
#
# Youngs Moduli (GPa) = 45.33185 98.09560 68.96727
#
# Poissons Ratio (x) = 0.20365 0.33283
# Poissons Ratio (y) = 0.09411 0.15105
# Poissons Ratio (z) = 0.21876 0.21485
#
# Static dielectric constant tensor:
#      x y z
#    x 4.119690 0.000000 -0.082530 
#    y 0.000000 4.244260 0.000000 
#    z -0.082530 0.000000 4.291330 
# 
# 
# High freq. dielectric constant tensor:
#      x y z
#    x 1.888630 0.000000 -0.003730 
#    y 0.000000 1.908160 0.000000 
#    z -0.003730 0.000000 1.890570 
# 
# From -- ./inp_files/144145.got.cif
#   From: 2010.06.25/outbox.cif.g09.slc.cpg/sg15_73_cif.got.tgz:144145.got - 2010.06.28 07:06:18.
