data_PCOD8155768
_publ_section_title
;
Structure prediction by ZEFSAII (Michael W. Deem and Ramdas Pophale) SiO2 
 PCOD8155768
Probable space group: P 2 2 21
;
_chemical_formula_sum "Si O2"
_cell_formula_units_Z 12
_cell_length_a 7.767518
_cell_length_b 10.777713
_cell_length_c 5.523518
_cell_angle_alpha 90.000000
_cell_angle_beta 90.000000
_cell_angle_gamma 90.000000
_cell_volume 462.407273
_symmetry_space_group_name_H-M "P 2 2 21"
_symmetry_group_IT_number 17
_symmetry_cell_setting 'orthorhombic'
loop_
_space_group_symop_operation_xyz
x,y,z
-x,-y,1/2+z
x,-y,-z
-x,y,1/2-z
loop_
_atom_site_type_symbol
_atom_site_label
_atom_site_fract_x
_atom_site_fract_y
_atom_site_fract_z
Si Si1 0.822221 0.367919 0.899428
Si Si2 0.819705 0.000000 0.500000
Si Si3 0.500000 0.779562 0.250000
Si Si4 0.382523 0.000000 0.500000
Si Si5 0.000000 0.796603 0.750000
O O1 0.669885 0.306883 0.738821
O O2 0.000000 0.381445 0.750000
O O3 0.759665 0.500000 0.000000
O O4 0.847496 0.285835 0.139921
O O5 0.937430 0.121793 0.479124
O O6 0.722978 0.007270 0.755166
O O7 0.500647 0.873876 0.486654
#
# Coordination Sequence:
#
# PCOD8155768 Si02
#       5
#     4   2   2   2   2
#     4  12  28  56  86 123 177 239 308 375 447 546
#     4  12  26  48  84 129 175 230 287 383 444 539
#     4  12  28  54  82 130 174 236 296 374 458 546
#     4  12  26  52  80 127 181 220 297 379 444 527
#     4  12  26  50  88 128 176 238 304 374 472 536
#
# _framework density 25.951149999999998
#
# number of rings (size 3 to 8) (size 9 to 14) (size 15 to 20)
#    0.000    0.000    5.000    4.000    2.333    1.333 
#   12.000    0.000    0.000    0.000    0.000    0.000 
#    0.000    0.000    0.000    0.000    0.000    0.000 
#
# Total GULP energy -148673.440861 kJ/mol
# GULP energy per Si atom -12389.453405 kJ/mol
# Density = 2.589208 g / cm^3
# Si number density = 25.951150 Si / 1000 Ang^3
#
#
#
# Elastic Constant Matrix: (Units=GPa)
#
#
# Indices 1 2 3 4 5 6 
#
# 1 156.7546 89.5501 67.9362 0.0000 0.0000 0.0000
# 2 89.5501 219.4301 73.4375 0.0000 0.0000 0.0000
# 3 67.9362 73.4375 173.6336 0.0000 0.0000 0.0000
# 4 0.0000 0.0000 0.0000 43.8143 0.0000 0.0000
# 5 0.0000 0.0000 0.0000 0.0000 69.2326 0.0000
# 6 0.0000 0.0000 0.0000 0.0000 0.0000 92.1665
#
#
#
# Elastic Compliance Matrix: (Units=1/GPa)
#
#
# Indices 1 2 3 4 5 6 
#
# 1 0.009047 -0.002921 -0.002304 0.000000 0.000000 0.000000
# 2 -0.002921 0.006252 -0.001501 0.000000 0.000000 0.000000
# 3 -0.002304 -0.001501 0.007296 0.000000 0.000000 0.000000
# 4 0.000000 0.000000 0.000000 0.022824 0.000000 0.000000
# 5 0.000000 0.000000 0.000000 0.000000 0.014444 0.000000
# 6 0.000000 0.000000 0.000000 0.000000 0.000000 0.010850
#
#
# Mechanical properties :
#
#
# Convention : Reuss Voigt Hill
#
# Bulk Modulus (GPa) = 109.39286 112.40730 110.90008
# Shear Modulus (GPa) = 57.33182 62.30230 59.81706
#
# Velocity S-wave (km/s) = 4.70533 4.90506 4.80624
# Velocity P-wave (km/s) = 8.47143 8.68841 8.58061
#
# Compressibility (1/GPa) = 0.00914136
#
# Stress axis : x y z
#
# Youngs Moduli (GPa) = 110.53857 159.95658 137.06495
#
# Poissons Ratio (x) = 0.46720 0.31583
# Poissons Ratio (y) = 0.32286 0.20578
# Poissons Ratio (z) = 0.25471 0.24015
#
# Static dielectric constant tensor:
#      x y z
#    x 5.371740 0.000000 0.000000 
#    y 0.000000 5.949630 0.000000 
#    z 0.000000 0.000000 4.533890 
# 
# 
# High freq. dielectric constant tensor:
#      x y z
#    x 2.049210 0.000000 0.000000 
#    y 0.000000 2.053290 0.000000 
#    z 0.000000 0.000000 2.043710 
# 
# From -- ./inp_files/558.got.cif
#   From: 2010.03.12/outbox.cif.g09.slc.cpg/sg17_1_cif.got.tgz:558.got - 2010.04.10 18:46:23.
