data_PCOD8155194
_publ_section_title
;
Structure prediction by ZEFSAII (Michael W. Deem and Ramdas Pophale) SiO2 
 PCOD8155194
Probable space group: C 2/C
;
_chemical_formula_sum "Si O2"
_cell_formula_units_Z 64
_cell_length_a 20.380469
_cell_length_b 26.244683
_cell_length_c 18.117378
_cell_angle_alpha 90.000000
_cell_angle_beta 27.241022
_cell_angle_gamma 90.000000
_cell_volume 4435.724829
_symmetry_space_group_name_H-M "C 2/C"
_symmetry_group_IT_number 15
_symmetry_cell_setting 'monoclinic'
loop_
_space_group_symop_operation_xyz
x,y,z
-x,y,1/2-z
-x,-y,-z
x,-y,1/2+z
1/2+x,1/2+y,z
1/2-x,1/2+y,1/2-z
1/2-x,1/2-y,-z
1/2+x,1/2-y,1/2+z
loop_
_atom_site_type_symbol
_atom_site_label
_atom_site_fract_x
_atom_site_fract_y
_atom_site_fract_z
Si Si1 0.833563 0.998743 0.831534
Si Si2 0.666714 0.600575 0.754832
Si Si3 0.833698 0.998632 0.001255
Si Si4 0.331757 0.700320 0.002793
Si Si5 0.337792 0.052244 0.706761
Si Si6 0.338008 0.947835 0.617375
Si Si7 0.332929 0.600453 0.088641
Si Si8 0.166982 0.799484 0.167722
O O1 0.787536 0.997003 0.962502
O O2 0.742136 0.956040 0.880137
O O3 0.999899 0.985500 0.654245
O O4 0.799454 0.055025 0.835625
O O5 0.756335 0.595049 0.740576
O O6 0.716285 0.652594 0.666805
O O7 0.499810 0.601253 0.942629
O O8 0.742541 0.955848 0.135249
O O9 0.799198 0.054831 0.065913
O O10 0.282832 0.652295 0.099963
O O11 0.248983 0.749802 0.115318
O O12 0.290835 0.688947 0.958998
O O13 0.499336 0.710715 0.843534
O O14 0.499910 0.070242 0.559707
O O15 0.333343 0.000020 0.666670
O O16 0.256461 0.904997 0.746496
#
# Coordination Sequence:
#
# PCOD8155194 Si02
#       8
#     8   8   8   8   8   8   8   8
#     4   9  16  26  41  59  78 103 135 166 195 231
#     4   9  16  27  42  57  76 105 138 167 195 230
#     4   9  16  26  41  59  78 103 135 166 195 231
#     4   9  17  28  41  58  80 105 134 168 202 233
#     4   9  17  27  38  55  79 104 130 162 199 236
#     4   9  17  27  38  55  79 104 130 162 199 236
#     4   9  16  27  42  57  76 105 138 167 195 230
#     4   9  17  28  41  58  80 105 134 168 202 233
#
# _framework density 14.428307
#
# number of rings (size 3 to 8) (size 9 to 14) (size 15 to 20)
#    0.000    3.000    0.000    1.500    0.000    7.500 
#    0.000    0.000    0.000    4.500    0.000    0.000 
#    0.000    1.000    0.000    3.250    0.000    4.000 
#
# Total GULP energy -396804.686159 kJ/mol
# GULP energy per Si atom -12400.146442 kJ/mol
# Density = 1.439547 g / cm^3
# Si number density = 14.428307 Si / 1000 Ang^3
#
#
#
# Elastic Constant Matrix: (Units=GPa)
#
#
# Indices 1 2 3 4 5 6 
#
# 1 100.0855 53.2989 54.0414 0.0705 5.8268 -0.0367
# 2 53.2989 85.2582 48.6864 0.0218 4.0676 -0.0138
# 3 54.0414 48.6864 82.9890 0.1483 9.3189 -0.0930
# 4 0.0705 0.0218 0.1483 22.8098 -0.0808 1.7732
# 5 5.8268 4.0676 9.3189 -0.0808 16.4881 0.0471
# 6 -0.0367 -0.0138 -0.0930 1.7732 0.0471 24.8143
#
#
#
# Elastic Compliance Matrix: (Units=1/GPa)
#
#
# Indices 1 2 3 4 5 6 
#
# 1 0.017648 -0.006730 -0.007506 0.000000 -0.000334 -0.000005
# 2 -0.006730 0.020244 -0.007688 0.000060 0.001730 -0.000035
# 3 -0.007506 -0.007688 0.022357 -0.000151 -0.008087 0.000095
# 4 0.000000 0.000060 -0.000151 0.044088 0.000296 -0.003152
# 5 -0.000334 0.001730 -0.008087 0.000296 0.064914 -0.000174
# 6 -0.000005 -0.000035 0.000095 -0.003152 -0.000174 0.040525
#
#
# Mechanical properties :
#
#
# Convention : Reuss Voigt Hill
#
# Bulk Modulus (GPa) = 60.97793 64.48734 62.73263
# Shear Modulus (GPa) = 19.29815 20.30949 19.80382
#
# Velocity S-wave (km/s) = 3.66118 3.75589 3.70884
# Velocity P-wave (km/s) = 7.76059 7.97502 7.86854
#
# Compressibility (1/GPa) = 0.01639938
#
# Stress axis : x y z
#
# Youngs Moduli (GPa) = 56.66360 49.39667 44.72920
#
# Poissons Ratio (x) = 0.33245 0.33575
# Poissons Ratio (y) = 0.38136 0.34389
# Poissons Ratio (z) = 0.42534 0.37978
#
# Static dielectric constant tensor:
#      x y z
#    x 2.809740 -0.000130 -0.033110 
#    y -0.000130 2.637110 0.000160 
#    z -0.033110 0.000160 2.847080 
# 
# 
# High freq. dielectric constant tensor:
#      x y z
#    x 1.543510 -0.000010 -0.007000 
#    y -0.000010 1.518160 0.000020 
#    z -0.007000 0.000020 1.551230 
# 
# From -- ./inp_files/58922.got.cif
#   From: 2010.06.25/outbox.cif.g09.slc.cpg/sg15_30_cif.got.tgz:58922.got - 2010.06.28 07:06:18.
