data_PCOD8155131
_publ_section_title
;
Structure prediction by ZEFSAII (Michael W. Deem and Ramdas Pophale) SiO2 
 PCOD8155131
Probable space group: C 2/C
;
_chemical_formula_sum "Si O2"
_cell_formula_units_Z 40
_cell_length_a 7.887992
_cell_length_b 14.781468
_cell_length_c 16.268818
_cell_angle_alpha 90.000000
_cell_angle_beta 120.122695
_cell_angle_gamma 90.000000
_cell_volume 1640.712134
_symmetry_space_group_name_H-M "C 2/C"
_symmetry_group_IT_number 15
_symmetry_cell_setting 'monoclinic'
loop_
_space_group_symop_operation_xyz
x,y,z
-x,y,1/2-z
-x,-y,-z
x,-y,1/2+z
1/2+x,1/2+y,z
1/2-x,1/2+y,1/2-z
1/2-x,1/2-y,-z
1/2+x,1/2-y,1/2+z
loop_
_atom_site_type_symbol
_atom_site_label
_atom_site_fract_x
_atom_site_fract_y
_atom_site_fract_z
Si Si1 0.276795 0.770159 0.229502
Si Si2 0.359820 0.919522 0.494072
Si Si3 0.279688 0.624679 0.373891
Si Si4 0.429662 0.749779 0.984677
Si Si5 0.439088 0.543555 0.822160
O O1 0.500000 0.769764 0.250000
O O2 0.238451 0.705892 0.299189
O O3 0.137402 0.733952 0.124137
O O4 0.201989 0.871164 0.230627
O O5 0.388143 0.897168 0.598959
O O6 0.422744 0.831366 0.456910
O O7 0.133171 0.938134 0.421762
O O8 0.500000 0.000000 0.500000
O O9 0.465025 0.654178 0.475092
O O10 0.311785 0.531422 0.335927
O O11 0.250000 0.750000 0.000000
O O12 0.500000 0.501373 0.750000
#
# Coordination Sequence:
#
# PCOD8155131 Si02
#       5
#     8   8   8   8   8
#     4  12  28  50  81 117 156 209 267 330 409 478
#     4  12  29  50  80 115 159 216 269 329 402 473
#     4  12  27  52  80 113 162 208 265 337 400 478
#     4  12  26  49  80 109 159 211 267 329 398 474
#     4  12  29  50  78 120 160 205 273 327 399 487
#
# _framework density 24.379659
#
# number of rings (size 3 to 8) (size 9 to 14) (size 15 to 20)
#    0.000    0.000    4.000    4.200    8.400    0.000 
#    0.000    0.000    0.000    0.000    0.000    0.000 
#    0.000    0.000    0.000    0.000    0.000    0.000 
#
# Total GULP energy -247901.236857 kJ/mol
# GULP energy per Si atom -12395.061843 kJ/mol
# Density = 2.432417 g / cm^3
# Si number density = 24.379659 Si / 1000 Ang^3
#
#
#
# Elastic Constant Matrix: (Units=GPa)
#
#
# Indices 1 2 3 4 5 6 
#
# 1 119.4887 77.9269 49.3302 0.0000 -36.9164 0.0000
# 2 77.9269 169.7851 54.1837 0.0000 -16.6812 0.0000
# 3 49.3302 54.1837 131.5759 0.0000 -14.7590 0.0000
# 4 0.0000 0.0000 0.0000 43.9350 0.0000 -7.3357
# 5 -36.9164 -16.6812 -14.7590 0.0000 45.8996 0.0000
# 6 0.0000 0.0000 0.0000 -7.3357 0.0000 48.2004
#
#
#
# Elastic Compliance Matrix: (Units=1/GPa)
#
#
# Indices 1 2 3 4 5 6 
#
# 1 0.016281 -0.005627 -0.002643 0.000000 0.010200 0.000000
# 2 -0.005627 0.008845 -0.001743 0.000000 -0.001872 0.000000
# 3 -0.002643 -0.001743 0.009336 0.000000 0.000243 0.000000
# 4 0.000000 0.000000 0.000000 0.023354 0.000000 0.003554
# 5 0.010200 -0.001872 0.000243 0.000000 0.029388 0.000000
# 6 0.000000 0.000000 0.000000 0.003554 0.000000 0.021288
#
#
# Mechanical properties :
#
#
# Convention : Reuss Voigt Hill
#
# Bulk Modulus (GPa) = 69.26653 87.08124 78.17389
# Shear Modulus (GPa) = 37.50121 43.56759 40.53440
#
# Velocity S-wave (km/s) = 3.92627 4.23193 4.08196
# Velocity P-wave (km/s) = 7.00196 7.72498 7.37234
#
# Compressibility (1/GPa) = 0.01443699
#
# Stress axis : x y z
#
# Youngs Moduli (GPa) = 61.42076 113.06203 107.11424
#
# Poissons Ratio (x) = 0.63621 0.28307
# Poissons Ratio (y) = 0.34562 0.18665
# Poissons Ratio (z) = 0.16232 0.19702
#
# Static dielectric constant tensor:
#      x y z
#    x 4.326200 0.000000 0.239670 
#    y 0.000000 4.045290 0.000000 
#    z 0.239670 0.000000 3.837430 
# 
# 
# High freq. dielectric constant tensor:
#      x y z
#    x 1.983770 0.000000 -0.015270 
#    y 0.000000 1.976060 0.000000 
#    z -0.015270 0.000000 1.983420 
# 
# From -- ./inp_files/189061.got.cif
#   From: 2010.06.25/outbox.cif.g09.slc.cpg/sg15_95_cif.got.tgz:189061.got - 2010.06.28 07:06:18.
