data_PCOD8155293
_publ_section_title
;
Structure prediction by ZEFSAII (Michael W. Deem and Ramdas Pophale) SiO2 
 PCOD8155293
Probable space group: P 2 2 2
;
_chemical_formula_sum "Si O2"
_cell_formula_units_Z 25
_cell_length_a 15.791776
_cell_length_b 14.366572
_cell_length_c 5.061597
_cell_angle_alpha 90.000000
_cell_angle_beta 90.000000
_cell_angle_gamma 90.000000
_cell_volume 1148.343173
_symmetry_space_group_name_H-M "P 2 2 2"
_symmetry_group_IT_number 16
_symmetry_cell_setting 'orthorhombic'
loop_
_space_group_symop_operation_xyz
x,y,z
-x,-y,z
x,-y,-z
-x,y,-z
loop_
_atom_site_type_symbol
_atom_site_label
_atom_site_fract_x
_atom_site_fract_y
_atom_site_fract_z
Si Si1 0.676217 0.500000 0.000000
Si Si2 0.764186 0.106519 0.475112
Si Si3 0.589817 0.807609 0.570860
Si Si4 0.368791 0.697606 0.943304
Si Si5 0.082495 0.351237 0.341536
Si Si6 0.000000 0.500000 0.000000
Si Si7 0.795256 0.500000 0.500000
Si Si8 0.805768 0.782213 0.021288
O O1 0.613212 0.411401 0.984572
O O2 0.736006 0.496778 0.749663
O O3 0.664442 0.116074 0.400869
O O4 0.777453 0.141665 0.768852
O O5 0.791709 0.000000 0.500000
O O6 0.821492 0.164239 0.260181
O O7 0.500000 0.856516 0.500000
O O8 0.613533 0.729791 0.354502
O O9 0.575314 0.756267 0.850000
O O10 0.269635 0.709311 0.018180
O O11 0.062051 0.440667 0.172996
O O12 0.153424 0.399788 0.528358
O O13 0.112152 0.269922 0.140797
O O14 0.000000 0.313735 0.500000
#
# Coordination Sequence:
#
# PCOD8155293 Si02
#       8
#     2   4   4   4   4   1   2   4
#     4  12  23  36  60  82 121 170 228 260 293 360
#     4  10  22  42  67  95 119 154 210 264 320 393
#     4  10  21  39  60  88 125 157 197 260 330 385
#     4  10  21  36  56  86 120 167 212 252 300 370
#     4  12  25  37  58  95 136 175 210 261 323 378
#     4  12  24  40  56  94 140 166 214 254 310 370
#     4  12  23  36  58  86 129 168 210 270 303 356
#     4  10  23  38  63  90 127 163 203 259 320 375
#
# _framework density 21.770493999999999
#
# number of rings (size 3 to 8) (size 9 to 14) (size 15 to 20)
#    0.000    1.280    3.200    2.400    6.720    0.320 
#    0.000    2.400    0.000    6.240    0.000    0.000 
#    0.000    0.000    0.000    0.000    0.000    0.000 
#
# Total GULP energy -309888.584883 kJ/mol
# GULP energy per Si atom -12395.543395 kJ/mol
# Density = 2.172094 g / cm^3
# Si number density = 21.770494 Si / 1000 Ang^3
#
#
#
# Elastic Constant Matrix: (Units=GPa)
#
#
# Indices 1 2 3 4 5 6 
#
# 1 66.4531 7.0973 10.4556 0.0000 0.0000 0.0000
# 2 7.0973 89.3014 7.0358 0.0000 0.0000 0.0000
# 3 10.4556 7.0358 100.5421 0.0000 0.0000 0.0000
# 4 0.0000 0.0000 0.0000 32.5528 0.0000 0.0000
# 5 0.0000 0.0000 0.0000 0.0000 46.0821 0.0000
# 6 0.0000 0.0000 0.0000 0.0000 0.0000 13.0327
#
#
#
# Elastic Compliance Matrix: (Units=1/GPa)
#
#
# Indices 1 2 3 4 5 6 
#
# 1 0.015406 -0.001104 -0.001525 0.000000 0.000000 0.000000
# 2 -0.001104 0.011339 -0.000679 0.000000 0.000000 0.000000
# 3 -0.001525 -0.000679 0.010152 0.000000 0.000000 0.000000
# 4 0.000000 0.000000 0.000000 0.030719 0.000000 0.000000
# 5 0.000000 0.000000 0.000000 0.000000 0.021700 0.000000
# 6 0.000000 0.000000 0.000000 0.000000 0.000000 0.076730
#
#
# Mechanical properties :
#
#
# Convention : Reuss Voigt Hill
#
# Bulk Modulus (GPa) = 33.02301 33.94155 33.48228
# Shear Modulus (GPa) = 27.35877 33.78073 30.56975
#
# Velocity S-wave (km/s) = 3.54883 3.94340 3.75131
# Velocity P-wave (km/s) = 5.65631 6.02979 5.84604
#
# Compressibility (1/GPa) = 0.03028192
#
# Stress axis : x y z
#
# Youngs Moduli (GPa) = 64.90954 88.18916 98.50139
#
# Poissons Ratio (x) = 0.09739 0.15020
# Poissons Ratio (y) = 0.07168 0.06685
# Poissons Ratio (z) = 0.09898 0.05985
#
# Static dielectric constant tensor:
#      x y z
#    x 3.848360 0.000000 0.000000 
#    y 0.000000 3.663190 0.000000 
#    z 0.000000 0.000000 4.221070 
# 
# 
# High freq. dielectric constant tensor:
#      x y z
#    x 1.834800 0.000000 0.000000 
#    y 0.000000 1.830650 0.000000 
#    z 0.000000 0.000000 1.877980 
# 
# From -- ./inp_files/2057.got.cif
#   From: 2010.03.12/outbox.cif.g09.slc.cpg/sg16_2_cif.got.tgz:2057.got - 2010.03.31 00:51:45.
