data_PCOD8155838
_publ_section_title
;
Structure prediction by ZEFSAII (Michael W. Deem and Ramdas Pophale) SiO2 
 PCOD8155838
Probable space group: P 21 21 2
;
_chemical_formula_sum "Si O2"
_cell_formula_units_Z 20
_cell_length_a 5.033895
_cell_length_b 13.138521
_cell_length_c 15.460681
_cell_angle_alpha 90.000000
_cell_angle_beta 90.000000
_cell_angle_gamma 90.000000
_cell_volume 1022.537518
_symmetry_space_group_name_H-M "P 21 21 2"
_symmetry_group_IT_number 18
_symmetry_cell_setting 'orthorhombic'
loop_
_space_group_symop_operation_xyz
x,y,z
-x,-y,z
1/2+x,1/2-y,-z
1/2-x,1/2+y,-z
loop_
_atom_site_type_symbol
_atom_site_label
_atom_site_fract_x
_atom_site_fract_y
_atom_site_fract_z
Si Si1 0.022081 0.620769 0.043152
Si Si2 0.552388 0.190770 0.478359
Si Si3 0.522856 0.730611 0.111928
Si Si4 0.938005 0.390525 0.351692
Si Si5 0.060104 0.766904 0.693897
O O1 0.789413 0.666176 0.101302
O O2 0.000000 0.500000 0.033703
O O3 0.291464 0.650840 0.091051
O O4 0.010555 0.669589 0.947680
O O5 0.363543 0.285305 0.508611
O O6 0.472289 0.099675 0.543284
O O7 0.491878 0.174830 0.375547
O O8 0.505924 0.772873 0.209538
O O9 0.139251 0.306667 0.313565
O O10 0.000000 0.500000 0.309907
O O11 0.638965 0.359745 0.328147
#
# Coordination Sequence:
#
# PCOD8155838 Si02
#       5
#     4   4   4   4   4
#     4  10  21  37  54  74 104 135 166 210 261 310
#     4   8  16  30  45  62  91 126 150 180 229 277
#     4  10  21  35  54  78 101 133 172 209 257 308
#     4  10  19  30  47  72  99 126 159 199 242 286
#     4  10  19  32  49  70  97 126 160 200 241 289
#
# _framework density 19.559183999999998
#
# number of rings (size 3 to 8) (size 9 to 14) (size 15 to 20)
#    0.000    2.400    0.000    2.400    0.000    4.800 
#    0.000    1.000    0.000    0.000    0.000   19.600 
#    0.000    0.000    0.000    0.000    0.000    0.000 
#
# Total GULP energy -247838.748758 kJ/mol
# GULP energy per Si atom -12391.937438 kJ/mol
# Density = 1.951467 g / cm^3
# Si number density = 19.559184 Si / 1000 Ang^3
#
#
#
# Elastic Constant Matrix: (Units=GPa)
#
#
# Indices 1 2 3 4 5 6 
#
# 1 -2.8066 -23.3621 4.5753 0.0000 0.0000 0.0000
# 2 -23.3621 38.2973 13.9224 0.0000 0.0000 0.0000
# 3 4.5753 13.9224 161.8833 0.0000 0.0000 0.0000
# 4 0.0000 0.0000 0.0000 -7.1716 0.0000 0.0000
# 5 0.0000 0.0000 0.0000 0.0000 -75.3385 0.0000
# 6 0.0000 0.0000 0.0000 0.0000 0.0000 12.9501
#
#
#
# Elastic Compliance Matrix: (Units=1/GPa)
#
#
# Indices 1 2 3 4 5 6 
#
# 1 -0.055106 -0.035285 0.004592 0.000000 0.000000 0.000000
# 2 -0.035285 0.004361 0.000622 0.000000 0.000000 0.000000
# 3 0.004592 0.000622 0.005994 0.000000 0.000000 0.000000
# 4 0.000000 0.000000 0.000000 -0.139439 0.000000 0.000000
# 5 0.000000 0.000000 0.000000 0.000000 -0.013273 0.000000
# 6 0.000000 0.000000 0.000000 0.000000 0.000000 0.077220
#
#
# Mechanical properties :
#
#
# Convention : Reuss Voigt Hill
#
# Bulk Modulus (GPa) = -9.53357 20.84947 5.65795
# Shear Modulus (GPa) = -52.59482 -0.42945 -26.51213
#
# Velocity S-wave (km/s) = -5.19119 -0.46908 -3.68568
# Velocity P-wave (km/s) = 6.38875 3.22327 3.90043
#
# Compressibility (1/GPa) = -0.10489254
#
# Stress axis : x y z
#
# Youngs Moduli (GPa) = -18.14690 229.31839 166.83369
#
# Poissons Ratio (x) = 8.09150 -0.76611
# Poissons Ratio (y) = -0.64031 -0.10381
# Poissons Ratio (z) = 0.08333 -0.14269
#
# Static dielectric constant tensor:
#      x y z
#    x 3.742400 0.000000 0.000000 
#    y 0.000000 3.108740 0.000000 
#    z 0.000000 0.000000 3.879710 
# 
# 
# High freq. dielectric constant tensor:
#      x y z
#    x 1.786600 0.000000 0.000000 
#    y 0.000000 1.702860 0.000000 
#    z 0.000000 0.000000 1.772600 
# 
# From -- ./inp_files/6397.got.cif
#   From: 2010.03.12/outbox.cif.g09.slc.cpg/sg18_4_cif.got.tgz:6397.got - 2010.04.10 18:53:55.
