data_PCOD8155075
_publ_section_title
;
Structure prediction by ZEFSAII (Michael W. Deem and Ramdas Pophale) SiO2 
 PCOD8155075
Probable space group: C 2/C
;
_chemical_formula_sum "Si O2"
_cell_formula_units_Z 44
_cell_length_a 28.884401
_cell_length_b 6.535434
_cell_length_c 10.221478
_cell_angle_alpha 90.000000
_cell_angle_beta 98.425831
_cell_angle_gamma 90.000000
_cell_volume 1908.703205
_symmetry_space_group_name_H-M "C 2/C"
_symmetry_group_IT_number 15
_symmetry_cell_setting 'monoclinic'
loop_
_space_group_symop_operation_xyz
x,y,z
-x,y,1/2-z
-x,-y,-z
x,-y,1/2+z
1/2+x,1/2+y,z
1/2-x,1/2+y,1/2-z
1/2-x,1/2-y,-z
1/2+x,1/2-y,1/2+z
loop_
_atom_site_type_symbol
_atom_site_label
_atom_site_fract_x
_atom_site_fract_y
_atom_site_fract_z
Si Si1 0.865429 0.597972 0.980562
Si Si2 0.000000 0.134689 0.250000
Si Si3 0.195570 0.212779 0.487739
Si Si4 0.042053 0.512294 0.615425
Si Si5 0.923728 0.157066 0.706500
Si Si6 0.158682 0.950931 0.705926
O O1 0.831394 0.430399 0.030524
O O2 0.884213 0.760553 0.093251
O O3 0.909676 0.481993 0.940084
O O4 0.839435 0.724719 0.856469
O O5 0.965082 0.266898 0.323548
O O6 0.962279 0.993784 0.154902
O O7 0.250000 0.250000 0.500000
O O8 0.180609 0.068186 0.360379
O O9 0.187004 0.105610 0.624288
O O10 0.043406 0.337802 0.725185
O O11 0.000000 0.500000 0.500000
O O12 0.894550 0.034847 0.805575
#
# Coordination Sequence:
#
# PCOD8155075 Si02
#       6
#     8   4   8   8   8   8
#     4  12  26  48  77 109 157 201 259 325 391 463
#     4  12  26  42  66 108 150 204 260 314 386 456
#     4  12  31  52  84 117 155 199 264 328 404 482
#     4  12  26  42  70 105 153 206 259 321 376 462
#     4  12  26  46  71 112 152 206 262 317 393 464
#     4  12  27  51  80 114 155 208 253 324 400 475
#
# _framework density 23.052299999999999
#
# number of rings (size 3 to 8) (size 9 to 14) (size 15 to 20)
#    0.000    0.000    5.455    3.818    7.636    2.182 
#    0.000    0.000    0.000    0.000    0.000    0.000 
#    0.000    0.000    0.000    0.000    0.000    0.000 
#
# Total GULP energy -272709.520079 kJ/mol
# GULP energy per Si atom -12395.887276 kJ/mol
# Density = 2.299983 g / cm^3
# Si number density = 23.052300 Si / 1000 Ang^3
#
#
#
# Elastic Constant Matrix: (Units=GPa)
#
#
# Indices 1 2 3 4 5 6 
#
# 1 154.2950 68.5226 33.2278 0.0000 -1.6243 0.0000
# 2 68.5226 129.5446 49.7163 0.0000 1.2127 0.0000
# 3 33.2278 49.7163 102.6821 0.0000 2.5457 0.0000
# 4 0.0000 0.0000 0.0000 43.2126 0.0000 -6.8141
# 5 -1.6243 1.2127 2.5457 0.0000 33.1714 0.0000
# 6 0.0000 0.0000 0.0000 -6.8141 0.0000 45.0085
#
#
#
# Elastic Compliance Matrix: (Units=1/GPa)
#
#
# Indices 1 2 3 4 5 6 
#
# 1 0.008525 -0.004238 -0.000722 0.000000 0.000628 0.000000
# 2 -0.004238 0.011588 -0.004232 0.000000 -0.000306 0.000000
# 3 -0.000722 -0.004232 0.012041 0.000000 -0.000805 0.000000
# 4 0.000000 0.000000 0.000000 0.023707 0.000000 0.003589
# 5 0.000628 -0.000306 -0.000805 0.000000 0.030250 0.000000
# 6 0.000000 0.000000 0.000000 0.003589 0.000000 0.022761
#
#
# Mechanical properties :
#
#
# Convention : Reuss Voigt Hill
#
# Bulk Modulus (GPa) = 72.61878 76.60611 74.61245
# Shear Modulus (GPa) = 37.92240 39.94881 38.93560
#
# Velocity S-wave (km/s) = 4.06033 4.16740 4.11422
# Velocity P-wave (km/s) = 7.31791 7.51398 7.41660
#
# Compressibility (1/GPa) = 0.01377054
#
# Stress axis : x y z
#
# Youngs Moduli (GPa) = 117.29585 86.29625 83.04730
#
# Poissons Ratio (x) = 0.36574 0.05999
# Poissons Ratio (y) = 0.49712 0.35142
# Poissons Ratio (z) = 0.08473 0.36517
#
# Static dielectric constant tensor:
#      x y z
#    x 4.067290 0.000000 -0.143920 
#    y 0.000000 11.180630 0.000000 
#    z -0.143920 0.000000 4.144430 
# 
# 
# High freq. dielectric constant tensor:
#      x y z
#    x 1.916290 0.000000 -0.006690 
#    y 0.000000 1.929110 0.000000 
#    z -0.006690 0.000000 1.901520 
# 
# From -- ./inp_files/125073.got.cif
#   From: 2010.06.25/outbox.cif.g09.slc.cpg/sg15_63_cif.got.tgz:125073.got - 2010.06.28 07:06:18.
