data_PCOD8155584
_publ_section_title
;
Structure prediction by ZEFSAII (Michael W. Deem and Ramdas Pophale) SiO2 
 PCOD8155584
Probable space group: P 2 2 21
;
_chemical_formula_sum "Si O2"
_cell_formula_units_Z 18
_cell_length_a 17.400954
_cell_length_b 8.639187
_cell_length_c 5.443410
_cell_angle_alpha 90.000000
_cell_angle_beta 90.000000
_cell_angle_gamma 90.000000
_cell_volume 818.308346
_symmetry_space_group_name_H-M "P 2 2 21"
_symmetry_group_IT_number 17
_symmetry_cell_setting 'orthorhombic'
loop_
_space_group_symop_operation_xyz
x,y,z
-x,-y,1/2+z
x,-y,-z
-x,y,1/2-z
loop_
_atom_site_type_symbol
_atom_site_label
_atom_site_fract_x
_atom_site_fract_y
_atom_site_fract_z
Si Si1 0.954452 0.000000 0.500000
Si Si2 0.733389 0.000000 0.000000
Si Si3 0.302800 0.260328 0.180704
Si Si4 0.778436 0.500000 0.000000
Si Si5 0.829995 0.770283 0.312689
Si Si6 0.535451 0.679288 0.499654
O O1 0.908233 0.154904 0.582874
O O2 0.000000 0.952090 0.750000
O O3 0.791963 0.884140 0.122893
O O4 0.679001 0.097114 0.183297
O O5 0.286483 0.399573 0.363996
O O6 0.372792 0.296126 0.997458
O O7 0.223108 0.243953 0.045293
O O8 0.835220 0.601938 0.176188
O O9 0.513314 0.500000 0.500000
O O10 0.500000 0.754107 0.750000
O O11 0.500000 0.754860 0.250000
#
# Coordination Sequence:
#
# PCOD8155584 Si02
#       6
#     2   2   4   2   4   4
#     4  12  27  46  78 105 140 192 240 284 361 452
#     4  10  21  38  72  97 136 172 242 284 351 410
#     4  11  22  40  70 101 134 187 237 299 349 432
#     4  10  24  36  76 106 140 174 254 294 362 402
#     4  11  22  44  70 104 135 184 235 296 345 431
#     4  10  23  38  61  95 137 180 231 293 360 416
#
# _framework density 21.996600999999998
#
# number of rings (size 3 to 8) (size 9 to 14) (size 15 to 20)
#    0.000    1.333    2.222    2.667   14.000    0.000 
#    0.000    0.000    9.778    0.000    0.000    0.000 
#    0.000    0.000    0.000    0.000    0.000    0.000 
#
# Total GULP energy -223012.671114 kJ/mol
# GULP energy per Si atom -12389.592840 kJ/mol
# Density = 2.194654 g / cm^3
# Si number density = 21.996601 Si / 1000 Ang^3
#
#
#
# Elastic Constant Matrix: (Units=GPa)
#
#
# Indices 1 2 3 4 5 6 
#
# 1 106.4573 29.7733 50.7971 0.0000 0.0000 0.0000
# 2 29.7733 105.6625 47.6176 0.0000 0.0000 0.0000
# 3 50.7971 47.6176 151.4245 0.0000 0.0000 0.0000
# 4 0.0000 0.0000 0.0000 23.9770 0.0000 0.0000
# 5 0.0000 0.0000 0.0000 0.0000 46.2643 0.0000
# 6 0.0000 0.0000 0.0000 0.0000 0.0000 17.1190
#
#
#
# Elastic Compliance Matrix: (Units=1/GPa)
#
#
# Indices 1 2 3 4 5 6 
#
# 1 0.011453 -0.001743 -0.003294 0.000000 0.000000 0.000000
# 2 -0.001743 0.011292 -0.002966 0.000000 0.000000 0.000000
# 3 -0.003294 -0.002966 0.008642 0.000000 0.000000 0.000000
# 4 0.000000 0.000000 0.000000 0.041707 0.000000 0.000000
# 5 0.000000 0.000000 0.000000 0.000000 0.021615 0.000000
# 6 0.000000 0.000000 0.000000 0.000000 0.000000 0.058415
#
#
# Mechanical properties :
#
#
# Convention : Reuss Voigt Hill
#
# Bulk Modulus (GPa) = 65.01746 68.88001 66.94874
# Shear Modulus (GPa) = 28.69363 33.16249 30.92806
#
# Velocity S-wave (km/s) = 3.61565 3.88702 3.75379
# Velocity P-wave (km/s) = 6.85949 7.17824 7.02068
#
# Compressibility (1/GPa) = 0.01538048
#
# Stress axis : x y z
#
# Youngs Moduli (GPa) = 87.31708 88.55888 115.71776
#
# Poissons Ratio (x) = 0.15433 0.38116
# Poissons Ratio (y) = 0.15216 0.34325
# Poissons Ratio (z) = 0.28761 0.26269
#
# Static dielectric constant tensor:
#      x y z
#    x 3.670490 0.000000 0.000000 
#    y 0.000000 4.163440 0.000000 
#    z 0.000000 0.000000 4.524400 
# 
# 
# High freq. dielectric constant tensor:
#      x y z
#    x 1.834350 0.000000 0.000000 
#    y 0.000000 1.860680 0.000000 
#    z 0.000000 0.000000 1.893110 
# 
# From -- ./inp_files/889.got.cif
#   From: 2010.03.12/outbox.cif.g09.slc.cpg/sg17_1_cif.got.tgz:889.got - 2010.04.10 18:46:23.
