data_PCOD8155939
_publ_section_title
;
Structure prediction by ZEFSAII (Michael W. Deem and Ramdas Pophale) SiO2 
 PCOD8155939
Probable space group: P 21 21 2
;
_chemical_formula_sum "Si O2"
_cell_formula_units_Z 24
_cell_length_a 8.992629
_cell_length_b 15.728442
_cell_length_c 8.884072
_cell_angle_alpha 90.000000
_cell_angle_beta 90.000000
_cell_angle_gamma 90.000000
_cell_volume 1256.563532
_symmetry_space_group_name_H-M "P 21 21 2"
_symmetry_group_IT_number 18
_symmetry_cell_setting 'orthorhombic'
loop_
_space_group_symop_operation_xyz
x,y,z
-x,-y,z
1/2+x,1/2-y,-z
1/2-x,1/2+y,-z
loop_
_atom_site_type_symbol
_atom_site_label
_atom_site_fract_x
_atom_site_fract_y
_atom_site_fract_z
Si Si1 0.843664 0.178569 0.586372
Si Si2 0.008691 0.834991 0.898299
Si Si3 0.700362 0.744662 0.857754
Si Si4 0.000000 0.000000 0.098014
Si Si5 0.492234 0.179602 0.598601
Si Si6 0.722409 0.574306 0.687300
Si Si7 0.000000 0.500000 0.529587
O O1 0.917239 0.143785 0.738447
O O2 0.668455 0.196075 0.606885
O O3 0.924207 0.266164 0.539321
O O4 0.869593 0.105574 0.460123
O O5 0.843797 0.800981 0.881013
O O6 0.117397 0.769891 0.984080
O O7 0.987260 0.918983 0.994338
O O8 0.581727 0.792922 0.753970
O O9 0.758642 0.657702 0.784627
O O10 0.138803 0.994011 0.210584
O O11 0.455559 0.079974 0.574696
O O12 0.869989 0.526978 0.640015
#
# Coordination Sequence:
#
# PCOD8155939 Si02
#       7
#     4   4   4   2   4   4   2
#     4  10  20  37  60  82 111 149 192 231 275 339
#     4  11  22  38  59  84 114 151 189 230 280 336
#     4  10  22  39  57  81 116 153 186 224 282 344
#     4  10  24  38  54  84 116 146 186 236 286 326
#     4  10  21  37  59  87 113 146 190 234 279 331
#     4   9  21  39  56  81 112 145 187 234 280 331
#     4  10  20  34  60  86 108 140 190 240 278 320
#
# _framework density 19.099710000000002
#
# number of rings (size 3 to 8) (size 9 to 14) (size 15 to 20)
#    0.000    2.000    0.000    4.000    0.000   11.333 
#    0.000    0.000    0.000    2.000    0.000    0.000 
#    0.000    0.000    0.000    0.000    0.000    0.000 
#
# Total GULP energy -297602.479342 kJ/mol
# GULP energy per Si atom -12400.103306 kJ/mol
# Density = 1.905624 g / cm^3
# Si number density = 19.099710 Si / 1000 Ang^3
#
#
#
# Elastic Constant Matrix: (Units=GPa)
#
#
# Indices 1 2 3 4 5 6 
#
# 1 117.0846 52.0997 51.6313 0.0000 0.0000 0.0000
# 2 52.0997 96.8640 46.1946 0.0000 0.0000 0.0000
# 3 51.6313 46.1946 131.0017 0.0000 0.0000 0.0000
# 4 0.0000 0.0000 0.0000 20.8426 0.0000 0.0000
# 5 0.0000 0.0000 0.0000 0.0000 33.0393 0.0000
# 6 0.0000 0.0000 0.0000 0.0000 0.0000 30.0000
#
#
#
# Elastic Compliance Matrix: (Units=1/GPa)
#
#
# Indices 1 2 3 4 5 6 
#
# 1 0.012124 -0.005100 -0.002980 0.000000 0.000000 0.000000
# 2 -0.005100 0.014556 -0.003123 0.000000 0.000000 0.000000
# 3 -0.002980 -0.003123 0.009909 0.000000 0.000000 0.000000
# 4 0.000000 0.000000 0.000000 0.047979 0.000000 0.000000
# 5 0.000000 0.000000 0.000000 0.000000 0.030267 0.000000
# 6 0.000000 0.000000 0.000000 0.000000 0.000000 0.033333
#
#
# Mechanical properties :
#
#
# Convention : Reuss Voigt Hill
#
# Bulk Modulus (GPa) = 70.50307 71.64461 71.07384
# Shear Modulus (GPa) = 28.52211 29.77804 29.15007
#
# Velocity S-wave (km/s) = 3.86855 3.95281 3.91091
# Velocity P-wave (km/s) = 7.54636 7.64364 7.59515
#
# Compressibility (1/GPa) = 0.01418378
#
# Stress axis : x y z
#
# Youngs Moduli (GPa) = 82.47832 68.69941 100.91601
#
# Poissons Ratio (x) = 0.35037 0.30074
# Poissons Ratio (y) = 0.42064 0.31514
# Poissons Ratio (z) = 0.24580 0.21454
#
# Static dielectric constant tensor:
#      x y z
#    x 3.488300 0.000000 0.000000 
#    y 0.000000 3.705080 0.000000 
#    z 0.000000 0.000000 3.789000 
# 
# 
# High freq. dielectric constant tensor:
#      x y z
#    x 1.749620 0.000000 0.000000 
#    y 0.000000 1.741810 0.000000 
#    z 0.000000 0.000000 1.754860 
# 
# From -- ./inp_files/3198.got.cif
#   From: 2010.03.12/outbox.cif.g09.slc.cpg/sg18_2_cif.got.tgz:3198.got - 2010.04.10 18:53:55.
