data_PCOD8155604
_publ_section_title
;
Structure prediction by ZEFSAII (Michael W. Deem and Ramdas Pophale) SiO2 
 PCOD8155604
Probable space group: P 2 2 21
;
_chemical_formula_sum "Si O2"
_cell_formula_units_Z 18
_cell_length_a 7.942901
_cell_length_b 8.608714
_cell_length_c 12.055348
_cell_angle_alpha 90.000000
_cell_angle_beta 90.000000
_cell_angle_gamma 90.000000
_cell_volume 824.322551
_symmetry_space_group_name_H-M "P 2 2 21"
_symmetry_group_IT_number 17
_symmetry_cell_setting 'orthorhombic'
loop_
_space_group_symop_operation_xyz
x,y,z
-x,-y,1/2+z
x,-y,-z
-x,y,1/2-z
loop_
_atom_site_type_symbol
_atom_site_label
_atom_site_fract_x
_atom_site_fract_y
_atom_site_fract_z
Si Si1 0.500000 0.091527 0.250000
Si Si2 0.814893 0.303373 0.214989
Si Si3 0.378730 0.873818 0.074394
Si Si4 0.807385 0.340065 0.749381
Si Si5 0.662367 0.673801 0.012266
O O1 0.669573 0.192986 0.261333
O O2 0.507464 0.976114 0.146327
O O3 0.783203 0.474989 0.266323
O O4 0.000000 0.242556 0.250000
O O5 0.806827 0.301248 0.080598
O O6 0.270786 0.754403 0.146926
O O7 0.497377 0.777199 0.989522
O O8 0.271529 0.000000 0.000000
O O9 0.729317 0.286662 0.865514
O O10 0.000000 0.293236 0.750000
O O11 0.596416 0.500000 0.000000
#
# Coordination Sequence:
#
# PCOD8155604 Si02
#       5
#     2   4   4   4   4
#     4  12  24  40  68 102 142 182 224 286 360 420
#     4  10  24  44  70 103 139 182 240 296 346 428
#     4  12  24  41  66 104 138 185 234 286 364 432
#     4  10  23  43  69 100 139 183 237 298 349 424
#     4  10  21  41  68  96 133 184 231 290 357 418
#
# _framework density 21.836112
#
# number of rings (size 3 to 8) (size 9 to 14) (size 15 to 20)
#    0.000    1.333    4.444    0.000    6.222    2.667 
#    0.000    4.444    0.000    0.000    0.000    0.000 
#    0.000    0.000    0.000    0.000    0.000    0.000 
#
# Total GULP energy -223053.241452 kJ/mol
# GULP energy per Si atom -12391.846747 kJ/mol
# Density = 2.178641 g / cm^3
# Si number density = 21.836112 Si / 1000 Ang^3
#
#
#
# Elastic Constant Matrix: (Units=GPa)
#
#
# Indices 1 2 3 4 5 6 
#
# 1 142.1762 75.8574 37.4792 0.0000 0.0000 0.0000
# 2 75.8574 108.0266 49.9172 0.0000 0.0000 0.0000
# 3 37.4792 49.9172 89.9820 0.0000 0.0000 0.0000
# 4 0.0000 0.0000 0.0000 43.5115 0.0000 0.0000
# 5 0.0000 0.0000 0.0000 0.0000 35.6540 0.0000
# 6 0.0000 0.0000 0.0000 0.0000 0.0000 13.2738
#
#
#
# Elastic Compliance Matrix: (Units=1/GPa)
#
#
# Indices 1 2 3 4 5 6 
#
# 1 0.011259 -0.007717 -0.000408 0.000000 0.000000 0.000000
# 2 -0.007717 0.017738 -0.006626 0.000000 0.000000 0.000000
# 3 -0.000408 -0.006626 0.014959 0.000000 0.000000 0.000000
# 4 0.000000 0.000000 0.000000 0.022982 0.000000 0.000000
# 5 0.000000 0.000000 0.000000 0.000000 0.028047 0.000000
# 6 0.000000 0.000000 0.000000 0.000000 0.000000 0.075337
#
#
# Mechanical properties :
#
#
# Convention : Reuss Voigt Hill
#
# Bulk Modulus (GPa) = 69.18978 74.07695 71.63336
# Shear Modulus (GPa) = 24.43296 30.28324 27.35810
#
# Velocity S-wave (km/s) = 3.34866 3.72807 3.54345
# Velocity P-wave (km/s) = 6.83419 7.24769 7.04398
#
# Compressibility (1/GPa) = 0.01445300
#
# Stress axis : x y z
#
# Youngs Moduli (GPa) = 88.82030 56.37717 66.84986
#
# Poissons Ratio (x) = 0.43508 0.02730
# Poissons Ratio (y) = 0.68545 0.44292
# Poissons Ratio (z) = 0.03627 0.37353
#
# Static dielectric constant tensor:
#      x y z
#    x 3.647790 0.000000 0.000000 
#    y 0.000000 4.194280 0.000000 
#    z 0.000000 0.000000 4.261780 
# 
# 
# High freq. dielectric constant tensor:
#      x y z
#    x 1.830980 0.000000 0.000000 
#    y 0.000000 1.878060 0.000000 
#    z 0.000000 0.000000 1.871040 
# 
# From -- ./inp_files/6312.got.cif
#   From: 2010.03.12/outbox.cif.g09.slc.cpg/sg17_4_cif.got.tgz:6312.got - 2010.04.10 18:46:23.
