data_PCOD8155724
_publ_section_title
;
Structure prediction by ZEFSAII (Michael W. Deem and Ramdas Pophale) SiO2 
 PCOD8155724
Probable space group: P 2 2 21
;
_chemical_formula_sum "Si O2"
_cell_formula_units_Z 28
_cell_length_a 8.249150
_cell_length_b 6.535807
_cell_length_c 24.081439
_cell_angle_alpha 90.000000
_cell_angle_beta 90.000000
_cell_angle_gamma 90.000000
_cell_volume 1298.347227
_symmetry_space_group_name_H-M "P 2 2 21"
_symmetry_group_IT_number 17
_symmetry_cell_setting 'orthorhombic'
loop_
_space_group_symop_operation_xyz
x,y,z
-x,-y,1/2+z
x,-y,-z
-x,y,1/2-z
loop_
_atom_site_type_symbol
_atom_site_label
_atom_site_fract_x
_atom_site_fract_y
_atom_site_fract_z
Si Si1 0.500000 0.403120 0.250000
Si Si2 0.486287 0.724927 0.340123
Si Si3 0.141697 0.361546 0.855629
Si Si4 0.991607 0.098967 0.944967
Si Si5 0.074359 0.710429 0.624989
Si Si6 0.000000 0.186106 0.750000
Si Si7 0.719002 0.916780 0.783774
Si Si8 0.711723 0.600620 0.055830
O O1 0.433447 0.538911 0.300546
O O2 0.356427 0.239308 0.238282
O O3 0.680585 0.705607 0.336887
O O4 0.427937 0.681393 0.402834
O O5 0.414888 0.940184 0.316758
O O6 0.111832 0.257195 0.915368
O O7 0.100736 0.603064 0.862464
O O8 0.008262 0.307879 0.807951
O O9 0.823020 0.207692 0.961884
O O10 0.961338 0.926962 0.900595
O O11 0.071784 0.000000 0.000000
O O12 0.181506 0.763694 0.677680
O O13 0.176530 0.565786 0.584955
O O14 0.836050 0.058360 0.748877
O O15 0.634294 0.500000 0.000000
#
# Coordination Sequence:
#
# PCOD8155724 Si02
#       8
#     2   4   4   4   4   2   4   4
#     4  12  26  40  70  96 138 190 220 290 358 416
#     4  12  26  46  63 103 147 179 228 291 355 418
#     4  11  27  41  65 102 140 177 227 291 349 412
#     4  11  22  45  73  97 128 176 235 290 335 409
#     4  11  22  43  69  98 124 177 234 276 332 409
#     4  12  24  44  70 100 140 176 238 288 342 424
#     4  12  25  44  70  99 138 182 236 283 345 420
#     4  11  22  42  71  99 132 178 231 284 343 418
#
# _framework density 21.565881000000001
#
# number of rings (size 3 to 8) (size 9 to 14) (size 15 to 20)
#    0.000    0.571    5.714    3.000    4.000    1.143 
#    2.571    0.714    0.000    0.000    0.000    0.000 
#    0.000    0.000    0.000    0.000    0.000    0.000 
#
# Total GULP energy -346875.445490 kJ/mol
# GULP energy per Si atom -12388.408767 kJ/mol
# Density = 2.151680 g / cm^3
# Si number density = 21.565881 Si / 1000 Ang^3
#
#
#
# Elastic Constant Matrix: (Units=GPa)
#
#
# Indices 1 2 3 4 5 6 
#
# 1 73.7413 26.2840 1.5427 0.0000 0.0000 0.0000
# 2 26.2840 101.2057 21.1293 0.0000 0.0000 0.0000
# 3 1.5427 21.1293 84.5379 0.0000 0.0000 0.0000
# 4 0.0000 0.0000 0.0000 18.9487 0.0000 0.0000
# 5 0.0000 0.0000 0.0000 0.0000 29.3734 0.0000
# 6 0.0000 0.0000 0.0000 0.0000 0.0000 13.7299
#
#
#
# Elastic Compliance Matrix: (Units=1/GPa)
#
#
# Indices 1 2 3 4 5 6 
#
# 1 0.014988 -0.004047 0.000738 0.000000 0.000000 0.000000
# 2 -0.004047 0.011517 -0.002805 0.000000 0.000000 0.000000
# 3 0.000738 -0.002805 0.012517 0.000000 0.000000 0.000000
# 4 0.000000 0.000000 0.000000 0.052774 0.000000 0.000000
# 5 0.000000 0.000000 0.000000 0.000000 0.034044 0.000000
# 6 0.000000 0.000000 0.000000 0.000000 0.000000 0.072833
#
#
# Mechanical properties :
#
#
# Convention : Reuss Voigt Hill
#
# Bulk Modulus (GPa) = 37.32058 39.71076 38.51567
# Shear Modulus (GPa) = 22.74463 26.44568 24.59515
#
# Velocity S-wave (km/s) = 3.25107 3.50562 3.38074
# Velocity P-wave (km/s) = 5.60674 5.90250 5.75652
#
# Compressibility (1/GPa) = 0.02679487
#
# Stress axis : x y z
#
# Youngs Moduli (GPa) = 66.72096 86.82553 79.89412
#
# Poissons Ratio (x) = 0.35134 -0.05895
# Poissons Ratio (y) = 0.26999 0.22409
# Poissons Ratio (z) = -0.04923 0.24353
#
# Static dielectric constant tensor:
#      x y z
#    x 3.770730 0.000000 0.000000 
#    y 0.000000 4.528490 0.000000 
#    z 0.000000 0.000000 3.916800 
# 
# 
# High freq. dielectric constant tensor:
#      x y z
#    x 1.827660 0.000000 0.000000 
#    y 0.000000 1.868850 0.000000 
#    z 0.000000 0.000000 1.846440 
# 
# From -- ./inp_files/10998.got.cif
#   From: 2010.03.12/outbox.cif.g09.slc.cpg/sg17_6_cif.got.tgz:10998.got - 2010.04.10 18:46:23.
