data_PCOD8155820
_publ_section_title
;
Structure prediction by ZEFSAII (Michael W. Deem and Ramdas Pophale) SiO2 
 PCOD8155820
Probable space group: P 21 21 2
;
_chemical_formula_sum "Si O2"
_cell_formula_units_Z 30
_cell_length_a 16.154006
_cell_length_b 11.518272
_cell_length_c 8.196881
_cell_angle_alpha 90.000000
_cell_angle_beta 90.000000
_cell_angle_gamma 90.000000
_cell_volume 1525.162786
_symmetry_space_group_name_H-M "P 21 21 2"
_symmetry_group_IT_number 18
_symmetry_cell_setting 'orthorhombic'
loop_
_space_group_symop_operation_xyz
x,y,z
-x,-y,z
1/2+x,1/2-y,-z
1/2-x,1/2+y,-z
loop_
_atom_site_type_symbol
_atom_site_label
_atom_site_fract_x
_atom_site_fract_y
_atom_site_fract_z
Si Si1 0.346256 0.203015 0.464119
Si Si2 0.232218 0.831862 0.264133
Si Si3 0.861329 0.820025 0.923504
Si Si4 0.000000 0.500000 0.754406
Si Si5 0.460332 0.237830 0.177002
Si Si6 0.134831 0.439521 0.519577
Si Si7 0.700454 0.211823 0.749530
Si Si8 0.334519 0.415656 0.053134
O O1 0.340971 0.276829 0.628900
O O2 0.423086 0.254328 0.359428
O O3 0.260025 0.206249 0.360185
O O4 0.364723 0.074144 0.527262
O O5 0.285152 0.729156 0.180736
O O6 0.282626 0.913866 0.382643
O O7 0.194591 0.918729 0.132607
O O8 0.944638 0.771098 0.844768
O O9 0.867886 0.958047 0.901183
O O10 0.848981 0.784964 0.113503
O O11 0.048427 0.597421 0.862578
O O12 0.057537 0.418536 0.640078
O O13 0.405353 0.316642 0.058356
O O14 0.132034 0.355401 0.361233
O O15 0.757680 0.113353 0.830513
#
# Coordination Sequence:
#
# PCOD8155820 Si02
#       8
#     4   4   4   2   4   4   4   4
#     4   9  19  36  59  82 116 151 195 242 292 339
#     4  10  20  36  60  89 112 156 201 236 289 352
#     4  11  20  37  59  86 121 156 195 238 293 351
#     4  10  20  38  60  82 114 154 186 250 296 344
#     4  10  21  39  57  84 117 156 188 244 297 346
#     4  10  18  36  58  81 118 145 196 240 288 341
#     4   9  20  35  56  89 111 154 198 234 286 354
#     4  10  21  37  60  83 123 152 195 236 294 347
#
# _framework density 19.670031000000002
#
# number of rings (size 3 to 8) (size 9 to 14) (size 15 to 20)
#    0.000    2.133    1.333    2.000    0.000    1.067 
#    7.200    0.000    0.000    0.000    0.000    0.000 
#    0.000    0.000    0.000    0.000    0.000    0.000 
#
# Total GULP energy -371815.978756 kJ/mol
# GULP energy per Si atom -12393.865959 kJ/mol
# Density = 1.962526 g / cm^3
# Si number density = 19.670031 Si / 1000 Ang^3
#
#
#
# Elastic Constant Matrix: (Units=GPa)
#
#
# Indices 1 2 3 4 5 6 
#
# 1 66.2199 28.7007 17.4665 0.0000 0.0000 0.0000
# 2 28.7007 93.0045 21.9232 0.0000 0.0000 0.0000
# 3 17.4665 21.9232 64.9005 0.0000 0.0000 0.0000
# 4 0.0000 0.0000 0.0000 25.2090 0.0000 0.0000
# 5 0.0000 0.0000 0.0000 0.0000 26.4092 0.0000
# 6 0.0000 0.0000 0.0000 0.0000 0.0000 33.0320
#
#
#
# Elastic Compliance Matrix: (Units=1/GPa)
#
#
# Indices 1 2 3 4 5 6 
#
# 1 0.018036 -0.004804 -0.003231 0.000000 0.000000 0.000000
# 2 -0.004804 0.012962 -0.003086 0.000000 0.000000 0.000000
# 3 -0.003231 -0.003086 0.017320 0.000000 0.000000 0.000000
# 4 0.000000 0.000000 0.000000 0.039668 0.000000 0.000000
# 5 0.000000 0.000000 0.000000 0.000000 0.037866 0.000000
# 6 0.000000 0.000000 0.000000 0.000000 0.000000 0.030274
#
#
# Mechanical properties :
#
#
# Convention : Reuss Voigt Hill
#
# Bulk Modulus (GPa) = 38.34916 40.03396 39.19156
# Shear Modulus (GPa) = 26.72954 27.33234 27.03094
#
# Velocity S-wave (km/s) = 3.69032 3.73170 3.71107
# Velocity P-wave (km/s) = 6.13975 6.24215 6.19116
#
# Compressibility (1/GPa) = 0.02607619
#
# Stress axis : x y z
#
# Youngs Moduli (GPa) = 55.44590 77.14842 57.73645
#
# Poissons Ratio (x) = 0.37063 0.18655
# Poissons Ratio (y) = 0.26637 0.17815
# Poissons Ratio (z) = 0.17915 0.23805
#
# Static dielectric constant tensor:
#      x y z
#    x 3.545660 0.000000 0.000000 
#    y 0.000000 3.679110 0.000000 
#    z 0.000000 0.000000 3.603490 
# 
# 
# High freq. dielectric constant tensor:
#      x y z
#    x 1.755200 0.000000 0.000000 
#    y 0.000000 1.770690 0.000000 
#    z 0.000000 0.000000 1.758790 
# 
# From -- ./inp_files/3892.got.cif
#   From: 2010.03.12/outbox.cif.g09.slc.cpg/sg18_2_cif.got.tgz:3892.got - 2010.04.10 18:53:55.
