data_PCOD8155226
_publ_section_title
;
Structure prediction by ZEFSAII (Michael W. Deem and Ramdas Pophale) SiO2 
 PCOD8155226
Probable space group: P 2 2 2
;
_chemical_formula_sum "Si O2"
_cell_formula_units_Z 32
_cell_length_a 15.235444
_cell_length_b 13.951694
_cell_length_c 8.701887
_cell_angle_alpha 90.000000
_cell_angle_beta 90.000000
_cell_angle_gamma 90.000000
_cell_volume 1849.675299
_symmetry_space_group_name_H-M "P 2 2 2"
_symmetry_group_IT_number 16
_symmetry_cell_setting 'orthorhombic'
loop_
_space_group_symop_operation_xyz
x,y,z
-x,-y,z
x,-y,-z
-x,y,-z
loop_
_atom_site_type_symbol
_atom_site_label
_atom_site_fract_x
_atom_site_fract_y
_atom_site_fract_z
Si Si1 0.865422 0.966509 0.327882
Si Si2 0.981889 0.799434 0.320498
Si Si3 0.162516 0.670655 0.827387
Si Si4 0.728234 0.157816 0.808852
Si Si5 0.757760 0.886942 0.845619
Si Si6 0.594979 0.988210 0.178525
Si Si7 0.856394 0.292158 0.176524
Si Si8 0.898510 0.512444 0.679895
O O1 0.954667 0.909496 0.282729
O O2 0.788037 0.887165 0.324502
O O3 0.876275 0.000000 0.500000
O O4 0.842304 0.054828 0.216826
O O5 0.906874 0.724325 0.278328
O O6 0.000000 0.783935 0.500000
O O7 0.064446 0.778717 0.214564
O O8 0.257147 0.726796 0.812246
O O9 0.165803 0.561886 0.767541
O O10 0.133000 0.670409 0.003564
O O11 0.628669 0.120553 0.781914
O O12 0.758860 0.107262 0.969138
O O13 0.667935 0.931520 0.772340
O O14 0.768941 0.773969 0.799975
O O15 0.500000 0.000000 0.262450
O O16 0.578598 0.000000 0.000000
O O17 0.858610 0.383259 0.287271
O O18 0.891974 0.500000 0.500000
O O19 0.000000 0.500000 0.735728
#
# Coordination Sequence:
#
# PCOD8155226 Si02
#       8
#     4   4   4   4   4   4   4   4
#     4  10  19  30  44  62  88 127 160 192 229 270
#     4  11  21  31  43  62  89 121 164 200 231 271
#     4  10  20  34  49  67  89 121 159 200 239 278
#     4   8  17  32  49  69  96 121 155 194 230 273
#     4   9  18  32  47  69  97 122 155 194 227 277
#     4   8  13  26  51  77 100 126 151 181 226 278
#     4  11  21  32  49  67  89 123 158 198 240 278
#     4  11  22  35  51  68  90 118 158 209 246 278
#
# _framework density 17.300333999999999
#
# number of rings (size 3 to 8) (size 9 to 14) (size 15 to 20)
#    0.000    2.250    1.250    3.375    0.000    3.250 
#    0.000    1.250    0.000   19.500    0.000    0.875 
#    0.000    7.000    0.000    0.000    0.000    0.000 
#
# Total GULP energy -396420.428312 kJ/mol
# GULP energy per Si atom -12388.138385 kJ/mol
# Density = 1.726096 g / cm^3
# Si number density = 17.300334 Si / 1000 Ang^3
#
#
#
# Elastic Constant Matrix: (Units=GPa)
#
#
# Indices 1 2 3 4 5 6 
#
# 1 84.1690 60.5332 25.2985 0.0000 0.0000 0.0000
# 2 60.5332 121.6020 33.8252 0.0000 0.0000 0.0000
# 3 25.2985 33.8252 47.5832 0.0000 0.0000 0.0000
# 4 0.0000 0.0000 0.0000 27.5831 0.0000 0.0000
# 5 0.0000 0.0000 0.0000 0.0000 6.3609 0.0000
# 6 0.0000 0.0000 0.0000 0.0000 0.0000 15.2824
#
#
#
# Elastic Compliance Matrix: (Units=1/GPa)
#
#
# Indices 1 2 3 4 5 6 
#
# 1 0.019172 -0.008362 -0.004249 0.000000 0.000000 0.000000
# 2 -0.008362 0.013897 -0.005433 0.000000 0.000000 0.000000
# 3 -0.004249 -0.005433 0.027137 0.000000 0.000000 0.000000
# 4 0.000000 0.000000 0.000000 0.036254 0.000000 0.000000
# 5 0.000000 0.000000 0.000000 0.000000 0.157212 0.000000
# 6 0.000000 0.000000 0.000000 0.000000 0.000000 0.065435
#
#
# Mechanical properties :
#
#
# Convention : Reuss Voigt Hill
#
# Bulk Modulus (GPa) = 41.46269 54.74089 48.10179
# Shear Modulus (GPa) = 13.76523 18.75843 16.26183
#
# Velocity S-wave (km/s) = 2.82381 3.29642 3.06922
# Velocity P-wave (km/s) = 5.88645 6.79696 6.35803
#
# Compressibility (1/GPa) = 0.02411807
#
# Stress axis : x y z
#
# Youngs Moduli (GPa) = 52.16063 71.95603 36.84967
#
# Poissons Ratio (x) = 0.60167 0.15657
# Poissons Ratio (y) = 0.43615 0.20022
# Poissons Ratio (z) = 0.22163 0.39097
#
# Static dielectric constant tensor:
#      x y z
#    x 3.268190 0.000000 0.000000 
#    y 0.000000 3.469620 0.000000 
#    z 0.000000 0.000000 3.146960 
# 
# 
# High freq. dielectric constant tensor:
#      x y z
#    x 1.622640 0.000000 0.000000 
#    y 0.000000 1.671930 0.000000 
#    z 0.000000 0.000000 1.661660 
# 
# From -- ./inp_files/5273.got.cif
#   From: 2010.03.12/outbox.cif.g09.slc.cpg/sg16_3_cif.got.tgz:5273.got - 2010.03.31 00:51:45.
