data_PCOD8155659
_publ_section_title
;
Structure prediction by ZEFSAII (Michael W. Deem and Ramdas Pophale) SiO2 
 PCOD8155659
Probable space group: P 2 2 21
;
_chemical_formula_sum "Si O2"
_cell_formula_units_Z 32
_cell_length_a 9.791322
_cell_length_b 11.204348
_cell_length_c 14.015184
_cell_angle_alpha 90.000000
_cell_angle_beta 90.000000
_cell_angle_gamma 90.000000
_cell_volume 1537.541073
_symmetry_space_group_name_H-M "P 2 2 21"
_symmetry_group_IT_number 17
_symmetry_cell_setting 'orthorhombic'
loop_
_space_group_symop_operation_xyz
x,y,z
-x,-y,1/2+z
x,-y,-z
-x,y,1/2-z
loop_
_atom_site_type_symbol
_atom_site_label
_atom_site_fract_x
_atom_site_fract_y
_atom_site_fract_z
Si Si1 0.349925 0.268913 0.775121
Si Si2 0.286618 0.866992 0.413411
Si Si3 0.304704 0.162952 0.190093
Si Si4 0.094977 0.590950 0.160218
Si Si5 0.728569 0.063074 0.590471
Si Si6 0.930243 0.325735 0.352238
Si Si7 0.601856 0.130301 0.109120
Si Si8 0.996505 0.195831 0.531888
O O1 0.500000 0.319879 0.750000
O O2 0.290613 0.218576 0.676924
O O3 0.250615 0.373640 0.811612
O O4 0.360637 0.166153 0.857384
O O5 0.357457 0.809156 0.508215
O O6 0.126388 0.883128 0.437559
O O7 0.362385 0.990067 0.391554
O O8 0.221881 0.272536 0.147692
O O9 0.444703 0.152668 0.131710
O O10 0.316032 0.187385 0.302713
O O11 0.231299 0.034981 0.170690
O O12 0.092621 0.460838 0.110803
O O13 0.023379 0.687610 0.095250
O O14 0.000000 0.578373 0.250000
O O15 0.865294 0.113127 0.542904
O O16 0.648301 0.000000 0.500000
O O17 0.018615 0.245776 0.425042
O O18 0.000000 0.315363 0.250000
#
# Coordination Sequence:
#
# PCOD8155659 Si02
#       8
#     4   4   4   4   4   4   4   4
#     4  11  23  41  66  96 128 169 222 271 326 398
#     4  11  22  38  62  93 131 167 208 266 327 395
#     4  11  22  42  57  91 129 173 208 257 323 403
#     4  10  22  44  65  92 122 170 216 278 324 374
#     4  11  23  36  61  90 130 163 209 258 327 397
#     4  11  24  41  67  89 123 167 222 270 328 382
#     4  10  24  36  59  91 134 169 206 252 331 400
#     4  11  23  39  63  93 123 164 214 272 323 391
#
# _framework density 20.812453000000001
#
# number of rings (size 3 to 8) (size 9 to 14) (size 15 to 20)
#    0.000    1.250    3.750    1.875    5.250    1.000 
#    2.250    0.000    0.000    0.000    0.000    0.000 
#    0.000    0.000    0.000    0.000    0.000    0.000 
#
# Total GULP energy -396624.697289 kJ/mol
# GULP energy per Si atom -12394.521790 kJ/mol
# Density = 2.076508 g / cm^3
# Si number density = 20.812453 Si / 1000 Ang^3
#
#
#
# Elastic Constant Matrix: (Units=GPa)
#
#
# Indices 1 2 3 4 5 6 
#
# 1 90.6518 21.0778 15.7624 0.0000 0.0000 0.0000
# 2 21.0778 65.2012 -0.3157 0.0000 0.0000 0.0000
# 3 15.7624 -0.3157 86.2009 0.0000 0.0000 0.0000
# 4 0.0000 0.0000 0.0000 27.0081 0.0000 0.0000
# 5 0.0000 0.0000 0.0000 0.0000 32.9267 0.0000
# 6 0.0000 0.0000 0.0000 0.0000 0.0000 26.3472
#
#
#
# Elastic Compliance Matrix: (Units=1/GPa)
#
#
# Indices 1 2 3 4 5 6 
#
# 1 0.012358 -0.004006 -0.002274 0.000000 0.000000 0.000000
# 2 -0.004006 0.016636 0.000793 0.000000 0.000000 0.000000
# 3 -0.002274 0.000793 0.012020 0.000000 0.000000 0.000000
# 4 0.000000 0.000000 0.000000 0.037026 0.000000 0.000000
# 5 0.000000 0.000000 0.000000 0.000000 0.030370 0.000000
# 6 0.000000 0.000000 0.000000 0.000000 0.000000 0.037955
#
#
# Mechanical properties :
#
#
# Convention : Reuss Voigt Hill
#
# Bulk Modulus (GPa) = 33.28928 35.01144 34.15036
# Shear Modulus (GPa) = 29.87711 30.95838 30.41774
#
# Velocity S-wave (km/s) = 3.79296 3.86099 3.82713
# Velocity P-wave (km/s) = 5.93394 6.06095 5.99779
#
# Compressibility (1/GPa) = 0.03003970
#
# Stress axis : x y z
#
# Youngs Moduli (GPa) = 80.91821 60.11049 83.19735
#
# Poissons Ratio (x) = 0.24081 0.18923
# Poissons Ratio (y) = 0.32416 -0.06601
# Poissons Ratio (z) = 0.18404 -0.04770
#
# Static dielectric constant tensor:
#      x y z
#    x 3.700080 0.000000 0.000000 
#    y 0.000000 3.781210 0.000000 
#    z 0.000000 0.000000 4.092490 
# 
# 
# High freq. dielectric constant tensor:
#      x y z
#    x 1.813320 0.000000 0.000000 
#    y 0.000000 1.785890 0.000000 
#    z 0.000000 0.000000 1.839230 
# 
# From -- ./inp_files/8317.got.cif
#   From: 2010.03.12/outbox.cif.g09.slc.cpg/sg17_5_cif.got.tgz:8317.got - 2010.04.10 18:46:23.
