data_PCOD8155026
_publ_section_title
;
Structure prediction by ZEFSAII (Michael W. Deem and Ramdas Pophale) SiO2 
 PCOD8155026
Probable space group: C 2/C
;
_chemical_formula_sum "Si O2"
_cell_formula_units_Z 32
_cell_length_a 9.701832
_cell_length_b 11.031223
_cell_length_c 14.896592
_cell_angle_alpha 90.000000
_cell_angle_beta 62.353210
_cell_angle_gamma 90.000000
_cell_volume 1412.252134
_symmetry_space_group_name_H-M "C 2/C"
_symmetry_group_IT_number 15
_symmetry_cell_setting 'monoclinic'
loop_
_space_group_symop_operation_xyz
x,y,z
-x,y,1/2-z
-x,-y,-z
x,-y,1/2+z
1/2+x,1/2+y,z
1/2-x,1/2+y,1/2-z
1/2-x,1/2-y,-z
1/2+x,1/2-y,1/2+z
loop_
_atom_site_type_symbol
_atom_site_label
_atom_site_fract_x
_atom_site_fract_y
_atom_site_fract_z
Si Si1 0.901211 0.264766 0.201344
Si Si2 0.879186 0.106489 0.030967
Si Si3 0.539539 0.009581 0.091520
Si Si4 0.559916 0.743150 0.827415
O O1 0.869303 0.175475 0.128457
O O2 0.733657 0.307867 0.290329
O O3 0.000000 0.196864 0.250000
O O4 0.005517 0.380630 0.145941
O O5 0.717093 0.048271 0.051994
O O6 0.936326 0.201035 0.938978
O O7 0.000000 0.000000 0.000000
O O8 0.430662 0.110567 0.170934
O O9 0.500000 0.000000 0.000000
O O10 0.500000 0.696283 0.750000
#
# Coordination Sequence:
#
# PCOD8155026 Si02
#       4
#     8   8   8   8
#     4  12  28  47  74 111 153 200 251 311 376 447
#     4  12  28  48  72 111 152 197 252 309 375 449
#     4  12  25  49  78 106 151 196 251 317 375 444
#     4  12  25  47  77 108 148 197 251 307 380 447
#
# _framework density 22.658840999999999
#
# number of rings (size 3 to 8) (size 9 to 14) (size 15 to 20)
#    0.000    0.000    5.000    4.500    7.000    3.000 
#    0.000    0.000    0.000    0.000    0.000    0.000 
#    0.000    0.000    0.000    0.000    0.000    0.000 
#
# Total GULP energy -198468.736633 kJ/mol
# GULP energy per Si atom -12404.296040 kJ/mol
# Density = 2.260727 g / cm^3
# Si number density = 22.658841 Si / 1000 Ang^3
#
#
#
# Elastic Constant Matrix: (Units=GPa)
#
#
# Indices 1 2 3 4 5 6 
#
# 1 220.8650 52.4192 81.5933 0.0000 -0.1639 0.0000
# 2 52.4192 98.0005 22.8742 0.0000 -8.1688 0.0000
# 3 81.5933 22.8742 118.5387 0.0000 1.8426 0.0000
# 4 0.0000 0.0000 0.0000 24.1084 0.0000 -0.6776
# 5 -0.1639 -8.1688 1.8426 0.0000 47.2355 0.0000
# 6 0.0000 0.0000 0.0000 -0.6776 0.0000 38.8712
#
#
#
# Elastic Compliance Matrix: (Units=1/GPa)
#
#
# Indices 1 2 3 4 5 6 
#
# 1 0.006655 -0.002633 -0.004069 0.000000 -0.000274 0.000000
# 2 -0.002633 0.011906 -0.000517 0.000000 0.002070 0.000000
# 3 -0.004069 -0.000517 0.011345 0.000000 -0.000546 0.000000
# 4 0.000000 0.000000 0.000000 0.041500 0.000000 0.000723
# 5 -0.000274 0.002070 -0.000546 0.000000 0.021549 0.000000
# 6 0.000000 0.000000 0.000000 0.000723 0.000000 0.025739
#
#
# Mechanical properties :
#
#
# Convention : Reuss Voigt Hill
#
# Bulk Modulus (GPa) = 64.64920 83.46419 74.05669
# Shear Modulus (GPa) = 36.15657 40.74418 38.45037
#
# Velocity S-wave (km/s) = 3.99895 4.24507 4.12385
# Velocity P-wave (km/s) = 7.06510 7.80657 7.44507
#
# Compressibility (1/GPa) = 0.01546810
#
# Stress axis : x y z
#
# Youngs Moduli (GPa) = 150.25194 83.99356 88.14444
#
# Poissons Ratio (x) = 0.22116 0.35864
# Poissons Ratio (y) = 0.39562 0.04559
# Poissons Ratio (z) = 0.61135 0.04344
#
# Static dielectric constant tensor:
#      x y z
#    x 4.358380 0.000000 -0.020380 
#    y 0.000000 4.795100 0.000000 
#    z -0.020380 0.000000 4.590750 
# 
# 
# High freq. dielectric constant tensor:
#      x y z
#    x 1.917060 0.000000 0.002740 
#    y 0.000000 1.892140 0.000000 
#    z 0.002740 0.000000 1.911680 
# 
# From -- ./inp_files/131926.got.cif
#   From: 2010.06.25/outbox.cif.g09.slc.cpg/sg15_66_cif.got.tgz:131926.got - 2010.06.28 07:06:18.
