data_PCOD8155331
_publ_section_title
;
Structure prediction by ZEFSAII (Michael W. Deem and Ramdas Pophale) SiO2 
 PCOD8155331
Probable space group: P 2 2 2
;
_chemical_formula_sum "Si O2"
_cell_formula_units_Z 12
_cell_length_a 16.716065
_cell_length_b 6.163154
_cell_length_c 4.735631
_cell_angle_alpha 90.000000
_cell_angle_beta 90.000000
_cell_angle_gamma 90.000000
_cell_volume 487.882146
_symmetry_space_group_name_H-M "P 2 2 2"
_symmetry_group_IT_number 16
_symmetry_cell_setting 'orthorhombic'
loop_
_space_group_symop_operation_xyz
x,y,z
-x,-y,z
x,-y,-z
-x,y,-z
loop_
_atom_site_type_symbol
_atom_site_label
_atom_site_fract_x
_atom_site_fract_y
_atom_site_fract_z
Si Si1 0.276827 0.851618 0.254429
Si Si2 0.500000 0.500000 0.500000
Si Si3 0.000000 0.000000 0.000000
Si Si4 0.112229 0.347606 0.736725
Si Si5 0.393707 0.500000 0.000000
O O1 0.198170 0.733979 0.375981
O O2 0.343167 0.685082 0.149785
O O3 0.314966 0.000000 0.500000
O O4 0.246548 0.000000 0.000000
O O5 0.443260 0.382117 0.261209
O O6 0.945869 0.852657 0.797860
O O7 0.072370 0.500000 0.500000
O O8 0.127280 0.500000 0.000000
#
# Coordination Sequence:
#
# PCOD8155331 Si02
#       5
#     4   1   1   4   2
#     4  12  25  46  78 113 148 200 257 307 369 450
#     4  10  24  46  78 114 152 198 236 306 398 422
#     4  12  30  54  72 112 164 192 254 334 368 452
#     4  12  28  50  76 110 151 203 258 312 383 443
#     4  11  24  48  76 111 156 196 246 311 368 464
#
# _framework density 24.596105999999999
#
# number of rings (size 3 to 8) (size 9 to 14) (size 15 to 20)
#    0.000    0.333    3.333    4.500    2.333    4.000 
#    0.000   12.500    0.000    0.000    0.000    0.000 
#    0.000    0.000    0.000    0.000    0.000    0.000 
#
# Total GULP energy -148673.083110 kJ/mol
# GULP energy per Si atom -12389.423593 kJ/mol
# Density = 2.454012 g / cm^3
# Si number density = 24.596106 Si / 1000 Ang^3
#
#
#
# Elastic Constant Matrix: (Units=GPa)
#
#
# Indices 1 2 3 4 5 6 
#
# 1 161.1331 77.1725 63.0074 0.0000 0.0000 0.0000
# 2 77.1725 157.7503 79.5940 0.0000 0.0000 0.0000
# 3 63.0074 79.5940 184.5376 0.0000 0.0000 0.0000
# 4 0.0000 0.0000 0.0000 68.1909 0.0000 0.0000
# 5 0.0000 0.0000 0.0000 0.0000 -1.3195 0.0000
# 6 0.0000 0.0000 0.0000 0.0000 0.0000 8.6230
#
#
#
# Elastic Compliance Matrix: (Units=1/GPa)
#
#
# Indices 1 2 3 4 5 6 
#
# 1 0.008378 -0.003394 -0.001397 0.000000 0.000000 0.000000
# 2 -0.003394 0.009477 -0.002929 0.000000 0.000000 0.000000
# 3 -0.001397 -0.002929 0.007159 0.000000 0.000000 0.000000
# 4 0.000000 0.000000 0.000000 0.014665 0.000000 0.000000
# 5 0.000000 0.000000 0.000000 0.000000 -0.757851 0.000000
# 6 0.000000 0.000000 0.000000 0.000000 0.000000 0.115968
#
#
# Mechanical properties :
#
#
# Convention : Reuss Voigt Hill
#
# Bulk Modulus (GPa) = 104.43514 104.77431 104.60472
# Shear Modulus (GPa) = -8.56790 34.00870 12.72040
#
# Velocity S-wave (km/s) = -1.86842 3.72248 2.27661
# Velocity P-wave (km/s) = 6.15610 7.82089 7.03789
#
# Compressibility (1/GPa) = 0.00957532
#
# Stress axis : x y z
#
# Youngs Moduli (GPa) = 119.36717 105.51698 139.68230
#
# Poissons Ratio (x) = 0.35809 0.19508
# Poissons Ratio (y) = 0.40509 0.40912
# Poissons Ratio (z) = 0.16671 0.30905
#
# Static dielectric constant tensor:
#      x y z
#    x 4.605040 0.000000 0.000000 
#    y 0.000000 4.585940 0.000000 
#    z 0.000000 0.000000 4.655120 
# 
# 
# High freq. dielectric constant tensor:
#      x y z
#    x 1.992550 0.000000 0.000000 
#    y 0.000000 1.961800 0.000000 
#    z 0.000000 0.000000 2.003470 
# 
# From -- ./inp_files/2167.got.cif
#   From: 2010.03.12/outbox.cif.g09.slc.cpg/sg16_2_cif.got.tgz:2167.got - 2010.03.31 00:51:45.
