data_PCOD8155904
_publ_section_title
;
Structure prediction by ZEFSAII (Michael W. Deem and Ramdas Pophale) SiO2 
 PCOD8155904
Probable space group: P 21 21 2
;
_chemical_formula_sum "Si O2"
_cell_formula_units_Z 32
_cell_length_a 17.090455
_cell_length_b 5.444251
_cell_length_c 17.765880
_cell_angle_alpha 90.000000
_cell_angle_beta 90.000000
_cell_angle_gamma 90.000000
_cell_volume 1653.021450
_symmetry_space_group_name_H-M "P 21 21 2"
_symmetry_group_IT_number 18
_symmetry_cell_setting 'orthorhombic'
loop_
_space_group_symop_operation_xyz
x,y,z
-x,-y,z
1/2+x,1/2-y,-z
1/2-x,1/2+y,-z
loop_
_atom_site_type_symbol
_atom_site_label
_atom_site_fract_x
_atom_site_fract_y
_atom_site_fract_z
Si Si1 0.293363 0.270978 0.521886
Si Si2 0.417518 0.121668 0.409600
Si Si3 0.940254 0.704383 0.842759
Si Si4 0.960148 0.758917 0.010984
Si Si5 0.279298 0.818171 0.330777
Si Si6 0.719166 0.280154 0.962707
Si Si7 0.702794 0.925204 0.185078
Si Si8 0.607954 0.561228 0.275304
O O1 0.259596 0.530103 0.492666
O O2 0.379443 0.235648 0.485946
O O3 0.294764 0.293191 0.613146
O O4 0.436641 0.329916 0.347836
O O5 0.500000 0.000000 0.432302
O O6 0.353878 0.939944 0.372996
O O7 0.848244 0.638420 0.855368
O O8 0.948452 0.877752 0.769831
O O9 0.000000 0.500000 0.816427
O O10 0.967780 0.811541 0.922103
O O11 0.872274 0.736875 0.038201
O O12 0.000000 0.500000 0.033519
O O13 0.000000 0.000000 0.049605
O O14 0.309871 0.555156 0.303629
O O15 0.250314 0.974557 0.258190
O O16 0.741336 0.296511 0.874690
O O17 0.739131 0.538734 0.003195
O O18 0.632426 0.754450 0.212304
#
# Coordination Sequence:
#
# PCOD8155904 Si02
#       8
#     4   4   4   4   4   4   4   4
#     4  10  19  38  61  81 114 163 197 241 287 352
#     4  10  21  35  54  88 123 154 203 240 295 362
#     4  10  22  34  50  81 123 167 195 231 301 379
#     4  11  24  42  60  86 121 166 207 248 313 375
#     4   9  20  36  55  85 117 156 200 238 303 362
#     4  12  24  41  64  93 125 163 211 271 311 368
#     4  10  22  36  57  89 114 159 205 253 305 359
#     4  10  20  36  52  80 120 159 195 238 299 360
#
# _framework density 19.358488999999999
#
# number of rings (size 3 to 8) (size 9 to 14) (size 15 to 20)
#    0.000    1.750    2.500    1.500    7.000    6.000 
#    0.000    0.000    0.000    0.000    3.250    0.000 
#    0.000    0.000    0.000    0.000    0.000    0.000 
#
# Total GULP energy -396470.326573 kJ/mol
# GULP energy per Si atom -12389.697705 kJ/mol
# Density = 1.931443 g / cm^3
# Si number density = 19.358489 Si / 1000 Ang^3
#
#
#
# Elastic Constant Matrix: (Units=GPa)
#
#
# Indices 1 2 3 4 5 6 
#
# 1 102.6167 40.4495 49.2066 0.0000 0.0000 0.0000
# 2 40.4495 93.4897 36.3772 0.0000 0.0000 0.0000
# 3 49.2066 36.3772 94.9554 0.0000 0.0000 0.0000
# 4 0.0000 0.0000 0.0000 21.8647 0.0000 0.0000
# 5 0.0000 0.0000 0.0000 0.0000 27.7148 0.0000
# 6 0.0000 0.0000 0.0000 0.0000 0.0000 27.7851
#
#
#
# Elastic Compliance Matrix: (Units=1/GPa)
#
#
# Indices 1 2 3 4 5 6 
#
# 1 0.014034 -0.003810 -0.005813 0.000000 0.000000 0.000000
# 2 -0.003810 0.013605 -0.003237 0.000000 0.000000 0.000000
# 3 -0.005813 -0.003237 0.014784 0.000000 0.000000 0.000000
# 4 0.000000 0.000000 0.000000 0.045736 0.000000 0.000000
# 5 0.000000 0.000000 0.000000 0.000000 0.036082 0.000000
# 6 0.000000 0.000000 0.000000 0.000000 0.000000 0.035991
#
#
# Mechanical properties :
#
#
# Convention : Reuss Voigt Hill
#
# Bulk Modulus (GPa) = 59.87493 60.34761 60.11127
# Shear Modulus (GPa) = 26.10699 26.47481 26.29090
#
# Velocity S-wave (km/s) = 3.67632 3.70213 3.68925
# Velocity P-wave (km/s) = 7.00123 7.03674 7.01901
#
# Compressibility (1/GPa) = 0.01670148
#
# Stress axis : x y z
#
# Youngs Moduli (GPa) = 71.25346 73.50450 67.64139
#
# Poissons Ratio (x) = 0.28007 0.39320
# Poissons Ratio (y) = 0.27150 0.21898
# Poissons Ratio (z) = 0.41420 0.23796
#
# Static dielectric constant tensor:
#      x y z
#    x 3.320370 0.000000 0.000000 
#    y 0.000000 4.064510 0.000000 
#    z 0.000000 0.000000 3.658490 
# 
# 
# High freq. dielectric constant tensor:
#      x y z
#    x 1.720150 0.000000 0.000000 
#    y 0.000000 1.777510 0.000000 
#    z 0.000000 0.000000 1.740360 
# 
# From -- ./inp_files/7422.got.cif
#   From: 2010.03.12/outbox.cif.g09.slc.cpg/sg18_4_cif.got.tgz:7422.got - 2010.04.10 18:53:55.
