data_PCOD8155129
_publ_section_title
;
Structure prediction by ZEFSAII (Michael W. Deem and Ramdas Pophale) SiO2 
 PCOD8155129
Probable space group: C 2/C
;
_chemical_formula_sum "Si O2"
_cell_formula_units_Z 40
_cell_length_a 13.499413
_cell_length_b 12.207865
_cell_length_c 8.656059
_cell_angle_alpha 90.000000
_cell_angle_beta 90.117694
_cell_angle_gamma 90.000000
_cell_volume 1426.506957
_symmetry_space_group_name_H-M "C 2/C"
_symmetry_group_IT_number 15
_symmetry_cell_setting 'monoclinic'
loop_
_space_group_symop_operation_xyz
x,y,z
-x,y,1/2-z
-x,-y,-z
x,-y,1/2+z
1/2+x,1/2+y,z
1/2-x,1/2+y,1/2-z
1/2-x,1/2-y,-z
1/2+x,1/2-y,1/2+z
loop_
_atom_site_type_symbol
_atom_site_label
_atom_site_fract_x
_atom_site_fract_y
_atom_site_fract_z
Si Si1 0.708873 0.921551 0.119963
Si Si2 0.161608 0.199581 0.601321
Si Si3 0.609673 0.892053 0.798824
Si Si4 0.893299 0.964617 0.933079
Si Si5 0.900100 0.759592 0.710894
O O1 0.630548 0.903804 0.980732
O O2 0.822375 0.917055 0.066533
O O3 0.694578 0.819226 0.244294
O O4 0.687304 0.035797 0.202328
O O5 0.250000 0.250000 0.500000
O O6 0.129627 0.266802 0.752073
O O7 0.078466 0.212705 0.467863
O O8 0.165129 0.069857 0.641901
O O9 0.500000 0.929632 0.750000
O O10 0.898263 0.875024 0.799144
O O11 0.000000 0.000000 0.000000
O O12 0.000000 0.691658 0.750000
#
# Coordination Sequence:
#
# PCOD8155129 Si02
#       5
#     8   8   8   8   8
#     4  12  27  50  79 115 155 204 261 319 389 464
#     4  12  26  50  77 110 159 200 258 321 384 456
#     4  12  26  49  81 113 154 204 257 321 394 460
#     4  12  28  49  77 113 159 208 255 315 389 463
#     4  12  26  49  79 114 155 200 259 323 386 460
#
# _framework density 28.040521999999999
#
# number of rings (size 3 to 8) (size 9 to 14) (size 15 to 20)
#    0.000    0.000    4.000    5.400    0.000    2.400 
#    0.000    0.000    0.000    0.000    0.000    0.000 
#    0.000    0.000    0.000    0.000    0.000    0.000 
#
# Total GULP energy -247982.289501 kJ/mol
# GULP energy per Si atom -12399.114475 kJ/mol
# Density = 2.797670 g / cm^3
# Si number density = 28.040522 Si / 1000 Ang^3
#
#
#
# Elastic Constant Matrix: (Units=GPa)
#
#
# Indices 1 2 3 4 5 6 
#
# 1 123.8894 24.6485 -6.4612 0.0000 -13.1637 0.0000
# 2 24.6485 168.1719 45.6319 0.0000 1.4929 0.0000
# 3 -6.4612 45.6319 129.0162 0.0000 3.9577 0.0000
# 4 0.0000 0.0000 0.0000 49.3722 0.0000 5.0213
# 5 -13.1637 1.4929 3.9577 0.0000 33.2710 0.0000
# 6 0.0000 0.0000 0.0000 5.0213 0.0000 40.8732
#
#
#
# Elastic Compliance Matrix: (Units=1/GPa)
#
#
# Indices 1 2 3 4 5 6 
#
# 1 0.008794 -0.001560 0.000887 0.000000 0.003444 0.000000
# 2 -0.001560 0.006854 -0.002483 0.000000 -0.000629 0.000000
# 3 0.000887 -0.002483 0.008691 0.000000 -0.000572 0.000000
# 4 0.000000 0.000000 0.000000 0.020511 0.000000 -0.002520
# 5 0.003444 -0.000629 -0.000572 0.000000 0.031515 0.000000
# 6 0.000000 0.000000 0.000000 -0.002520 0.000000 0.024775
#
#
# Mechanical properties :
#
#
# Convention : Reuss Voigt Hill
#
# Bulk Modulus (GPa) = 55.47410 60.96846 58.22128
# Shear Modulus (GPa) = 44.06724 48.52051 46.29387
#
# Velocity S-wave (km/s) = 3.96859 4.16429 4.06761
# Velocity P-wave (km/s) = 6.38953 6.70163 6.54744
#
# Compressibility (1/GPa) = 0.01802643
#
# Stress axis : x y z
#
# Youngs Moduli (GPa) = 113.71035 145.89351 115.05945
#
# Poissons Ratio (x) = 0.22761 -0.10201
# Poissons Ratio (y) = 0.17740 0.28571
# Poissons Ratio (z) = -0.10081 0.36227
#
# Static dielectric constant tensor:
#      x y z
#    x 14.251620 0.000000 20.483280 
#    y 0.000000 5.085870 0.000000 
#    z 20.483280 0.000000 53.454980 
# 
# 
# High freq. dielectric constant tensor:
#      x y z
#    x 2.166490 0.000000 0.026940 
#    y 0.000000 2.139390 0.000000 
#    z 0.026940 0.000000 2.157150 
# 
# From -- ./inp_files/46113.got.cif
#   From: 2010.06.25/outbox.cif.g09.slc.cpg/sg15_24_cif.got.tgz:46113.got - 2010.06.28 07:06:18.
