data_PCOD8155073
_publ_section_title
;
Structure prediction by ZEFSAII (Michael W. Deem and Ramdas Pophale) SiO2 
 PCOD8155073
Probable space group: C 2/C
;
_chemical_formula_sum "Si O2"
_cell_formula_units_Z 32
_cell_length_a 16.055342
_cell_length_b 6.068482
_cell_length_c 14.436038
_cell_angle_alpha 90.000000
_cell_angle_beta 119.439708
_cell_angle_gamma 90.000000
_cell_volume 1224.905728
_symmetry_space_group_name_H-M "C 2/C"
_symmetry_group_IT_number 15
_symmetry_cell_setting 'monoclinic'
loop_
_space_group_symop_operation_xyz
x,y,z
-x,y,1/2-z
-x,-y,-z
x,-y,1/2+z
1/2+x,1/2+y,z
1/2-x,1/2+y,1/2-z
1/2-x,1/2-y,-z
1/2+x,1/2-y,1/2+z
loop_
_atom_site_type_symbol
_atom_site_label
_atom_site_fract_x
_atom_site_fract_y
_atom_site_fract_z
Si Si1 0.147059 0.201904 0.775023
Si Si2 0.525118 0.061990 0.617795
Si Si3 0.643178 0.348738 0.929018
Si Si4 0.835531 0.916804 0.880484
O O1 0.057934 0.358782 0.700591
O O2 0.235922 0.329998 0.868694
O O3 0.122527 0.999203 0.828613
O O4 0.188136 0.119822 0.699118
O O5 0.430306 0.146061 0.618851
O O6 0.606803 0.245038 0.651212
O O7 0.500000 0.000000 0.500000
O O8 0.750000 0.250000 0.000000
O O9 0.608929 0.493501 0.998924
#
# Coordination Sequence:
#
# PCOD8155073 Si02
#       4
#     8   8   8   8
#     4  12  26  50  85 117 160 216 271 335 416 481
#     4  12  27  53  80 112 165 214 266 339 410 488
#     4  12  28  53  82 124 160 213 280 337 406 494
#     4  12  25  55  76 113 164 206 268 338 403 490
#
# _framework density 26.124459000000002
#
# number of rings (size 3 to 8) (size 9 to 14) (size 15 to 20)
#    0.000    0.000    5.000    4.500    0.000    1.000 
#    9.000    0.000    0.000    0.000    0.000    0.000 
#    0.000    0.000    0.000    0.000    0.000    0.000 
#
# Total GULP energy -198411.753295 kJ/mol
# GULP energy per Si atom -12400.734581 kJ/mol
# Density = 2.606500 g / cm^3
# Si number density = 26.124459 Si / 1000 Ang^3
#
#
#
# Elastic Constant Matrix: (Units=GPa)
#
#
# Indices 1 2 3 4 5 6 
#
# 1 143.0897 73.3110 51.6609 0.0000 17.8515 0.0000
# 2 73.3110 139.0224 72.9629 0.0000 10.1457 0.0000
# 3 51.6609 72.9629 135.3007 0.0000 -2.5303 0.0000
# 4 0.0000 0.0000 0.0000 72.1206 0.0000 -3.6378
# 5 17.8515 10.1457 -2.5303 0.0000 51.0727 0.0000
# 6 0.0000 0.0000 0.0000 -3.6378 0.0000 66.0918
#
#
#
# Elastic Compliance Matrix: (Units=1/GPa)
#
#
# Indices 1 2 3 4 5 6 
#
# 1 0.010108 -0.004290 -0.001597 0.000000 -0.002760 0.000000
# 2 -0.004290 0.012122 -0.004920 0.000000 -0.001152 0.000000
# 3 -0.001597 -0.004920 0.010693 0.000000 0.002065 0.000000
# 4 0.000000 0.000000 0.000000 0.013904 0.000000 0.000765
# 5 -0.002760 -0.001152 0.002065 0.000000 0.020876 0.000000
# 6 0.000000 0.000000 0.000000 0.000765 0.000000 0.015173
#
#
# Mechanical properties :
#
#
# Convention : Reuss Voigt Hill
#
# Bulk Modulus (GPa) = 88.44510 90.36471 89.40491
# Shear Modulus (GPa) = 46.18503 52.48890 49.33697
#
# Velocity S-wave (km/s) = 4.20918 4.48726 4.35044
# Velocity P-wave (km/s) = 7.58629 7.84299 7.71571
#
# Compressibility (1/GPa) = 0.01130645
#
# Stress axis : x y z
#
# Youngs Moduli (GPa) = 98.93346 82.49484 93.52074
#
# Poissons Ratio (x) = 0.35394 0.14938
# Poissons Ratio (y) = 0.42447 0.46015
# Poissons Ratio (z) = 0.15803 0.40590
#
# Static dielectric constant tensor:
#      x y z
#    x 4.517650 0.000000 0.115300 
#    y 0.000000 5.142820 0.000000 
#    z 0.115300 0.000000 4.905170 
# 
# 
# High freq. dielectric constant tensor:
#      x y z
#    x 2.046860 0.000000 -0.003880 
#    y 0.000000 2.057320 0.000000 
#    z -0.003880 0.000000 2.064210 
# 
# From -- ./inp_files/207897.got.cif
#   From: 2010.06.25/outbox.cif.g09.slc.cpg/sg15_104_cif.got.tgz:207897.got - 2010.06.28 07:06:18.
