data_PCOD8155230
_publ_section_title
;
Structure prediction by ZEFSAII (Michael W. Deem and Ramdas Pophale) SiO2 
 PCOD8155230
Probable space group: P 2 2 2
;
_chemical_formula_sum "Si O2"
_cell_formula_units_Z 18
_cell_length_a 16.515489
_cell_length_b 10.073623
_cell_length_c 5.341522
_cell_angle_alpha 90.000000
_cell_angle_beta 90.000000
_cell_angle_gamma 90.000000
_cell_volume 888.673341
_symmetry_space_group_name_H-M "P 2 2 2"
_symmetry_group_IT_number 16
_symmetry_cell_setting 'orthorhombic'
loop_
_space_group_symop_operation_xyz
x,y,z
-x,-y,z
x,-y,-z
-x,y,-z
loop_
_atom_site_type_symbol
_atom_site_label
_atom_site_fract_x
_atom_site_fract_y
_atom_site_fract_z
Si Si1 0.290627 0.876073 0.853503
Si Si2 0.533597 0.850098 0.254940
Si Si3 0.840733 0.000000 0.500000
Si Si4 0.092682 0.276393 0.541955
Si Si5 0.182189 0.647105 0.971757
O O1 0.369694 0.830435 0.703538
O O2 0.254925 0.753159 0.014671
O O3 0.215510 0.937508 0.708875
O O4 0.328371 0.000000 0.000000
O O5 0.500000 0.774625 0.500000
O O6 0.500000 0.000000 0.258113
O O7 0.500000 0.781558 0.000000
O O8 0.897877 0.881232 0.593571
O O9 0.143188 0.329424 0.303036
O O10 0.000000 0.313296 0.500000
O O11 0.118243 0.343968 0.802088
O O12 0.219530 0.500000 0.000000
#
# Coordination Sequence:
#
# PCOD8155230 Si02
#       5
#     4   4   2   4   4
#     4  11  20  37  61  86 121 156 197 246 294 355
#     4  10  19  30  52  87 116 142 183 235 286 337
#     4  10  21  36  57  90 120 150 200 248 311 352
#     4  11  23  39  62  86 119 156 202 257 306 356
#     4  11  25  41  60  87 119 160 206 244 298 360
#
# _framework density 20.254911
#
# number of rings (size 3 to 8) (size 9 to 14) (size 15 to 20)
#    0.000    1.333    4.444    3.000    0.000    2.667 
#    0.000    2.222    0.000    0.667    0.000    3.111 
#    0.000    0.000    0.000    0.000    0.000    0.000 
#
# Total GULP energy -222985.924655 kJ/mol
# GULP energy per Si atom -12388.106925 kJ/mol
# Density = 2.020881 g / cm^3
# Si number density = 20.254911 Si / 1000 Ang^3
#
#
#
# Elastic Constant Matrix: (Units=GPa)
#
#
# Indices 1 2 3 4 5 6 
#
# 1 108.3851 31.3917 27.5424 0.0000 0.0000 0.0000
# 2 31.3917 119.7577 24.2400 0.0000 0.0000 0.0000
# 3 27.5424 24.2400 134.3803 0.0000 0.0000 0.0000
# 4 0.0000 0.0000 0.0000 17.6329 0.0000 0.0000
# 5 0.0000 0.0000 0.0000 0.0000 35.2615 0.0000
# 6 0.0000 0.0000 0.0000 0.0000 0.0000 4.9139
#
#
#
# Elastic Compliance Matrix: (Units=1/GPa)
#
#
# Indices 1 2 3 4 5 6 
#
# 1 0.010342 -0.002368 -0.001693 0.000000 0.000000 0.000000
# 2 -0.002368 0.009209 -0.001176 0.000000 0.000000 0.000000
# 3 -0.001693 -0.001176 0.008001 0.000000 0.000000 0.000000
# 4 0.000000 0.000000 0.000000 0.056712 0.000000 0.000000
# 5 0.000000 0.000000 0.000000 0.000000 0.028360 0.000000
# 6 0.000000 0.000000 0.000000 0.000000 0.000000 0.203503
#
#
# Mechanical properties :
#
#
# Convention : Reuss Voigt Hill
#
# Bulk Modulus (GPa) = 58.55290 58.76348 58.65819
# Shear Modulus (GPa) = 15.04695 30.18494 22.61595
#
# Velocity S-wave (km/s) = 2.72854 3.86457 3.34513
# Velocity P-wave (km/s) = 6.23677 6.99915 6.62893
#
# Compressibility (1/GPa) = 0.01707857
#
# Stress axis : x y z
#
# Youngs Moduli (GPa) = 96.68900 108.58941 124.99145
#
# Poissons Ratio (x) = 0.25719 0.21155
# Poissons Ratio (y) = 0.22900 0.14695
# Poissons Ratio (z) = 0.16365 0.12767
#
# Static dielectric constant tensor:
#      x y z
#    x 3.613400 0.000000 0.000000 
#    y 0.000000 3.927380 0.000000 
#    z 0.000000 0.000000 4.384990 
# 
# 
# High freq. dielectric constant tensor:
#      x y z
#    x 1.789960 0.000000 0.000000 
#    y 0.000000 1.761180 0.000000 
#    z 0.000000 0.000000 1.799760 
# 
# From -- ./inp_files/843.got.cif
#   From: 2010.03.12/outbox.cif.g09.slc.cpg/sg16_1_cif.got.tgz:843.got - 2010.03.31 00:51:45.
