data_PCOD8155227
_publ_section_title
;
Structure prediction by ZEFSAII (Michael W. Deem and Ramdas Pophale) SiO2 
 PCOD8155227
Probable space group: P 2 2 2
;
_chemical_formula_sum "Si O2"
_cell_formula_units_Z 32
_cell_length_a 11.916358
_cell_length_b 5.034580
_cell_length_c 29.012523
_cell_angle_alpha 90.000000
_cell_angle_beta 90.000000
_cell_angle_gamma 90.000000
_cell_volume 1740.573175
_symmetry_space_group_name_H-M "P 2 2 2"
_symmetry_group_IT_number 16
_symmetry_cell_setting 'orthorhombic'
loop_
_space_group_symop_operation_xyz
x,y,z
-x,-y,z
x,-y,-z
-x,y,-z
loop_
_atom_site_type_symbol
_atom_site_label
_atom_site_fract_x
_atom_site_fract_y
_atom_site_fract_z
Si Si1 0.571301 0.253669 0.720229
Si Si2 0.780831 0.918920 0.330386
Si Si3 0.129929 0.020879 0.233035
Si Si4 0.124974 0.430189 0.625220
Si Si5 0.875534 0.254292 0.478643
Si Si6 0.260238 0.490023 0.205661
Si Si7 0.632973 0.012058 0.051299
Si Si8 0.632663 0.492215 0.891747
O O1 0.500000 0.500000 0.699184
O O2 0.649798 0.127441 0.680402
O O3 0.639890 0.384763 0.761915
O O4 0.500000 0.000000 0.738881
O O5 0.812074 0.713326 0.371548
O O6 0.853069 0.861509 0.284529
O O7 0.808386 0.222785 0.343086
O O8 0.198641 0.747140 0.227184
O O9 0.174006 0.247675 0.198555
O O10 0.000000 0.000000 0.221852
O O11 0.120027 0.285634 0.575923
O O12 0.000000 0.500000 0.642522
O O13 0.807301 0.500000 0.500000
O O14 0.000000 0.251297 0.500000
O O15 0.811762 0.000000 0.500000
O O16 0.309331 0.560460 0.156294
O O17 0.673057 0.287293 0.072461
O O18 0.500000 0.000000 0.047147
O O19 0.674593 0.781385 0.085631
O O20 0.685842 0.000000 0.000000
O O21 0.500000 0.500000 0.883528
#
# Coordination Sequence:
#
# PCOD8155227 Si02
#       8
#     4   4   4   4   4   4   4   4
#     4  11  22  39  58  76 111 150 184 241 286 312
#     4  11  24  35  53  83 105 142 198 214 261 335
#     4  11  22  39  54  74 112 147 180 228 274 318
#     4  12  21  34  54  79 115 151 174 218 256 324
#     4  10  19  32  49  73 109 148 172 198 265 324
#     4  11  22  35  56  81 104 142 193 228 270 335
#     4   9  17  29  45  68 104 144 170 204 270 339
#     4  10  19  30  48  75 106 136 177 224 262 320
#
# _framework density 18.384747999999998
#
# number of rings (size 3 to 8) (size 9 to 14) (size 15 to 20)
#    0.000    1.375    1.250    7.500    1.750    3.000 
#    0.000    0.000    0.000    0.000    0.000    0.000 
#    0.000   70.000    0.000    0.000    0.000    0.000 
#
# Total GULP energy -396551.142465 kJ/mol
# GULP energy per Si atom -12392.223202 kJ/mol
# Density = 1.834290 g / cm^3
# Si number density = 18.384748 Si / 1000 Ang^3
#
#
#
# Elastic Constant Matrix: (Units=GPa)
#
#
# Indices 1 2 3 4 5 6 
#
# 1 78.6005 38.5975 33.3968 0.0000 0.0000 0.0000
# 2 38.5975 140.0940 31.6731 0.0000 0.0000 0.0000
# 3 33.3968 31.6731 90.6943 0.0000 0.0000 0.0000
# 4 0.0000 0.0000 0.0000 29.1935 0.0000 0.0000
# 5 0.0000 0.0000 0.0000 0.0000 14.7739 0.0000
# 6 0.0000 0.0000 0.0000 0.0000 0.0000 32.4899
#
#
#
# Elastic Compliance Matrix: (Units=1/GPa)
#
#
# Indices 1 2 3 4 5 6 
#
# 1 0.016480 -0.003440 -0.004867 0.000000 0.000000 0.000000
# 2 -0.003440 0.008468 -0.001691 0.000000 0.000000 0.000000
# 3 -0.004867 -0.001691 0.013409 0.000000 0.000000 0.000000
# 4 0.000000 0.000000 0.000000 0.034254 0.000000 0.000000
# 5 0.000000 0.000000 0.000000 0.000000 0.067687 0.000000
# 6 0.000000 0.000000 0.000000 0.000000 0.000000 0.030779
#
#
# Mechanical properties :
#
#
# Convention : Reuss Voigt Hill
#
# Bulk Modulus (GPa) = 54.46261 57.41372 55.93817
# Shear Modulus (GPa) = 25.35600 29.00622 27.18111
#
# Velocity S-wave (km/s) = 3.71777 3.97638 3.84925
# Velocity P-wave (km/s) = 6.93666 7.23733 7.08859
#
# Compressibility (1/GPa) = 0.01836122
#
# Stress axis : x y z
#
# Youngs Moduli (GPa) = 60.68030 118.09120 74.57854
#
# Poissons Ratio (x) = 0.40623 0.36298
# Poissons Ratio (y) = 0.20874 0.12608
# Poissons Ratio (z) = 0.29534 0.19964
#
# Static dielectric constant tensor:
#      x y z
#    x 3.189180 0.000000 0.000000 
#    y 0.000000 3.370340 0.000000 
#    z 0.000000 0.000000 3.343310 
# 
# 
# High freq. dielectric constant tensor:
#      x y z
#    x 1.666130 0.000000 0.000000 
#    y 0.000000 1.747080 0.000000 
#    z 0.000000 0.000000 1.702730 
# 
# From -- ./inp_files/9670.got.cif
#   From: 2010.03.12/outbox.cif.g09.slc.cpg/sg16_5_cif.got.tgz:9670.got - 2010.03.31 00:51:45.
