data_PCOD8155062
_publ_section_title
;
Structure prediction by ZEFSAII (Michael W. Deem and Ramdas Pophale) SiO2 
 PCOD8155062
Probable space group: C 2/C
;
_chemical_formula_sum "Si O2"
_cell_formula_units_Z 44
_cell_length_a 16.346545
_cell_length_b 10.366142
_cell_length_c 11.667862
_cell_angle_alpha 90.000000
_cell_angle_beta 76.062128
_cell_angle_gamma 90.000000
_cell_volume 1918.914716
_symmetry_space_group_name_H-M "C 2/C"
_symmetry_group_IT_number 15
_symmetry_cell_setting 'monoclinic'
loop_
_space_group_symop_operation_xyz
x,y,z
-x,y,1/2-z
-x,-y,-z
x,-y,1/2+z
1/2+x,1/2+y,z
1/2-x,1/2+y,1/2-z
1/2-x,1/2-y,-z
1/2+x,1/2-y,1/2+z
loop_
_atom_site_type_symbol
_atom_site_label
_atom_site_fract_x
_atom_site_fract_y
_atom_site_fract_z
Si Si1 0.844034 0.592848 0.905405
Si Si2 0.803032 0.178313 0.258683
Si Si3 0.096392 0.054590 0.722159
Si Si4 0.878779 0.711772 0.135949
Si Si5 0.000000 0.441645 0.750000
Si Si6 0.201843 0.875988 0.985427
O O1 0.813806 0.680358 0.809069
O O2 0.929096 0.524437 0.836847
O O3 0.766816 0.498426 0.965541
O O4 0.869421 0.686913 0.003050
O O5 0.703659 0.148462 0.278022
O O6 0.842884 0.153829 0.120498
O O7 0.849059 0.072890 0.318689
O O8 0.117399 0.135711 0.831512
O O9 0.123525 0.129287 0.599115
O O10 0.000000 0.015520 0.750000
O O11 0.960765 0.646113 0.163146
O O12 0.250000 0.750000 0.000000
#
# Coordination Sequence:
#
# PCOD8155062 Si02
#       6
#     8   8   8   8   4   8
#     4  12  28  48  79 114 150 204 256 316 375 462
#     4  12  27  48  78 109 154 200 251 311 391 459
#     4  12  28  49  74 116 150 197 256 321 384 450
#     4  12  25  50  76 108 153 198 258 308 381 454
#     4  12  26  48  76 114 148 198 258 316 370 454
#     4  12  26  48  81 108 151 205 254 311 387 453
#
# _framework density 22.929628000000001
#
# number of rings (size 3 to 8) (size 9 to 14) (size 15 to 20)
#    0.000    0.000    6.364    2.182    6.364    2.182 
#    0.000    0.000    0.000    0.000    0.000    0.000 
#    0.000    0.000    0.000    0.000    0.000    0.000 
#
# Total GULP energy -272644.721168 kJ/mol
# GULP energy per Si atom -12392.941871 kJ/mol
# Density = 2.287744 g / cm^3
# Si number density = 22.929628 Si / 1000 Ang^3
#
#
#
# Elastic Constant Matrix: (Units=GPa)
#
#
# Indices 1 2 3 4 5 6 
#
# 1 134.0120 44.5124 27.1619 0.0000 -5.3508 0.0000
# 2 44.5124 119.2412 21.5391 0.0000 0.3649 0.0000
# 3 27.1619 21.5391 85.7094 0.0000 7.8123 0.0000
# 4 0.0000 0.0000 0.0000 35.4667 0.0000 -3.5972
# 5 -5.3508 0.3649 7.8123 0.0000 42.5374 0.0000
# 6 0.0000 0.0000 0.0000 -3.5972 0.0000 21.2470
#
#
#
# Elastic Compliance Matrix: (Units=1/GPa)
#
#
# Indices 1 2 3 4 5 6 
#
# 1 0.008956 -0.002943 -0.002241 0.000000 0.001563 0.000000
# 2 -0.002943 0.009757 -0.001503 0.000000 -0.000178 0.000000
# 3 -0.002241 -0.001503 0.012997 0.000000 -0.002656 0.000000
# 4 0.000000 0.000000 0.000000 0.028688 0.000000 0.004857
# 5 0.001563 -0.000178 -0.002656 0.000000 0.024195 0.000000
# 6 0.000000 0.000000 0.000000 0.004857 0.000000 0.047888
#
#
# Mechanical properties :
#
#
# Convention : Reuss Voigt Hill
#
# Bulk Modulus (GPa) = 54.53807 58.37662 56.45735
# Shear Modulus (GPa) = 32.90157 36.23349 34.56753
#
# Velocity S-wave (km/s) = 3.79211 3.97949 3.88693
# Velocity P-wave (km/s) = 6.55821 6.82857 6.69476
#
# Compressibility (1/GPa) = 0.01833581
#
# Stress axis : x y z
#
# Youngs Moduli (GPa) = 111.65301 102.48906 76.93850
#
# Poissons Ratio (x) = 0.30166 0.17243
# Poissons Ratio (y) = 0.32863 0.11564
# Poissons Ratio (z) = 0.25023 0.15404
#
# Static dielectric constant tensor:
#      x y z
#    x 4.155410 0.000000 -0.049730 
#    y 0.000000 4.149120 0.000000 
#    z -0.049730 0.000000 4.182170 
# 
# 
# High freq. dielectric constant tensor:
#      x y z
#    x 1.909050 0.000000 0.000400 
#    y 0.000000 1.911440 0.000000 
#    z 0.000400 0.000000 1.916680 
# 
# From -- ./inp_files/95010.got.cif
#   From: 2010.06.25/outbox.cif.g09.slc.cpg/sg15_48_cif.got.tgz:95010.got - 2010.06.28 07:06:18.
