data_PCOD8155993
_publ_section_title
;
Structure prediction by ZEFSAII (Michael W. Deem and Ramdas Pophale) SiO2 
 PCOD8155993
Probable space group: P 21 21 2
;
_chemical_formula_sum "Si O2"
_cell_formula_units_Z 30
_cell_length_a 19.557826
_cell_length_b 10.904930
_cell_length_c 6.283477
_cell_angle_alpha 90.000000
_cell_angle_beta 90.000000
_cell_angle_gamma 90.000000
_cell_volume 1340.119387
_symmetry_space_group_name_H-M "P 21 21 2"
_symmetry_group_IT_number 18
_symmetry_cell_setting 'orthorhombic'
loop_
_space_group_symop_operation_xyz
x,y,z
-x,-y,z
1/2+x,1/2-y,-z
1/2-x,1/2+y,-z
loop_
_atom_site_type_symbol
_atom_site_label
_atom_site_fract_x
_atom_site_fract_y
_atom_site_fract_z
Si Si1 0.482247 0.283375 0.186033
Si Si2 0.272599 0.751406 0.934331
Si Si3 0.626356 0.211686 0.322306
Si Si4 0.127851 0.676490 0.105751
Si Si5 0.697498 0.419610 0.569190
Si Si6 0.000000 0.000000 0.117681
Si Si7 0.684163 0.032768 0.653015
Si Si8 0.098609 0.878246 0.421912
O O1 0.545427 0.206665 0.278425
O O2 0.442731 0.364076 0.360576
O O3 0.429299 0.188477 0.077533
O O4 0.514515 0.379084 0.019846
O O5 0.289860 0.624216 0.811755
O O6 0.271527 0.861423 0.764460
O O7 0.329299 0.783461 0.108748
O O8 0.197645 0.740447 0.031086
O O9 0.642209 0.332059 0.459520
O O10 0.641666 0.089316 0.457316
O O11 0.135963 0.533656 0.170888
O O12 0.102678 0.745331 0.317263
O O13 0.768495 0.422488 0.438032
O O14 0.673006 0.560958 0.549397
O O15 0.934954 0.021478 0.265907
#
# Coordination Sequence:
#
# PCOD8155993 Si02
#       8
#     4   4   4   4   4   2   4   4
#     4  11  24  42  69  99 147 187 231 286 362 418
#     4  11  25  44  72  99 136 179 236 288 353 414
#     4  11  24  44  68 102 136 188 232 293 351 416
#     4  11  26  43  68 103 136 186 238 286 350 426
#     4  11  23  40  72 101 134 171 232 296 351 411
#     4  10  20  38  64 102 136 174 230 286 350 422
#     4  11  26  43  68 102 139 179 235 285 351 419
#     4  11  23  40  69 101 136 177 229 296 352 411
#
# _framework density 22.386066
#
# number of rings (size 3 to 8) (size 9 to 14) (size 15 to 20)
#    0.000    1.067    1.333    4.400    7.467    5.333 
#    0.000    4.000    0.000    0.000    0.000    0.000 
#    0.000    0.000    0.000    0.000    0.000    0.000 
#
# Total GULP energy -372098.175385 kJ/mol
# GULP energy per Si atom -12403.272513 kJ/mol
# Density = 2.233511 g / cm^3
# Si number density = 22.386066 Si / 1000 Ang^3
#
#
#
# Elastic Constant Matrix: (Units=GPa)
#
#
# Indices 1 2 3 4 5 6 
#
# 1 117.4893 44.1715 50.2455 0.0000 0.0000 0.0000
# 2 44.1715 87.7926 41.0200 0.0000 0.0000 0.0000
# 3 50.2455 41.0200 122.1554 0.0000 0.0000 0.0000
# 4 0.0000 0.0000 0.0000 31.3879 0.0000 0.0000
# 5 0.0000 0.0000 0.0000 0.0000 33.3232 0.0000
# 6 0.0000 0.0000 0.0000 0.0000 0.0000 36.3795
#
#
#
# Elastic Compliance Matrix: (Units=1/GPa)
#
#
# Indices 1 2 3 4 5 6 
#
# 1 0.011527 -0.004251 -0.003314 0.000000 0.000000 0.000000
# 2 -0.004251 0.015078 -0.003315 0.000000 0.000000 0.000000
# 3 -0.003314 -0.003315 0.010662 0.000000 0.000000 0.000000
# 4 0.000000 0.000000 0.000000 0.031859 0.000000 0.000000
# 5 0.000000 0.000000 0.000000 0.000000 0.030009 0.000000
# 6 0.000000 0.000000 0.000000 0.000000 0.000000 0.027488
#
#
# Mechanical properties :
#
#
# Convention : Reuss Voigt Hill
#
# Bulk Modulus (GPa) = 64.48205 66.47904 65.48054
# Shear Modulus (GPa) = 32.56214 33.01813 32.79014
#
# Velocity S-wave (km/s) = 3.81802 3.84466 3.83137
# Velocity P-wave (km/s) = 6.95007 7.03347 6.99189
#
# Compressibility (1/GPa) = 0.01550819
#
# Stress axis : x y z
#
# Youngs Moduli (GPa) = 86.75382 66.32104 93.78799
#
# Poissons Ratio (x) = 0.28195 0.31078
# Poissons Ratio (y) = 0.36882 0.31087
# Poissons Ratio (z) = 0.28748 0.21983
#
# Static dielectric constant tensor:
#      x y z
#    x 3.948920 0.000000 0.000000 
#    y 0.000000 3.805750 0.000000 
#    z 0.000000 0.000000 4.229220 
# 
# 
# High freq. dielectric constant tensor:
#      x y z
#    x 1.879250 0.000000 0.000000 
#    y 0.000000 1.873110 0.000000 
#    z 0.000000 0.000000 1.898580 
# 
# From -- ./inp_files/1252.got.cif
#   From: 2010.03.12/outbox.cif.g09.slc.cpg/sg18_1_cif.got.tgz:1252.got - 2010.04.10 18:53:55.
