data_PCOD8155411
_publ_section_title
;
Structure prediction by ZEFSAII (Michael W. Deem and Ramdas Pophale) SiO2 
 PCOD8155411
Probable space group: P 2 2 21
;
_chemical_formula_sum "Si O2"
_cell_formula_units_Z 32
_cell_length_a 5.179158
_cell_length_b 18.703508
_cell_length_c 18.961863
_cell_angle_alpha 90.000000
_cell_angle_beta 90.000000
_cell_angle_gamma 90.000000
_cell_volume 1836.805768
_symmetry_space_group_name_H-M "P 2 2 21"
_symmetry_group_IT_number 17
_symmetry_cell_setting 'orthorhombic'
loop_
_space_group_symop_operation_xyz
x,y,z
-x,-y,1/2+z
x,-y,-z
-x,y,1/2-z
loop_
_atom_site_type_symbol
_atom_site_label
_atom_site_fract_x
_atom_site_fract_y
_atom_site_fract_z
Si Si1 0.408032 0.871577 0.320787
Si Si2 0.065728 0.835073 0.001759
Si Si3 0.438308 0.399211 0.439130
Si Si4 0.561311 0.555182 0.101143
Si Si5 0.936826 0.318920 0.459583
Si Si6 0.582150 0.079580 0.975367
Si Si7 0.062368 0.365154 0.878166
Si Si8 0.920223 0.210887 0.656823
O O1 0.500000 0.915283 0.250000
O O2 0.384821 0.921584 0.389736
O O3 0.625194 0.811752 0.333568
O O4 0.140270 0.831586 0.298638
O O5 0.342784 0.872533 0.000004
O O6 0.990053 0.804750 0.077573
O O7 0.837388 0.891494 0.984478
O O8 0.066287 0.767229 0.949078
O O9 0.439025 0.423211 0.519784
O O10 0.435304 0.469551 0.390294
O O11 0.189441 0.350963 0.422356
O O12 0.688719 0.352140 0.420774
O O13 0.309728 0.586405 0.139615
O O14 0.811791 0.587809 0.138882
O O15 0.928093 0.339946 0.541216
O O16 0.527179 0.000000 0.000000
O O17 0.060973 0.295402 0.828067
#
# Coordination Sequence:
#
# PCOD8155411 Si02
#       8
#     4   4   4   4   4   4   4   4
#     4  10  19  31  46  64  85 109 141 177 214 256
#     4   9  17  28  42  59  79 106 141 178 211 249
#     4   9  15  21  30  46  69  98 133 170 202 236
#     4   9  15  21  30  46  69  98 133 170 204 236
#     4   9  15  23  34  48  69  98 133 170 204 237
#     4  10  19  31  46  64  85 109 141 179 217 264
#     4   9  15  23  34  48  69  98 133 170 202 232
#     4   9  17  28  42  59  79 106 141 178 210 244
#
# _framework density 17.421547
#
# number of rings (size 3 to 8) (size 9 to 14) (size 15 to 20)
#    0.000    2.750    0.000    3.000    0.000    9.000 
#    0.000    0.000    0.000    0.000    0.000    0.000 
#    0.000    0.000    0.000    0.000    0.000   87.500 
#
# Total GULP energy -396625.303614 kJ/mol
# GULP energy per Si atom -12394.540738 kJ/mol
# Density = 1.738190 g / cm^3
# Si number density = 17.421547 Si / 1000 Ang^3
#
#
#
# Elastic Constant Matrix: (Units=GPa)
#
#
# Indices 1 2 3 4 5 6 
#
# 1 138.6474 43.0369 13.9708 0.0000 0.0000 0.0000
# 2 43.0369 107.5352 22.9248 0.0000 0.0000 0.0000
# 3 13.9708 22.9248 23.6066 0.0000 0.0000 0.0000
# 4 0.0000 0.0000 0.0000 4.4953 0.0000 0.0000
# 5 0.0000 0.0000 0.0000 0.0000 10.2893 0.0000
# 6 0.0000 0.0000 0.0000 0.0000 0.0000 28.8817
#
#
#
# Elastic Compliance Matrix: (Units=1/GPa)
#
#
# Indices 1 2 3 4 5 6 
#
# 1 0.008320 -0.002875 -0.002132 0.000000 0.000000 0.000000
# 2 -0.002875 0.012721 -0.010652 0.000000 0.000000 0.000000
# 3 -0.002132 -0.010652 0.053967 0.000000 0.000000 0.000000
# 4 0.000000 0.000000 0.000000 0.222455 0.000000 0.000000
# 5 0.000000 0.000000 0.000000 0.000000 0.097189 0.000000
# 6 0.000000 0.000000 0.000000 0.000000 0.000000 0.034624
#
#
# Mechanical properties :
#
#
# Convention : Reuss Voigt Hill
#
# Bulk Modulus (GPa) = 22.88854 47.73936 35.31395
# Shear Modulus (GPa) = 10.52288 21.39037 15.95662
#
# Velocity S-wave (km/s) = 2.46034 3.50781 3.02969
# Velocity P-wave (km/s) = 4.60843 6.62332 5.70552
#
# Compressibility (1/GPa) = 0.04368999
#
# Stress axis : x y z
#
# Youngs Moduli (GPa) = 120.19470 78.61157 18.53000
#
# Poissons Ratio (x) = 0.22603 0.03950
# Poissons Ratio (y) = 0.34559 0.19738
# Poissons Ratio (z) = 0.25621 0.83735
#
# Static dielectric constant tensor:
#      x y z
#    x 3.446480 0.000000 0.000000 
#    y 0.000000 3.209160 0.000000 
#    z 0.000000 0.000000 2.759400 
# 
# 
# High freq. dielectric constant tensor:
#      x y z
#    x 1.699810 0.000000 0.000000 
#    y 0.000000 1.660420 0.000000 
#    z 0.000000 0.000000 1.598580 
# 
# From -- ./inp_files/10520.got.cif
#   From: 2010.03.12/outbox.cif.g09.slc.cpg/sg17_6_cif.got.tgz:10520.got - 2010.04.10 18:46:23.
