data_PCOD8155843
_publ_section_title
;
Structure prediction by ZEFSAII (Michael W. Deem and Ramdas Pophale) SiO2 
 PCOD8155843
Probable space group: P 21 21 2
;
_chemical_formula_sum "Si O2"
_cell_formula_units_Z 30
_cell_length_a 18.477372
_cell_length_b 12.530563
_cell_length_c 5.244199
_cell_angle_alpha 90.000000
_cell_angle_beta 90.000000
_cell_angle_gamma 90.000000
_cell_volume 1214.199222
_symmetry_space_group_name_H-M "P 21 21 2"
_symmetry_group_IT_number 18
_symmetry_cell_setting 'orthorhombic'
loop_
_space_group_symop_operation_xyz
x,y,z
-x,-y,z
1/2+x,1/2-y,-z
1/2-x,1/2+y,-z
loop_
_atom_site_type_symbol
_atom_site_label
_atom_site_fract_x
_atom_site_fract_y
_atom_site_fract_z
Si Si1 0.249197 0.220888 0.231401
Si Si2 0.500000 0.500000 0.788261
Si Si3 0.560935 0.701180 0.041637
Si Si4 0.080518 0.451203 0.279886
Si Si5 0.164090 0.664496 0.265489
Si Si6 0.537285 0.116088 0.220332
Si Si7 0.155166 0.042512 0.358324
Si Si8 0.805869 0.071276 0.845555
O O1 0.302350 0.200687 0.469153
O O2 0.172119 0.165423 0.290784
O O3 0.237100 0.348864 0.191949
O O4 0.280909 0.169707 0.972513
O O5 0.507614 0.605362 0.960914
O O6 0.570062 0.480053 0.612564
O O7 0.594033 0.761398 0.793745
O O8 0.520153 0.787168 0.218402
O O9 0.625860 0.650063 0.205748
O O10 0.141589 0.541311 0.288773
O O11 0.086893 0.374320 0.527254
O O12 0.000000 0.500000 0.270748
O O13 0.089122 0.378083 0.027277
O O14 0.500000 0.000000 0.230021
O O15 0.194201 0.019050 0.628513
O O16 0.190030 0.971224 0.133254
#
# Coordination Sequence:
#
# PCOD8155843 Si02
#       8
#     4   2   4   4   4   4   4   4
#     4  11  23  40  69  94 127 170 222 283 323 400
#     4  10  24  44  70  96 132 188 224 286 322 394
#     4  10  21  40  65  98 132 176 231 260 337 402
#     4  10  19  31  54  89 131 165 208 261 341 384
#     4  11  21  38  64  99 129 177 220 271 339 403
#     4  10  19  32  55  89 133 164 208 281 324 392
#     4  11  24  47  68  99 133 172 235 272 335 401
#     4  10  23  41  71  95 125 173 221 273 328 406
#
# _framework density 24.707643000000001
#
# number of rings (size 3 to 8) (size 9 to 14) (size 15 to 20)
#    0.000    1.600    2.667    4.000    5.600    4.267 
#    0.000    4.000    0.000    1.600    0.000    0.000 
#    0.000    0.000    0.000    0.000    0.000    0.000 
#
# Total GULP energy -371851.151706 kJ/mol
# GULP energy per Si atom -12395.038390 kJ/mol
# Density = 2.465141 g / cm^3
# Si number density = 24.707643 Si / 1000 Ang^3
#
#
#
# Elastic Constant Matrix: (Units=GPa)
#
#
# Indices 1 2 3 4 5 6 
#
# 1 25.1343 8.3868 0.5367 0.0000 0.0000 0.0000
# 2 8.3868 78.5357 -4.7535 0.0000 0.0000 0.0000
# 3 0.5367 -4.7535 155.0705 0.0000 0.0000 0.0000
# 4 0.0000 0.0000 0.0000 19.6473 0.0000 0.0000
# 5 0.0000 0.0000 0.0000 0.0000 36.0101 0.0000
# 6 0.0000 0.0000 0.0000 0.0000 0.0000 41.9338
#
#
#
# Elastic Compliance Matrix: (Units=1/GPa)
#
#
# Indices 1 2 3 4 5 6 
#
# 1 0.041268 -0.004424 -0.000278 0.000000 0.000000 0.000000
# 2 -0.004424 0.013231 0.000421 0.000000 0.000000 0.000000
# 3 -0.000278 0.000421 0.006463 0.000000 0.000000 0.000000
# 4 0.000000 0.000000 0.000000 0.050898 0.000000 0.000000
# 5 0.000000 0.000000 0.000000 0.000000 0.027770 0.000000
# 6 0.000000 0.000000 0.000000 0.000000 0.000000 0.023847
#
#
# Mechanical properties :
#
#
# Convention : Reuss Voigt Hill
#
# Bulk Modulus (GPa) = 19.08430 29.67559 24.37995
# Shear Modulus (GPa) = 26.38440 36.48959 31.43700
#
# Velocity S-wave (km/s) = 3.27136 3.84716 3.57088
# Velocity P-wave (km/s) = 4.69147 5.63657 5.18560
#
# Compressibility (1/GPa) = 0.05239909
#
# Stress axis : x y z
#
# Youngs Moduli (GPa) = 24.23158 75.58023 154.73776
#
# Poissons Ratio (x) = 0.33436 0.04308
# Poissons Ratio (y) = 0.10720 -0.06513
# Poissons Ratio (z) = 0.00675 -0.03181
#
# Static dielectric constant tensor:
#      x y z
#    x 4.306060 0.000000 0.000000 
#    y 0.000000 4.534380 0.000000 
#    z 0.000000 0.000000 6.774110 
# 
# 
# High freq. dielectric constant tensor:
#      x y z
#    x 1.958180 0.000000 0.000000 
#    y 0.000000 1.986260 0.000000 
#    z 0.000000 0.000000 1.994400 
# 
# From -- ./inp_files/2002.got.cif
#   From: 2010.03.12/outbox.cif.g09.slc.cpg/sg18_2_cif.got.tgz:2002.got - 2010.04.10 18:53:55.
