data_PCOD8155142
_publ_section_title
;
Structure prediction by ZEFSAII (Michael W. Deem and Ramdas Pophale) SiO2 
 PCOD8155142
Probable space group: C 2/C
;
_chemical_formula_sum "Si O2"
_cell_formula_units_Z 36
_cell_length_a 20.827931
_cell_length_b 9.465472
_cell_length_c 15.195475
_cell_angle_alpha 90.000000
_cell_angle_beta 150.568076
_cell_angle_gamma 90.000000
_cell_volume 1472.069125
_symmetry_space_group_name_H-M "C 2/C"
_symmetry_group_IT_number 15
_symmetry_cell_setting 'monoclinic'
loop_
_space_group_symop_operation_xyz
x,y,z
-x,y,1/2-z
-x,-y,-z
x,-y,1/2+z
1/2+x,1/2+y,z
1/2-x,1/2+y,1/2-z
1/2-x,1/2-y,-z
1/2+x,1/2-y,1/2+z
loop_
_atom_site_type_symbol
_atom_site_label
_atom_site_fract_x
_atom_site_fract_y
_atom_site_fract_z
Si Si1 0.481009 0.258960 0.865254
Si Si2 0.329496 0.974234 0.089837
Si Si3 0.124095 0.977743 0.490403
Si Si4 0.253501 0.371173 0.694516
Si Si5 0.500000 0.775626 0.750000
O O1 0.429982 0.153645 0.728578
O O2 0.373785 0.264508 0.815762
O O3 0.500117 0.417466 0.849913
O O4 0.623164 0.210577 0.070284
O O5 0.213258 0.961164 0.019697
O O6 0.400013 0.125287 0.184624
O O7 0.276083 0.962883 0.927413
O O8 0.204487 0.974937 0.677194
O O9 0.073411 0.820985 0.408735
#
# Coordination Sequence:
#
# PCOD8155142 Si02
#       5
#     8   8   8   8   4
#     4  12  26  50  81 113 155 211 266 316 392 470
#     4  12  27  51  79 113 161 212 262 321 401 466
#     4  12  30  49  79 117 161 205 267 328 388 470
#     4  12  28  47  85 113 157 203 276 313 394 463
#     4  12  28  48  74 116 166 204 256 332 400 454
#
# _framework density 24.455375
#
# number of rings (size 3 to 8) (size 9 to 14) (size 15 to 20)
#    0.000    0.000    4.444    3.333   12.444    0.889 
#    0.000    0.000    0.000    0.000    0.000    0.000 
#    0.000    0.000    0.000    0.000    0.000    0.000 
#
# Total GULP energy -223255.111182 kJ/mol
# GULP energy per Si atom -12403.061732 kJ/mol
# Density = 2.439971 g / cm^3
# Si number density = 24.455375 Si / 1000 Ang^3
#
#
#
# Elastic Constant Matrix: (Units=GPa)
#
#
# Indices 1 2 3 4 5 6 
#
# 1 91.8707 27.2428 81.5410 0.0000 -0.7105 0.0000
# 2 27.2428 148.6582 63.3979 0.0000 3.7401 0.0000
# 3 81.5410 63.3979 155.0895 0.0000 5.8312 0.0000
# 4 0.0000 0.0000 0.0000 40.1442 0.0000 4.7598
# 5 -0.7105 3.7401 5.8312 0.0000 47.2256 0.0000
# 6 0.0000 0.0000 0.0000 4.7598 0.0000 38.5681
#
#
#
# Elastic Compliance Matrix: (Units=1/GPa)
#
#
# Indices 1 2 3 4 5 6 
#
# 1 0.020659 0.001007 -0.011335 0.000000 0.001631 0.000000
# 2 0.001007 0.008199 -0.003875 0.000000 -0.000156 0.000000
# 3 -0.011335 -0.003875 0.014052 0.000000 -0.001599 0.000000
# 4 0.000000 0.000000 0.000000 0.025280 0.000000 -0.003120
# 5 0.001631 -0.000156 -0.001599 0.000000 0.021409 0.000000
# 6 0.000000 0.000000 0.000000 -0.003120 0.000000 0.026313
#
#
# Mechanical properties :
#
#
# Convention : Reuss Voigt Hill
#
# Bulk Modulus (GPa) = 68.94832 82.22018 75.58425
# Shear Modulus (GPa) = 33.52260 40.08336 36.80298
#
# Velocity S-wave (km/s) = 3.70640 4.05290 3.88352
# Velocity P-wave (km/s) = 6.82432 7.45619 7.14724
#
# Compressibility (1/GPa) = 0.01450362
#
# Stress axis : x y z
#
# Youngs Moduli (GPa) = 48.40421 121.96845 71.16605
#
# Poissons Ratio (x) = -0.12282 0.80666
# Poissons Ratio (y) = -0.04874 0.27578
# Poissons Ratio (z) = 0.54866 0.47264
#
# Static dielectric constant tensor:
#      x y z
#    x 4.389590 0.000000 0.363170 
#    y 0.000000 4.301230 0.000000 
#    z 0.363170 0.000000 4.552670 
# 
# 
# High freq. dielectric constant tensor:
#      x y z
#    x 1.975850 0.000000 0.020750 
#    y 0.000000 1.970470 0.000000 
#    z 0.020750 0.000000 1.984470 
# 
# From -- ./inp_files/167794.got.cif
#   From: 2010.06.25/outbox.cif.g09.slc.cpg/sg15_84_cif.got.tgz:167794.got - 2010.06.28 07:06:18.
