data_PCOD8155110
_publ_section_title
;
Structure prediction by ZEFSAII (Michael W. Deem and Ramdas Pophale) SiO2 
 PCOD8155110
Probable space group: C 2/C
;
_chemical_formula_sum "Si O2"
_cell_formula_units_Z 44
_cell_length_a 20.318596
_cell_length_b 5.195594
_cell_length_c 15.939700
_cell_angle_alpha 90.000000
_cell_angle_beta 90.988030
_cell_angle_gamma 90.000000
_cell_volume 1682.458921
_symmetry_space_group_name_H-M "C 2/C"
_symmetry_group_IT_number 15
_symmetry_cell_setting 'monoclinic'
loop_
_space_group_symop_operation_xyz
x,y,z
-x,y,1/2-z
-x,-y,-z
x,-y,1/2+z
1/2+x,1/2+y,z
1/2-x,1/2+y,1/2-z
1/2-x,1/2-y,-z
1/2+x,1/2-y,1/2+z
loop_
_atom_site_type_symbol
_atom_site_label
_atom_site_fract_x
_atom_site_fract_y
_atom_site_fract_z
Si Si1 0.212736 0.982085 0.723257
Si Si2 0.855602 0.871343 0.938609
Si Si3 0.500000 0.841071 0.750000
Si Si4 0.320778 0.151261 0.528417
Si Si5 0.005954 0.951852 0.598663
Si Si6 0.393101 0.810170 0.188146
O O1 0.266754 0.773553 0.755014
O O2 0.204785 0.953813 0.623151
O O3 0.140651 0.925443 0.762481
O O4 0.836711 0.604691 0.979317
O O5 0.922010 0.828691 0.886859
O O6 0.867419 0.104077 0.005308
O O7 0.498498 0.689219 0.662306
O O8 0.569869 0.996425 0.747518
O O9 0.250000 0.250000 0.500000
O O10 0.332998 0.083884 0.627616
O O11 0.951318 0.751327 0.624876
O O12 0.000000 0.000000 0.500000
#
# Coordination Sequence:
#
# PCOD8155110 Si02
#       6
#     8   8   4   8   8   8
#     4  12  28  48  76 111 155 208 263 332 401 484
#     4  12  26  48  76 108 155 200 265 320 407 474
#     4  12  28  48  82 114 164 216 278 342 416 490
#     4  12  27  49  77 113 153 211 264 331 398 493
#     4  12  27  50  79 117 163 212 272 345 416 493
#     4  12  28  48  78 114 159 206 279 333 420 487
#
# _framework density 26.152201000000002
#
# number of rings (size 3 to 8) (size 9 to 14) (size 15 to 20)
#    0.000    0.000    1.818    7.636   10.182    1.455 
#    0.000    0.000    0.000    0.000    0.000    0.000 
#    0.000    0.000    0.000    0.000    0.000    0.000 
#
# Total GULP energy -272616.027885 kJ/mol
# GULP energy per Si atom -12391.637631 kJ/mol
# Density = 2.609268 g / cm^3
# Si number density = 26.152201 Si / 1000 Ang^3
#
#
#
# Elastic Constant Matrix: (Units=GPa)
#
#
# Indices 1 2 3 4 5 6 
#
# 1 46.9509 -7.5592 15.3913 0.0000 37.8970 0.0000
# 2 -7.5592 100.3002 28.6422 0.0000 3.4694 0.0000
# 3 15.3913 28.6422 121.1850 0.0000 11.7880 0.0000
# 4 0.0000 0.0000 0.0000 37.9761 0.0000 -15.3301
# 5 37.8970 3.4694 11.7880 0.0000 40.1766 0.0000
# 6 0.0000 0.0000 0.0000 -15.3301 0.0000 18.3580
#
#
#
# Elastic Compliance Matrix: (Units=1/GPa)
#
#
# Indices 1 2 3 4 5 6 
#
# 1 0.104695 0.013249 -0.006908 0.000000 -0.097872 0.000000
# 2 0.013249 0.012370 -0.003383 0.000000 -0.012572 0.000000
# 3 -0.006908 -0.003383 0.009539 0.000000 0.004010 0.000000
# 4 0.000000 0.000000 0.000000 0.039723 0.000000 0.033171
# 5 -0.097872 -0.012572 0.004010 0.000000 0.117118 0.000000
# 6 0.000000 0.000000 0.000000 0.033171 0.000000 0.082172
#
#
# Mechanical properties :
#
#
# Convention : Reuss Voigt Hill
#
# Bulk Modulus (GPa) = 7.54614 37.93164 22.73889
# Shear Modulus (GPa) = 12.38008 34.76625 23.57317
#
# Velocity S-wave (km/s) = 2.17810 3.65002 3.00556
# Velocity P-wave (km/s) = 3.03599 5.68324 4.55612
#
# Compressibility (1/GPa) = 0.13251801
#
# Stress axis : x y z
#
# Youngs Moduli (GPa) = 9.55155 80.84345 104.83460
#
# Poissons Ratio (x) = -1.07106 0.72420
# Poissons Ratio (y) = -0.12654 0.35468
# Poissons Ratio (z) = 0.06598 0.27352
#
# Static dielectric constant tensor:
#      x y z
#    x 5.662140 0.000000 0.320940 
#    y 0.000000 4.359300 0.000000 
#    z 0.320940 0.000000 5.216490 
# 
# 
# High freq. dielectric constant tensor:
#      x y z
#    x 2.079850 0.000000 0.010070 
#    y 0.000000 2.030850 0.000000 
#    z 0.010070 0.000000 2.071420 
# 
# From -- ./inp_files/212917.got.cif
#   From: 2010.06.25/outbox.cif.g09.slc.cpg/sg15_107_cif.got.tgz:212917.got - 2010.06.28 07:06:18.
