data_PCOD8155971
_publ_section_title
;
Structure prediction by ZEFSAII (Michael W. Deem and Ramdas Pophale) SiO2 
 PCOD8155971
Probable space group: P 21 21 2
;
_chemical_formula_sum "Si O2"
_cell_formula_units_Z 28
_cell_length_a 5.351070
_cell_length_b 20.172345
_cell_length_c 12.479784
_cell_angle_alpha 90.000000
_cell_angle_beta 90.000000
_cell_angle_gamma 90.000000
_cell_volume 1347.113189
_symmetry_space_group_name_H-M "P 21 21 2"
_symmetry_group_IT_number 18
_symmetry_cell_setting 'orthorhombic'
loop_
_space_group_symop_operation_xyz
x,y,z
-x,-y,z
1/2+x,1/2-y,-z
1/2-x,1/2+y,-z
loop_
_atom_site_type_symbol
_atom_site_label
_atom_site_fract_x
_atom_site_fract_y
_atom_site_fract_z
Si Si1 0.752324 0.537731 0.037102
Si Si2 0.703459 0.787205 0.742447
Si Si3 0.749139 0.036834 0.215859
Si Si4 0.022765 0.833028 0.916195
Si Si5 0.693010 0.296231 0.870616
Si Si6 0.957761 0.290876 0.483712
Si Si7 0.478972 0.841956 0.304556
O O1 0.500000 0.500000 0.072329
O O2 0.741148 0.611507 0.089931
O O3 0.000000 0.500000 0.079585
O O4 0.763623 0.545893 0.910362
O O5 0.523840 0.746632 0.819699
O O6 0.570631 0.819294 0.638035
O O7 0.904964 0.735257 0.698146
O O8 0.837434 0.843607 0.814656
O O9 0.746244 0.108924 0.272661
O O10 0.500000 0.000000 0.258338
O O11 0.000000 0.000000 0.253813
O O12 0.106892 0.756500 0.915181
O O13 0.886949 0.843357 0.030850
O O14 0.800159 0.348915 0.783645
O O15 0.734804 0.240123 0.511050
O O16 0.937541 0.351275 0.570931
#
# Coordination Sequence:
#
# PCOD8155971 Si02
#       7
#     4   4   4   4   4   4   4
#     4  10  24  40  58  83 122 170 210 248 295 369
#     4  10  21  36  56  89 126 160 204 252 317 381
#     4  10  23  37  57  87 122 161 209 256 306 370
#     4  11  23  34  58  90 130 163 206 255 317 376
#     4  11  21  34  57  92 127 166 195 259 323 381
#     4  10  20  37  58  88 122 159 202 243 305 377
#     4  10  22  36  60  86 126 164 199 258 315 376
#
# _framework density 20.78519
#
# number of rings (size 3 to 8) (size 9 to 14) (size 15 to 20)
#    0.000    1.714    2.857    0.857   12.000    0.000 
#    0.000    0.000    0.000    0.000    3.714    0.000 
#    0.000    0.000    0.000    0.000    0.000    0.000 
#
# Total GULP energy -347022.154749 kJ/mol
# GULP energy per Si atom -12393.648384 kJ/mol
# Density = 2.073788 g / cm^3
# Si number density = 20.785190 Si / 1000 Ang^3
#
#
#
# Elastic Constant Matrix: (Units=GPa)
#
#
# Indices 1 2 3 4 5 6 
#
# 1 106.6136 31.8053 31.5943 0.0000 0.0000 0.0000
# 2 31.8053 74.5061 28.8198 0.0000 0.0000 0.0000
# 3 31.5943 28.8198 115.0362 0.0000 0.0000 0.0000
# 4 0.0000 0.0000 0.0000 11.7275 0.0000 0.0000
# 5 0.0000 0.0000 0.0000 0.0000 26.9211 0.0000
# 6 0.0000 0.0000 0.0000 0.0000 0.0000 33.6682
#
#
#
# Elastic Compliance Matrix: (Units=1/GPa)
#
#
# Indices 1 2 3 4 5 6 
#
# 1 0.011179 -0.003969 -0.002076 0.000000 0.000000 0.000000
# 2 -0.003969 0.016271 -0.002986 0.000000 0.000000 0.000000
# 3 -0.002076 -0.002986 0.010011 0.000000 0.000000 0.000000
# 4 0.000000 0.000000 0.000000 0.085270 0.000000 0.000000
# 5 0.000000 0.000000 0.000000 0.000000 0.037146 0.000000
# 6 0.000000 0.000000 0.000000 0.000000 0.000000 0.029702
#
#
# Mechanical properties :
#
#
# Convention : Reuss Voigt Hill
#
# Bulk Modulus (GPa) = 51.54971 53.39943 52.47457
# Shear Modulus (GPa) = 23.35278 28.05913 25.70595
#
# Velocity S-wave (km/s) = 3.35555 3.67816 3.52055
# Velocity P-wave (km/s) = 6.31411 6.61705 6.46735
#
# Compressibility (1/GPa) = 0.01939875
#
# Stress axis : x y z
#
# Youngs Moduli (GPa) = 89.45412 61.45831 99.88819
#
# Poissons Ratio (x) = 0.24393 0.20736
# Poissons Ratio (y) = 0.35505 0.29830
# Poissons Ratio (z) = 0.18570 0.18353
#
# Static dielectric constant tensor:
#      x y z
#    x 3.978520 0.000000 0.000000 
#    y 0.000000 3.566610 0.000000 
#    z 0.000000 0.000000 4.188100 
# 
# 
# High freq. dielectric constant tensor:
#      x y z
#    x 1.825990 0.000000 0.000000 
#    y 0.000000 1.769880 0.000000 
#    z 0.000000 0.000000 1.805390 
# 
# From -- ./inp_files/5208.got.cif
#   From: 2010.03.12/outbox.cif.g09.slc.cpg/sg18_3_cif.got.tgz:5208.got - 2010.04.10 18:53:55.
