data_PCOD8155535
_publ_section_title
;
Structure prediction by ZEFSAII (Michael W. Deem and Ramdas Pophale) SiO2 
 PCOD8155535
Probable space group: P 2 2 21
;
_chemical_formula_sum "Si O2"
_cell_formula_units_Z 32
_cell_length_a 11.698203
_cell_length_b 8.667559
_cell_length_c 15.758282
_cell_angle_alpha 90.000000
_cell_angle_beta 90.000000
_cell_angle_gamma 90.000000
_cell_volume 1597.808871
_symmetry_space_group_name_H-M "P 2 2 21"
_symmetry_group_IT_number 17
_symmetry_cell_setting 'orthorhombic'
loop_
_space_group_symop_operation_xyz
x,y,z
-x,-y,1/2+z
x,-y,-z
-x,y,1/2-z
loop_
_atom_site_type_symbol
_atom_site_label
_atom_site_fract_x
_atom_site_fract_y
_atom_site_fract_z
Si Si1 0.987775 0.109060 0.578605
Si Si2 0.554713 0.820727 0.338821
Si Si3 0.776278 0.680488 0.404409
Si Si4 0.405234 0.180483 0.498765
Si Si5 0.778647 0.330529 0.402383
Si Si6 0.839903 0.679104 0.985124
Si Si7 0.010165 0.194567 0.345414
Si Si8 0.559001 0.819143 0.662099
O O1 0.882680 0.208419 0.613371
O O2 0.090881 0.222785 0.554729
O O3 0.952203 0.000000 0.500000
O O4 0.028965 0.991111 0.652278
O O5 0.500000 0.771193 0.250000
O O6 0.672345 0.729039 0.344956
O O7 0.471025 0.774346 0.415423
O O8 0.585216 0.000293 0.341098
O O9 0.810306 0.506428 0.380516
O O10 0.735198 0.690505 0.501642
O O11 0.292503 0.282812 0.494243
O O12 0.479979 0.226614 0.417160
O O13 0.372781 0.000000 0.500000
O O14 0.893475 0.232350 0.394606
O O15 0.679282 0.269770 0.340915
O O16 0.883462 0.721232 0.890650
O O17 0.862796 0.500000 0.000000
O O18 0.000000 0.255022 0.250000
O O19 0.500000 0.770490 0.750000
#
# Coordination Sequence:
#
# PCOD8155535 Si02
#       8
#     4   4   4   4   4   4   4   4
#     4  10  20  39  65  88 114 161 203 251 297 368
#     4  10  22  40  61  93 122 158 211 261 302 364
#     4  11  21  38  65  92 121 157 203 256 313 374
#     4  10  21  39  62  86 124 168 205 252 309 361
#     4  11  22  38  64  93 123 159 202 254 316 370
#     4  11  23  42  64  87 126 167 206 247 315 384
#     4  11  24  41  65  93 123 158 213 262 304 364
#     4  10  22  38  63  90 121 163 212 252 300 369
#
# _framework density 20.027428
#
# number of rings (size 3 to 8) (size 9 to 14) (size 15 to 20)
#    0.000    1.500    3.750    2.625    1.750    1.500 
#    9.000    1.250    0.000    0.000    0.000    0.000 
#    0.000    0.000    0.000    0.000    0.000    0.000 
#
# Total GULP energy -396898.378872 kJ/mol
# GULP energy per Si atom -12403.074340 kJ/mol
# Density = 1.998184 g / cm^3
# Si number density = 20.027428 Si / 1000 Ang^3
#
#
#
# Elastic Constant Matrix: (Units=GPa)
#
#
# Indices 1 2 3 4 5 6 
#
# 1 92.6198 39.8209 25.9304 0.0000 0.0000 0.0000
# 2 39.8209 105.3524 23.8746 0.0000 0.0000 0.0000
# 3 25.9304 23.8746 104.7953 0.0000 0.0000 0.0000
# 4 0.0000 0.0000 0.0000 16.2657 0.0000 0.0000
# 5 0.0000 0.0000 0.0000 0.0000 19.6872 0.0000
# 6 0.0000 0.0000 0.0000 0.0000 0.0000 18.9200
#
#
#
# Elastic Compliance Matrix: (Units=1/GPa)
#
#
# Indices 1 2 3 4 5 6 
#
# 1 0.013388 -0.004544 -0.002277 0.000000 0.000000 0.000000
# 2 -0.004544 0.011551 -0.001507 0.000000 0.000000 0.000000
# 3 -0.002277 -0.001507 0.010449 0.000000 0.000000 0.000000
# 4 0.000000 0.000000 0.000000 0.061479 0.000000 0.000000
# 5 0.000000 0.000000 0.000000 0.000000 0.050795 0.000000
# 6 0.000000 0.000000 0.000000 0.000000 0.000000 0.052854
#
#
# Mechanical properties :
#
#
# Convention : Reuss Voigt Hill
#
# Bulk Modulus (GPa) = 53.38811 53.55771 53.47291
# Shear Modulus (GPa) = 22.37959 25.18402 23.78180
#
# Velocity S-wave (km/s) = 3.34645 3.54994 3.44969
# Velocity P-wave (km/s) = 6.45345 6.60326 6.52878
#
# Compressibility (1/GPa) = 0.01873076
#
# Stress axis : x y z
#
# Youngs Moduli (GPa) = 74.69240 86.57137 95.70013
#
# Poissons Ratio (x) = 0.39341 0.21795
# Poissons Ratio (y) = 0.33943 0.14423
# Poissons Ratio (z) = 0.17011 0.13048
#
# Static dielectric constant tensor:
#      x y z
#    x 3.490180 0.000000 0.000000 
#    y 0.000000 3.719940 0.000000 
#    z 0.000000 0.000000 3.662850 
# 
# 
# High freq. dielectric constant tensor:
#      x y z
#    x 1.783550 0.000000 0.000000 
#    y 0.000000 1.785480 0.000000 
#    z 0.000000 0.000000 1.769870 
# 
# From -- ./inp_files/8579.got.cif
#   From: 2010.03.12/outbox.cif.g09.slc.cpg/sg17_5_cif.got.tgz:8579.got - 2010.04.10 18:46:23.
