data_PCOD8155587
_publ_section_title
;
Structure prediction by ZEFSAII (Michael W. Deem and Ramdas Pophale) SiO2 
 PCOD8155587
Probable space group: P 2 2 21
;
_chemical_formula_sum "Si O2"
_cell_formula_units_Z 20
_cell_length_a 15.558802
_cell_length_b 12.585960
_cell_length_c 4.999070
_cell_angle_alpha 90.000000
_cell_angle_beta 90.000000
_cell_angle_gamma 90.000000
_cell_volume 978.930183
_symmetry_space_group_name_H-M "P 2 2 21"
_symmetry_group_IT_number 17
_symmetry_cell_setting 'orthorhombic'
loop_
_space_group_symop_operation_xyz
x,y,z
-x,-y,1/2+z
x,-y,-z
-x,y,1/2-z
loop_
_atom_site_type_symbol
_atom_site_label
_atom_site_fract_x
_atom_site_fract_y
_atom_site_fract_z
Si Si1 0.750083 0.781486 0.867197
Si Si2 0.500000 0.166848 0.750000
Si Si3 0.320604 0.110760 0.893546
Si Si4 0.500000 0.308942 0.250000
Si Si5 0.902131 0.073295 0.248887
Si Si6 0.670998 0.570073 0.748254
O O1 0.677290 0.813644 0.651462
O O2 0.842132 0.822147 0.756869
O O3 0.743848 0.653583 0.856856
O O4 0.733678 0.834758 0.155950
O O5 0.418846 0.091149 0.807981
O O6 0.471256 0.239111 0.502380
O O7 0.279206 0.000000 0.000000
O O8 0.418449 0.377785 0.155910
O O9 0.000000 0.114953 0.250000
O O10 0.882188 0.000000 0.500000
O O11 0.880932 0.000000 0.000000
O O12 0.707335 0.500000 0.500000
O O13 0.647415 0.500000 0.000000
#
# Coordination Sequence:
#
# PCOD8155587 Si02
#       6
#     4   2   4   2   4   4
#     4  12  23  41  61  88 123 154 201 255 301 360
#     4  12  22  40  56  82 122 162 202 252 298 366
#     4  12  24  38  59  84 121 164 200 239 302 365
#     4  12  22  42  60  80 116 160 212 272 310 342
#     4  10  21  39  65  96 124 154 192 235 297 372
#     4  12  24  40  62  86 114 160 209 264 313 355
#
# _framework density 20.430464000000001
#
# number of rings (size 3 to 8) (size 9 to 14) (size 15 to 20)
#    0.000    0.400    4.000    6.600    0.000    2.400 
#    0.000    0.000    0.000    1.200    0.000    0.000 
#    0.000    0.000    0.000    0.000    0.000    0.000 
#
# Total GULP energy -247980.101410 kJ/mol
# GULP energy per Si atom -12399.005070 kJ/mol
# Density = 2.038396 g / cm^3
# Si number density = 20.430464 Si / 1000 Ang^3
#
#
#
# Elastic Constant Matrix: (Units=GPa)
#
#
# Indices 1 2 3 4 5 6 
#
# 1 90.9526 44.7276 10.3870 0.0000 0.0000 0.0000
# 2 44.7276 108.9371 46.7262 0.0000 0.0000 0.0000
# 3 10.3870 46.7262 146.5528 0.0000 0.0000 0.0000
# 4 0.0000 0.0000 0.0000 62.8764 0.0000 0.0000
# 5 0.0000 0.0000 0.0000 0.0000 22.5404 0.0000
# 6 0.0000 0.0000 0.0000 0.0000 0.0000 12.8766
#
#
#
# Elastic Compliance Matrix: (Units=1/GPa)
#
#
# Indices 1 2 3 4 5 6 
#
# 1 0.013893 -0.006119 0.000966 0.000000 0.000000 0.000000
# 2 -0.006119 0.013329 -0.003816 0.000000 0.000000 0.000000
# 3 0.000966 -0.003816 0.007972 0.000000 0.000000 0.000000
# 4 0.000000 0.000000 0.000000 0.015904 0.000000 0.000000
# 5 0.000000 0.000000 0.000000 0.000000 0.044365 0.000000
# 6 0.000000 0.000000 0.000000 0.000000 0.000000 0.077660
#
#
# Mechanical properties :
#
#
# Convention : Reuss Voigt Hill
#
# Bulk Modulus (GPa) = 57.94895 61.12489 59.53692
# Shear Modulus (GPa) = 25.40493 35.96548 30.68521
#
# Velocity S-wave (km/s) = 3.53013 4.20025 3.87968
# Velocity P-wave (km/s) = 6.71128 7.31479 7.01953
#
# Compressibility (1/GPa) = 0.01725657
#
# Stress axis : x y z
#
# Youngs Moduli (GPa) = 71.97637 75.02629 125.44432
#
# Poissons Ratio (x) = 0.45907 -0.12120
# Poissons Ratio (y) = 0.44041 0.47869
# Poissons Ratio (z) = -0.06954 0.28630
#
# Static dielectric constant tensor:
#      x y z
#    x 3.550230 0.000000 0.000000 
#    y 0.000000 3.765290 0.000000 
#    z 0.000000 0.000000 3.931090 
# 
# 
# High freq. dielectric constant tensor:
#      x y z
#    x 1.778380 0.000000 0.000000 
#    y 0.000000 1.783950 0.000000 
#    z 0.000000 0.000000 1.825280 
# 
# From -- ./inp_files/2084.got.cif
#   From: 2010.03.12/outbox.cif.g09.slc.cpg/sg17_2_cif.got.tgz:2084.got - 2010.04.10 18:46:23.
