data_PCOD8155148
_publ_section_title
;
Structure prediction by ZEFSAII (Michael W. Deem and Ramdas Pophale) SiO2 
 PCOD8155148
Probable space group: C 2/C
;
_chemical_formula_sum "Si O2"
_cell_formula_units_Z 28
_cell_length_a 19.195429
_cell_length_b 8.202257
_cell_length_c 8.393760
_cell_angle_alpha 90.000000
_cell_angle_beta 53.209110
_cell_angle_gamma 90.000000
_cell_volume 1058.342498
_symmetry_space_group_name_H-M "C 2/C"
_symmetry_group_IT_number 15
_symmetry_cell_setting 'monoclinic'
loop_
_space_group_symop_operation_xyz
x,y,z
-x,y,1/2-z
-x,-y,-z
x,-y,1/2+z
1/2+x,1/2+y,z
1/2-x,1/2+y,1/2-z
1/2-x,1/2-y,-z
1/2+x,1/2-y,1/2+z
loop_
_atom_site_type_symbol
_atom_site_label
_atom_site_fract_x
_atom_site_fract_y
_atom_site_fract_z
Si Si1 0.655580 0.361383 0.575289
Si Si2 0.258098 0.111027 0.621340
Si Si3 0.000000 0.102851 0.750000
Si Si4 0.430938 0.858894 0.068396
O O1 0.729667 0.433488 0.592963
O O2 0.696357 0.327478 0.347951
O O3 0.584700 0.499701 0.662061
O O4 0.614515 0.196038 0.704029
O O5 0.250000 0.250000 0.500000
O O6 0.357588 0.089636 0.541246
O O7 0.013092 0.208718 0.573767
O O8 0.500000 0.000000 0.000000
#
# Coordination Sequence:
#
# PCOD8155148 Si02
#       4
#     8   8   4   8
#     4  12  27  54  86 119 174 230 285 354 436 522
#     4  12  26  54  87 122 168 229 287 349 439 518
#     4  12  26  54  82 120 172 224 286 350 438 502
#     4  12  30  52  85 132 172 223 292 364 428 522
#
# _framework density 26.456461999999998
#
# number of rings (size 3 to 8) (size 9 to 14) (size 15 to 20)
#    0.000    0.000    5.714    1.714    4.000    3.429 
#    0.000    1.429    0.000    0.000    0.000    0.000 
#    0.000    0.000    0.000    0.000    0.000    0.000 
#
# Total GULP energy -173690.789660 kJ/mol
# GULP energy per Si atom -12406.484976 kJ/mol
# Density = 2.639625 g / cm^3
# Si number density = 26.456462 Si / 1000 Ang^3
#
#
#
# Elastic Constant Matrix: (Units=GPa)
#
#
# Indices 1 2 3 4 5 6 
#
# 1 189.6739 82.8466 86.2060 0.0000 -18.2522 0.0000
# 2 82.8466 106.9660 73.6220 0.0000 -5.0079 0.0000
# 3 86.2060 73.6220 221.7060 0.0000 9.7262 0.0000
# 4 0.0000 0.0000 0.0000 56.4493 0.0000 -5.8606
# 5 -18.2522 -5.0079 9.7262 0.0000 46.0022 0.0000
# 6 0.0000 0.0000 0.0000 -5.8606 0.0000 63.3978
#
#
#
# Elastic Compliance Matrix: (Units=1/GPa)
#
#
# Indices 1 2 3 4 5 6 
#
# 1 0.008745 -0.005422 -0.001742 0.000000 0.003248 0.000000
# 2 -0.005422 0.015703 -0.003116 0.000000 0.000217 0.000000
# 3 -0.001742 -0.003116 0.006326 0.000000 -0.002368 0.000000
# 4 0.000000 0.000000 0.000000 0.017887 0.000000 0.001653
# 5 0.003248 0.000217 -0.002368 0.000000 0.023551 0.000000
# 6 0.000000 0.000000 0.000000 0.001653 0.000000 0.015926
#
#
# Mechanical properties :
#
#
# Convention : Reuss Voigt Hill
#
# Bulk Modulus (GPa) = 97.90209 111.52166 104.71187
# Shear Modulus (GPa) = 44.60222 51.54792 48.07507
#
# Velocity S-wave (km/s) = 4.11039 4.41886 4.26742
# Velocity P-wave (km/s) = 7.72091 8.26314 7.99662
#
# Compressibility (1/GPa) = 0.01021429
#
# Stress axis : x y z
#
# Youngs Moduli (GPa) = 114.35492 63.68380 158.06549
#
# Poissons Ratio (x) = 0.34527 0.27540
# Poissons Ratio (y) = 0.61999 0.49250
# Poissons Ratio (z) = 0.19924 0.19842
#
# Static dielectric constant tensor:
#      x y z
#    x 5.291680 0.000000 -0.123530 
#    y 0.000000 4.651350 0.000000 
#    z -0.123530 0.000000 4.879110 
# 
# 
# High freq. dielectric constant tensor:
#      x y z
#    x 2.075630 0.000000 -0.012110 
#    y 0.000000 2.070620 0.000000 
#    z -0.012110 0.000000 2.087510 
# 
# From -- ./inp_files/53565.got.cif
#   From: 2010.06.25/outbox.cif.g09.slc.cpg/sg15_27_cif.got.tgz:53565.got - 2010.06.28 07:06:18.
