data_PCOD8155753
_publ_section_title
;
Structure prediction by ZEFSAII (Michael W. Deem and Ramdas Pophale) SiO2 
 PCOD8155753
Probable space group: P 2 2 21
;
_chemical_formula_sum "Si O2"
_cell_formula_units_Z 12
_cell_length_a 7.159815
_cell_length_b 5.345886
_cell_length_c 11.649487
_cell_angle_alpha 90.000000
_cell_angle_beta 90.000000
_cell_angle_gamma 90.000000
_cell_volume 445.890578
_symmetry_space_group_name_H-M "P 2 2 21"
_symmetry_group_IT_number 17
_symmetry_cell_setting 'orthorhombic'
loop_
_space_group_symop_operation_xyz
x,y,z
-x,-y,1/2+z
x,-y,-z
-x,y,1/2-z
loop_
_atom_site_type_symbol
_atom_site_label
_atom_site_fract_x
_atom_site_fract_y
_atom_site_fract_z
Si Si1 0.294523 0.250001 0.461619
Si Si2 0.212572 0.249997 0.209870
Si Si3 0.624101 0.749997 0.362934
O O1 0.181122 0.500000 0.500000
O O2 0.339730 0.249998 0.326306
O O3 0.494162 0.250005 0.524988
O O4 0.181125 0.000000 0.500000
O O5 0.248829 0.499760 0.135975
O O6 0.000000 0.249989 0.250000
O O7 0.248835 0.000238 0.135975
O O8 0.500000 0.749993 0.250000
#
# Coordination Sequence:
#
# PCOD8155753 Si02
#       3
#     4   4   4
#     4  12  23  42  74 104 142 193 243 288 353 447
#     4  12  26  47  73 109 151 184 238 317 363 408
#     4  12  23  44  79 100 141 196 241 292 353 446
#
# _framework density 26.912431000000002
#
# number of rings (size 3 to 8) (size 9 to 14) (size 15 to 20)
#    0.000    0.000    6.667    4.000    0.000    0.000 
#    0.000   10.000    0.000    0.000    0.000    0.000 
#    0.000    0.000    0.000    0.000    0.000    0.000 
#
# Total GULP energy -148763.720470 kJ/mol
# GULP energy per Si atom -12396.976706 kJ/mol
# Density = 2.685118 g / cm^3
# Si number density = 26.912431 Si / 1000 Ang^3
#
#
#
# Elastic Constant Matrix: (Units=GPa)
#
#
# Indices 1 2 3 4 5 6 
#
# 1 110.2139 39.5034 34.5562 0.0000 0.0000 0.0000
# 2 39.5034 307.9157 23.3750 0.0000 0.0000 0.0000
# 3 34.5562 23.3750 118.5672 0.0000 0.0000 0.0000
# 4 0.0000 0.0000 0.0000 36.7938 0.0000 0.0000
# 5 0.0000 0.0000 0.0000 0.0000 41.2114 0.0000
# 6 0.0000 0.0000 0.0000 0.0000 0.0000 6.3264
#
#
#
# Elastic Compliance Matrix: (Units=1/GPa)
#
#
# Indices 1 2 3 4 5 6 
#
# 1 0.010350 -0.001116 -0.002797 0.000000 0.000000 0.000000
# 2 -0.001116 0.003417 -0.000349 0.000000 0.000000 0.000000
# 3 -0.002797 -0.000349 0.009318 0.000000 0.000000 0.000000
# 4 0.000000 0.000000 0.000000 0.027178 0.000000 0.000000
# 5 0.000000 0.000000 0.000000 0.000000 0.024265 0.000000
# 6 0.000000 0.000000 0.000000 0.000000 0.000000 0.158067
#
#
# Mechanical properties :
#
#
# Convention : Reuss Voigt Hill
#
# Bulk Modulus (GPa) = 68.66409 81.28512 74.97461
# Shear Modulus (GPa) = 20.32753 46.15048 33.23901
#
# Velocity S-wave (km/s) = 2.75129 4.14555 3.51818
# Velocity P-wave (km/s) = 5.97178 7.29269 6.66503
#
# Compressibility (1/GPa) = 0.01456365
#
# Stress axis : x y z
#
# Youngs Moduli (GPa) = 96.61911 292.63572 107.32146
#
# Poissons Ratio (x) = 0.32644 0.30013
# Poissons Ratio (y) = 0.10778 0.03741
# Poissons Ratio (z) = 0.27020 0.10200
#
# Static dielectric constant tensor:
#      x y z
#    x 4.347600 0.000000 0.000000 
#    y 0.000000 7.043890 0.000000 
#    z 0.000000 0.000000 5.459460 
# 
# 
# High freq. dielectric constant tensor:
#      x y z
#    x 2.034350 0.000000 0.000000 
#    y 0.000000 2.131920 0.000000 
#    z 0.000000 0.000000 2.090480 
# 
# From -- ./inp_files/6129.got.cif
#   From: 2010.03.12/outbox.cif.g09.slc.cpg/sg17_4_cif.got.tgz:6129.got - 2010.04.10 18:46:23.
