data_PCOD8155463
_publ_section_title
;
Structure prediction by ZEFSAII (Michael W. Deem and Ramdas Pophale) SiO2 
 PCOD8155463
Probable space group: P 2 2 21
;
_chemical_formula_sum "Si O2"
_cell_formula_units_Z 28
_cell_length_a 11.439580
_cell_length_b 21.023129
_cell_length_c 5.514644
_cell_angle_alpha 90.000000
_cell_angle_beta 90.000000
_cell_angle_gamma 90.000000
_cell_volume 1326.248533
_symmetry_space_group_name_H-M "P 2 2 21"
_symmetry_group_IT_number 17
_symmetry_cell_setting 'orthorhombic'
loop_
_space_group_symop_operation_xyz
x,y,z
-x,-y,1/2+z
x,-y,-z
-x,y,1/2-z
loop_
_atom_site_type_symbol
_atom_site_label
_atom_site_fract_x
_atom_site_fract_y
_atom_site_fract_z
Si Si1 0.882697 0.755861 0.622122
Si Si2 0.000000 0.331479 0.750000
Si Si3 0.797709 0.358695 0.073600
Si Si4 0.500000 0.801325 0.750000
Si Si5 0.303835 0.836665 0.071487
Si Si6 0.632917 0.538578 0.749904
Si Si7 0.361970 0.034385 0.749863
Si Si8 0.382425 0.280353 0.632948
O O1 0.909484 0.714531 0.383643
O O2 0.810877 0.708738 0.793848
O O3 0.814564 0.822711 0.577991
O O4 0.000000 0.779142 0.750000
O O5 0.078239 0.375278 0.562963
O O6 0.743162 0.412156 0.250345
O O7 0.694469 0.344091 0.883232
O O8 0.578457 0.848597 0.586911
O O9 0.409692 0.755474 0.616251
O O10 0.295859 0.897161 0.249238
O O11 0.316885 0.769803 0.202041
O O12 0.650609 0.500000 0.500000
O O13 0.500000 0.568099 0.750000
O O14 0.648573 0.500000 0.000000
O O15 0.500000 0.043980 0.750000
O O16 0.321327 0.000000 0.500000
O O17 0.322021 0.000000 0.000000
O O18 0.500000 0.306334 0.750000
#
# Coordination Sequence:
#
# PCOD8155463 Si02
#       8
#     4   2   4   2   4   4   4   4
#     4  10  22  39  62  94 126 164 213 273 338 389
#     4  10  22  42  62  96 126 170 214 278 324 408
#     4  11  22  39  69  91 134 169 219 272 334 401
#     4  10  20  32  52  92 130 160 200 262 328 414
#     4  11  21  36  60  89 132 167 212 268 333 402
#     4  10  25  45  68 100 136 178 223 273 332 404
#     4  10  23  38  57  87 131 177 218 260 319 395
#     4  10  21  32  55  96 129 163 201 264 338 400
#
# _framework density 21.112182000000001
#
# number of rings (size 3 to 8) (size 9 to 14) (size 15 to 20)
#    0.000    1.714    2.857    1.286    8.000    1.714 
#    0.000    0.000    4.714    0.000    1.857    0.000 
#    0.000    0.000    0.000    0.000    0.000    0.000 
#
# Total GULP energy -346879.255415 kJ/mol
# GULP energy per Si atom -12388.544836 kJ/mol
# Density = 2.106413 g / cm^3
# Si number density = 21.112182 Si / 1000 Ang^3
#
#
#
# Elastic Constant Matrix: (Units=GPa)
#
#
# Indices 1 2 3 4 5 6 
#
# 1 113.1018 61.1424 39.9164 0.0000 0.0000 0.0000
# 2 61.1424 75.8122 35.3708 0.0000 0.0000 0.0000
# 3 39.9164 35.3708 112.4323 0.0000 0.0000 0.0000
# 4 0.0000 0.0000 0.0000 35.3073 0.0000 0.0000
# 5 0.0000 0.0000 0.0000 0.0000 23.7329 0.0000
# 6 0.0000 0.0000 0.0000 0.0000 0.0000 15.4682
#
#
#
# Elastic Compliance Matrix: (Units=1/GPa)
#
#
# Indices 1 2 3 4 5 6 
#
# 1 0.016016 -0.012030 -0.001902 0.000000 0.000000 0.000000
# 2 -0.012030 0.024495 -0.003435 0.000000 0.000000 0.000000
# 3 -0.001902 -0.003435 0.010650 0.000000 0.000000 0.000000
# 4 0.000000 0.000000 0.000000 0.028323 0.000000 0.000000
# 5 0.000000 0.000000 0.000000 0.000000 0.042136 0.000000
# 6 0.000000 0.000000 0.000000 0.000000 0.000000 0.064649
#
#
# Mechanical properties :
#
#
# Convention : Reuss Voigt Hill
#
# Bulk Modulus (GPa) = 60.87101 63.80062 62.33582
# Shear Modulus (GPa) = 22.07731 25.89613 23.98672
#
# Velocity S-wave (km/s) = 3.23726 3.50608 3.37435
# Velocity P-wave (km/s) = 6.54736 6.83195 6.69117
#
# Compressibility (1/GPa) = 0.01642818
#
# Stress axis : x y z
#
# Youngs Moduli (GPa) = 62.43818 40.82459 93.89608
#
# Poissons Ratio (x) = 0.49110 0.17855
# Poissons Ratio (y) = 0.75110 0.32256
# Poissons Ratio (z) = 0.11873 0.14024
#
# Static dielectric constant tensor:
#      x y z
#    x 4.065980 0.000000 0.000000 
#    y 0.000000 3.405670 0.000000 
#    z 0.000000 0.000000 4.212830 
# 
# 
# High freq. dielectric constant tensor:
#      x y z
#    x 1.822970 0.000000 0.000000 
#    y 0.000000 1.788360 0.000000 
#    z 0.000000 0.000000 1.843230 
# 
# From -- ./inp_files/1835.got.cif
#   From: 2010.03.12/outbox.cif.g09.slc.cpg/sg17_1_cif.got.tgz:1835.got - 2010.04.10 18:46:23.
