data_PCOD8155153
_publ_section_title
;
Structure prediction by ZEFSAII (Michael W. Deem and Ramdas Pophale) SiO2 
 PCOD8155153
Probable space group: C 2/C
;
_chemical_formula_sum "Si O2"
_cell_formula_units_Z 32
_cell_length_a 14.620581
_cell_length_b 16.821988
_cell_length_c 5.269071
_cell_angle_alpha 90.000000
_cell_angle_beta 70.687128
_cell_angle_gamma 90.000000
_cell_volume 1222.988100
_symmetry_space_group_name_H-M "C 2/C"
_symmetry_group_IT_number 15
_symmetry_cell_setting 'monoclinic'
loop_
_space_group_symop_operation_xyz
x,y,z
-x,y,1/2-z
-x,-y,-z
x,-y,1/2+z
1/2+x,1/2+y,z
1/2-x,1/2+y,1/2-z
1/2-x,1/2-y,-z
1/2+x,1/2-y,1/2+z
loop_
_atom_site_type_symbol
_atom_site_label
_atom_site_fract_x
_atom_site_fract_y
_atom_site_fract_z
Si Si1 0.279017 0.542151 0.536123
Si Si2 0.429146 0.926343 0.129984
Si Si3 0.358703 0.776983 0.959596
Si Si4 0.901588 0.192478 0.430489
O O1 0.320552 0.508827 0.233722
O O2 0.162595 0.539201 0.628848
O O3 0.313557 0.631852 0.545719
O O4 0.500000 0.873780 0.250000
O O5 0.386094 0.871963 0.936621
O O6 0.500000 0.000000 0.000000
O O7 0.422873 0.737368 0.677880
O O8 0.250000 0.750000 0.000000
O O9 0.375776 0.753564 0.233647
O O10 0.000000 0.147692 0.250000
#
# Coordination Sequence:
#
# PCOD8155153 Si02
#       4
#     8   8   8   8
#     4  12  27  49  79 116 160 212 271 347 418 499
#     4  12  27  47  80 119 169 210 277 348 436 501
#     4  12  27  51  81 113 162 224 277 341 421 511
#     4  12  28  52  78 115 160 216 283 335 412 507
#
# _framework density 26.165420000000001
#
# number of rings (size 3 to 8) (size 9 to 14) (size 15 to 20)
#    0.000    0.000    5.000    3.750    0.000    5.000 
#    0.000    0.000    0.000    0.000    0.000    0.000 
#    0.000    0.000    0.000    0.000    0.000    0.000 
#
# Total GULP energy -198293.976227 kJ/mol
# GULP energy per Si atom -12393.373514 kJ/mol
# Density = 2.610587 g / cm^3
# Si number density = 26.165420 Si / 1000 Ang^3
#
#
#
# Elastic Constant Matrix: (Units=GPa)
#
#
# Indices 1 2 3 4 5 6 
#
# 1 126.2372 67.1148 46.2701 0.0000 -0.0038 0.0000
# 2 67.1148 140.1891 53.4726 0.0000 3.2244 0.0000
# 3 46.2701 53.4726 145.4871 0.0000 26.6757 0.0000
# 4 0.0000 0.0000 0.0000 45.6485 0.0000 3.3099
# 5 -0.0038 3.2244 26.6757 0.0000 51.4874 0.0000
# 6 0.0000 0.0000 0.0000 3.3099 0.0000 49.5446
#
#
#
# Elastic Compliance Matrix: (Units=1/GPa)
#
#
# Indices 1 2 3 4 5 6 
#
# 1 0.011114 -0.004545 -0.002118 0.000000 0.001383 0.000000
# 2 -0.004545 0.010219 -0.002423 0.000000 0.000615 0.000000
# 3 -0.002118 -0.002423 0.009293 0.000000 -0.004663 0.000000
# 4 0.000000 0.000000 0.000000 0.022013 0.000000 -0.001471
# 5 0.001383 0.000615 -0.004663 0.000000 0.021800 0.000000
# 6 0.000000 0.000000 0.000000 -0.001471 0.000000 0.020282
#
#
# Mechanical properties :
#
#
# Convention : Reuss Voigt Hill
#
# Bulk Modulus (GPa) = 80.29539 82.84758 81.57148
# Shear Modulus (GPa) = 42.71880 45.67314 44.19597
#
# Velocity S-wave (km/s) = 4.04498 4.18251 4.11432
# Velocity P-wave (km/s) = 7.25052 7.41999 7.33575
#
# Compressibility (1/GPa) = 0.01245402
#
# Stress axis : x y z
#
# Youngs Moduli (GPa) = 89.97512 97.85454 107.61178
#
# Poissons Ratio (x) = 0.44474 0.22790
# Poissons Ratio (y) = 0.40892 0.26078
# Poissons Ratio (z) = 0.19055 0.23714
#
# Static dielectric constant tensor:
#      x y z
#    x 5.902720 0.000000 0.766830 
#    y 0.000000 4.585910 0.000000 
#    z 0.766830 0.000000 5.911000 
# 
# 
# High freq. dielectric constant tensor:
#      x y z
#    x 2.065690 0.000000 0.005470 
#    y 0.000000 2.038110 0.000000 
#    z 0.005470 0.000000 2.069790 
# 
# From -- ./inp_files/6499.got.cif
#   From: 2010.06.25/outbox.cif.g09.slc.cpg/sg15_4_cif.got.tgz:6499.got - 2010.06.28 07:06:18.
