data_PCOD8155070
_publ_section_title
;
Structure prediction by ZEFSAII (Michael W. Deem and Ramdas Pophale) SiO2 
 PCOD8155070
Probable space group: C 2/C
;
_chemical_formula_sum "Si O2"
_cell_formula_units_Z 32
_cell_length_a 13.490459
_cell_length_b 4.915737
_cell_length_c 17.720893
_cell_angle_alpha 90.000000
_cell_angle_beta 92.307060
_cell_angle_gamma 90.000000
_cell_volume 1174.218195
_symmetry_space_group_name_H-M "C 2/C"
_symmetry_group_IT_number 15
_symmetry_cell_setting 'monoclinic'
loop_
_space_group_symop_operation_xyz
x,y,z
-x,y,1/2-z
-x,-y,-z
x,-y,1/2+z
1/2+x,1/2+y,z
1/2-x,1/2+y,1/2-z
1/2-x,1/2-y,-z
1/2+x,1/2-y,1/2+z
loop_
_atom_site_type_symbol
_atom_site_label
_atom_site_fract_x
_atom_site_fract_y
_atom_site_fract_z
Si Si1 0.646116 0.288621 0.620647
Si Si2 0.096604 0.115274 0.962954
Si Si3 0.772284 0.806304 0.637587
Si Si4 0.956484 0.478229 0.173359
O O1 0.651118 0.213725 0.531042
O O2 0.679434 0.601452 0.628558
O O3 0.534519 0.249543 0.647076
O O4 0.724979 0.090158 0.664983
O O5 0.069681 0.303614 0.891047
O O6 0.166527 0.865769 0.938027
O O7 0.000000 0.000000 0.000000
O O8 0.856225 0.683394 0.695928
O O9 0.000000 0.622633 0.250000
#
# Coordination Sequence:
#
# PCOD8155070 Si02
#       4
#     8   8   8   8
#     4  12  27  48  83 115 153 204 267 331 392 469
#     4  12  25  51  85 119 158 209 270 338 399 468
#     4  12  27  49  82 115 156 203 266 325 401 466
#     4  12  30  52  77 115 167 212 265 331 406 487
#
# _framework density 27.252174
#
# number of rings (size 3 to 8) (size 9 to 14) (size 15 to 20)
#    0.000    0.000    5.000    3.750    3.500    3.000 
#    0.000    0.000    0.000    0.000    0.000    0.000 
#    0.000    0.000    0.000    0.000    0.000    0.000 
#
# Total GULP energy -198290.120211 kJ/mol
# GULP energy per Si atom -12393.132513 kJ/mol
# Density = 2.719015 g / cm^3
# Si number density = 27.252174 Si / 1000 Ang^3
#
#
#
# Elastic Constant Matrix: (Units=GPa)
#
#
# Indices 1 2 3 4 5 6 
#
# 1 124.8943 35.5858 -3.1194 0.0000 -8.9345 0.0000
# 2 35.5858 118.9437 9.2643 0.0000 -2.1560 0.0000
# 3 -3.1194 9.2643 82.1241 0.0000 23.6329 0.0000
# 4 0.0000 0.0000 0.0000 17.0957 0.0000 -4.8216
# 5 -8.9345 -2.1560 23.6329 0.0000 44.9243 0.0000
# 6 0.0000 0.0000 0.0000 -4.8216 0.0000 50.2939
#
#
#
# Elastic Compliance Matrix: (Units=1/GPa)
#
#
# Indices 1 2 3 4 5 6 
#
# 1 0.008874 -0.002642 0.000193 0.000000 0.001537 0.000000
# 2 -0.002642 0.009313 -0.001330 0.000000 0.000621 0.000000
# 3 0.000193 -0.001330 0.014543 0.000000 -0.007676 0.000000
# 4 0.000000 0.000000 0.000000 0.060120 0.000000 0.005764
# 5 0.001537 0.000621 -0.007676 0.000000 0.026633 0.000000
# 6 0.000000 0.000000 0.000000 0.005764 0.000000 0.020436
#
#
# Mechanical properties :
#
#
# Convention : Reuss Voigt Hill
#
# Bulk Modulus (GPa) = 39.72635 45.49150 42.60893
# Shear Modulus (GPa) = 32.07869 41.41155 36.74512
#
# Velocity S-wave (km/s) = 3.43462 3.90239 3.67595
# Velocity P-wave (km/s) = 5.50797 6.08555 5.80395
#
# Compressibility (1/GPa) = 0.02517221
#
# Stress axis : x y z
#
# Youngs Moduli (GPa) = 112.68420 107.38072 68.76211
#
# Poissons Ratio (x) = 0.28372 -0.01327
# Poissons Ratio (y) = 0.29774 0.09143
# Poissons Ratio (z) = -0.02174 0.14277
#
# Static dielectric constant tensor:
#      x y z
#    x 5.567170 0.000000 0.201010 
#    y 0.000000 4.632110 0.000000 
#    z 0.201010 0.000000 5.263020 
# 
# 
# High freq. dielectric constant tensor:
#      x y z
#    x 2.132000 0.000000 0.001370 
#    y 0.000000 2.086190 0.000000 
#    z 0.001370 0.000000 2.084570 
# 
# From -- ./inp_files/201724.got.cif
#   From: 2010.06.25/outbox.cif.g09.slc.cpg/sg15_101_cif.got.tgz:201724.got - 2010.06.28 07:06:18.
