data_PCOD8155661
_publ_section_title
;
Structure prediction by ZEFSAII (Michael W. Deem and Ramdas Pophale) SiO2 
 PCOD8155661
Probable space group: P 2 2 21
;
_chemical_formula_sum "Si O2"
_cell_formula_units_Z 16
_cell_length_a 9.990949
_cell_length_b 8.735601
_cell_length_c 7.989302
_cell_angle_alpha 90.000000
_cell_angle_beta 90.000000
_cell_angle_gamma 90.000000
_cell_volume 697.281864
_symmetry_space_group_name_H-M "P 2 2 21"
_symmetry_group_IT_number 17
_symmetry_cell_setting 'orthorhombic'
loop_
_space_group_symop_operation_xyz
x,y,z
-x,-y,1/2+z
x,-y,-z
-x,y,1/2-z
loop_
_atom_site_type_symbol
_atom_site_label
_atom_site_fract_x
_atom_site_fract_y
_atom_site_fract_z
Si Si1 0.409021 0.828348 0.588813
Si Si2 0.757454 0.394649 0.661661
Si Si3 0.833416 0.000000 0.000000
Si Si4 0.500000 0.802509 0.250000
Si Si5 0.322169 0.500000 0.500000
Si Si6 0.000000 0.201439 0.750000
O O1 0.500000 0.855412 0.750000
O O2 0.457116 0.909027 0.409517
O O3 0.415294 0.649177 0.531854
O O4 0.256968 0.885499 0.615589
O O5 0.741280 0.500000 0.500000
O O6 0.624890 0.293576 0.679998
O O7 0.893316 0.298665 0.643253
O O8 0.771172 0.488546 0.835601
O O9 0.924133 0.901339 0.118552
#
# Coordination Sequence:
#
# PCOD8155661 Si02
#       6
#     4   4   2   2   2   2
#     4  11  25  43  76 110 147 190 241 321 379 442
#     4  11  25  43  76 110 147 190 241 321 379 442
#     4  12  28  52  70 108 154 208 262 304 378 470
#     4  10  22  44  72 114 138 182 252 304 382 448
#     4  10  22  44  72 114 138 182 252 304 382 448
#     4  12  28  52  70 108 154 208 262 304 378 470
#
# _framework density 22.946242999999999
#
# number of rings (size 3 to 8) (size 9 to 14) (size 15 to 20)
#    0.000    1.000    5.000    1.500   17.500    4.000 
#    0.000    0.000    0.000    0.000    0.000    0.000 
#    0.000    0.000    0.000    0.000    0.000    0.000 
#
# Total GULP energy -198342.550893 kJ/mol
# GULP energy per Si atom -12396.409431 kJ/mol
# Density = 2.289402 g / cm^3
# Si number density = 22.946243 Si / 1000 Ang^3
#
#
#
# Elastic Constant Matrix: (Units=GPa)
#
#
# Indices 1 2 3 4 5 6 
#
# 1 179.2696 60.4841 84.4136 0.0000 0.0000 0.0000
# 2 60.4841 81.9546 82.8623 0.0000 0.0000 0.0000
# 3 84.4136 82.8623 228.5927 0.0000 0.0000 0.0000
# 4 0.0000 0.0000 0.0000 40.5927 0.0000 0.0000
# 5 0.0000 0.0000 0.0000 0.0000 46.1212 0.0000
# 6 0.0000 0.0000 0.0000 0.0000 0.0000 14.9397
#
#
#
# Elastic Compliance Matrix: (Units=1/GPa)
#
#
# Indices 1 2 3 4 5 6 
#
# 1 0.007640 -0.004398 -0.001227 0.000000 0.000000 0.000000
# 2 -0.004398 0.021793 -0.006276 0.000000 0.000000 0.000000
# 3 -0.001227 -0.006276 0.007103 0.000000 0.000000 0.000000
# 4 0.000000 0.000000 0.000000 0.024635 0.000000 0.000000
# 5 0.000000 0.000000 0.000000 0.000000 0.021682 0.000000
# 6 0.000000 0.000000 0.000000 0.000000 0.000000 0.066936
#
#
# Mechanical properties :
#
#
# Convention : Reuss Voigt Hill
#
# Bulk Modulus (GPa) = 78.52862 105.03742 91.78302
# Shear Modulus (GPa) = 28.11626 37.80116 32.95871
#
# Velocity S-wave (km/s) = 3.50424 4.06320 3.79403
# Velocity P-wave (km/s) = 7.11829 8.23939 7.69927
#
# Compressibility (1/GPa) = 0.01273421
#
# Stress axis : x y z
#
# Youngs Moduli (GPa) = 130.89517 45.88733 140.79425
#
# Poissons Ratio (x) = 0.20179 0.17277
# Poissons Ratio (y) = 0.57562 0.88357
# Poissons Ratio (z) = 0.16062 0.28797
#
# Static dielectric constant tensor:
#      x y z
#    x 4.231580 0.000000 0.000000 
#    y 0.000000 4.771730 0.000000 
#    z 0.000000 0.000000 4.733090 
# 
# 
# High freq. dielectric constant tensor:
#      x y z
#    x 1.900640 0.000000 0.000000 
#    y 0.000000 1.938790 0.000000 
#    z 0.000000 0.000000 1.925760 
# 
# From -- ./inp_files/3790.got.cif
#   From: 2010.03.12/outbox.cif.g09.slc.cpg/sg17_2_cif.got.tgz:3790.got - 2010.04.10 18:46:23.
