data_PCOD8155957
_publ_section_title
;
Structure prediction by ZEFSAII (Michael W. Deem and Ramdas Pophale) SiO2 
 PCOD8155957
Probable space group: P 21 21 2
;
_chemical_formula_sum "Si O2"
_cell_formula_units_Z 20
_cell_length_a 8.594489
_cell_length_b 15.070460
_cell_length_c 7.273688
_cell_angle_alpha 90.000000
_cell_angle_beta 90.000000
_cell_angle_gamma 90.000000
_cell_volume 942.109183
_symmetry_space_group_name_H-M "P 21 21 2"
_symmetry_group_IT_number 18
_symmetry_cell_setting 'orthorhombic'
loop_
_space_group_symop_operation_xyz
x,y,z
-x,-y,z
1/2+x,1/2-y,-z
1/2-x,1/2+y,-z
loop_
_atom_site_type_symbol
_atom_site_label
_atom_site_fract_x
_atom_site_fract_y
_atom_site_fract_z
Si Si1 0.631117 0.298146 0.500392
Si Si2 0.235271 0.311212 0.835331
Si Si3 0.876137 0.067852 0.439090
Si Si4 0.484491 0.812169 0.828099
Si Si5 0.359852 0.055044 0.575846
O O1 0.646792 0.253357 0.303818
O O2 0.465029 0.347048 0.480729
O O3 0.620775 0.224889 0.659965
O O4 0.779314 0.364181 0.540418
O O5 0.269319 0.403601 0.732102
O O6 0.394608 0.262528 0.896869
O O7 0.129866 0.336067 0.007510
O O8 0.776364 0.019162 0.601219
O O9 0.000000 0.000000 0.353972
O O10 0.573133 0.902663 0.764717
O O11 0.500000 0.000000 0.475636
#
# Coordination Sequence:
#
# PCOD8155957 Si02
#       5
#     4   4   4   4   4
#     4   9  20  40  62  83 116 158 198 241 290 352
#     4  10  21  38  63  87 115 156 196 242 293 347
#     4   9  19  38  62  86 117 158 195 237 299 353
#     4  10  22  38  60  91 118 154 202 240 287 354
#     4  10  20  36  59  87 117 150 191 242 296 342
#
# _framework density 21.228961000000002
#
# number of rings (size 3 to 8) (size 9 to 14) (size 15 to 20)
#    0.000    2.400    0.000    1.200    0.000    8.000 
#    0.000   15.000    0.000    9.600    0.000    0.000 
#    0.000    0.000    0.000    0.000    0.000    0.000 
#
# Total GULP energy -247778.180119 kJ/mol
# GULP energy per Si atom -12388.909006 kJ/mol
# Density = 2.118064 g / cm^3
# Si number density = 21.228961 Si / 1000 Ang^3
#
#
#
# Elastic Constant Matrix: (Units=GPa)
#
#
# Indices 1 2 3 4 5 6 
#
# 1 108.9385 45.1604 55.2726 0.0000 0.0000 0.0000
# 2 45.1604 102.1684 31.1054 0.0000 0.0000 0.0000
# 3 55.2726 31.1054 78.5820 0.0000 0.0000 0.0000
# 4 0.0000 0.0000 0.0000 14.0646 0.0000 0.0000
# 5 0.0000 0.0000 0.0000 0.0000 45.7216 0.0000
# 6 0.0000 0.0000 0.0000 0.0000 0.0000 33.1377
#
#
#
# Elastic Compliance Matrix: (Units=1/GPa)
#
#
# Indices 1 2 3 4 5 6 
#
# 1 0.015618 -0.004047 -0.009383 0.000000 0.000000 0.000000
# 2 -0.004047 0.012177 -0.001974 0.000000 0.000000 0.000000
# 3 -0.009383 -0.001974 0.020107 0.000000 0.000000 0.000000
# 4 0.000000 0.000000 0.000000 0.071100 0.000000 0.000000
# 5 0.000000 0.000000 0.000000 0.000000 0.021871 0.000000
# 6 0.000000 0.000000 0.000000 0.000000 0.000000 0.030177
#
#
# Mechanical properties :
#
#
# Convention : Reuss Voigt Hill
#
# Bulk Modulus (GPa) = 58.49903 61.41840 59.95872
# Shear Modulus (GPa) = 24.08972 29.12816 26.60894
#
# Velocity S-wave (km/s) = 3.37227 3.70820 3.54422
# Velocity P-wave (km/s) = 6.54057 6.87957 6.71221
#
# Compressibility (1/GPa) = 0.01709430
#
# Stress axis : x y z
#
# Youngs Moduli (GPa) = 64.02889 82.11927 49.73391
#
# Poissons Ratio (x) = 0.33230 0.46668
# Poissons Ratio (y) = 0.25910 0.09817
# Poissons Ratio (z) = 0.60081 0.16210
#
# Static dielectric constant tensor:
#      x y z
#    x 4.311260 0.000000 0.000000 
#    y 0.000000 4.187530 0.000000 
#    z 0.000000 0.000000 3.285730 
# 
# 
# High freq. dielectric constant tensor:
#      x y z
#    x 1.857760 0.000000 0.000000 
#    y 0.000000 1.849110 0.000000 
#    z 0.000000 0.000000 1.771030 
# 
# From -- ./inp_files/518.got.cif
#   From: 2010.03.12/outbox.cif.g09.slc.cpg/sg18_1_cif.got.tgz:518.got - 2010.04.10 18:53:55.
