data_PCOD8155676
_publ_section_title
;
Structure prediction by ZEFSAII (Michael W. Deem and Ramdas Pophale) SiO2 
 PCOD8155676
Probable space group: P 2 2 21
;
_chemical_formula_sum "Si O2"
_cell_formula_units_Z 16
_cell_length_a 9.114010
_cell_length_b 10.699362
_cell_length_c 7.706406
_cell_angle_alpha 90.000000
_cell_angle_beta 90.000000
_cell_angle_gamma 90.000000
_cell_volume 751.483186
_symmetry_space_group_name_H-M "P 2 2 21"
_symmetry_group_IT_number 17
_symmetry_cell_setting 'orthorhombic'
loop_
_space_group_symop_operation_xyz
x,y,z
-x,-y,1/2+z
x,-y,-z
-x,y,1/2-z
loop_
_atom_site_type_symbol
_atom_site_label
_atom_site_fract_x
_atom_site_fract_y
_atom_site_fract_z
Si Si1 0.169920 0.239082 0.757689
Si Si2 0.358508 0.361500 0.050801
Si Si3 0.330457 0.264179 0.402930
Si Si4 0.846146 0.963017 0.808843
O O1 0.236811 0.286803 0.575588
O O2 0.196266 0.090750 0.792987
O O3 0.000000 0.271925 0.750000
O O4 0.236878 0.312599 0.919001
O O5 0.298369 0.365564 0.250090
O O6 0.498802 0.268924 0.043324
O O7 0.408983 0.500000 0.000000
O O8 0.290094 0.132321 0.309331
O O9 0.000000 0.899914 0.750000
O O10 0.887632 0.000000 0.000000
#
# Coordination Sequence:
#
# PCOD8155676 Si02
#       4
#     4   4   4   4
#     4  10  23  44  70 101 133 171 215 281 340 396
#     4  11  26  45  66  94 132 184 225 275 328 388
#     4  10  24  42  69  96 128 174 223 268 336 400
#     4   9  20  39  67 100 132 168 208 275 345 397
#
# _framework density 21.291226000000002
#
# number of rings (size 3 to 8) (size 9 to 14) (size 15 to 20)
#    0.000    2.000    0.000    0.750   17.500    0.000 
#   31.500    0.000    0.000    0.000    0.000    0.000 
#    0.000    0.000    0.000    0.000    0.000    0.000 
#
# Total GULP energy -198281.774385 kJ/mol
# GULP energy per Si atom -12392.610899 kJ/mol
# Density = 2.124277 g / cm^3
# Si number density = 21.291226 Si / 1000 Ang^3
#
#
#
# Elastic Constant Matrix: (Units=GPa)
#
#
# Indices 1 2 3 4 5 6 
#
# 1 150.3919 64.9677 56.2673 0.0000 0.0000 0.0000
# 2 64.9677 87.5759 24.4644 0.0000 0.0000 0.0000
# 3 56.2673 24.4644 111.5242 0.0000 0.0000 0.0000
# 4 0.0000 0.0000 0.0000 30.7598 0.0000 0.0000
# 5 0.0000 0.0000 0.0000 0.0000 36.0868 0.0000
# 6 0.0000 0.0000 0.0000 0.0000 0.0000 115.5479
#
#
#
# Elastic Compliance Matrix: (Units=1/GPa)
#
#
# Indices 1 2 3 4 5 6 
#
# 1 0.011323 -0.007248 -0.004123 0.000000 0.000000 0.000000
# 2 -0.007248 0.016804 -0.000029 0.000000 0.000000 0.000000
# 3 -0.004123 -0.000029 0.011053 0.000000 0.000000 0.000000
# 4 0.000000 0.000000 0.000000 0.032510 0.000000 0.000000
# 5 0.000000 0.000000 0.000000 0.000000 0.027711 0.000000
# 6 0.000000 0.000000 0.000000 0.000000 0.000000 0.008654
#
#
# Mechanical properties :
#
#
# Convention : Reuss Voigt Hill
#
# Bulk Modulus (GPa) = 61.05170 71.21010 66.13090
# Shear Modulus (GPa) = 36.67967 50.06508 43.37238
#
# Velocity S-wave (km/s) = 4.15512 4.85443 4.51832
# Velocity P-wave (km/s) = 7.19422 8.05847 7.63858
#
# Compressibility (1/GPa) = 0.01637956
#
# Stress axis : x y z
#
# Youngs Moduli (GPa) = 88.31673 59.51031 90.47202
#
# Poissons Ratio (x) = 0.43134 0.37299
# Poissons Ratio (y) = 0.64013 0.00265
# Poissons Ratio (z) = 0.36411 0.00174
#
# Static dielectric constant tensor:
#      x y z
#    x 3.761610 0.000000 0.000000 
#    y 0.000000 4.691760 0.000000 
#    z 0.000000 0.000000 4.122290 
# 
# 
# High freq. dielectric constant tensor:
#      x y z
#    x 1.830020 0.000000 0.000000 
#    y 0.000000 1.814430 0.000000 
#    z 0.000000 0.000000 1.857470 
# 
# From -- ./inp_files/3896.got.cif
#   From: 2010.03.12/outbox.cif.g09.slc.cpg/sg17_2_cif.got.tgz:3896.got - 2010.04.10 18:46:23.
