data_PCOD8155714
_publ_section_title
;
Structure prediction by ZEFSAII (Michael W. Deem and Ramdas Pophale) SiO2 
 PCOD8155714
Probable space group: P 2 2 21
;
_chemical_formula_sum "Si O2"
_cell_formula_units_Z 24
_cell_length_a 9.006677
_cell_length_b 9.162421
_cell_length_c 14.313069
_cell_angle_alpha 90.000000
_cell_angle_beta 90.000000
_cell_angle_gamma 90.000000
_cell_volume 1181.156913
_symmetry_space_group_name_H-M "P 2 2 21"
_symmetry_group_IT_number 17
_symmetry_cell_setting 'orthorhombic'
loop_
_space_group_symop_operation_xyz
x,y,z
-x,-y,1/2+z
x,-y,-z
-x,y,1/2-z
loop_
_atom_site_type_symbol
_atom_site_label
_atom_site_fract_x
_atom_site_fract_y
_atom_site_fract_z
Si Si1 0.857820 0.500000 0.500000
Si Si2 0.156581 0.151547 0.547938
Si Si3 0.123617 0.627705 0.606398
Si Si4 0.656770 0.683922 0.367143
Si Si5 0.153761 0.945666 0.101226
Si Si6 0.676935 0.642708 0.157618
Si Si7 0.000000 0.837579 0.750000
O O1 0.752646 0.615635 0.449534
O O2 0.957768 0.576357 0.579339
O O3 0.194625 0.278552 0.475748
O O4 0.248752 0.197676 0.639505
O O5 0.986100 0.157486 0.578911
O O6 0.203578 0.000000 0.500000
O O7 0.230696 0.490370 0.615280
O O8 0.115490 0.732372 0.696686
O O9 0.708768 0.853380 0.357298
O O10 0.679722 0.609237 0.267167
O O11 0.484152 0.659935 0.389878
O O12 0.095744 0.068010 0.175059
O O13 0.209297 0.000000 0.000000
#
# Coordination Sequence:
#
# PCOD8155714 Si02
#       7
#     2   4   4   4   4   4   2
#     4  12  22  40  66  98 126 168 226 278 324 394
#     4  11  21  41  65  97 127 169 224 271 334 394
#     4  12  22  40  66 100 126 172 222 272 336 385
#     4  11  25  41  65  92 133 178 219 265 336 401
#     4  11  21  41  66 101 130 169 223 282 336 395
#     4  11  25  43  64  94 136 179 218 269 336 405
#     4  12  22  36  72 102 134 166 224 292 330 388
#
# _framework density 20.319063
#
# number of rings (size 3 to 8) (size 9 to 14) (size 15 to 20)
#    0.000    0.667    6.667    2.000    2.333    2.000 
#    0.000    0.000    7.333    0.000    0.000    0.000 
#    0.000    0.000    0.000    0.000    0.000    0.000 
#
# Total GULP energy -297414.268643 kJ/mol
# GULP energy per Si atom -12392.261193 kJ/mol
# Density = 2.027282 g / cm^3
# Si number density = 20.319063 Si / 1000 Ang^3
#
#
#
# Elastic Constant Matrix: (Units=GPa)
#
#
# Indices 1 2 3 4 5 6 
#
# 1 120.2127 67.5900 41.8347 0.0000 0.0000 0.0000
# 2 67.5900 119.3207 42.2778 0.0000 0.0000 0.0000
# 3 41.8347 42.2778 84.6315 0.0000 0.0000 0.0000
# 4 0.0000 0.0000 0.0000 42.1251 0.0000 0.0000
# 5 0.0000 0.0000 0.0000 0.0000 28.9486 0.0000
# 6 0.0000 0.0000 0.0000 0.0000 0.0000 20.6353
#
#
#
# Elastic Compliance Matrix: (Units=1/GPa)
#
#
# Indices 1 2 3 4 5 6 
#
# 1 0.012931 -0.006148 -0.003321 0.000000 0.000000 0.000000
# 2 -0.006148 0.013107 -0.003508 0.000000 0.000000 0.000000
# 3 -0.003321 -0.003508 0.015210 0.000000 0.000000 0.000000
# 4 0.000000 0.000000 0.000000 0.023739 0.000000 0.000000
# 5 0.000000 0.000000 0.000000 0.000000 0.034544 0.000000
# 6 0.000000 0.000000 0.000000 0.000000 0.000000 0.048461
#
#
# Mechanical properties :
#
#
# Convention : Reuss Voigt Hill
#
# Bulk Modulus (GPa) = 65.38837 69.73000 67.55918
# Shear Modulus (GPa) = 27.92624 29.83931 28.88277
#
# Velocity S-wave (km/s) = 3.71129 3.83631 3.77432
# Velocity P-wave (km/s) = 7.11446 7.34949 7.23293
#
# Compressibility (1/GPa) = 0.01529324
#
# Stress axis : x y z
#
# Youngs Moduli (GPa) = 77.33289 76.29767 65.74671
#
# Poissons Ratio (x) = 0.46910 0.21832
# Poissons Ratio (y) = 0.47547 0.23065
# Poissons Ratio (z) = 0.25679 0.26767
#
# Static dielectric constant tensor:
#      x y z
#    x 3.539230 0.000000 0.000000 
#    y 0.000000 3.861030 0.000000 
#    z 0.000000 0.000000 4.253490 
# 
# 
# High freq. dielectric constant tensor:
#      x y z
#    x 1.771890 0.000000 0.000000 
#    y 0.000000 1.801390 0.000000 
#    z 0.000000 0.000000 1.811700 
# 
# From -- ./inp_files/8158.got.cif
#   From: 2010.03.12/outbox.cif.g09.slc.cpg/sg17_5_cif.got.tgz:8158.got - 2010.04.10 18:46:23.
