data_PCOD8155235
_publ_section_title
;
Structure prediction by ZEFSAII (Michael W. Deem and Ramdas Pophale) SiO2 
 PCOD8155235
Probable space group: P 2 2 2
;
_chemical_formula_sum "Si O2"
_cell_formula_units_Z 32
_cell_length_a 8.532379
_cell_length_b 15.038915
_cell_length_c 15.038915
_cell_angle_alpha 90.000000
_cell_angle_beta 90.000000
_cell_angle_gamma 90.000000
_cell_volume 1929.759322
_symmetry_space_group_name_H-M "P 2 2 2"
_symmetry_group_IT_number 16
_symmetry_cell_setting 'orthorhombic'
loop_
_space_group_symop_operation_xyz
x,y,z
-x,-y,z
x,-y,-z
-x,y,-z
loop_
_atom_site_type_symbol
_atom_site_label
_atom_site_fract_x
_atom_site_fract_y
_atom_site_fract_z
Si Si1 0.155687 0.681399 0.461800
Si Si2 0.450465 0.404669 0.601450
Si Si3 0.919499 0.131841 0.409436
Si Si4 0.353098 0.754827 0.626433
Si Si5 0.580501 0.090564 0.368159
Si Si6 0.655687 0.961800 0.818601
Si Si7 0.049535 0.101450 0.904669
Si Si8 0.146902 0.873567 0.745173
O O1 0.262469 0.614447 0.402320
O O2 0.095408 0.761077 0.398832
O O3 0.246580 0.728481 0.543082
O O4 0.000000 0.630756 0.500000
O O5 0.500000 0.500000 0.642495
O O6 0.500000 0.399640 0.500000
O O7 0.544751 0.330685 0.657824
O O8 0.750000 0.088355 0.411645
O O9 0.000000 0.102412 0.500000
O O10 0.024053 0.094150 0.329138
O O11 0.475947 0.829138 0.594150
O O12 0.250000 0.791165 0.708835
O O13 0.595408 0.101168 0.261077
O O14 0.500000 0.000000 0.397588
O O15 0.762469 0.902320 0.885553
O O16 0.500000 0.000000 0.869244
O O17 0.746580 0.043082 0.771519
O O18 0.955249 0.157824 0.830685
O O19 0.000000 0.000000 0.899640
O O20 0.000000 0.142495 0.000000
#
# Coordination Sequence:
#
# PCOD8155235 Si02
#       8
#     4   4   4   4   4   4   4   4
#     4  10  19  32  51  70  95 129 175 204 251 298
#     4   9  19  34  51  68  93 128 168 212 258 297
#     4  11  21  33  48  68  96 136 171 209 244 291
#     4  11  19  32  50  69  97 130 168 211 250 295
#     4  11  21  33  48  68  96 136 171 209 244 291
#     4  10  19  32  51  70  95 129 175 204 251 298
#     4   9  19  34  51  68  93 128 168 212 258 297
#     4  11  19  32  50  69  97 130 168 211 250 295
#
# _framework density 16.582377999999999
#
# number of rings (size 3 to 8) (size 9 to 14) (size 15 to 20)
#    0.000    1.750    7.500    0.000    0.000    0.000 
#    0.000   17.500    0.000    0.000    0.000    0.000 
#    0.000    0.000    0.000   13.500    0.000    0.000 
#
# Total GULP energy -396529.716072 kJ/mol
# GULP energy per Si atom -12391.553627 kJ/mol
# Density = 1.654464 g / cm^3
# Si number density = 16.582378 Si / 1000 Ang^3
#
#
#
# Elastic Constant Matrix: (Units=GPa)
#
#
# Indices 1 2 3 4 5 6 
#
# 1 149.3127 42.9376 42.9376 0.0000 0.0000 0.0000
# 2 42.9376 79.2523 15.1107 0.0000 0.0000 0.0000
# 3 42.9376 15.1107 79.2523 0.0000 0.0000 0.0000
# 4 0.0000 0.0000 0.0000 1.8018 0.0000 0.0000
# 5 0.0000 0.0000 0.0000 0.0000 19.0006 0.0000
# 6 0.0000 0.0000 0.0000 0.0000 0.0000 19.0006
#
#
#
# Elastic Compliance Matrix: (Units=1/GPa)
#
#
# Indices 1 2 3 4 5 6 
#
# 1 0.009071 -0.004128 -0.004128 0.000000 0.000000 0.000000
# 2 -0.004128 0.014972 -0.000618 0.000000 0.000000 0.000000
# 3 -0.004128 -0.000618 0.014972 0.000000 0.000000 0.000000
# 4 0.000000 0.000000 0.000000 0.555001 0.000000 0.000000
# 5 0.000000 0.000000 0.000000 0.000000 0.052630 0.000000
# 6 0.000000 0.000000 0.000000 0.000000 0.000000 0.052630
#
#
# Mechanical properties :
#
#
# Convention : Reuss Voigt Hill
#
# Bulk Modulus (GPa) = 47.01867 56.64323 51.83095
# Shear Modulus (GPa) = 6.90500 21.74935 14.32717
#
# Velocity S-wave (km/s) = 2.04282 3.62552 2.94258
# Velocity P-wave (km/s) = 5.82926 7.19435 6.54748
#
# Compressibility (1/GPa) = 0.02126815
#
# Stress axis : x y z
#
# Youngs Moduli (GPa) = 110.23719 66.79064 66.79064
#
# Poissons Ratio (x) = 0.27569 0.27569
# Poissons Ratio (y) = 0.45503 0.04130
# Poissons Ratio (z) = 0.45503 0.04130
#
# Static dielectric constant tensor:
#      x y z
#    x 3.863010 0.000000 0.000000 
#    y 0.000000 3.061270 0.000000 
#    z 0.000000 0.000000 3.061270 
# 
# 
# High freq. dielectric constant tensor:
#      x y z
#    x 1.673810 0.000000 0.000000 
#    y 0.000000 1.591670 0.000000 
#    z 0.000000 0.000000 1.591670 
# 
# From -- ./inp_files/8030.got.cif
#   From: 2010.03.12/outbox.cif.g09.slc.cpg/sg16_5_cif.got.tgz:8030.got - 2010.03.31 00:51:45.
