data_PCOD8155965
_publ_section_title
;
Structure prediction by ZEFSAII (Michael W. Deem and Ramdas Pophale) SiO2 
 PCOD8155965
Probable space group: P 21 21 2
;
_chemical_formula_sum "Si O2"
_cell_formula_units_Z 28
_cell_length_a 28.224922
_cell_length_b 8.928341
_cell_length_c 5.043685
_cell_angle_alpha 90.000000
_cell_angle_beta 90.000000
_cell_angle_gamma 90.000000
_cell_volume 1271.017337
_symmetry_space_group_name_H-M "P 21 21 2"
_symmetry_group_IT_number 18
_symmetry_cell_setting 'orthorhombic'
loop_
_space_group_symop_operation_xyz
x,y,z
-x,-y,z
1/2+x,1/2-y,-z
1/2-x,1/2+y,-z
loop_
_atom_site_type_symbol
_atom_site_label
_atom_site_fract_x
_atom_site_fract_y
_atom_site_fract_z
Si Si1 0.269399 0.671128 0.689153
Si Si2 0.377933 0.666762 0.649368
Si Si3 0.000000 0.000000 0.750574
Si Si4 0.933374 0.246406 0.617571
Si Si5 0.622113 0.667359 0.850291
Si Si6 0.269367 0.328226 0.810858
Si Si7 0.566611 0.253270 0.116965
Si Si8 0.000000 0.500000 0.749281
O O1 0.322858 0.687200 0.582692
O O2 0.255880 0.499690 0.750018
O O3 0.235879 0.731278 0.455872
O O4 0.264159 0.768113 0.955861
O O5 0.388180 0.499897 0.750985
O O6 0.408805 0.717780 0.399852
O O7 0.393144 0.769163 0.896523
O O8 0.032110 0.105548 0.939242
O O9 0.967368 0.103937 0.561940
O O10 0.892959 0.268994 0.398157
O O11 0.965437 0.393535 0.581974
O O12 0.908913 0.219261 0.901326
O O13 0.677169 0.687927 0.917283
O O14 0.535069 0.104885 0.083566
#
# Coordination Sequence:
#
# PCOD8155965 Si02
#       8
#     4   4   2   4   4   4   4   2
#     4  11  24  45  70 102 135 174 219 275 334 399
#     4  11  22  42  69  95 123 167 223 262 307 382
#     4  10  20  36  68  88 116 164 220 256 312 372
#     4  11  23  41  64  93 127 167 211 265 318 373
#     4  11  22  42  69  95 123 167 223 262 307 382
#     4  11  24  45  70 102 135 174 219 275 334 399
#     4  11  23  41  64  93 127 167 211 265 318 373
#     4  10  28  44  56  96 136 168 200 272 328 384
#
# _framework density 22.029598
#
# number of rings (size 3 to 8) (size 9 to 14) (size 15 to 20)
#    0.000    1.143    2.857    2.571    0.000   12.571 
#   15.429    0.000    0.000    0.000    0.000    0.000 
#    0.000    0.000    0.000    0.000    0.000    0.000 
#
# Total GULP energy -347096.860565 kJ/mol
# GULP energy per Si atom -12396.316449 kJ/mol
# Density = 2.197946 g / cm^3
# Si number density = 22.029598 Si / 1000 Ang^3
#
#
#
# Elastic Constant Matrix: (Units=GPa)
#
#
# Indices 1 2 3 4 5 6 
#
# 1 93.0749 53.0477 37.2351 0.0000 0.0000 0.0000
# 2 53.0477 125.6222 34.5108 0.0000 0.0000 0.0000
# 3 37.2351 34.5108 132.9173 0.0000 0.0000 0.0000
# 4 0.0000 0.0000 0.0000 23.5508 0.0000 0.0000
# 5 0.0000 0.0000 0.0000 0.0000 5.6863 0.0000
# 6 0.0000 0.0000 0.0000 0.0000 0.0000 5.7685
#
#
#
# Elastic Compliance Matrix: (Units=1/GPa)
#
#
# Indices 1 2 3 4 5 6 
#
# 1 0.015035 -0.005591 -0.002760 0.000000 0.000000 0.000000
# 2 -0.005591 0.010651 -0.001199 0.000000 0.000000 0.000000
# 3 -0.002760 -0.001199 0.008608 0.000000 0.000000 0.000000
# 4 0.000000 0.000000 0.000000 0.042461 0.000000 0.000000
# 5 0.000000 0.000000 0.000000 0.000000 0.175860 0.000000
# 6 0.000000 0.000000 0.000000 0.000000 0.000000 0.173354
#
#
# Mechanical properties :
#
#
# Convention : Reuss Voigt Hill
#
# Bulk Modulus (GPa) = 65.81832 66.80019 66.30926
# Shear Modulus (GPa) = 11.10782 22.12251 16.61517
#
# Velocity S-wave (km/s) = 2.24793 3.17238 2.74929
# Velocity P-wave (km/s) = 6.05637 6.61872 6.34378
#
# Compressibility (1/GPa) = 0.01519334
#
# Stress axis : x y z
#
# Youngs Moduli (GPa) = 66.51334 93.89158 116.16984
#
# Poissons Ratio (x) = 0.52490 0.32065
# Poissons Ratio (y) = 0.37184 0.13931
# Poissons Ratio (z) = 0.18359 0.11260
#
# Static dielectric constant tensor:
#      x y z
#    x 4.088740 0.000000 0.000000 
#    y 0.000000 4.267710 0.000000 
#    z 0.000000 0.000000 3.715110 
# 
# 
# High freq. dielectric constant tensor:
#      x y z
#    x 1.882400 0.000000 0.000000 
#    y 0.000000 1.864970 0.000000 
#    z 0.000000 0.000000 1.857580 
# 
# From -- ./inp_files/2221.got.cif
#   From: 2010.03.12/outbox.cif.g09.slc.cpg/sg18_2_cif.got.tgz:2221.got - 2010.04.10 18:53:55.
