data_PCOD8155356
_publ_section_title
;
Structure prediction by ZEFSAII (Michael W. Deem and Ramdas Pophale) SiO2 
 PCOD8155356
Probable space group: P 2 2 21
;
_chemical_formula_sum "Si O2"
_cell_formula_units_Z 26
_cell_length_a 5.175441
_cell_length_b 8.105064
_cell_length_c 30.611681
_cell_angle_alpha 90.000000
_cell_angle_beta 90.000000
_cell_angle_gamma 90.000000
_cell_volume 1284.076771
_symmetry_space_group_name_H-M "P 2 2 21"
_symmetry_group_IT_number 17
_symmetry_cell_setting 'orthorhombic'
loop_
_space_group_symop_operation_xyz
x,y,z
-x,-y,1/2+z
x,-y,-z
-x,y,1/2-z
loop_
_atom_site_type_symbol
_atom_site_label
_atom_site_fract_x
_atom_site_fract_y
_atom_site_fract_z
Si Si1 0.607993 0.419695 0.793653
Si Si2 0.000000 0.819763 0.250000
Si Si3 0.899498 0.356148 0.594913
Si Si4 0.740016 0.141742 0.668432
Si Si5 0.008146 0.951765 0.049378
Si Si6 0.501583 0.070862 0.097336
Si Si7 0.385555 0.554172 0.616233
O O1 0.500000 0.510981 0.750000
O O2 0.393549 0.304795 0.814261
O O3 0.670331 0.551839 0.831423
O O4 0.839145 0.300971 0.780896
O O5 0.860530 0.936247 0.286532
O O6 0.942544 0.215928 0.632909
O O7 0.621530 0.441786 0.599527
O O8 0.914957 0.243380 0.551252
O O9 0.124748 0.490501 0.593459
O O10 0.553855 0.008982 0.645206
O O11 0.742305 0.978986 0.075720
O O12 0.244384 0.060286 0.068052
O O13 0.954640 0.000000 0.000000
O O14 0.569997 0.260550 0.102421
#
# Coordination Sequence:
#
# PCOD8155356 Si02
#       7
#     4   2   4   4   4   4   4
#     4   9  18  32  55  83 115 162 210 245 285 358
#     4  10  16  32  58  90 112 162 228 252 278 346
#     4  10  20  38  64  85 116 166 202 232 302 378
#     4   9  19  33  58  85 117 162 213 250 288 357
#     4  11  23  44  67  92 118 157 206 253 302 377
#     4  11  24  39  64  92 127 155 197 259 319 355
#     4  11  21  39  59  91 124 163 195 247 310 364
#
# _framework density 20.248009
#
# number of rings (size 3 to 8) (size 9 to 14) (size 15 to 20)
#    0.000    1.846    1.538    4.154    2.154    0.000 
#    0.000    6.923    0.000    0.923    0.000    0.000 
#    0.000    0.000    0.000    0.000    0.000    0.000 
#
# Total GULP energy -322096.106212 kJ/mol
# GULP energy per Si atom -12388.311777 kJ/mol
# Density = 2.020192 g / cm^3
# Si number density = 20.248009 Si / 1000 Ang^3
#
#
#
# Elastic Constant Matrix: (Units=GPa)
#
#
# Indices 1 2 3 4 5 6 
#
# 1 105.9150 14.3542 30.4718 0.0000 0.0000 0.0000
# 2 14.3542 78.1924 23.0249 0.0000 0.0000 0.0000
# 3 30.4718 23.0249 72.5747 0.0000 0.0000 0.0000
# 4 0.0000 0.0000 0.0000 19.0382 0.0000 0.0000
# 5 0.0000 0.0000 0.0000 0.0000 26.1107 0.0000
# 6 0.0000 0.0000 0.0000 0.0000 0.0000 33.6464
#
#
#
# Elastic Compliance Matrix: (Units=1/GPa)
#
#
# Indices 1 2 3 4 5 6 
#
# 1 0.010775 -0.000712 -0.004298 0.000000 0.000000 0.000000
# 2 -0.000712 0.014154 -0.004191 0.000000 0.000000 0.000000
# 3 -0.004298 -0.004191 0.016913 0.000000 0.000000 0.000000
# 4 0.000000 0.000000 0.000000 0.052526 0.000000 0.000000
# 5 0.000000 0.000000 0.000000 0.000000 0.038299 0.000000
# 6 0.000000 0.000000 0.000000 0.000000 0.000000 0.029721
#
#
# Mechanical properties :
#
#
# Convention : Reuss Voigt Hill
#
# Bulk Modulus (GPa) = 42.66484 43.59818 43.13151
# Shear Modulus (GPa) = 26.51071 28.34781 27.42926
#
# Velocity S-wave (km/s) = 3.62235 3.74576 3.68457
# Velocity P-wave (km/s) = 6.21386 6.34716 6.28086
#
# Compressibility (1/GPa) = 0.02343851
#
# Stress axis : x y z
#
# Youngs Moduli (GPa) = 92.81105 70.65166 59.12541
#
# Poissons Ratio (x) = 0.05033 0.25411
# Poissons Ratio (y) = 0.06612 0.24782
# Poissons Ratio (z) = 0.39889 0.29613
#
# Static dielectric constant tensor:
#      x y z
#    x 3.760060 0.000000 0.000000 
#    y 0.000000 3.369530 0.000000 
#    z 0.000000 0.000000 4.053730 
# 
# 
# High freq. dielectric constant tensor:
#      x y z
#    x 1.805170 0.000000 0.000000 
#    y 0.000000 1.755630 0.000000 
#    z 0.000000 0.000000 1.794190 
# 
# From -- ./inp_files/11129.got.cif
#   From: 2010.03.12/outbox.cif.g09.slc.cpg/sg17_6_cif.got.tgz:11129.got - 2010.04.10 18:46:23.
