data_PCOD8155224
_publ_section_title
;
Structure prediction by ZEFSAII (Michael W. Deem and Ramdas Pophale) SiO2 
 PCOD8155224
Probable space group: P 2 2 2
;
_chemical_formula_sum "Si O2"
_cell_formula_units_Z 32
_cell_length_a 16.055359
_cell_length_b 12.344899
_cell_length_c 8.875053
_cell_angle_alpha 90.000000
_cell_angle_beta 90.000000
_cell_angle_gamma 90.000000
_cell_volume 1759.051349
_symmetry_space_group_name_H-M "P 2 2 2"
_symmetry_group_IT_number 16
_symmetry_cell_setting 'orthorhombic'
loop_
_space_group_symop_operation_xyz
x,y,z
-x,-y,z
x,-y,-z
-x,y,-z
loop_
_atom_site_type_symbol
_atom_site_label
_atom_site_fract_x
_atom_site_fract_y
_atom_site_fract_z
Si Si1 0.904757 0.019402 0.675445
Si Si2 0.842797 0.773056 0.171923
Si Si3 0.243500 0.532467 0.330590
Si Si4 0.672515 0.713863 0.822250
Si Si5 0.679595 0.658377 0.163629
Si Si6 0.784285 0.099582 0.101664
Si Si7 0.499501 0.377577 0.177798
Si Si8 0.092263 0.538914 0.837284
O O1 0.881217 0.143238 0.709989
O O2 0.891902 0.000000 0.500000
O O3 0.844036 0.938840 0.764658
O O4 0.000000 0.000000 0.725486
O O5 0.748677 0.742356 0.227116
O O6 0.902255 0.668782 0.169476
O O7 0.839454 0.821562 0.003377
O O8 0.263330 0.500000 0.500000
O O9 0.268246 0.656820 0.301210
O O10 0.299238 0.462169 0.216905
O O11 0.146575 0.515066 0.294287
O O12 0.702488 0.839186 0.832070
O O13 0.576582 0.697782 0.767853
O O14 0.684261 0.657115 0.983326
O O15 0.586309 0.684853 0.223597
O O16 0.751200 0.000000 0.000000
O O17 0.500000 0.500000 0.247794
O O18 0.500000 0.389539 0.000000
O O19 0.000000 0.500000 0.806119
O O20 0.124861 0.500000 0.000000
#
# Coordination Sequence:
#
# PCOD8155224 Si02
#       8
#     4   4   4   4   4   4   4   4
#     4  10  22  38  56  78 101 132 182 234 273 317
#     4   9  19  35  55  77 104 139 169 220 275 314
#     4  11  21  31  46  73 107 144 178 211 259 320
#     4  10  18  32  55  76 105 143 176 222 272 311
#     4   9  17  33  52  74 107 137 178 213 262 327
#     4   9  19  34  55  80 103 134 180 226 273 325
#     4   9  15  26  52  83 104 136 180 218 262 319
#     4  10  21  36  54  77 106 140 178 213 262 337
#
# _framework density 18.191623
#
# number of rings (size 3 to 8) (size 9 to 14) (size 15 to 20)
#    0.000    2.375    1.250    2.625    0.000    7.500 
#    0.000    3.750    0.000   17.625    0.000    0.875 
#    0.000    0.000    0.000    0.000    0.000    0.000 
#
# Total GULP energy -396651.213664 kJ/mol
# GULP energy per Si atom -12395.350427 kJ/mol
# Density = 1.815022 g / cm^3
# Si number density = 18.191623 Si / 1000 Ang^3
#
#
#
# Elastic Constant Matrix: (Units=GPa)
#
#
# Indices 1 2 3 4 5 6 
#
# 1 148.6378 80.8247 38.2670 0.0000 0.0000 0.0000
# 2 80.8247 123.4706 36.8489 0.0000 0.0000 0.0000
# 3 38.2670 36.8489 58.2955 0.0000 0.0000 0.0000
# 4 0.0000 0.0000 0.0000 18.9173 0.0000 0.0000
# 5 0.0000 0.0000 0.0000 0.0000 8.7341 0.0000
# 6 0.0000 0.0000 0.0000 0.0000 0.0000 27.8661
#
#
#
# Elastic Compliance Matrix: (Units=1/GPa)
#
#
# Indices 1 2 3 4 5 6 
#
# 1 0.010929 -0.006179 -0.003269 0.000000 0.000000 0.000000
# 2 -0.006179 0.013475 -0.004462 0.000000 0.000000 0.000000
# 3 -0.003269 -0.004462 0.022120 0.000000 0.000000 0.000000
# 4 0.000000 0.000000 0.000000 0.052862 0.000000 0.000000
# 5 0.000000 0.000000 0.000000 0.000000 0.114494 0.000000
# 6 0.000000 0.000000 0.000000 0.000000 0.000000 0.035886
#
#
# Mechanical properties :
#
#
# Convention : Reuss Voigt Hill
#
# Bulk Modulus (GPa) = 53.45897 71.36503 62.41200
# Shear Modulus (GPa) = 17.61681 22.73438 20.17560
#
# Velocity S-wave (km/s) = 3.11529 3.53897 3.33387
# Velocity P-wave (km/s) = 6.51079 7.48424 7.01442
#
# Compressibility (1/GPa) = 0.01870593
#
# Stress axis : x y z
#
# Youngs Moduli (GPa) = 91.49879 74.20924 45.20796
#
# Poissons Ratio (x) = 0.45852 0.14777
# Poissons Ratio (y) = 0.56535 0.20171
# Poissons Ratio (z) = 0.29907 0.33112
#
# Static dielectric constant tensor:
#      x y z
#    x 3.647050 0.000000 0.000000 
#    y 0.000000 3.374980 0.000000 
#    z 0.000000 0.000000 3.074940 
# 
# 
# High freq. dielectric constant tensor:
#      x y z
#    x 1.710830 0.000000 0.000000 
#    y 0.000000 1.692660 0.000000 
#    z 0.000000 0.000000 1.677430 
# 
# From -- ./inp_files/5547.got.cif
#   From: 2010.03.12/outbox.cif.g09.slc.cpg/sg16_3_cif.got.tgz:5547.got - 2010.03.31 00:51:45.
