data_PCOD8155897
_publ_section_title
;
Structure prediction by ZEFSAII (Michael W. Deem and Ramdas Pophale) SiO2 
 PCOD8155897
Probable space group: P 21 21 2
;
_chemical_formula_sum "Si O2"
_cell_formula_units_Z 26
_cell_length_a 17.467877
_cell_length_b 8.177423
_cell_length_c 9.073480
_cell_angle_alpha 90.000000
_cell_angle_beta 90.000000
_cell_angle_gamma 90.000000
_cell_volume 1296.076019
_symmetry_space_group_name_H-M "P 21 21 2"
_symmetry_group_IT_number 18
_symmetry_cell_setting 'orthorhombic'
loop_
_space_group_symop_operation_xyz
x,y,z
-x,-y,z
1/2+x,1/2-y,-z
1/2-x,1/2+y,-z
loop_
_atom_site_type_symbol
_atom_site_label
_atom_site_fract_x
_atom_site_fract_y
_atom_site_fract_z
Si Si1 0.431107 0.788481 0.361335
Si Si2 0.500000 0.500000 0.176107
Si Si3 0.611528 0.732822 0.045763
Si Si4 0.737403 0.675953 0.283639
Si Si5 0.000000 0.500000 0.391308
Si Si6 0.500000 0.000000 0.138742
Si Si7 0.721403 0.366965 0.453785
Si Si8 0.652634 0.898695 0.760038
O O1 0.477523 0.641609 0.288312
O O2 0.431842 0.932682 0.241912
O O3 0.343527 0.750859 0.391008
O O4 0.472340 0.846275 0.511118
O O5 0.569931 0.556875 0.068802
O O6 0.674187 0.747448 0.174294
O O7 0.542902 0.865190 0.042700
O O8 0.653977 0.763810 0.890996
O O9 0.701355 0.555421 0.411113
O O10 0.771813 0.833188 0.370717
O O11 0.802619 0.569669 0.196346
O O12 0.933215 0.437966 0.285758
O O13 0.801830 0.317660 0.376292
#
# Coordination Sequence:
#
# PCOD8155897 Si02
#       8
#     4   2   4   4   2   2   4   4
#     4  10  19  37  62  94 123 162 216 262 317 376
#     4  10  20  36  66  88 128 164 216 260 320 384
#     4  11  22  43  61  95 131 173 215 260 329 391
#     4  10  23  40  65  93 126 166 216 267 314 388
#     4  11  21  40  66  96 126 168 214 268 328 374
#     4   9  23  32  68  88 126 180 202 262 316 394
#     4  10  21  41  61  97 121 165 213 267 312 377
#     4  10  24  39  64  90 133 162 211 263 323 382
#
# _framework density 20.060552000000001
#
# number of rings (size 3 to 8) (size 9 to 14) (size 15 to 20)
#    0.923    0.923    3.077    0.462    8.615    1.231 
#    0.000    3.846    0.000    0.000    0.000    0.000 
#    0.000    0.000    0.000    0.000    0.000    0.000 
#
# Total GULP energy -322090.285656 kJ/mol
# GULP energy per Si atom -12388.087910 kJ/mol
# Density = 2.001489 g / cm^3
# Si number density = 20.060552 Si / 1000 Ang^3
#
#
#
# Elastic Constant Matrix: (Units=GPa)
#
#
# Indices 1 2 3 4 5 6 
#
# 1 103.8759 16.4677 24.0965 0.0000 0.0000 0.0000
# 2 16.4677 65.1116 32.6760 0.0000 0.0000 0.0000
# 3 24.0965 32.6760 85.7304 0.0000 0.0000 0.0000
# 4 0.0000 0.0000 0.0000 35.5782 0.0000 0.0000
# 5 0.0000 0.0000 0.0000 0.0000 23.7652 0.0000
# 6 0.0000 0.0000 0.0000 0.0000 0.0000 35.6580
#
#
#
# Elastic Compliance Matrix: (Units=1/GPa)
#
#
# Indices 1 2 3 4 5 6 
#
# 1 0.010406 -0.001439 -0.002376 0.000000 0.000000 0.000000
# 2 -0.001439 0.019190 -0.006910 0.000000 0.000000 0.000000
# 3 -0.002376 -0.006910 0.014966 0.000000 0.000000 0.000000
# 4 0.000000 0.000000 0.000000 0.028107 0.000000 0.000000
# 5 0.000000 0.000000 0.000000 0.000000 0.042078 0.000000
# 6 0.000000 0.000000 0.000000 0.000000 0.000000 0.028044
#
#
# Mechanical properties :
#
#
# Convention : Reuss Voigt Hill
#
# Bulk Modulus (GPa) = 43.26845 44.57761 43.92303
# Shear Modulus (GPa) = 29.07886 31.09879 30.08883
#
# Velocity S-wave (km/s) = 3.81143 3.94159 3.87706
# Velocity P-wave (km/s) = 6.40196 6.55626 6.47957
#
# Compressibility (1/GPa) = 0.02311153
#
# Stress axis : x y z
#
# Youngs Moduli (GPa) = 96.09559 52.11093 66.81823
#
# Poissons Ratio (x) = 0.07501 0.15878
# Poissons Ratio (y) = 0.13832 0.46169
# Poissons Ratio (z) = 0.22835 0.36007
#
# Static dielectric constant tensor:
#      x y z
#    x 3.639640 0.000000 0.000000 
#    y 0.000000 3.797990 0.000000 
#    z 0.000000 0.000000 3.483540 
# 
# 
# High freq. dielectric constant tensor:
#      x y z
#    x 1.786910 0.000000 0.000000 
#    y 0.000000 1.773240 0.000000 
#    z 0.000000 0.000000 1.766670 
# 
# From -- ./inp_files/3351.got.cif
#   From: 2010.03.12/outbox.cif.g09.slc.cpg/sg18_2_cif.got.tgz:3351.got - 2010.04.10 18:53:55.
