data_PCOD8155684
_publ_section_title
;
Structure prediction by ZEFSAII (Michael W. Deem and Ramdas Pophale) SiO2 
 PCOD8155684
Probable space group: P 2 2 21
;
_chemical_formula_sum "Si O2"
_cell_formula_units_Z 18
_cell_length_a 7.273579
_cell_length_b 12.378662
_cell_length_c 9.788640
_cell_angle_alpha 90.000000
_cell_angle_beta 90.000000
_cell_angle_gamma 90.000000
_cell_volume 881.341502
_symmetry_space_group_name_H-M "P 2 2 21"
_symmetry_group_IT_number 17
_symmetry_cell_setting 'orthorhombic'
loop_
_space_group_symop_operation_xyz
x,y,z
-x,-y,1/2+z
x,-y,-z
-x,y,1/2-z
loop_
_atom_site_type_symbol
_atom_site_label
_atom_site_fract_x
_atom_site_fract_y
_atom_site_fract_z
Si Si1 0.000000 0.380764 0.750000
Si Si2 0.173486 0.231532 0.348479
Si Si3 0.500000 0.911590 0.750000
Si Si4 0.042366 0.175163 0.898412
Si Si5 0.682755 0.000000 0.500000
Si Si6 0.328907 0.530480 0.648703
O O1 0.091319 0.301632 0.866344
O O2 0.163247 0.452108 0.691032
O O3 0.325335 0.160193 0.278732
O O4 0.249555 0.350809 0.361333
O O5 0.000000 0.231373 0.250000
O O6 0.129543 0.180163 0.497413
O O7 0.547248 0.989014 0.625955
O O8 0.199808 0.108450 0.974706
O O9 0.000000 0.118299 0.750000
O O10 0.404945 0.500000 0.500000
O O11 0.500000 0.520993 0.750000
#
# Coordination Sequence:
#
# PCOD8155684 Si02
#       6
#     2   4   2   4   2   4
#     4  10  24  44  72 100 142 182 230 280 350 418
#     4  12  24  46  73 100 143 182 233 281 351 416
#     4  12  30  46  70 108 136 180 236 296 344 418
#     4  10  25  47  70  98 139 185 234 286 346 411
#     4  12  28  46  74 102 138 188 236 294 350 404
#     4  12  25  43  71 107 142 187 224 283 351 422
#
# _framework density 20.423410000000001
#
# number of rings (size 3 to 8) (size 9 to 14) (size 15 to 20)
#    0.667    0.000    6.667    0.000    6.222    4.444 
#    2.000    0.000    0.000    0.000    0.000    0.000 
#    0.000    0.000    0.000    0.000    0.000    0.000 
#
# Total GULP energy -223096.890993 kJ/mol
# GULP energy per Si atom -12394.271722 kJ/mol
# Density = 2.037693 g / cm^3
# Si number density = 20.423410 Si / 1000 Ang^3
#
#
#
# Elastic Constant Matrix: (Units=GPa)
#
#
# Indices 1 2 3 4 5 6 
#
# 1 112.2588 57.2143 75.9388 0.0000 0.0000 0.0000
# 2 57.2143 106.2705 50.3140 0.0000 0.0000 0.0000
# 3 75.9388 50.3140 172.6093 0.0000 0.0000 0.0000
# 4 0.0000 0.0000 0.0000 35.1757 0.0000 0.0000
# 5 0.0000 0.0000 0.0000 0.0000 48.1991 0.0000
# 6 0.0000 0.0000 0.0000 0.0000 0.0000 -1.8098
#
#
#
# Elastic Compliance Matrix: (Units=1/GPa)
#
#
# Indices 1 2 3 4 5 6 
#
# 1 0.015287 -0.005854 -0.005019 0.000000 0.000000 0.000000
# 2 -0.005854 0.013158 -0.001260 0.000000 0.000000 0.000000
# 3 -0.005019 -0.001260 0.008369 0.000000 0.000000 0.000000
# 4 0.000000 0.000000 0.000000 0.028429 0.000000 0.000000
# 5 0.000000 0.000000 0.000000 0.000000 0.020747 0.000000
# 6 0.000000 0.000000 0.000000 0.000000 0.000000 -0.552544
#
#
# Mechanical properties :
#
#
# Convention : Reuss Voigt Hill
#
# Bulk Modulus (GPa) = 79.69525 84.23030 81.96278
# Shear Modulus (GPa) = -11.41277 30.15778 9.37251
#
# Velocity S-wave (km/s) = -2.36648 3.84686 2.14454
# Velocity P-wave (km/s) = 5.62488 7.81426 6.80816
#
# Compressibility (1/GPa) = 0.01254780
#
# Stress axis : x y z
#
# Youngs Moduli (GPa) = 65.41680 75.99851 119.49142
#
# Poissons Ratio (x) = 0.44488 0.59972
# Poissons Ratio (y) = 0.38294 0.15057
# Poissons Ratio (z) = 0.32832 0.09577
#
# Static dielectric constant tensor:
#      x y z
#    x 3.647970 0.000000 0.000000 
#    y 0.000000 3.788400 0.000000 
#    z 0.000000 0.000000 4.131030 
# 
# 
# High freq. dielectric constant tensor:
#      x y z
#    x 1.790050 0.000000 0.000000 
#    y 0.000000 1.808710 0.000000 
#    z 0.000000 0.000000 1.821430 
# 
# From -- ./inp_files/5867.got.cif
#   From: 2010.03.12/outbox.cif.g09.slc.cpg/sg17_3_cif.got.tgz:5867.got - 2010.04.10 18:46:23.
