data_PCOD8155943
_publ_section_title
;
Structure prediction by ZEFSAII (Michael W. Deem and Ramdas Pophale) SiO2 
 PCOD8155943
Probable space group: P 21 21 2
;
_chemical_formula_sum "Si O2"
_cell_formula_units_Z 32
_cell_length_a 8.590761
_cell_length_b 15.477483
_cell_length_c 11.581513
_cell_angle_alpha 90.000000
_cell_angle_beta 90.000000
_cell_angle_gamma 90.000000
_cell_volume 1539.916851
_symmetry_space_group_name_H-M "P 21 21 2"
_symmetry_group_IT_number 18
_symmetry_cell_setting 'orthorhombic'
loop_
_space_group_symop_operation_xyz
x,y,z
-x,-y,z
1/2+x,1/2-y,-z
1/2-x,1/2+y,-z
loop_
_atom_site_type_symbol
_atom_site_label
_atom_site_fract_x
_atom_site_fract_y
_atom_site_fract_z
Si Si1 0.976923 0.166245 0.166761
Si Si2 0.947570 0.905518 0.410556
Si Si3 0.280074 0.804705 0.780144
Si Si4 0.790307 0.796537 0.808022
Si Si5 0.597500 0.919106 0.454704
Si Si6 0.055930 0.586207 0.286549
Si Si7 0.544083 0.596855 0.073076
Si Si8 0.995621 0.235054 0.605949
O O1 0.972204 0.117808 0.289220
O O2 0.135129 0.223919 0.156062
O O3 0.817541 0.219731 0.146052
O O4 0.966079 0.095265 0.065522
O O5 0.762077 0.907643 0.391204
O O6 0.003481 0.835722 0.504689
O O7 0.000000 0.000000 0.453001
O O8 0.413759 0.847304 0.701815
O O9 0.210034 0.872986 0.873407
O O10 0.152493 0.774574 0.688772
O O11 0.686953 0.881598 0.799152
O O12 0.929820 0.824266 0.890974
O O13 0.847898 0.773317 0.679644
O O14 0.628965 0.936801 0.589272
O O15 0.499979 0.831086 0.445052
O O16 0.500000 0.000000 0.401349
O O17 0.000000 0.500000 0.224216
O O18 0.500000 0.500000 0.118058
#
# Coordination Sequence:
#
# PCOD8155943 Si02
#       8
#     4   4   4   4   4   4   4   4
#     4  11  23  43  64  89 129 172 215 257 327 391
#     4  12  27  40  66  99 135 176 215 261 321 394
#     4  10  22  39  66  89 121 167 214 268 317 387
#     4  10  22  39  65  91 118 168 215 267 320 381
#     4  11  25  40  61  93 134 175 210 262 319 393
#     4  10  20  35  58  91 127 160 206 261 322 371
#     4  11  23  41  64  93 124 160 215 278 328 384
#     4  11  23  41  63  91 130 168 215 262 322 379
#
# _framework density 20.780341
#
# number of rings (size 3 to 8) (size 9 to 14) (size 15 to 20)
#    0.000    1.250    2.500    3.375    5.250    2.000 
#    0.000    0.000    0.000    0.750    0.000    0.000 
#    0.000    0.000    0.000    0.000    0.000    0.000 
#
# Total GULP energy -396682.677279 kJ/mol
# GULP energy per Si atom -12396.333665 kJ/mol
# Density = 2.073304 g / cm^3
# Si number density = 20.780341 Si / 1000 Ang^3
#
#
#
# Elastic Constant Matrix: (Units=GPa)
#
#
# Indices 1 2 3 4 5 6 
#
# 1 77.3187 17.1098 11.5969 0.0000 0.0000 0.0000
# 2 17.1098 119.6777 20.0736 0.0000 0.0000 0.0000
# 3 11.5969 20.0736 84.3330 0.0000 0.0000 0.0000
# 4 0.0000 0.0000 0.0000 26.5190 0.0000 0.0000
# 5 0.0000 0.0000 0.0000 0.0000 9.4853 0.0000
# 6 0.0000 0.0000 0.0000 0.0000 0.0000 14.8636
#
#
#
# Elastic Compliance Matrix: (Units=1/GPa)
#
#
# Indices 1 2 3 4 5 6 
#
# 1 0.013526 -0.001689 -0.001458 0.000000 0.000000 0.000000
# 2 -0.001689 0.008914 -0.001890 0.000000 0.000000 0.000000
# 3 -0.001458 -0.001890 0.012508 0.000000 0.000000 0.000000
# 4 0.000000 0.000000 0.000000 0.037709 0.000000 0.000000
# 5 0.000000 0.000000 0.000000 0.000000 0.105426 0.000000
# 6 0.000000 0.000000 0.000000 0.000000 0.000000 0.067279
#
#
# Mechanical properties :
#
#
# Convention : Reuss Voigt Hill
#
# Bulk Modulus (GPa) = 40.20130 42.09891 41.15010
# Shear Modulus (GPa) = 18.95904 25.67685 22.31794
#
# Velocity S-wave (km/s) = 3.02380 3.51897 3.28074
# Velocity P-wave (km/s) = 5.61952 6.06744 5.84777
#
# Compressibility (1/GPa) = 0.02487482
#
# Stress axis : x y z
#
# Youngs Moduli (GPa) = 73.93195 112.18043 79.94886
#
# Poissons Ratio (x) = 0.18950 0.11656
# Poissons Ratio (y) = 0.12489 0.15107
# Poissons Ratio (z) = 0.10779 0.21197
#
# Static dielectric constant tensor:
#      x y z
#    x 3.903210 0.000000 0.000000 
#    y 0.000000 3.857850 0.000000 
#    z 0.000000 0.000000 3.498510 
# 
# 
# High freq. dielectric constant tensor:
#      x y z
#    x 1.820240 0.000000 0.000000 
#    y 0.000000 1.821050 0.000000 
#    z 0.000000 0.000000 1.796520 
# 
# From -- ./inp_files/5694.got.cif
#   From: 2010.03.12/outbox.cif.g09.slc.cpg/sg18_3_cif.got.tgz:5694.got - 2010.04.10 18:53:55.
