data_PCOD8155773
_publ_section_title
;
Structure prediction by ZEFSAII (Michael W. Deem and Ramdas Pophale) SiO2 
 PCOD8155773
Probable space group: P 21 21 2
;
_chemical_formula_sum "Si O2"
_cell_formula_units_Z 24
_cell_length_a 15.571721
_cell_length_b 9.816477
_cell_length_c 8.062075
_cell_angle_alpha 90.000000
_cell_angle_beta 90.000000
_cell_angle_gamma 90.000000
_cell_volume 1232.364278
_symmetry_space_group_name_H-M "P 21 21 2"
_symmetry_group_IT_number 18
_symmetry_cell_setting 'orthorhombic'
loop_
_space_group_symop_operation_xyz
x,y,z
-x,-y,z
1/2+x,1/2-y,-z
1/2-x,1/2+y,-z
loop_
_atom_site_type_symbol
_atom_site_label
_atom_site_fract_x
_atom_site_fract_y
_atom_site_fract_z
Si Si1 0.577050 0.196833 0.581097
Si Si2 0.665460 0.956033 0.778796
Si Si3 0.524950 0.751248 0.883681
Si Si4 0.348292 0.650370 0.285895
Si Si5 0.889078 0.596096 0.912939
Si Si6 0.500000 0.000000 0.354656
Si Si7 0.000000 0.000000 0.891531
O O1 0.538444 0.285864 0.730677
O O2 0.637465 0.294537 0.472668
O O3 0.500663 0.138465 0.463246
O O4 0.624035 0.061539 0.649550
O O5 0.610431 0.817566 0.804233
O O6 0.759112 0.927956 0.708550
O O7 0.675176 0.023205 0.960718
O O8 0.479168 0.864684 0.997726
O O9 0.541678 0.616175 0.990894
O O10 0.340159 0.770993 0.152550
O O11 0.425388 0.552472 0.229156
O O12 0.913652 0.498604 0.758290
#
# Coordination Sequence:
#
# PCOD8155773 Si02
#       7
#     4   4   4   4   4   2   2
#     4  10  20  39  60  89 120 155 207 251 293 367
#     4  11  20  39  63  90 119 159 209 251 308 348
#     4  10  19  39  65  85 115 164 196 247 304 372
#     4  10  24  39  59  92 127 154 205 255 300 366
#     4   9  18  35  61  88 113 153 207 250 287 360
#     4  10  14  32  60  86 110 146 194 250 282 338
#     4  10  24  44  60  88 128 166 198 240 326 366
#
# _framework density 19.474761999999998
#
# number of rings (size 3 to 8) (size 9 to 14) (size 15 to 20)
#    0.000    2.000    3.333    1.000    2.333    0.667 
#    6.000    5.000    0.000    0.000    0.000    0.000 
#    0.000    0.000    0.000    0.000    0.000    0.000 
#
# Total GULP energy -297492.902241 kJ/mol
# GULP energy per Si atom -12395.537593 kJ/mol
# Density = 1.943044 g / cm^3
# Si number density = 19.474762 Si / 1000 Ang^3
#
#
#
# Elastic Constant Matrix: (Units=GPa)
#
#
# Indices 1 2 3 4 5 6 
#
# 1 84.8772 37.5112 30.9416 0.0000 0.0000 0.0000
# 2 37.5112 84.6980 40.1723 0.0000 0.0000 0.0000
# 3 30.9416 40.1723 104.9793 0.0000 0.0000 0.0000
# 4 0.0000 0.0000 0.0000 33.9175 0.0000 0.0000
# 5 0.0000 0.0000 0.0000 0.0000 19.5359 0.0000
# 6 0.0000 0.0000 0.0000 0.0000 0.0000 26.5092
#
#
#
# Elastic Compliance Matrix: (Units=1/GPa)
#
#
# Indices 1 2 3 4 5 6 
#
# 1 0.015094 -0.005589 -0.002310 0.000000 0.000000 0.000000
# 2 -0.005589 0.016494 -0.004665 0.000000 0.000000 0.000000
# 3 -0.002310 -0.004665 0.011992 0.000000 0.000000 0.000000
# 4 0.000000 0.000000 0.000000 0.029483 0.000000 0.000000
# 5 0.000000 0.000000 0.000000 0.000000 0.051188 0.000000
# 6 0.000000 0.000000 0.000000 0.000000 0.000000 0.037723
#
#
# Mechanical properties :
#
#
# Convention : Reuss Voigt Hill
#
# Bulk Modulus (GPa) = 54.19342 54.64496 54.41919
# Shear Modulus (GPa) = 25.87295 27.05448 26.46371
#
# Velocity S-wave (km/s) = 3.64887 3.73125 3.69029
# Velocity P-wave (km/s) = 6.75575 6.83251 6.79424
#
# Compressibility (1/GPa) = 0.01845242
#
# Stress axis : x y z
#
# Youngs Moduli (GPa) = 66.25171 60.62660 83.39235
#
# Poissons Ratio (x) = 0.33885 0.19263
# Poissons Ratio (y) = 0.37029 0.38899
# Poissons Ratio (z) = 0.15304 0.28280
#
# Static dielectric constant tensor:
#      x y z
#    x 3.157700 0.000000 0.000000 
#    y 0.000000 3.447540 0.000000 
#    z 0.000000 0.000000 3.882650 
# 
# 
# High freq. dielectric constant tensor:
#      x y z
#    x 1.723310 0.000000 0.000000 
#    y 0.000000 1.747280 0.000000 
#    z 0.000000 0.000000 1.780310 
# 
# From -- ./inp_files/4498.got.cif
#   From: 2010.03.12/outbox.cif.g09.slc.cpg/sg18_3_cif.got.tgz:4498.got - 2010.04.10 18:53:55.
