data_PCOD8155893
_publ_section_title
;
Structure prediction by ZEFSAII (Michael W. Deem and Ramdas Pophale) SiO2 
 PCOD8155893
Probable space group: P 21 21 2
;
_chemical_formula_sum "Si O2"
_cell_formula_units_Z 28
_cell_length_a 20.609635
_cell_length_b 7.270382
_cell_length_c 9.520002
_cell_angle_alpha 90.000000
_cell_angle_beta 90.000000
_cell_angle_gamma 90.000000
_cell_volume 1426.476332
_symmetry_space_group_name_H-M "P 21 21 2"
_symmetry_group_IT_number 18
_symmetry_cell_setting 'orthorhombic'
loop_
_space_group_symop_operation_xyz
x,y,z
-x,-y,z
1/2+x,1/2-y,-z
1/2-x,1/2+y,-z
loop_
_atom_site_type_symbol
_atom_site_label
_atom_site_fract_x
_atom_site_fract_y
_atom_site_fract_z
Si Si1 0.000000 0.500000 0.545551
Si Si2 0.832559 0.962111 0.495758
Si Si3 0.000000 0.500000 0.105944
Si Si4 0.595961 0.900170 0.679271
Si Si5 0.046289 0.160909 0.964764
Si Si6 0.576011 0.501419 0.748674
Si Si7 0.186128 0.614018 0.549739
Si Si8 0.389558 0.819844 0.298247
O O1 0.953570 0.373878 0.450788
O O2 0.960904 0.646441 0.639282
O O3 0.883672 0.902156 0.374704
O O4 0.762304 0.910158 0.436253
O O5 0.849144 0.841734 0.630126
O O6 0.835713 0.173413 0.545546
O O7 0.935792 0.534313 0.204056
O O8 0.004947 0.681625 0.012124
O O9 0.605256 0.706322 0.756203
O O10 0.661885 0.972550 0.602330
O O11 0.099044 0.250850 0.860658
O O12 0.086904 0.088550 0.098765
O O13 0.000000 0.000000 0.900151
O O14 0.500000 0.500000 0.710836
O O15 0.152229 0.508619 0.681840
#
# Coordination Sequence:
#
# PCOD8155893 Si02
#       8
#     2   4   2   4   4   4   4   4
#     4   9  19  34  60  98 118 156 204 262 332 366
#     4  11  22  39  70  87 127 161 219 270 320 370
#     4  11  19  36  60  86 128 172 196 268 308 388
#     4   9  18  33  61  89 117 154 214 254 307 372
#     4  11  24  37  57  92 133 163 208 245 329 381
#     4  10  19  37  59  93 119 157 209 258 308 385
#     4  10  22  39  63  97 118 166 217 270 317 373
#     4  11  23  39  61  91 132 159 203 268 320 382
#
# _framework density 19.628786000000002
#
# number of rings (size 3 to 8) (size 9 to 14) (size 15 to 20)
#    0.000    1.714    4.286    1.286    4.000    5.143 
#    0.000    0.000    6.286    0.000    0.000    0.000 
#    0.000    0.000    0.000    0.000    0.000    0.000 
#
# Total GULP energy -346939.322195 kJ/mol
# GULP energy per Si atom -12390.690078 kJ/mol
# Density = 1.958411 g / cm^3
# Si number density = 19.628786 Si / 1000 Ang^3
#
#
#
# Elastic Constant Matrix: (Units=GPa)
#
#
# Indices 1 2 3 4 5 6 
#
# 1 103.8405 19.9793 47.0668 0.0000 0.0000 0.0000
# 2 19.9793 79.1594 35.7083 0.0000 0.0000 0.0000
# 3 47.0668 35.7083 98.7667 0.0000 0.0000 0.0000
# 4 0.0000 0.0000 0.0000 34.4381 0.0000 0.0000
# 5 0.0000 0.0000 0.0000 0.0000 20.1105 0.0000
# 6 0.0000 0.0000 0.0000 0.0000 0.0000 30.8448
#
#
#
# Elastic Compliance Matrix: (Units=1/GPa)
#
#
# Indices 1 2 3 4 5 6 
#
# 1 0.012303 -0.000550 -0.005664 0.000000 0.000000 0.000000
# 2 -0.000550 0.015119 -0.005204 0.000000 0.000000 0.000000
# 3 -0.005664 -0.005204 0.014706 0.000000 0.000000 0.000000
# 4 0.000000 0.000000 0.000000 0.029038 0.000000 0.000000
# 5 0.000000 0.000000 0.000000 0.000000 0.049725 0.000000
# 6 0.000000 0.000000 0.000000 0.000000 0.000000 0.032420
#
#
# Mechanical properties :
#
#
# Convention : Reuss Voigt Hill
#
# Bulk Modulus (GPa) = 51.83694 54.14172 52.98933
# Shear Modulus (GPa) = 27.38549 29.01283 28.19916
#
# Velocity S-wave (km/s) = 3.73925 3.84875 3.79439
# Velocity P-wave (km/s) = 6.71629 6.88427 6.80080
#
# Compressibility (1/GPa) = 0.01929126
#
# Stress axis : x y z
#
# Youngs Moduli (GPa) = 81.27854 66.14156 68.00141
#
# Poissons Ratio (x) = 0.03639 0.38517
# Poissons Ratio (y) = 0.04472 0.35388
# Poissons Ratio (z) = 0.46038 0.34420
#
# Static dielectric constant tensor:
#      x y z
#    x 3.589990 0.000000 0.000000 
#    y 0.000000 3.698930 0.000000 
#    z 0.000000 0.000000 3.500860 
# 
# 
# High freq. dielectric constant tensor:
#      x y z
#    x 1.744440 0.000000 0.000000 
#    y 0.000000 1.780440 0.000000 
#    z 0.000000 0.000000 1.742020 
# 
# From -- ./inp_files/3519.got.cif
#   From: 2010.03.12/outbox.cif.g09.slc.cpg/sg18_2_cif.got.tgz:3519.got - 2010.04.10 18:53:55.
