data_PCOD8155240
_publ_section_title
;
Structure prediction by ZEFSAII (Michael W. Deem and Ramdas Pophale) SiO2 
 PCOD8155240
Probable space group: P 2 2 2
;
_chemical_formula_sum "Si O2"
_cell_formula_units_Z 25
_cell_length_a 9.898929
_cell_length_b 5.183232
_cell_length_c 24.811731
_cell_angle_alpha 90.000000
_cell_angle_beta 90.000000
_cell_angle_gamma 90.000000
_cell_volume 1273.051349
_symmetry_space_group_name_H-M "P 2 2 2"
_symmetry_group_IT_number 16
_symmetry_cell_setting 'orthorhombic'
loop_
_space_group_symop_operation_xyz
x,y,z
-x,-y,z
x,-y,-z
-x,y,-z
loop_
_atom_site_type_symbol
_atom_site_label
_atom_site_fract_x
_atom_site_fract_y
_atom_site_fract_z
Si Si1 0.650576 0.500102 0.791597
Si Si2 0.841089 0.502090 0.440239
Si Si3 0.336812 0.999987 0.732914
Si Si4 0.848214 0.928063 0.060738
Si Si5 0.705251 0.593868 0.912100
Si Si6 0.839415 0.998171 0.626212
Si Si7 0.500000 0.500000 0.000000
O O1 0.500000 0.500000 0.769560
O O2 0.718179 0.754380 0.766563
O O3 0.645676 0.494534 0.856250
O O4 0.717401 0.242008 0.767977
O O5 0.774813 0.500000 0.500000
O O6 0.795919 0.757248 0.409072
O O7 0.000000 0.500000 0.446984
O O8 0.795388 0.252713 0.407074
O O9 0.500000 0.000000 0.724015
O O10 0.255083 0.995691 0.677935
O O11 0.767835 0.125400 0.099197
O O12 0.812237 0.627146 0.069287
O O13 0.000000 0.000000 0.074450
O O14 0.812293 0.000000 0.000000
O O15 0.594606 0.656904 0.958573
O O16 0.000000 0.000000 0.640710
#
# Coordination Sequence:
#
# PCOD8155240 Si02
#       7
#     4   4   4   4   4   4   1
#     4  10  21  38  57  80 109 143 181 230 280 338
#     4   9  17  30  52  83 116 147 181 225 279 330
#     4  10  21  38  58  78 107 151 192 225 277 336
#     4  11  23  40  58  79 111 152 181 209 264 348
#     4  12  23  40  61  89 115 138 184 239 289 343
#     4  10  19  33  55  82 110 144 188 234 272 316
#     4  12  24  38  62  98 112 138 176 248 306 338
#
# _framework density 19.637855999999999
#
# number of rings (size 3 to 8) (size 9 to 14) (size 15 to 20)
#    0.000    1.600    2.400    2.880    0.000    4.480 
#    0.000    4.800    0.000    2.880    0.000    0.000 
#    0.000    0.000    0.000    0.000    0.000    0.000 
#
# Total GULP energy -309764.553953 kJ/mol
# GULP energy per Si atom -12390.582158 kJ/mol
# Density = 1.959316 g / cm^3
# Si number density = 19.637856 Si / 1000 Ang^3
#
#
#
# Elastic Constant Matrix: (Units=GPa)
#
#
# Indices 1 2 3 4 5 6 
#
# 1 55.8054 33.5745 37.5477 0.0000 0.0000 0.0000
# 2 33.5745 150.3589 56.1530 0.0000 0.0000 0.0000
# 3 37.5477 56.1530 152.4433 0.0000 0.0000 0.0000
# 4 0.0000 0.0000 0.0000 35.2163 0.0000 0.0000
# 5 0.0000 0.0000 0.0000 0.0000 23.6342 0.0000
# 6 0.0000 0.0000 0.0000 0.0000 0.0000 9.7744
#
#
#
# Elastic Compliance Matrix: (Units=1/GPa)
#
#
# Indices 1 2 3 4 5 6 
#
# 1 0.022962 -0.003496 -0.004368 0.000000 0.000000 0.000000
# 2 -0.003496 0.008244 -0.002176 0.000000 0.000000 0.000000
# 3 -0.004368 -0.002176 0.008437 0.000000 0.000000 0.000000
# 4 0.000000 0.000000 0.000000 0.028396 0.000000 0.000000
# 5 0.000000 0.000000 0.000000 0.000000 0.042312 0.000000
# 6 0.000000 0.000000 0.000000 0.000000 0.000000 0.102308
#
#
# Mechanical properties :
#
#
# Convention : Reuss Voigt Hill
#
# Bulk Modulus (GPa) = 51.11517 68.12866 59.62191
# Shear Modulus (GPa) = 20.89794 29.14715 25.02254
#
# Velocity S-wave (km/s) = 3.26569 3.85675 3.57347
# Velocity P-wave (km/s) = 6.34863 7.38922 6.88860
#
# Compressibility (1/GPa) = 0.01956366
#
# Stress axis : x y z
#
# Youngs Moduli (GPa) = 43.55109 121.30201 118.52543
#
# Poissons Ratio (x) = 0.42407 0.51769
# Poissons Ratio (y) = 0.15226 0.25786
# Poissons Ratio (z) = 0.19022 0.26390
#
# Static dielectric constant tensor:
#      x y z
#    x 3.332880 0.000000 0.000000 
#    y 0.000000 3.811580 0.000000 
#    z 0.000000 0.000000 3.564010 
# 
# 
# High freq. dielectric constant tensor:
#      x y z
#    x 1.730140 0.000000 0.000000 
#    y 0.000000 1.784830 0.000000 
#    z 0.000000 0.000000 1.768180 
# 
# From -- ./inp_files/9475.got.cif
#   From: 2010.03.12/outbox.cif.g09.slc.cpg/sg16_5_cif.got.tgz:9475.got - 2010.03.31 00:51:45.
