data_PCOD8155318
_publ_section_title
;
Structure prediction by ZEFSAII (Michael W. Deem and Ramdas Pophale) SiO2 
 PCOD8155318
Probable space group: P 2 2 2
;
_chemical_formula_sum "Si O2"
_cell_formula_units_Z 14
_cell_length_a 13.828751
_cell_length_b 5.278250
_cell_length_c 8.744459
_cell_angle_alpha 90.000000
_cell_angle_beta 90.000000
_cell_angle_gamma 90.000000
_cell_volume 638.272097
_symmetry_space_group_name_H-M "P 2 2 2"
_symmetry_group_IT_number 16
_symmetry_cell_setting 'orthorhombic'
loop_
_space_group_symop_operation_xyz
x,y,z
-x,-y,z
x,-y,-z
-x,y,-z
loop_
_atom_site_type_symbol
_atom_site_label
_atom_site_fract_x
_atom_site_fract_y
_atom_site_fract_z
Si Si1 0.000000 0.000000 0.000000
Si Si2 0.703242 0.474807 0.181528
Si Si3 0.088791 0.319031 0.750750
Si Si4 0.386072 0.977821 0.676313
Si Si5 0.000000 0.000000 0.500000
O O1 0.921822 0.152255 0.098095
O O2 0.812990 0.478817 0.243034
O O3 0.647216 0.705912 0.260225
O O4 0.659367 0.204317 0.226512
O O5 0.697605 0.500000 0.000000
O O6 0.000000 0.500000 0.749532
O O7 0.078228 0.155141 0.597982
O O8 0.500000 0.000000 0.694004
O O9 0.354144 0.000000 0.500000
#
# Coordination Sequence:
#
# PCOD8155318 Si02
#       5
#     1   4   4   4   1
#     4  10  22  42  68  92 150 190 230 298 354 430
#     4  12  27  44  77 109 144 191 240 299 366 432
#     4  11  25  43  67 102 144 187 242 290 360 424
#     4  11  27  50  74 105 144 188 241 303 369 435
#     4  10  26  42  68  96 150 190 242 298 350 422
#
# _framework density 21.934221000000001
#
# number of rings (size 3 to 8) (size 9 to 14) (size 15 to 20)
#    0.000    0.857    0.000    5.143   14.000    8.000 
#    0.000    0.000    0.000    0.000    0.000    0.000 
#    0.000    0.000    0.000    0.000    0.000    0.000 
#
# Total GULP energy -173604.097083 kJ/mol
# GULP energy per Si atom -12400.292649 kJ/mol
# Density = 2.188430 g / cm^3
# Si number density = 21.934221 Si / 1000 Ang^3
#
#
#
# Elastic Constant Matrix: (Units=GPa)
#
#
# Indices 1 2 3 4 5 6 
#
# 1 124.7466 37.2977 44.7386 0.0000 0.0000 0.0000
# 2 37.2977 117.3053 43.1199 0.0000 0.0000 0.0000
# 3 44.7386 43.1199 161.5253 0.0000 0.0000 0.0000
# 4 0.0000 0.0000 0.0000 102.8920 0.0000 0.0000
# 5 0.0000 0.0000 0.0000 0.0000 18.1124 0.0000
# 6 0.0000 0.0000 0.0000 0.0000 0.0000 49.7119
#
#
#
# Elastic Compliance Matrix: (Units=1/GPa)
#
#
# Indices 1 2 3 4 5 6 
#
# 1 0.009409 -0.002255 -0.002004 0.000000 0.000000 0.000000
# 2 -0.002255 0.009993 -0.002043 0.000000 0.000000 0.000000
# 3 -0.002004 -0.002043 0.007291 0.000000 0.000000 0.000000
# 4 0.000000 0.000000 0.000000 0.009719 0.000000 0.000000
# 5 0.000000 0.000000 0.000000 0.000000 0.055211 0.000000
# 6 0.000000 0.000000 0.000000 0.000000 0.000000 0.020116
#
#
# Mechanical properties :
#
#
# Convention : Reuss Voigt Hill
#
# Bulk Modulus (GPa) = 70.97686 72.65438 71.81562
# Shear Modulus (GPa) = 38.74778 52.70467 45.72623
#
# Velocity S-wave (km/s) = 4.20759 4.90721 4.57080
# Velocity P-wave (km/s) = 7.48560 8.08104 7.78901
#
# Compressibility (1/GPa) = 0.01408910
#
# Stress axis : x y z
#
# Youngs Moduli (GPa) = 106.27863 100.07269 137.14651
#
# Poissons Ratio (x) = 0.22566 0.27486
# Poissons Ratio (y) = 0.23966 0.28019
# Poissons Ratio (z) = 0.21300 0.20445
#
# Static dielectric constant tensor:
#      x y z
#    x 3.914080 0.000000 0.000000 
#    y 0.000000 4.053740 0.000000 
#    z 0.000000 0.000000 4.316180 
# 
# 
# High freq. dielectric constant tensor:
#      x y z
#    x 1.868780 0.000000 0.000000 
#    y 0.000000 1.882250 0.000000 
#    z 0.000000 0.000000 1.887040 
# 
# From -- ./inp_files/4957.got.cif
#   From: 2010.03.12/outbox.cif.g09.slc.cpg/sg16_3_cif.got.tgz:4957.got - 2010.03.31 00:51:45.
