data_PCOD8155647
_publ_section_title
;
Structure prediction by ZEFSAII (Michael W. Deem and Ramdas Pophale) SiO2 
 PCOD8155647
Probable space group: P 2 2 21
;
_chemical_formula_sum "Si O2"
_cell_formula_units_Z 20
_cell_length_a 6.964262
_cell_length_b 5.957746
_cell_length_c 22.335037
_cell_angle_alpha 90.000000
_cell_angle_beta 90.000000
_cell_angle_gamma 90.000000
_cell_volume 926.709812
_symmetry_space_group_name_H-M "P 2 2 21"
_symmetry_group_IT_number 17
_symmetry_cell_setting 'orthorhombic'
loop_
_space_group_symop_operation_xyz
x,y,z
-x,-y,1/2+z
x,-y,-z
-x,y,1/2-z
loop_
_atom_site_type_symbol
_atom_site_label
_atom_site_fract_x
_atom_site_fract_y
_atom_site_fract_z
Si Si1 0.573601 0.190314 0.899188
Si Si2 0.667726 0.498864 0.208029
Si Si3 0.000000 0.205337 0.750000
Si Si4 0.901652 0.893179 0.855725
Si Si5 0.525058 0.500000 0.500000
Si Si6 0.242297 0.124178 0.060083
O O1 0.564048 0.344800 0.840651
O O2 0.604877 0.338055 0.959151
O O3 0.755767 0.029211 0.897066
O O4 0.380296 0.043994 0.903217
O O5 0.500000 0.395637 0.250000
O O6 0.788401 0.303720 0.177211
O O7 0.809649 0.642858 0.249643
O O8 0.007787 0.052221 0.808573
O O9 0.064185 0.798034 0.899439
O O10 0.653574 0.643915 0.545266
O O11 0.171138 0.000000 0.000000
#
# Coordination Sequence:
#
# PCOD8155647 Si02
#       6
#     4   4   2   4   2   4
#     4  10  23  42  64  90 124 164 205 254 309 369
#     4  11  24  41  64  92 125 165 208 256 310 368
#     4  10  24  42  62  90 126 166 208 254 308 370
#     4  11  24  41  65  93 124 163 209 257 309 368
#     4  10  22  42  66  90 124 162 202 254 310 366
#     4  10  23  42  62  89 125 161 201 252 307 367
#
# _framework density 21.581733
#
# number of rings (size 3 to 8) (size 9 to 14) (size 15 to 20)
#    0.000    1.600    0.000    3.000    0.000   20.000 
#    0.000    2.000    0.000    0.000    0.000    0.000 
#    0.000    0.000    0.000    0.000    0.000    0.000 
#
# Total GULP energy -248066.215821 kJ/mol
# GULP energy per Si atom -12403.310791 kJ/mol
# Density = 2.153261 g / cm^3
# Si number density = 21.581733 Si / 1000 Ang^3
#
#
#
# Elastic Constant Matrix: (Units=GPa)
#
#
# Indices 1 2 3 4 5 6 
#
# 1 126.9807 68.2363 99.1706 0.0000 0.0000 0.0000
# 2 68.2363 136.2741 64.8714 0.0000 0.0000 0.0000
# 3 99.1706 64.8714 119.1708 0.0000 0.0000 0.0000
# 4 0.0000 0.0000 0.0000 16.0262 0.0000 0.0000
# 5 0.0000 0.0000 0.0000 0.0000 56.0992 0.0000
# 6 0.0000 0.0000 0.0000 0.0000 0.0000 -68.6337
#
#
#
# Elastic Compliance Matrix: (Units=1/GPa)
#
#
# Indices 1 2 3 4 5 6 
#
# 1 0.023562 -0.003326 -0.017797 0.000000 0.000000 0.000000
# 2 -0.003326 0.010374 -0.002879 0.000000 0.000000 0.000000
# 3 -0.017797 -0.002879 0.024769 0.000000 0.000000 0.000000
# 4 0.000000 0.000000 0.000000 0.062398 0.000000 0.000000
# 5 0.000000 0.000000 0.000000 0.000000 0.017826 0.000000
# 6 0.000000 0.000000 0.000000 0.000000 0.000000 -0.014570
#
#
# Mechanical properties :
#
#
# Convention : Reuss Voigt Hill
#
# Bulk Modulus (GPa) = 93.45707 94.10914 93.78310
# Shear Modulus (GPa) = 28.42045 10.70814 19.56430
#
# Velocity S-wave (km/s) = 3.63281 2.22990 3.01412
# Velocity P-wave (km/s) = 7.80988 7.09440 7.46072
#
# Compressibility (1/GPa) = 0.01070010
#
# Stress axis : x y z
#
# Youngs Moduli (GPa) = 42.44174 96.39158 40.37334
#
# Poissons Ratio (x) = 0.32061 0.71852
# Poissons Ratio (y) = 0.14116 0.11625
# Poissons Ratio (z) = 0.75533 0.27756
#
# Static dielectric constant tensor:
#      x y z
#    x 3.768820 0.000000 0.000000 
#    y 0.000000 4.048540 0.000000 
#    z 0.000000 0.000000 4.180640 
# 
# 
# High freq. dielectric constant tensor:
#      x y z
#    x 1.843200 0.000000 0.000000 
#    y 0.000000 1.856880 0.000000 
#    z 0.000000 0.000000 1.858370 
# 
# From -- ./inp_files/10771.got.cif
#   From: 2010.03.12/outbox.cif.g09.slc.cpg/sg17_6_cif.got.tgz:10771.got - 2010.04.10 18:46:23.
