data_PCOD8155552
_publ_section_title
;
Structure prediction by ZEFSAII (Michael W. Deem and Ramdas Pophale) SiO2 
 PCOD8155552
Probable space group: P 2 2 21
;
_chemical_formula_sum "Si O2"
_cell_formula_units_Z 20
_cell_length_a 6.292403
_cell_length_b 6.201215
_cell_length_c 22.992960
_cell_angle_alpha 90.000000
_cell_angle_beta 90.000000
_cell_angle_gamma 90.000000
_cell_volume 897.197804
_symmetry_space_group_name_H-M "P 2 2 21"
_symmetry_group_IT_number 17
_symmetry_cell_setting 'orthorhombic'
loop_
_space_group_symop_operation_xyz
x,y,z
-x,-y,1/2+z
x,-y,-z
-x,y,1/2-z
loop_
_atom_site_type_symbol
_atom_site_label
_atom_site_fract_x
_atom_site_fract_y
_atom_site_fract_z
Si Si1 0.654361 0.000000 0.000000
Si Si2 0.217373 0.605729 0.851019
Si Si3 0.985927 0.008037 0.091855
Si Si4 0.311046 0.677131 0.046681
Si Si5 0.121328 0.287263 0.693864
Si Si6 0.500000 0.487744 0.250000
O O1 0.798934 0.103026 0.051380
O O2 0.519768 0.803645 0.026286
O O3 0.352006 0.442467 0.891861
O O4 0.360249 0.659898 0.793956
O O5 0.158626 0.818143 0.887029
O O6 0.998877 0.496836 0.830846
O O7 0.870493 0.902539 0.147075
O O8 0.112869 0.837368 0.052607
O O9 0.241726 0.500000 0.000000
O O10 0.357436 0.355376 0.710792
O O11 0.000000 0.193842 0.750000
#
# Coordination Sequence:
#
# PCOD8155552 Si02
#       6
#     2   4   4   4   4   2
#     4  12  24  38  64  94 122 164 210 256 318 378
#     4  10  22  41  64  93 129 165 208 262 315 374
#     4  11  24  43  65  94 129 166 211 262 317 373
#     4  11  24  43  64  92 127 164 211 262 314 376
#     4   9  21  40  63  93 129 167 208 260 315 371
#     4  10  20  42  68  92 126 170 212 256 314 372
#
# _framework density 22.291630000000001
#
# number of rings (size 3 to 8) (size 9 to 14) (size 15 to 20)
#    0.000    1.600    0.000    4.200    0.000    9.600 
#    0.000   10.000    0.000    0.000    0.000    0.000 
#    0.000    0.000    0.000    0.000    0.000    0.000 
#
# Total GULP energy -248041.391292 kJ/mol
# GULP energy per Si atom -12402.069565 kJ/mol
# Density = 2.224089 g / cm^3
# Si number density = 22.291630 Si / 1000 Ang^3
#
#
#
# Elastic Constant Matrix: (Units=GPa)
#
#
# Indices 1 2 3 4 5 6 
#
# 1 121.6025 58.8144 78.0710 0.0000 0.0000 0.0000
# 2 58.8144 104.6895 63.4191 0.0000 0.0000 0.0000
# 3 78.0710 63.4191 143.0643 0.0000 0.0000 0.0000
# 4 0.0000 0.0000 0.0000 40.9320 0.0000 0.0000
# 5 0.0000 0.0000 0.0000 0.0000 56.9003 0.0000
# 6 0.0000 0.0000 0.0000 0.0000 0.0000 15.8278
#
#
#
# Elastic Compliance Matrix: (Units=1/GPa)
#
#
# Indices 1 2 3 4 5 6 
#
# 1 0.014016 -0.004431 -0.005685 0.000000 0.000000 0.000000
# 2 -0.004431 0.014459 -0.003992 0.000000 0.000000 0.000000
# 3 -0.005685 -0.003992 0.011862 0.000000 0.000000 0.000000
# 4 0.000000 0.000000 0.000000 0.024431 0.000000 0.000000
# 5 0.000000 0.000000 0.000000 0.000000 0.017575 0.000000
# 6 0.000000 0.000000 0.000000 0.000000 0.000000 0.063180
#
#
# Mechanical properties :
#
#
# Convention : Reuss Voigt Hill
#
# Bulk Modulus (GPa) = 82.48918 85.55171 84.02044
# Shear Modulus (GPa) = 28.12505 34.00212 31.06359
#
# Velocity S-wave (km/s) = 3.55588 3.90979 3.73702
# Velocity P-wave (km/s) = 7.34465 7.67096 7.50958
#
# Compressibility (1/GPa) = 0.01212280
#
# Stress axis : x y z
#
# Youngs Moduli (GPa) = 71.34689 69.15927 84.30584
#
# Poissons Ratio (x) = 0.30641 0.47925
# Poissons Ratio (y) = 0.31611 0.33654
# Poissons Ratio (z) = 0.40558 0.27608
#
# Static dielectric constant tensor:
#      x y z
#    x 3.886680 0.000000 0.000000 
#    y 0.000000 3.712390 0.000000 
#    z 0.000000 0.000000 4.453350 
# 
# 
# High freq. dielectric constant tensor:
#      x y z
#    x 1.876390 0.000000 0.000000 
#    y 0.000000 1.852450 0.000000 
#    z 0.000000 0.000000 1.909270 
# 
# From -- ./inp_files/10770.got.cif
#   From: 2010.03.12/outbox.cif.g09.slc.cpg/sg17_6_cif.got.tgz:10770.got - 2010.04.10 18:46:23.
