data_PCOD8155315
_publ_section_title
;
Structure prediction by ZEFSAII (Michael W. Deem and Ramdas Pophale) SiO2 
 PCOD8155315
Probable space group: P 2 2 2
;
_chemical_formula_sum "Si O2"
_cell_formula_units_Z 24
_cell_length_a 11.942137
_cell_length_b 11.798037
_cell_length_c 7.308049
_cell_angle_alpha 90.000000
_cell_angle_beta 90.000000
_cell_angle_gamma 90.000000
_cell_volume 1029.658606
_symmetry_space_group_name_H-M "P 2 2 2"
_symmetry_group_IT_number 16
_symmetry_cell_setting 'orthorhombic'
loop_
_space_group_symop_operation_xyz
x,y,z
-x,-y,z
x,-y,-z
-x,y,-z
loop_
_atom_site_type_symbol
_atom_site_label
_atom_site_fract_x
_atom_site_fract_y
_atom_site_fract_z
Si Si1 0.813750 0.110382 0.076505
Si Si2 0.210575 0.711606 0.757423
Si Si3 0.210081 0.535238 0.292524
Si Si4 0.033789 0.716638 0.209791
Si Si5 0.609668 0.058749 0.309089
Si Si6 0.616446 0.696106 0.566337
O O1 0.884433 0.174496 0.236410
O O2 0.709607 0.046657 0.167967
O O3 0.772277 0.201295 0.923690
O O4 0.881637 0.000000 0.000000
O O5 0.223918 0.580032 0.828498
O O6 0.299909 0.732049 0.598177
O O7 0.082404 0.723567 0.674521
O O8 0.191998 0.500000 0.500000
O O9 0.098288 0.599908 0.235811
O O10 0.321832 0.613233 0.288306
O O11 0.000000 0.726500 0.000000
O O12 0.580364 0.190674 0.331431
O O13 0.500000 0.000000 0.224458
O O14 0.642649 0.000000 0.500000
O O15 0.500000 0.637633 0.500000
#
# Coordination Sequence:
#
# PCOD8155315 Si02
#       6
#     4   4   4   4   4   4
#     4  11  24  43  67 101 141 181 235 290 358 414
#     4  10  24  40  67 102 143 180 229 282 353 425
#     4  10  22  41  70 104 139 186 235 285 350 430
#     4  10  22  42  68 101 143 183 227 285 354 423
#     4  11  22  42  70  97 131 182 236 295 350 418
#     4  11  22  43  69 102 138 183 238 294 350 409
#
# _framework density 23.308698
#
# number of rings (size 3 to 8) (size 9 to 14) (size 15 to 20)
#    0.000    1.500    3.333    1.500    0.000   15.667 
#    0.000    0.000    0.000    0.000   17.333    0.000 
#    0.000    0.000    0.000    0.000    0.000    0.000 
#
# Total GULP energy -297408.150335 kJ/mol
# GULP energy per Si atom -12392.006264 kJ/mol
# Density = 2.325565 g / cm^3
# Si number density = 23.308698 Si / 1000 Ang^3
#
#
#
# Elastic Constant Matrix: (Units=GPa)
#
#
# Indices 1 2 3 4 5 6 
#
# 1 159.8832 47.8295 21.4229 0.0000 0.0000 0.0000
# 2 47.8295 162.5292 23.5590 0.0000 0.0000 0.0000
# 3 21.4229 23.5590 13.3851 0.0000 0.0000 0.0000
# 4 0.0000 0.0000 0.0000 37.1451 0.0000 0.0000
# 5 0.0000 0.0000 0.0000 0.0000 29.8227 0.0000
# 6 0.0000 0.0000 0.0000 0.0000 0.0000 42.0318
#
#
#
# Elastic Compliance Matrix: (Units=1/GPa)
#
#
# Indices 1 2 3 4 5 6 
#
# 1 0.008016 -0.000670 -0.011650 0.000000 0.000000 0.000000
# 2 -0.000670 0.008316 -0.013564 0.000000 0.000000 0.000000
# 3 -0.011650 -0.013564 0.117230 0.000000 0.000000 0.000000
# 4 0.000000 0.000000 0.000000 0.026921 0.000000 0.000000
# 5 0.000000 0.000000 0.000000 0.000000 0.033532 0.000000
# 6 0.000000 0.000000 0.000000 0.000000 0.000000 0.023792
#
#
# Mechanical properties :
#
#
# Convention : Reuss Voigt Hill
#
# Bulk Modulus (GPa) = 12.22600 57.93558 35.08079
# Shear Modulus (GPa) = 16.84410 37.99899 27.42154
#
# Velocity S-wave (km/s) = 2.69114 4.04201 3.43366
# Velocity P-wave (km/s) = 3.86173 6.83327 5.55007
#
# Compressibility (1/GPa) = 0.08179290
#
# Stress axis : x y z
#
# Youngs Moduli (GPa) = 124.74948 120.24742 8.53026
#
# Poissons Ratio (x) = 0.08060 0.09938
# Poissons Ratio (y) = 0.08362 0.11571
# Poissons Ratio (z) = 1.45331 1.63108
#
# Static dielectric constant tensor:
#      x y z
#    x 5.053430 0.000000 0.000000 
#    y 0.000000 4.969650 0.000000 
#    z 0.000000 0.000000 4.037540 
# 
# 
# High freq. dielectric constant tensor:
#      x y z
#    x 1.927680 0.000000 0.000000 
#    y 0.000000 1.943140 0.000000 
#    z 0.000000 0.000000 1.889250 
# 
# From -- ./inp_files/4683.got.cif
#   From: 2010.03.12/outbox.cif.g09.slc.cpg/sg16_3_cif.got.tgz:4683.got - 2010.03.31 00:51:45.
