data_PCOD8155846
_publ_section_title
;
Structure prediction by ZEFSAII (Michael W. Deem and Ramdas Pophale) SiO2 
 PCOD8155846
Probable space group: P 21 21 2
;
_chemical_formula_sum "Si O2"
_cell_formula_units_Z 28
_cell_length_a 12.956086
_cell_length_b 5.031899
_cell_length_c 23.621314
_cell_angle_alpha 90.000000
_cell_angle_beta 90.000000
_cell_angle_gamma 90.000000
_cell_volume 1539.961241
_symmetry_space_group_name_H-M "P 21 21 2"
_symmetry_group_IT_number 18
_symmetry_cell_setting 'orthorhombic'
loop_
_space_group_symop_operation_xyz
x,y,z
-x,-y,z
1/2+x,1/2-y,-z
1/2-x,1/2+y,-z
loop_
_atom_site_type_symbol
_atom_site_label
_atom_site_fract_x
_atom_site_fract_y
_atom_site_fract_z
Si Si1 0.617822 0.472935 0.188366
Si Si2 0.615287 0.055339 0.006752
Si Si3 0.385842 0.033747 0.603613
Si Si4 0.692753 0.556509 0.067807
Si Si5 0.747507 0.466867 0.628071
Si Si6 0.882076 0.473348 0.737604
Si Si7 0.189502 0.430907 0.511098
O O1 0.500000 0.500000 0.167155
O O2 0.692202 0.513771 0.134958
O O3 0.640953 0.183392 0.213052
O O4 0.640957 0.683477 0.237591
O O5 0.621886 0.344397 0.034963
O O6 0.500000 0.000000 0.985292
O O7 0.648430 0.846943 0.054871
O O8 0.688809 0.029083 0.952160
O O9 0.344553 0.323405 0.619605
O O10 0.500000 0.000000 0.629986
O O11 0.305121 0.821721 0.628960
O O12 0.398090 0.000953 0.535021
O O13 0.806767 0.523940 0.685615
O O14 0.832040 0.492468 0.576774
O O15 0.000000 0.500000 0.716578
O O16 0.287121 0.616819 0.492755
#
# Coordination Sequence:
#
# PCOD8155846 Si02
#       7
#     4   4   4   4   4   4   4
#     4  10  19  33  51  73 101 131 167 206 246 294
#     4  10  19  32  51  78 107 134 166 201 244 295
#     4  10  19  32  52  75  99 131 166 202 249 302
#     4  10  20  32  52  78 104 136 166 201 248 292
#     4  10  19  34  51  73 103 130 163 209 251 296
#     4  10  21  34  52  75  98 130 167 207 254 295
#     4   8  16  29  46  68  94 122 154 194 243 292
#
# _framework density 18.182276000000002
#
# number of rings (size 3 to 8) (size 9 to 14) (size 15 to 20)
#    0.000    2.286    0.000    3.429    0.000    1.714 
#    0.000    0.000    0.000   13.714    0.000    0.000 
#    0.000    0.000    0.000    0.000    0.000    0.000 
#
# Total GULP energy -347121.272495 kJ/mol
# GULP energy per Si atom -12397.188303 kJ/mol
# Density = 1.814089 g / cm^3
# Si number density = 18.182276 Si / 1000 Ang^3
#
#
#
# Elastic Constant Matrix: (Units=GPa)
#
#
# Indices 1 2 3 4 5 6 
#
# 1 78.1728 7.8672 37.8163 0.0000 0.0000 0.0000
# 2 7.8672 70.4803 -0.1601 0.0000 0.0000 0.0000
# 3 37.8163 -0.1601 89.7090 0.0000 0.0000 0.0000
# 4 0.0000 0.0000 0.0000 12.6007 0.0000 0.0000
# 5 0.0000 0.0000 0.0000 0.0000 17.8833 0.0000
# 6 0.0000 0.0000 0.0000 0.0000 0.0000 19.5413
#
#
#
# Elastic Compliance Matrix: (Units=1/GPa)
#
#
# Indices 1 2 3 4 5 6 
#
# 1 0.016303 -0.001835 -0.006876 0.000000 0.000000 0.000000
# 2 -0.001835 0.014395 0.000799 0.000000 0.000000 0.000000
# 3 -0.006876 0.000799 0.014047 0.000000 0.000000 0.000000
# 4 0.000000 0.000000 0.000000 0.079361 0.000000 0.000000
# 5 0.000000 0.000000 0.000000 0.000000 0.055918 0.000000
# 6 0.000000 0.000000 0.000000 0.000000 0.000000 0.051174
#
#
# Mechanical properties :
#
#
# Convention : Reuss Voigt Hill
#
# Bulk Modulus (GPa) = 34.57620 36.60098 35.58859
# Shear Modulus (GPa) = 19.48088 22.86096 21.17092
#
# Velocity S-wave (km/s) = 3.27681 3.54972 3.41599
# Velocity P-wave (km/s) = 5.77705 6.08066 5.93080
#
# Compressibility (1/GPa) = 0.02892162
#
# Stress axis : x y z
#
# Youngs Moduli (GPa) = 61.33826 69.46829 71.18960
#
# Poissons Ratio (x) = 0.12750 0.48948
# Poissons Ratio (y) = 0.11258 -0.05691
# Poissons Ratio (z) = 0.42174 -0.05553
#
# Static dielectric constant tensor:
#      x y z
#    x 3.094850 0.000000 0.000000 
#    y 0.000000 3.536170 0.000000 
#    z 0.000000 0.000000 3.178650 
# 
# 
# High freq. dielectric constant tensor:
#      x y z
#    x 1.672800 0.000000 0.000000 
#    y 0.000000 1.729220 0.000000 
#    z 0.000000 0.000000 1.690050 
# 
# From -- ./inp_files/7551.got.cif
#   From: 2010.03.12/outbox.cif.g09.slc.cpg/sg18_4_cif.got.tgz:7551.got - 2010.04.10 18:53:55.
