data_PCOD8155878
_publ_section_title
;
Structure prediction by ZEFSAII (Michael W. Deem and Ramdas Pophale) SiO2 
 PCOD8155878
Probable space group: P 21 21 2
;
_chemical_formula_sum "Si O2"
_cell_formula_units_Z 30
_cell_length_a 11.114270
_cell_length_b 8.245515
_cell_length_c 16.561753
_cell_angle_alpha 90.000000
_cell_angle_beta 90.000000
_cell_angle_gamma 90.000000
_cell_volume 1517.766743
_symmetry_space_group_name_H-M "P 21 21 2"
_symmetry_group_IT_number 18
_symmetry_cell_setting 'orthorhombic'
loop_
_space_group_symop_operation_xyz
x,y,z
-x,-y,z
1/2+x,1/2-y,-z
1/2-x,1/2+y,-z
loop_
_atom_site_type_symbol
_atom_site_label
_atom_site_fract_x
_atom_site_fract_y
_atom_site_fract_z
Si Si1 0.280491 0.818998 0.220043
Si Si2 0.369161 0.462396 0.217333
Si Si3 0.500000 0.000000 0.146793
Si Si4 0.320382 0.240304 0.077026
Si Si5 0.779196 0.699173 0.607566
Si Si6 0.537844 0.666446 0.384886
Si Si7 0.869892 0.427386 0.497500
Si Si8 0.137290 0.964650 0.075234
O O1 0.291547 0.624797 0.222500
O O2 0.226603 0.871789 0.308160
O O3 0.186259 0.869152 0.152393
O O4 0.407685 0.906552 0.204675
O O5 0.500000 0.500000 0.178645
O O6 0.298599 0.339456 0.159541
O O7 0.387886 0.378168 0.304469
O O8 0.435324 0.124664 0.086941
O O9 0.201749 0.135997 0.060760
O O10 0.343525 0.358370 0.003527
O O11 0.785887 0.565329 0.536965
O O12 0.700644 0.854450 0.579248
O O13 0.913454 0.745531 0.636477
O O14 0.500000 0.500000 0.431307
O O15 0.618470 0.780346 0.439893
O O16 0.000000 0.500000 0.471465
O O17 0.000000 0.000000 0.091790
#
# Coordination Sequence:
#
# PCOD8155878 Si02
#       8
#     4   4   2   4   4   4   4   4
#     4  11  23  40  66  96 129 171 210 269 323 378
#     4  11  19  36  65 100 124 151 212 271 320 361
#     4  10  22  36  68 102 120 162 220 270 326 364
#     4  11  23  40  68  90 128 167 207 264 315 374
#     4  11  21  38  62  89 130 164 213 259 324 380
#     4  10  19  35  63  96 122 154 207 273 314 370
#     4  10  24  38  60  93 130 167 213 264 323 390
#     4  11  27  44  61  95 134 169 215 254 320 387
#
# _framework density 19.765884
#
# number of rings (size 3 to 8) (size 9 to 14) (size 15 to 20)
#    0.000    1.333    4.000    2.000   10.267    0.000 
#    0.000    4.667    0.000    0.000    0.000    0.000 
#    0.000    0.000    0.000    0.000    0.000    0.000 
#
# Total GULP energy -371971.391890 kJ/mol
# GULP energy per Si atom -12399.046396 kJ/mol
# Density = 1.972090 g / cm^3
# Si number density = 19.765884 Si / 1000 Ang^3
#
#
#
# Elastic Constant Matrix: (Units=GPa)
#
#
# Indices 1 2 3 4 5 6 
#
# 1 97.6158 48.9373 58.1972 0.0000 0.0000 0.0000
# 2 48.9373 107.9134 44.3679 0.0000 0.0000 0.0000
# 3 58.1972 44.3679 93.1074 0.0000 0.0000 0.0000
# 4 0.0000 0.0000 0.0000 42.6588 0.0000 0.0000
# 5 0.0000 0.0000 0.0000 0.0000 15.2287 0.0000
# 6 0.0000 0.0000 0.0000 0.0000 0.0000 32.6099
#
#
#
# Elastic Compliance Matrix: (Units=1/GPa)
#
#
# Indices 1 2 3 4 5 6 
#
# 1 0.017839 -0.004359 -0.009073 0.000000 0.000000 0.000000
# 2 -0.004359 0.012590 -0.003275 0.000000 0.000000 0.000000
# 3 -0.009073 -0.003275 0.017972 0.000000 0.000000 0.000000
# 4 0.000000 0.000000 0.000000 0.023442 0.000000 0.000000
# 5 0.000000 0.000000 0.000000 0.000000 0.065665 0.000000
# 6 0.000000 0.000000 0.000000 0.000000 0.000000 0.030666
#
#
# Mechanical properties :
#
#
# Convention : Reuss Voigt Hill
#
# Bulk Modulus (GPa) = 66.72521 66.84904 66.78712
# Shear Modulus (GPa) = 24.20340 27.90843 26.05591
#
# Velocity S-wave (km/s) = 3.50309 3.76167 3.63468
# Velocity P-wave (km/s) = 7.08472 7.26366 7.17474
#
# Compressibility (1/GPa) = 0.01498684
#
# Stress axis : x y z
#
# Youngs Moduli (GPa) = 56.05742 79.42856 55.64300
#
# Poissons Ratio (x) = 0.34626 0.50484
# Poissons Ratio (y) = 0.24438 0.18220
# Poissons Ratio (z) = 0.50860 0.26009
#
# Static dielectric constant tensor:
#      x y z
#    x 3.460320 0.000000 0.000000 
#    y 0.000000 4.066640 0.000000 
#    z 0.000000 0.000000 3.616200 
# 
# 
# High freq. dielectric constant tensor:
#      x y z
#    x 1.744850 0.000000 0.000000 
#    y 0.000000 1.790600 0.000000 
#    z 0.000000 0.000000 1.771520 
# 
# From -- ./inp_files/6746.got.cif
#   From: 2010.03.12/outbox.cif.g09.slc.cpg/sg18_4_cif.got.tgz:6746.got - 2010.04.10 18:53:55.
