data_PCOD8155208
_publ_section_title
;
Structure prediction by ZEFSAII (Michael W. Deem and Ramdas Pophale) SiO2 
 PCOD8155208
Probable space group: P 2 2 2
;
_chemical_formula_sum "Si O2"
_cell_formula_units_Z 24
_cell_length_a 7.048636
_cell_length_b 5.381685
_cell_length_c 25.420133
_cell_angle_alpha 90.000000
_cell_angle_beta 90.000000
_cell_angle_gamma 90.000000
_cell_volume 964.275597
_symmetry_space_group_name_H-M "P 2 2 2"
_symmetry_group_IT_number 16
_symmetry_cell_setting 'orthorhombic'
loop_
_space_group_symop_operation_xyz
x,y,z
-x,-y,z
x,-y,-z
-x,y,-z
loop_
_atom_site_type_symbol
_atom_site_label
_atom_site_fract_x
_atom_site_fract_y
_atom_site_fract_z
Si Si1 0.697293 0.750000 0.812722
Si Si2 0.285795 0.750000 0.521727
Si Si3 0.275754 0.250000 0.144477
Si Si4 0.297636 0.250000 0.689398
Si Si5 0.213243 0.750000 0.978246
Si Si6 0.283513 0.250000 0.354115
O O1 0.500910 0.750000 0.845054
O O2 0.811870 0.500500 0.829173
O O3 0.659979 0.750000 0.751004
O O4 0.811870 0.999500 0.829173
O O5 0.184203 0.500000 0.500000
O O6 0.500000 0.750000 0.500000
O O7 0.265831 0.750000 0.583849
O O8 0.184203 0.000000 0.500000
O O9 0.220275 0.250000 0.084068
O O10 0.187112 0.501106 0.671141
O O11 0.495886 0.250000 0.659478
O O12 0.187112 0.998894 0.671141
O O13 0.316070 0.500000 0.000000
O O14 0.000000 0.750000 0.000000
O O15 0.316070 0.000000 0.000000
#
# Coordination Sequence:
#
# PCOD8155208 Si02
#       6
#     4   4   4   4   4   4
#     4  10  19  30  45  67  92 114 136 174 223 277
#     4  10  16  22  28  39  59  85 124 175 220 258
#     4  10  18  32  48  67  90 114 139 168 213 263
#     4  10  16  25  36  51  73  98 129 162 206 272
#     4  10  21  37  54  70  89 115 146 176 204 247
#     4  10  16  22  33  46  63  96 132 167 213 267
#
# _framework density 24.889150999999998
#
# number of rings (size 3 to 8) (size 9 to 14) (size 15 to 20)
#    0.000    2.000    0.000   11.000    0.000    0.000 
#    0.000   10.000    0.000    0.000    0.000    0.000 
#    0.000    0.000    0.000    0.000    0.000    0.000 
#
# Total GULP energy -297352.337050 kJ/mol
# GULP energy per Si atom -12389.680710 kJ/mol
# Density = 2.483250 g / cm^3
# Si number density = 24.889151 Si / 1000 Ang^3
#
#
#
# Elastic Constant Matrix: (Units=GPa)
#
#
# Indices 1 2 3 4 5 6 
#
# 1 38.3854 -9.9997 22.5404 0.0000 0.0000 0.0000
# 2 -9.9997 354.6579 102.4033 0.0000 0.0000 0.0000
# 3 22.5404 102.4033 234.3848 0.0000 0.0000 0.0000
# 4 0.0000 0.0000 0.0000 56.9947 0.0000 0.0000
# 5 0.0000 0.0000 0.0000 0.0000 -1.3384 0.0000
# 6 0.0000 0.0000 0.0000 0.0000 0.0000 -25.8291
#
#
#
# Elastic Compliance Matrix: (Units=1/GPa)
#
#
# Indices 1 2 3 4 5 6 
#
# 1 0.028615 0.001833 -0.003553 0.000000 0.000000 0.000000
# 2 0.001833 0.003344 -0.001637 0.000000 0.000000 0.000000
# 3 -0.003553 -0.001637 0.005323 0.000000 0.000000 0.000000
# 4 0.000000 0.000000 0.000000 0.017546 0.000000 0.000000
# 5 0.000000 0.000000 0.000000 0.000000 -0.747161 0.000000
# 6 0.000000 0.000000 0.000000 0.000000 0.000000 -0.038716
#
#
# Mechanical properties :
#
#
# Convention : Reuss Voigt Hill
#
# Bulk Modulus (GPa) = 32.71387 95.25735 63.98561
# Shear Modulus (GPa) = -7.00137 40.13104 16.56484
#
# Velocity S-wave (km/s) = -1.67903 4.01982 2.58261
# Velocity P-wave (km/s) = 3.06815 7.73957 5.88704
#
# Compressibility (1/GPa) = 0.03056808
#
# Stress axis : x y z
#
# Youngs Moduli (GPa) = 34.94669 299.04091 187.84829
#
# Poissons Ratio (x) = -0.54801 0.66733
# Poissons Ratio (y) = -0.06404 0.30755
# Poissons Ratio (z) = 0.12415 0.48960
#
# Static dielectric constant tensor:
#      x y z
#    x 3.504480 0.000000 0.000000 
#    y 0.000000 -0.167250 0.000000 
#    z 0.000000 0.000000 4.258510 
# 
# 
# High freq. dielectric constant tensor:
#      x y z
#    x 1.928670 0.000000 0.000000 
#    y 0.000000 2.046600 0.000000 
#    z 0.000000 0.000000 1.992980 
# 
# From -- ./inp_files/9536.got.cif
#   From: 2010.03.12/outbox.cif.g09.slc.cpg/sg16_5_cif.got.tgz:9536.got - 2010.03.31 00:51:45.
