data_PCOD8155302
_publ_section_title
;
Structure prediction by ZEFSAII (Michael W. Deem and Ramdas Pophale) SiO2 
 PCOD8155302
Probable space group: P 2 2 2
;
_chemical_formula_sum "Si O2"
_cell_formula_units_Z 30
_cell_length_a 17.241453
_cell_length_b 11.470744
_cell_length_c 7.680201
_cell_angle_alpha 90.000000
_cell_angle_beta 90.000000
_cell_angle_gamma 90.000000
_cell_volume 1518.930967
_symmetry_space_group_name_H-M "P 2 2 2"
_symmetry_group_IT_number 16
_symmetry_cell_setting 'orthorhombic'
loop_
_space_group_symop_operation_xyz
x,y,z
-x,-y,z
x,-y,-z
-x,y,-z
loop_
_atom_site_type_symbol
_atom_site_label
_atom_site_fract_x
_atom_site_fract_y
_atom_site_fract_z
Si Si1 0.654423 0.749272 0.299038
Si Si2 0.500000 0.125622 0.804680
Si Si3 0.811946 0.862309 0.297968
Si Si4 0.287380 0.500000 0.297898
Si Si5 0.188054 0.862309 0.297968
Si Si6 0.345577 0.250728 0.700962
Si Si7 0.909296 0.250918 1.000000
Si Si8 0.162365 0.500000 0.000000
O O1 0.575251 0.797035 0.224621
O O2 0.729696 0.815545 0.224058
O O3 0.659993 0.612177 0.256179
O O4 0.652171 0.775863 0.500000
O O5 0.424749 0.202965 0.775379
O O6 0.500000 0.000000 0.700613
O O7 0.500000 0.087431 0.000000
O O8 0.825653 0.824612 0.500000
O O9 0.813407 1.000000 0.278500
O O10 0.877512 0.807497 0.176453
O O11 0.259500 0.500000 0.500000
O O12 0.340008 0.612177 0.256179
O O13 0.212663 0.500000 0.175849
O O14 0.270304 0.815545 0.224058
O O15 0.122489 0.807497 0.176453
O O16 0.891899 0.387720 1.000000
O O17 0.000000 0.229429 0.000000
#
# Coordination Sequence:
#
# PCOD8155302 Si02
#       8
#     4   4   4   4   4   4   4   2
#     4  10  21  40  63  87 121 164 211 259 308 366
#     4  11  25  38  55  90 132 164 203 259 311 368
#     4  10  22  41  66  93 125 169 215 259 314 378
#     4  10  22  40  66  94 119 161 216 263 310 370
#     4  10  22  41  66  93 125 169 215 259 314 378
#     4  10  21  40  63  87 121 164 211 259 308 366
#     4  12  26  42  65  97 128 162 208 259 318 385
#     4  12  23  42  70  89 126 168 202 259 320 378
#
# _framework density 19.750733
#
# number of rings (size 3 to 8) (size 9 to 14) (size 15 to 20)
#    0.000    1.467    2.667    1.800    3.733    4.267 
#    0.000    4.000    0.000    2.400    0.000    0.000 
#    0.000    0.000    0.000    0.000    0.000    0.000 
#
# Total GULP energy -371933.288942 kJ/mol
# GULP energy per Si atom -12397.776298 kJ/mol
# Density = 1.970578 g / cm^3
# Si number density = 19.750733 Si / 1000 Ang^3
#
#
#
# Elastic Constant Matrix: (Units=GPa)
#
#
# Indices 1 2 3 4 5 6 
#
# 1 184.5991 79.3622 66.3801 0.0000 0.0000 0.0000
# 2 79.3622 155.9769 55.2847 0.0000 0.0000 0.0000
# 3 66.3801 55.2847 81.8141 0.0000 0.0000 0.0000
# 4 0.0000 0.0000 0.0000 20.2248 0.0000 0.0000
# 5 0.0000 0.0000 0.0000 0.0000 -25.4260 0.0000
# 6 0.0000 0.0000 0.0000 0.0000 0.0000 23.2098
#
#
#
# Elastic Compliance Matrix: (Units=1/GPa)
#
#
# Indices 1 2 3 4 5 6 
#
# 1 0.008285 -0.002410 -0.005093 0.000000 0.000000 0.000000
# 2 -0.002410 0.009131 -0.004215 0.000000 0.000000 0.000000
# 3 -0.005093 -0.004215 0.019204 0.000000 0.000000 0.000000
# 4 0.000000 0.000000 0.000000 0.049444 0.000000 0.000000
# 5 0.000000 0.000000 0.000000 0.000000 -0.039330 0.000000
# 6 0.000000 0.000000 0.000000 0.000000 0.000000 0.043085
#
#
# Mechanical properties :
#
#
# Convention : Reuss Voigt Hill
#
# Bulk Modulus (GPa) = 75.85547 91.60490 83.73019
# Shear Modulus (GPa) = 42.49870 18.35925 30.42898
#
# Velocity S-wave (km/s) = 4.64373 3.05216 3.92937
# Velocity P-wave (km/s) = 8.20013 7.67477 7.94179
#
# Compressibility (1/GPa) = 0.01318296
#
# Stress axis : x y z
#
# Youngs Moduli (GPa) = 120.70322 109.51159 52.07369
#
# Poissons Ratio (x) = 0.26393 0.26523
# Poissons Ratio (y) = 0.29090 0.21949
# Poissons Ratio (z) = 0.61478 0.46159
#
# Static dielectric constant tensor:
#      x y z
#    x 3.293900 0.000000 0.000000 
#    y 0.000000 3.922080 0.000000 
#    z 0.000000 0.000000 3.727580 
# 
# 
# High freq. dielectric constant tensor:
#      x y z
#    x 1.756970 0.000000 0.000000 
#    y 0.000000 1.793740 0.000000 
#    z 0.000000 0.000000 1.776660 
# 
# From -- ./inp_files/5200.got.cif
#   From: 2010.03.12/outbox.cif.g09.slc.cpg/sg16_3_cif.got.tgz:5200.got - 2010.03.31 00:51:45.
