data_PCOD8155326
_publ_section_title
;
Structure prediction by ZEFSAII (Michael W. Deem and Ramdas Pophale) SiO2 
 PCOD8155326
Probable space group: P 2 2 2
;
_chemical_formula_sum "Si O2"
_cell_formula_units_Z 14
_cell_length_a 19.304780
_cell_length_b 5.160947
_cell_length_c 5.597863
_cell_angle_alpha 90.000000
_cell_angle_beta 90.000000
_cell_angle_gamma 90.000000
_cell_volume 557.720389
_symmetry_space_group_name_H-M "P 2 2 2"
_symmetry_group_IT_number 16
_symmetry_cell_setting 'orthorhombic'
loop_
_space_group_symop_operation_xyz
x,y,z
-x,-y,z
x,-y,-z
-x,y,-z
loop_
_atom_site_type_symbol
_atom_site_label
_atom_site_fract_x
_atom_site_fract_y
_atom_site_fract_z
Si Si1 0.601997 0.259099 0.347993
Si Si2 0.000000 0.500000 0.000000
Si Si3 0.500000 0.000000 0.000000
Si Si4 0.748113 0.848333 0.751482
Si Si5 0.898032 0.740118 0.656474
O O1 0.573600 0.500000 0.500000
O O2 0.678998 0.331186 0.248705
O O3 0.607486 0.000000 0.500000
O O4 0.547396 0.201360 0.142434
O O5 0.047502 0.715008 0.131001
O O6 0.820312 0.694457 0.759244
O O7 0.749024 0.000000 0.500000
O O8 0.743701 0.000000 0.000000
O O9 0.919050 0.500000 0.500000
O O10 0.906647 0.000000 0.500000
#
# Coordination Sequence:
#
# PCOD8155326 Si02
#       5
#     4   1   1   4   4
#     4  11  26  49  78 116 160 210 272 335 406 487
#     4  12  30  50  84 112 168 216 270 338 418 498
#     4  12  26  50  80 116 164 216 266 338 418 498
#     4  10  23  50  81 118 157 212 277 339 403 486
#     4  11  28  51  76 114 158 210 274 337 409 488
#
# _framework density 25.102184999999999
#
# number of rings (size 3 to 8) (size 9 to 14) (size 15 to 20)
#    0.000    1.143    1.429    1.714    8.000    8.000 
#    0.000    0.000    0.000    0.000    0.000    0.000 
#    0.000    0.000    0.000    0.000    0.000    0.000 
#
# Total GULP energy -173445.482048 kJ/mol
# GULP energy per Si atom -12388.963003 kJ/mol
# Density = 2.504505 g / cm^3
# Si number density = 25.102185 Si / 1000 Ang^3
#
#
#
# Elastic Constant Matrix: (Units=GPa)
#
#
# Indices 1 2 3 4 5 6 
#
# 1 247.7410 52.7411 81.8063 0.0000 0.0000 0.0000
# 2 52.7411 146.5096 56.8226 0.0000 0.0000 0.0000
# 3 81.8063 56.8226 166.5897 0.0000 0.0000 0.0000
# 4 0.0000 0.0000 0.0000 35.1320 0.0000 0.0000
# 5 0.0000 0.0000 0.0000 0.0000 76.9216 0.0000
# 6 0.0000 0.0000 0.0000 0.0000 0.0000 5.0362
#
#
#
# Elastic Compliance Matrix: (Units=1/GPa)
#
#
# Indices 1 2 3 4 5 6 
#
# 1 0.004933 -0.000964 -0.002094 0.000000 0.000000 0.000000
# 2 -0.000964 0.008054 -0.002274 0.000000 0.000000 0.000000
# 3 -0.002094 -0.002274 0.007807 0.000000 0.000000 0.000000
# 4 0.000000 0.000000 0.000000 0.028464 0.000000 0.000000
# 5 0.000000 0.000000 0.000000 0.000000 0.013000 0.000000
# 6 0.000000 0.000000 0.000000 0.000000 0.000000 0.198563
#
#
# Mechanical properties :
#
#
# Convention : Reuss Voigt Hill
#
# Bulk Modulus (GPa) = 98.70707 104.84226 101.77467
# Shear Modulus (GPa) = 18.19098 48.04931 33.12015
#
# Velocity S-wave (km/s) = 2.69490 4.37984 3.63631
# Velocity P-wave (km/s) = 7.00648 8.21184 7.63299
#
# Compressibility (1/GPa) = 0.01013099
#
# Stress axis : x y z
#
# Youngs Moduli (GPa) = 202.71618 124.15579 128.09739
#
# Poissons Ratio (x) = 0.11966 0.26820
# Poissons Ratio (y) = 0.19537 0.29130
# Poissons Ratio (z) = 0.42442 0.28233
#
# Static dielectric constant tensor:
#      x y z
#    x 5.727410 0.000000 0.000000 
#    y 0.000000 3.964320 0.000000 
#    z 0.000000 0.000000 5.189350 
# 
# 
# High freq. dielectric constant tensor:
#      x y z
#    x 2.044500 0.000000 0.000000 
#    y 0.000000 1.973920 0.000000 
#    z 0.000000 0.000000 2.015730 
# 
# From -- ./inp_files/2549.got.cif
#   From: 2010.03.12/outbox.cif.g09.slc.cpg/sg16_2_cif.got.tgz:2549.got - 2010.03.31 00:51:45.
