data_PCOD8155922
_publ_section_title
;
Structure prediction by ZEFSAII (Michael W. Deem and Ramdas Pophale) SiO2 
 PCOD8155922
Probable space group: P 21 21 2
;
_chemical_formula_sum "Si O2"
_cell_formula_units_Z 32
_cell_length_a 9.582524
_cell_length_b 11.414725
_cell_length_c 14.327654
_cell_angle_alpha 90.000000
_cell_angle_beta 90.000000
_cell_angle_gamma 90.000000
_cell_volume 1567.185677
_symmetry_space_group_name_H-M "P 21 21 2"
_symmetry_group_IT_number 18
_symmetry_cell_setting 'orthorhombic'
loop_
_space_group_symop_operation_xyz
x,y,z
-x,-y,z
1/2+x,1/2-y,-z
1/2-x,1/2+y,-z
loop_
_atom_site_type_symbol
_atom_site_label
_atom_site_fract_x
_atom_site_fract_y
_atom_site_fract_z
Si Si1 0.753638 0.316985 0.352236
Si Si2 0.146188 0.437492 0.670145
Si Si3 0.116308 0.404933 0.046942
Si Si4 0.446231 0.675935 0.859978
Si Si5 0.353341 0.566417 0.534078
Si Si6 0.576191 0.227988 0.660565
Si Si7 0.662722 0.018308 0.762814
Si Si8 0.277372 0.455646 0.866724
O O1 0.650492 0.205358 0.339437
O O2 0.703845 0.405398 0.432299
O O3 0.752999 0.399474 0.259518
O O4 0.914335 0.282482 0.367965
O O5 0.255027 0.482744 0.594146
O O6 0.180045 0.472091 0.776382
O O7 0.000000 0.500000 0.645038
O O8 0.043818 0.279817 0.065261
O O9 0.217237 0.433011 0.136955
O O10 0.000000 0.500000 0.025044
O O11 0.204225 0.393864 0.953239
O O12 0.392786 0.713650 0.759429
O O13 0.338780 0.580153 0.899926
O O14 0.598618 0.628660 0.836617
O O15 0.500000 0.500000 0.527661
O O16 0.355560 0.694001 0.581291
O O17 0.660263 0.104682 0.671813
O O18 0.500000 0.000000 0.787462
#
# Coordination Sequence:
#
# PCOD8155922 Si02
#       8
#     4   4   4   4   4   4   4   4
#     4  11  24  40  69  94 134 169 222 285 328 398
#     4  12  27  43  65 102 136 175 225 289 339 394
#     4  10  22  37  64  96 129 168 217 262 333 396
#     4  10  21  40  68  93 125 181 220 268 332 409
#     4  12  25  42  68  95 132 178 225 269 343 410
#     4  10  19  42  68  94 123 173 228 272 324 414
#     4   8  19  38  63  93 122 170 216 262 332 394
#     4  11  22  41  66  95 132 171 224 276 330 395
#
# _framework density 20.418766999999999
#
# number of rings (size 3 to 8) (size 9 to 14) (size 15 to 20)
#    0.000    1.500    3.750    1.125    5.250    0.500 
#    0.000    0.000    2.750    0.000    0.000    0.000 
#    0.000    0.000    0.000    0.000    0.000    0.000 
#
# Total GULP energy -396562.460859 kJ/mol
# GULP energy per Si atom -12392.576902 kJ/mol
# Density = 2.037229 g / cm^3
# Si number density = 20.418767 Si / 1000 Ang^3
#
#
#
# Elastic Constant Matrix: (Units=GPa)
#
#
# Indices 1 2 3 4 5 6 
#
# 1 66.4400 31.5310 31.1775 0.0000 0.0000 0.0000
# 2 31.5310 112.7717 23.6313 0.0000 0.0000 0.0000
# 3 31.1775 23.6313 93.3440 0.0000 0.0000 0.0000
# 4 0.0000 0.0000 0.0000 18.3005 0.0000 0.0000
# 5 0.0000 0.0000 0.0000 0.0000 23.9127 0.0000
# 6 0.0000 0.0000 0.0000 0.0000 0.0000 23.9552
#
#
#
# Elastic Compliance Matrix: (Units=1/GPa)
#
#
# Indices 1 2 3 4 5 6 
#
# 1 0.019687 -0.004358 -0.005472 0.000000 0.000000 0.000000
# 2 -0.004358 0.010329 -0.001159 0.000000 0.000000 0.000000
# 3 -0.005472 -0.001159 0.012834 0.000000 0.000000 0.000000
# 4 0.000000 0.000000 0.000000 0.054643 0.000000 0.000000
# 5 0.000000 0.000000 0.000000 0.000000 0.041819 0.000000
# 6 0.000000 0.000000 0.000000 0.000000 0.000000 0.041745
#
#
# Mechanical properties :
#
#
# Convention : Reuss Voigt Hill
#
# Bulk Modulus (GPa) = 47.91263 49.47058 48.69160
# Shear Modulus (GPa) = 23.81027 25.64809 24.72918
#
# Velocity S-wave (km/s) = 3.41852 3.54800 3.48386
# Velocity P-wave (km/s) = 6.25281 6.40820 6.33098
#
# Compressibility (1/GPa) = 0.02087132
#
# Stress axis : x y z
#
# Youngs Moduli (GPa) = 50.79420 96.81614 77.91559
#
# Poissons Ratio (x) = 0.42191 0.42639
# Poissons Ratio (y) = 0.22135 0.09033
# Poissons Ratio (z) = 0.27797 0.11224
#
# Static dielectric constant tensor:
#      x y z
#    x 3.744770 0.000000 0.000000 
#    y 0.000000 4.057710 0.000000 
#    z 0.000000 0.000000 3.689430 
# 
# 
# High freq. dielectric constant tensor:
#      x y z
#    x 1.763210 0.000000 0.000000 
#    y 0.000000 1.818960 0.000000 
#    z 0.000000 0.000000 1.800940 
# 
# From -- ./inp_files/6757.got.cif
#   From: 2010.03.12/outbox.cif.g09.slc.cpg/sg18_4_cif.got.tgz:6757.got - 2010.04.10 18:53:55.
