data_PCOD8155707
_publ_section_title
;
Structure prediction by ZEFSAII (Michael W. Deem and Ramdas Pophale) SiO2 
 PCOD8155707
Probable space group: P 2 2 21
;
_chemical_formula_sum "Si O2"
_cell_formula_units_Z 18
_cell_length_a 14.912975
_cell_length_b 11.567091
_cell_length_c 4.816413
_cell_angle_alpha 90.000000
_cell_angle_beta 90.000000
_cell_angle_gamma 90.000000
_cell_volume 830.829985
_symmetry_space_group_name_H-M "P 2 2 21"
_symmetry_group_IT_number 17
_symmetry_cell_setting 'orthorhombic'
loop_
_space_group_symop_operation_xyz
x,y,z
-x,-y,1/2+z
x,-y,-z
-x,y,1/2-z
loop_
_atom_site_type_symbol
_atom_site_label
_atom_site_fract_x
_atom_site_fract_y
_atom_site_fract_z
Si Si1 0.761397 0.424613 0.236353
Si Si2 0.712191 0.173843 0.345248
Si Si3 0.940163 0.676435 0.010518
Si Si4 0.173475 0.115501 0.647078
Si Si5 0.561838 0.000000 0.500000
O O1 0.786484 0.500000 0.500000
O O2 0.707215 0.314037 0.359710
O O3 0.853675 0.394403 0.079921
O O4 0.707285 0.500000 0.000000
O O5 0.789443 0.114705 0.537282
O O6 0.618475 0.112782 0.410530
O O7 0.738512 0.151717 0.027228
O O8 0.000000 0.706252 0.750000
O O9 0.908446 0.796432 0.144593
O O10 0.000000 0.611780 0.250000
O O11 0.136593 0.000000 0.500000
O O12 0.500000 0.957647 0.250000
#
# Coordination Sequence:
#
# PCOD8155707 Si02
#       5
#     4   4   4   4   2
#     4  11  23  41  64  87 118 174 224 260 311 369
#     4  11  22  41  63  94 128 157 208 254 300 391
#     4  11  23  37  54  86 122 158 215 277 320 355
#     4  11  20  37  61  82 121 174 209 250 316 377
#     4  12  24  40  70 106 132 154 186 252 334 382
#
# _framework density 21.665084
#
# number of rings (size 3 to 8) (size 9 to 14) (size 15 to 20)
#    0.000    0.889    2.222    8.000    0.000    2.667 
#    0.000    2.222    0.000    2.667    0.000    0.000 
#    0.000    0.000    0.000    0.000    0.000    0.000 
#
# Total GULP energy -223048.590859 kJ/mol
# GULP energy per Si atom -12391.588381 kJ/mol
# Density = 2.161577 g / cm^3
# Si number density = 21.665084 Si / 1000 Ang^3
#
#
#
# Elastic Constant Matrix: (Units=GPa)
#
#
# Indices 1 2 3 4 5 6 
#
# 1 85.0635 32.2610 31.4776 0.0000 0.0000 0.0000
# 2 32.2610 135.8523 23.4002 0.0000 0.0000 0.0000
# 3 31.4776 23.4002 104.0165 0.0000 0.0000 0.0000
# 4 0.0000 0.0000 0.0000 41.3465 0.0000 0.0000
# 5 0.0000 0.0000 0.0000 0.0000 32.6440 0.0000
# 6 0.0000 0.0000 0.0000 0.0000 0.0000 12.4563
#
#
#
# Elastic Compliance Matrix: (Units=1/GPa)
#
#
# Indices 1 2 3 4 5 6 
#
# 1 0.014148 -0.002728 -0.003668 0.000000 0.000000 0.000000
# 2 -0.002728 0.008184 -0.001016 0.000000 0.000000 0.000000
# 3 -0.003668 -0.001016 0.010952 0.000000 0.000000 0.000000
# 4 0.000000 0.000000 0.000000 0.024186 0.000000 0.000000
# 5 0.000000 0.000000 0.000000 0.000000 0.030634 0.000000
# 6 0.000000 0.000000 0.000000 0.000000 0.000000 0.080281
#
#
# Mechanical properties :
#
#
# Convention : Reuss Voigt Hill
#
# Bulk Modulus (GPa) = 54.16731 55.46778 54.81754
# Shear Modulus (GPa) = 26.40476 33.14226 29.77351
#
# Velocity S-wave (km/s) = 3.49488 3.91545 3.71113
# Velocity P-wave (km/s) = 6.42977 6.78962 6.61214
#
# Compressibility (1/GPa) = 0.01846132
#
# Stress axis : x y z
#
# Youngs Moduli (GPa) = 70.68267 122.19472 91.30547
#
# Poissons Ratio (x) = 0.33334 0.33488
# Poissons Ratio (y) = 0.19282 0.09272
# Poissons Ratio (z) = 0.25924 0.12409
#
# Static dielectric constant tensor:
#      x y z
#    x 3.543540 0.000000 0.000000 
#    y 0.000000 4.396520 0.000000 
#    z 0.000000 0.000000 4.231190 
# 
# 
# High freq. dielectric constant tensor:
#      x y z
#    x 1.797320 0.000000 0.000000 
#    y 0.000000 1.863350 0.000000 
#    z 0.000000 0.000000 1.882200 
# 
# From -- ./inp_files/1346.got.cif
#   From: 2010.03.12/outbox.cif.g09.slc.cpg/sg17_1_cif.got.tgz:1346.got - 2010.04.10 18:46:23.
