data_PCOD8155303
_publ_section_title
;
Structure prediction by ZEFSAII (Michael W. Deem and Ramdas Pophale) SiO2 
 PCOD8155303
Probable space group: P 2 2 2
;
_chemical_formula_sum "Si O2"
_cell_formula_units_Z 25
_cell_length_a 11.905842
_cell_length_b 10.014265
_cell_length_c 9.461597
_cell_angle_alpha 90.000000
_cell_angle_beta 90.000000
_cell_angle_gamma 90.000000
_cell_volume 1128.089717
_symmetry_space_group_name_H-M "P 2 2 2"
_symmetry_group_IT_number 16
_symmetry_cell_setting 'orthorhombic'
loop_
_space_group_symop_operation_xyz
x,y,z
-x,-y,z
x,-y,-z
-x,y,-z
loop_
_atom_site_type_symbol
_atom_site_label
_atom_site_fract_x
_atom_site_fract_y
_atom_site_fract_z
Si Si1 0.231654 0.104496 0.612086
Si Si2 0.857875 0.115938 0.770840
Si Si3 0.883271 0.335262 0.564160
Si Si4 0.378165 0.244473 0.826201
Si Si5 0.678681 0.508317 0.344857
Si Si6 0.632806 0.756268 0.151352
Si Si7 0.000000 0.000000 0.000000
O O1 0.193327 0.244909 0.542505
O O2 0.313076 0.127665 0.745089
O O3 0.288134 0.000000 0.500000
O O4 0.126959 0.020091 0.678167
O O5 0.915325 0.241549 0.695406
O O6 0.724130 0.139896 0.790945
O O7 0.921187 0.100838 0.916487
O O8 0.812484 0.463720 0.622520
O O9 0.000000 0.386676 0.500000
O O10 0.350496 0.376462 0.739158
O O11 0.506179 0.192568 0.830026
O O12 0.337704 0.270795 0.986761
O O13 0.619117 0.500000 0.500000
O O14 0.632793 0.624379 0.246488
#
# Coordination Sequence:
#
# PCOD8155303 Si02
#       7
#     4   4   4   4   4   4   1
#     4  10  21  40  63  94 131 167 219 268 324 392
#     4  10  22  38  61  94 123 170 215 261 319 390
#     4  10  21  40  63  91 128 164 212 273 330 382
#     4  11  22  42  64  91 129 173 204 270 330 386
#     4  11  22  41  62  96 120 165 219 265 322 398
#     4  10  24  41  64  92 129 166 217 260 329 400
#     4  12  20  36  66  90 126 172 224 266 316 388
#
# _framework density 22.161358
#
# number of rings (size 3 to 8) (size 9 to 14) (size 15 to 20)
#    0.000    1.600    1.600    2.880    0.000    5.760 
#    0.000    5.600    0.000    0.000    4.160    0.000 
#    0.000    0.000    0.000    0.000    0.000    0.000 
#
# Total GULP energy -309752.342043 kJ/mol
# GULP energy per Si atom -12390.093682 kJ/mol
# Density = 2.211092 g / cm^3
# Si number density = 22.161358 Si / 1000 Ang^3
#
#
#
# Elastic Constant Matrix: (Units=GPa)
#
#
# Indices 1 2 3 4 5 6 
#
# 1 93.5265 27.3749 31.9338 0.0000 0.0000 0.0000
# 2 27.3749 83.6239 40.5975 0.0000 0.0000 0.0000
# 3 31.9338 40.5975 165.0860 0.0000 0.0000 0.0000
# 4 0.0000 0.0000 0.0000 38.1678 0.0000 0.0000
# 5 0.0000 0.0000 0.0000 0.0000 39.7569 0.0000
# 6 0.0000 0.0000 0.0000 0.0000 0.0000 14.3031
#
#
#
# Elastic Compliance Matrix: (Units=1/GPa)
#
#
# Indices 1 2 3 4 5 6 
#
# 1 0.012169 -0.003226 -0.001561 0.000000 0.000000 0.000000
# 2 -0.003226 0.014435 -0.002926 0.000000 0.000000 0.000000
# 3 -0.001561 -0.002926 0.007079 0.000000 0.000000 0.000000
# 4 0.000000 0.000000 0.000000 0.026200 0.000000 0.000000
# 5 0.000000 0.000000 0.000000 0.000000 0.025153 0.000000
# 6 0.000000 0.000000 0.000000 0.000000 0.000000 0.069915
#
#
# Mechanical properties :
#
#
# Convention : Reuss Voigt Hill
#
# Bulk Modulus (GPa) = 54.77045 60.22764 57.49905
# Shear Modulus (GPa) = 28.33478 34.60091 31.46785
#
# Velocity S-wave (km/s) = 3.57958 3.95564 3.77230
# Velocity P-wave (km/s) = 6.46936 6.93532 6.70639
#
# Compressibility (1/GPa) = 0.01825802
#
# Stress axis : x y z
#
# Youngs Moduli (GPa) = 82.17419 69.27735 141.26648
#
# Poissons Ratio (x) = 0.22349 0.22047
# Poissons Ratio (y) = 0.26510 0.41331
# Poissons Ratio (z) = 0.12825 0.20269
#
# Static dielectric constant tensor:
#      x y z
#    x 3.889270 0.000000 0.000000 
#    y 0.000000 4.088440 0.000000 
#    z 0.000000 0.000000 4.660200 
# 
# 
# High freq. dielectric constant tensor:
#      x y z
#    x 1.857720 0.000000 0.000000 
#    y 0.000000 1.879370 0.000000 
#    z 0.000000 0.000000 1.892110 
# 
# From -- ./inp_files/4722.got.cif
#   From: 2010.03.12/outbox.cif.g09.slc.cpg/sg16_3_cif.got.tgz:4722.got - 2010.03.31 00:51:45.
