data_PCOD8155376
_publ_section_title
;
Structure prediction by ZEFSAII (Michael W. Deem and Ramdas Pophale) SiO2 
 PCOD8155376
Probable space group: P 2 2 21
;
_chemical_formula_sum "Si O2"
_cell_formula_units_Z 30
_cell_length_a 14.964479
_cell_length_b 17.304200
_cell_length_c 5.268118
_cell_angle_alpha 90.000000
_cell_angle_beta 90.000000
_cell_angle_gamma 90.000000
_cell_volume 1364.170398
_symmetry_space_group_name_H-M "P 2 2 21"
_symmetry_group_IT_number 17
_symmetry_cell_setting 'orthorhombic'
loop_
_space_group_symop_operation_xyz
x,y,z
-x,-y,1/2+z
x,-y,-z
-x,y,1/2-z
loop_
_atom_site_type_symbol
_atom_site_label
_atom_site_fract_x
_atom_site_fract_y
_atom_site_fract_z
Si Si1 0.441649 0.000000 0.500000
Si Si2 0.123783 0.413765 0.000038
Si Si3 0.905798 0.846289 1.000000
Si Si4 0.878621 0.673178 0.000039
Si Si5 0.666299 0.322458 0.999979
Si Si6 0.559972 0.168154 1.000000
Si Si7 0.336264 0.587666 0.999979
Si Si8 0.103836 0.910359 0.000000
O O1 0.389901 0.916871 0.500002
O O2 0.500000 0.000001 0.750000
O O3 0.087595 0.371438 0.749165
O O4 0.230067 0.415147 0.000026
O O5 0.085157 0.500000 0.000000
O O6 0.087596 0.371464 0.250959
O O7 0.926081 0.755923 0.999994
O O8 0.851208 0.871373 0.748339
O O9 0.851208 0.871372 0.251662
O O10 0.998212 0.893634 1.000000
O O11 0.772581 0.682158 0.000028
O O12 0.634280 0.234384 0.999997
O O13 0.629947 0.367720 0.248284
O O14 0.629946 0.367712 0.751659
O O15 0.500000 0.177487 0.250000
O O16 0.500000 0.177485 0.750000
O O17 0.374258 0.500000 0.000000
O O18 0.124590 0.000000 0.000000
#
# Coordination Sequence:
#
# PCOD8155376 Si02
#       8
#     2   4   4   4   4   4   4   4
#     4   8  16  30  50  70  84 110 154 202 232 262
#     4   9  17  30  47  70  98 128 167 201 235 288
#     4  10  18  30  49  75  99 125 161 207 235 277
#     4  10  19  30  48  77 101 126 154 203 259 285
#     4  10  19  31  50  74 100 127 156 206 247 296
#     4  10  19  33  53  73  92 124 166 206 239 288
#     4   9  17  30  49  71  97 131 164 195 238 287
#     4  10  19  33  53  73  95 132 175 198 222 277
#
# _framework density 21.991387
#
# number of rings (size 3 to 8) (size 9 to 14) (size 15 to 20)
#    0.000    2.400    0.000    4.400    0.000    3.200 
#    0.000    0.000    4.400    8.000    3.467   37.333 
#    0.000    0.000    0.000    0.000    0.000    0.000 
#
# Total GULP energy -371806.258295 kJ/mol
# GULP energy per Si atom -12393.541943 kJ/mol
# Density = 2.194133 g / cm^3
# Si number density = 21.991387 Si / 1000 Ang^3
#
#
#
# Elastic Constant Matrix: (Units=GPa)
#
#
# Indices 1 2 3 4 5 6 
#
# 1 20.6861 17.1658 5.0913 0.0000 0.0000 0.0000
# 2 17.1658 217.2535 85.6002 0.0000 0.0000 0.0000
# 3 5.0913 85.6002 239.4252 0.0000 0.0000 0.0000
# 4 0.0000 0.0000 0.0000 46.0418 0.0000 0.0000
# 5 0.0000 0.0000 0.0000 0.0000 25.9252 0.0000
# 6 0.0000 0.0000 0.0000 0.0000 0.0000 -54.3321
#
#
#
# Elastic Compliance Matrix: (Units=1/GPa)
#
#
# Indices 1 2 3 4 5 6 
#
# 1 0.051770 -0.004256 0.000421 0.000000 0.000000 0.000000
# 2 -0.004256 0.005708 -0.001950 0.000000 0.000000 0.000000
# 3 0.000421 -0.001950 0.004865 0.000000 0.000000 0.000000
# 4 0.000000 0.000000 0.000000 0.021719 0.000000 0.000000
# 5 0.000000 0.000000 0.000000 0.000000 0.038573 0.000000
# 6 0.000000 0.000000 0.000000 0.000000 0.000000 -0.018405
#
#
# Mechanical properties :
#
#
# Convention : Reuss Voigt Hill
#
# Bulk Modulus (GPa) = 19.69614 77.00885 48.35249
# Shear Modulus (GPa) = 37.67219 28.16083 32.91651
#
# Velocity S-wave (km/s) = 4.14338 3.58234 3.87304
# Velocity P-wave (km/s) = 5.64499 7.22528 6.48346
#
# Compressibility (1/GPa) = 0.05077137
#
# Stress axis : x y z
#
# Youngs Moduli (GPa) = 19.31622 175.20576 205.55313
#
# Poissons Ratio (x) = 0.74573 -0.08651
# Poissons Ratio (y) = 0.08222 0.40085
# Poissons Ratio (z) = -0.00813 0.34167
#
# Static dielectric constant tensor:
#      x y z
#    x 3.124020 0.000000 0.000000 
#    y 0.000000 4.314440 0.000000 
#    z 0.000000 0.000000 3.354980 
# 
# 
# High freq. dielectric constant tensor:
#      x y z
#    x 1.791660 0.000000 0.000000 
#    y 0.000000 1.886800 0.000000 
#    z 0.000000 0.000000 1.899690 
# 
# From -- ./inp_files/2982.got.cif
#   From: 2010.03.12/outbox.cif.g09.slc.cpg/sg17_2_cif.got.tgz:2982.got - 2010.04.10 18:46:23.
