data_PCOD8155364
_publ_section_title
;
Structure prediction by ZEFSAII (Michael W. Deem and Ramdas Pophale) SiO2 
 PCOD8155364
Probable space group: P 2 2 21
;
_chemical_formula_sum "Si O2"
_cell_formula_units_Z 16
_cell_length_a 10.881512
_cell_length_b 14.224909
_cell_length_c 5.203690
_cell_angle_alpha 90.000000
_cell_angle_beta 90.000000
_cell_angle_gamma 90.000000
_cell_volume 805.471463
_symmetry_space_group_name_H-M "P 2 2 21"
_symmetry_group_IT_number 17
_symmetry_cell_setting 'orthorhombic'
loop_
_space_group_symop_operation_xyz
x,y,z
-x,-y,1/2+z
x,-y,-z
-x,y,1/2-z
loop_
_atom_site_type_symbol
_atom_site_label
_atom_site_fract_x
_atom_site_fract_y
_atom_site_fract_z
Si Si1 0.129535 0.600315 0.417156
Si Si2 0.372615 0.595468 0.145995
Si Si3 0.081922 0.897800 0.999678
Si Si4 0.167808 0.699928 0.920464
O O1 0.069606 0.500000 0.500000
O O2 0.275871 0.581518 0.378797
O O3 0.111623 0.678930 0.639523
O O4 0.083786 0.640523 0.133078
O O5 0.500000 0.638870 0.250000
O O6 0.404533 0.500000 0.000000
O O7 0.309086 0.666412 0.940621
O O8 0.174602 0.810361 0.985785
O O9 0.000000 0.892030 0.750000
O O10 0.000000 0.886795 0.250000
O O11 0.150480 0.000000 0.000000
#
# Coordination Sequence:
#
# PCOD8155364 Si02
#       4
#     4   4   4   4
#     4  10  17  32  48  74 109 145 176 213 255 309
#     4  10  20  29  52  78 114 146 190 214 253 303
#     4  10  21  39  62  84 102 131 183 239 285 328
#     4  10  20  32  53  80 108 141 177 225 273 318
#
# _framework density 19.864142000000001
#
# number of rings (size 3 to 8) (size 9 to 14) (size 15 to 20)
#    1.500    0.500    2.500    3.000    0.000    0.000 
#    0.000    0.000    0.000   25.500    6.500    0.000 
#    0.000    0.000    0.000    0.000    0.000    0.000 
#
# Total GULP energy -198228.020584 kJ/mol
# GULP energy per Si atom -12389.251286 kJ/mol
# Density = 1.981893 g / cm^3
# Si number density = 19.864142 Si / 1000 Ang^3
#
#
#
# Elastic Constant Matrix: (Units=GPa)
#
#
# Indices 1 2 3 4 5 6 
#
# 1 35.2396 19.2916 31.9455 0.0000 0.0000 0.0000
# 2 19.2916 165.1960 42.8870 0.0000 0.0000 0.0000
# 3 31.9455 42.8870 147.3630 0.0000 0.0000 0.0000
# 4 0.0000 0.0000 0.0000 29.6928 0.0000 0.0000
# 5 0.0000 0.0000 0.0000 0.0000 26.1288 0.0000
# 6 0.0000 0.0000 0.0000 0.0000 0.0000 9.3561
#
#
#
# Elastic Compliance Matrix: (Units=1/GPa)
#
#
# Indices 1 2 3 4 5 6 
#
# 1 0.036153 -0.002366 -0.007149 0.000000 0.000000 0.000000
# 2 -0.002366 0.006703 -0.001438 0.000000 0.000000 0.000000
# 3 -0.007149 -0.001438 0.008754 0.000000 0.000000 0.000000
# 4 0.000000 0.000000 0.000000 0.033678 0.000000 0.000000
# 5 0.000000 0.000000 0.000000 0.000000 0.038272 0.000000
# 6 0.000000 0.000000 0.000000 0.000000 0.000000 0.106882
#
#
# Mechanical properties :
#
#
# Convention : Reuss Voigt Hill
#
# Bulk Modulus (GPa) = 33.66454 59.56074 46.61264
# Shear Modulus (GPa) = 19.06583 29.94716 24.50649
#
# Velocity S-wave (km/s) = 3.10144 3.88699 3.51622
# Velocity P-wave (km/s) = 5.45980 7.08478 6.32470
#
# Compressibility (1/GPa) = 0.02970485
#
# Stress axis : x y z
#
# Youngs Moduli (GPa) = 27.66034 149.18670 114.23199
#
# Poissons Ratio (x) = 0.35298 0.81661
# Poissons Ratio (y) = 0.06545 0.16425
# Poissons Ratio (z) = 0.19773 0.21451
#
# Static dielectric constant tensor:
#      x y z
#    x 3.453880 0.000000 0.000000 
#    y 0.000000 3.901840 0.000000 
#    z 0.000000 0.000000 3.797390 
# 
# 
# High freq. dielectric constant tensor:
#      x y z
#    x 1.745400 0.000000 0.000000 
#    y 0.000000 1.757670 0.000000 
#    z 0.000000 0.000000 1.802540 
# 
# From -- ./inp_files/1946.got.cif
#   From: 2010.03.12/outbox.cif.g09.slc.cpg/sg17_1_cif.got.tgz:1946.got - 2010.04.10 18:46:23.
