data_PCOD8155157
_publ_section_title
;
Structure prediction by ZEFSAII (Michael W. Deem and Ramdas Pophale) SiO2 
 PCOD8155157
Probable space group: C 2/C
;
_chemical_formula_sum "Si O2"
_cell_formula_units_Z 24
_cell_length_a 15.856491
_cell_length_b 7.124564
_cell_length_c 13.336950
_cell_angle_alpha 90.000000
_cell_angle_beta 142.547859
_cell_angle_gamma 90.000000
_cell_volume 916.211745
_symmetry_space_group_name_H-M "C 2/C"
_symmetry_group_IT_number 15
_symmetry_cell_setting 'monoclinic'
loop_
_space_group_symop_operation_xyz
x,y,z
-x,y,1/2-z
-x,-y,-z
x,-y,1/2+z
1/2+x,1/2+y,z
1/2-x,1/2+y,1/2-z
1/2-x,1/2-y,-z
1/2+x,1/2-y,1/2+z
loop_
_atom_site_type_symbol
_atom_site_label
_atom_site_fract_x
_atom_site_fract_y
_atom_site_fract_z
Si Si1 0.488034 0.640129 0.348188
Si Si2 0.817393 0.799996 0.957543
Si Si3 0.684450 0.086013 0.141960
O O1 0.500000 0.735130 0.250000
O O2 0.548255 0.429052 0.400438
O O3 0.570918 0.759241 0.507849
O O4 0.328344 0.632663 0.224367
O O5 0.705132 0.910738 0.782075
O O6 0.868352 0.615861 0.945125
O O7 0.750000 0.750000 0.000000
#
# Coordination Sequence:
#
# PCOD8155157 Si02
#       3
#     8   8   8
#     4  12  27  50  82 117 159 206 265 321 394 468
#     4  12  27  48  79 116 157 206 259 322 393 463
#     4  12  28  50  79 117 161 204 263 328 388 465
#
# _framework density 26.194817
#
# number of rings (size 3 to 8) (size 9 to 14) (size 15 to 20)
#    0.000    0.000    6.667    2.000    0.000    5.333 
#    0.000    0.000    0.000    0.000    0.000    0.000 
#    0.000    0.000    0.000    0.000    0.000    0.000 
#
# Total GULP energy -148869.014368 kJ/mol
# GULP energy per Si atom -12405.751197 kJ/mol
# Density = 2.613520 g / cm^3
# Si number density = 26.194817 Si / 1000 Ang^3
#
#
#
# Elastic Constant Matrix: (Units=GPa)
#
#
# Indices 1 2 3 4 5 6 
#
# 1 124.5043 8.8387 38.9326 0.0000 -27.1352 0.0000
# 2 8.8387 108.2699 3.8997 0.0000 1.0070 0.0000
# 3 38.9326 3.8997 105.4372 0.0000 -4.9895 0.0000
# 4 0.0000 0.0000 0.0000 35.9825 0.0000 -11.2329
# 5 -27.1352 1.0070 -4.9895 0.0000 66.9084 0.0000
# 6 0.0000 0.0000 0.0000 -11.2329 0.0000 36.3066
#
#
#
# Elastic Compliance Matrix: (Units=1/GPa)
#
#
# Indices 1 2 3 4 5 6 
#
# 1 0.010004 -0.000726 -0.003487 0.000000 0.003808 0.000000
# 2 -0.000726 0.009303 -0.000097 0.000000 -0.000442 0.000000
# 3 -0.003487 -0.000097 0.010746 0.000000 -0.000611 0.000000
# 4 0.000000 0.000000 0.000000 0.030762 0.000000 0.009518
# 5 0.003808 -0.000442 -0.000611 0.000000 0.016451 0.000000
# 6 0.000000 0.000000 0.000000 0.009518 0.000000 0.030488
#
#
# Mechanical properties :
#
#
# Convention : Reuss Voigt Hill
#
# Bulk Modulus (GPa) = 46.65655 49.06147 47.85901
# Shear Modulus (GPa) = 40.47955 46.94219 43.71087
#
# Velocity S-wave (km/s) = 3.93533 4.23784 4.08938
# Velocity P-wave (km/s) = 6.20477 6.53574 6.37240
#
# Compressibility (1/GPa) = 0.02143322
#
# Stress axis : x y z
#
# Youngs Moduli (GPa) = 99.96326 107.49125 93.05391
#
# Poissons Ratio (x) = 0.07809 0.32446
# Poissons Ratio (y) = 0.07262 0.00900
# Poissons Ratio (z) = 0.34855 0.01040
#
# Static dielectric constant tensor:
#      x y z
#    x 5.083540 0.000000 -0.315380 
#    y 0.000000 5.247210 0.000000 
#    z -0.315380 0.000000 5.083660 
# 
# 
# High freq. dielectric constant tensor:
#      x y z
#    x 2.062530 0.000000 -0.010560 
#    y 0.000000 2.055950 0.000000 
#    z -0.010560 0.000000 2.064090 
# 
# From -- ./inp_files/102309.got.cif
#   From: 2010.06.25/outbox.cif.g09.slc.cpg/sg15_52_cif.got.tgz:102309.got - 2010.06.28 07:06:18.
