data_PCOD8155961
_publ_section_title
;
Structure prediction by ZEFSAII (Michael W. Deem and Ramdas Pophale) SiO2 
 PCOD8155961
Probable space group: P 21 21 2
;
_chemical_formula_sum "Si O2"
_cell_formula_units_Z 12
_cell_length_a 9.603655
_cell_length_b 4.871770
_cell_length_c 10.148452
_cell_angle_alpha 90.000000
_cell_angle_beta 90.000000
_cell_angle_gamma 90.000000
_cell_volume 474.813577
_symmetry_space_group_name_H-M "P 21 21 2"
_symmetry_group_IT_number 18
_symmetry_cell_setting 'orthorhombic'
loop_
_space_group_symop_operation_xyz
x,y,z
-x,-y,z
1/2+x,1/2-y,-z
1/2-x,1/2+y,-z
loop_
_atom_site_type_symbol
_atom_site_label
_atom_site_fract_x
_atom_site_fract_y
_atom_site_fract_z
Si Si1 0.291775 0.162858 0.171037
Si Si2 0.842029 0.487910 0.542198
Si Si3 0.371109 0.157349 0.884600
O O1 0.259542 0.486988 0.173236
O O2 0.368016 0.087484 0.305346
O O3 0.149654 0.975764 0.155019
O O4 0.385040 0.108953 0.042252
O O5 0.741971 0.271832 0.468768
O O6 0.000000 0.500000 0.480706
O O7 0.500000 0.000000 0.817566
#
# Coordination Sequence:
#
# PCOD8155961 Si02
#       3
#     4   4   4
#     4  10  22  38  59  89 122 160 205 256 319 380
#     4  12  27  46  68  95 132 177 223 271 323 384
#     4  10  20  36  61  90 121 157 201 259 319 380
#
# _framework density 25.273076
#
# number of rings (size 3 to 8) (size 9 to 14) (size 15 to 20)
#    0.000    1.333    0.000    5.000    0.000    8.000 
#    0.000   10.000    0.000    0.000    0.000    0.000 
#    0.000    0.000    0.000    0.000    0.000    0.000 
#
# Total GULP energy -148663.036958 kJ/mol
# GULP energy per Si atom -12388.586413 kJ/mol
# Density = 2.521555 g / cm^3
# Si number density = 25.273076 Si / 1000 Ang^3
#
#
#
# Elastic Constant Matrix: (Units=GPa)
#
#
# Indices 1 2 3 4 5 6 
#
# 1 96.1065 -8.6579 1.6288 0.0000 0.0000 0.0000
# 2 -8.6579 89.5138 9.4368 0.0000 0.0000 0.0000
# 3 1.6288 9.4368 95.1557 0.0000 0.0000 0.0000
# 4 0.0000 0.0000 0.0000 29.1076 0.0000 0.0000
# 5 0.0000 0.0000 0.0000 0.0000 9.0105 0.0000
# 6 0.0000 0.0000 0.0000 0.0000 0.0000 13.9445
#
#
#
# Elastic Compliance Matrix: (Units=1/GPa)
#
#
# Indices 1 2 3 4 5 6 
#
# 1 0.010504 0.001046 -0.000284 0.000000 0.000000 0.000000
# 2 0.001046 0.011394 -0.001148 0.000000 0.000000 0.000000
# 3 -0.000284 -0.001148 0.010628 0.000000 0.000000 0.000000
# 4 0.000000 0.000000 0.000000 0.034355 0.000000 0.000000
# 5 0.000000 0.000000 0.000000 0.000000 0.110981 0.000000
# 6 0.000000 0.000000 0.000000 0.000000 0.000000 0.071713
#
#
# Mechanical properties :
#
#
# Convention : Reuss Voigt Hill
#
# Bulk Modulus (GPa) = 31.49151 31.73235 31.61193
# Shear Modulus (GPa) = 19.16217 28.97040 24.06628
#
# Velocity S-wave (km/s) = 2.75654 3.38937 3.08920
# Velocity P-wave (km/s) = 4.75593 5.28206 5.02589
#
# Compressibility (1/GPa) = 0.03175460
#
# Stress axis : x y z
#
# Youngs Moduli (GPa) = 95.20045 87.76835 94.09304
#
# Poissons Ratio (x) = -0.09179 0.02668
# Poissons Ratio (y) = -0.09957 0.10800
# Poissons Ratio (z) = 0.02699 0.10074
#
# Static dielectric constant tensor:
#      x y z
#    x 4.132380 0.000000 0.000000 
#    y 0.000000 4.714530 0.000000 
#    z 0.000000 0.000000 4.362710 
# 
# 
# High freq. dielectric constant tensor:
#      x y z
#    x 1.988900 0.000000 0.000000 
#    y 0.000000 2.022000 0.000000 
#    z 0.000000 0.000000 1.999100 
# 
# From -- ./inp_files/3555.got.cif
#   From: 2010.03.12/outbox.cif.g09.slc.cpg/sg18_2_cif.got.tgz:3555.got - 2010.04.10 18:53:55.
