data_PCOD8155260
_publ_section_title
;
Structure prediction by ZEFSAII (Michael W. Deem and Ramdas Pophale) SiO2 
 PCOD8155260
Probable space group: P 2 2 2
;
_chemical_formula_sum "Si O2"
_cell_formula_units_Z 20
_cell_length_a 7.774660
_cell_length_b 8.988749
_cell_length_c 12.442266
_cell_angle_alpha 90.000000
_cell_angle_beta 90.000000
_cell_angle_gamma 90.000000
_cell_volume 869.521131
_symmetry_space_group_name_H-M "P 2 2 2"
_symmetry_group_IT_number 16
_symmetry_cell_setting 'orthorhombic'
loop_
_space_group_symop_operation_xyz
x,y,z
-x,-y,z
x,-y,-z
-x,y,-z
loop_
_atom_site_type_symbol
_atom_site_label
_atom_site_fract_x
_atom_site_fract_y
_atom_site_fract_z
Si Si1 0.683375 0.838558 0.779138
Si Si2 0.296533 0.664505 0.016420
Si Si3 0.164983 0.601070 0.633996
Si Si4 0.722848 0.166357 0.809992
Si Si5 0.672055 0.324464 0.433485
O O1 0.760097 0.721788 0.865628
O O2 0.480760 0.838124 0.796960
O O3 0.717463 0.796715 0.656022
O O4 0.780666 0.995432 0.796781
O O5 0.218216 0.500000 0.000000
O O6 0.500000 0.658860 0.000000
O O7 0.220330 0.776408 0.927233
O O8 0.189234 0.724735 0.724366
O O9 0.165638 0.679968 0.516476
O O10 0.330561 0.487714 0.625173
O O11 0.000000 0.500000 0.658716
O O12 0.500000 0.285718 0.500000
#
# Coordination Sequence:
#
# PCOD8155260 Si02
#       5
#     4   4   4   4   4
#     4  10  20  34  58  94 129 161 208 274 330 383
#     4   9  17  31  56  90 129 161 201 259 327 390
#     4  11  23  39  59  86 124 169 216 267 320 388
#     4  10  20  35  57  92 130 168 205 263 337 389
#     4  11  21  37  61  90 118 161 220 275 321 371
#
# _framework density 23.001163999999999
#
# number of rings (size 3 to 8) (size 9 to 14) (size 15 to 20)
#    0.000    1.800    2.000    4.200    0.000    4.800 
#    0.000    1.000    0.000   11.400    0.000    5.600 
#    0.000    0.000    0.000    0.000    0.000    0.000 
#
# Total GULP energy -247812.436846 kJ/mol
# GULP energy per Si atom -12390.621842 kJ/mol
# Density = 2.294881 g / cm^3
# Si number density = 23.001164 Si / 1000 Ang^3
#
#
#
# Elastic Constant Matrix: (Units=GPa)
#
#
# Indices 1 2 3 4 5 6 
#
# 1 51.7298 34.2613 30.0583 0.0000 0.0000 0.0000
# 2 34.2613 184.4803 109.2006 0.0000 0.0000 0.0000
# 3 30.0583 109.2006 181.0904 0.0000 0.0000 0.0000
# 4 0.0000 0.0000 0.0000 50.4869 0.0000 0.0000
# 5 0.0000 0.0000 0.0000 0.0000 8.6905 0.0000
# 6 0.0000 0.0000 0.0000 0.0000 0.0000 22.5689
#
#
#
# Elastic Compliance Matrix: (Units=1/GPa)
#
#
# Indices 1 2 3 4 5 6 
#
# 1 0.022449 -0.003053 -0.001885 0.000000 0.000000 0.000000
# 2 -0.003053 0.008845 -0.004827 0.000000 0.000000 0.000000
# 3 -0.001885 -0.004827 0.008746 0.000000 0.000000 0.000000
# 4 0.000000 0.000000 0.000000 0.019807 0.000000 0.000000
# 5 0.000000 0.000000 0.000000 0.000000 0.115068 0.000000
# 6 0.000000 0.000000 0.000000 0.000000 0.000000 0.044309
#
#
# Mechanical properties :
#
#
# Convention : Reuss Voigt Hill
#
# Bulk Modulus (GPa) = 48.75894 84.92675 66.84285
# Shear Modulus (GPa) = 20.35913 32.60127 26.48020
#
# Velocity S-wave (km/s) = 2.97835 3.76889 3.39670
# Velocity P-wave (km/s) = 5.75082 7.47946 6.67137
#
# Compressibility (1/GPa) = 0.02050906
#
# Stress axis : x y z
#
# Youngs Moduli (GPa) = 44.54588 113.06024 114.34324
#
# Poissons Ratio (x) = 0.34522 0.21553
# Poissons Ratio (y) = 0.13602 0.55191
# Poissons Ratio (z) = 0.08397 0.54572
#
# Static dielectric constant tensor:
#      x y z
#    x 3.827050 0.000000 0.000000 
#    y 0.000000 4.369040 0.000000 
#    z 0.000000 0.000000 4.378990 
# 
# 
# High freq. dielectric constant tensor:
#      x y z
#    x 1.871440 0.000000 0.000000 
#    y 0.000000 1.903030 0.000000 
#    z 0.000000 0.000000 1.920790 
# 
# From -- ./inp_files/6381.got.cif
#   From: 2010.03.12/outbox.cif.g09.slc.cpg/sg16_4_cif.got.tgz:6381.got - 2010.03.31 00:51:45.
