data_PCOD8155783
_publ_section_title
;
Structure prediction by ZEFSAII (Michael W. Deem and Ramdas Pophale) SiO2 
 PCOD8155783
Probable space group: P 21 21 2
;
_chemical_formula_sum "Si O2"
_cell_formula_units_Z 32
_cell_length_a 20.611203
_cell_length_b 9.429749
_cell_length_c 8.776121
_cell_angle_alpha 90.000000
_cell_angle_beta 90.000000
_cell_angle_gamma 90.000000
_cell_volume 1705.713458
_symmetry_space_group_name_H-M "P 21 21 2"
_symmetry_group_IT_number 18
_symmetry_cell_setting 'orthorhombic'
loop_
_space_group_symop_operation_xyz
x,y,z
-x,-y,z
1/2+x,1/2-y,-z
1/2-x,1/2+y,-z
loop_
_atom_site_type_symbol
_atom_site_label
_atom_site_fract_x
_atom_site_fract_y
_atom_site_fract_z
Si Si1 0.704699 0.086569 0.072468
Si Si2 0.576021 0.135195 0.928823
Si Si3 0.048981 0.665486 0.573226
Si Si4 0.048981 0.665486 0.926774
Si Si5 0.812080 0.261847 0.924758
Si Si6 0.312080 0.238154 0.424758
Si Si7 0.076021 0.364804 0.428823
Si Si8 0.204699 0.413431 0.572468
O O1 0.691010 0.100678 0.250000
O O2 0.704529 0.922073 0.023789
O O3 0.647916 0.175679 0.987361
O O4 0.773896 0.152439 0.030249
O O5 0.572111 0.159009 0.750000
O O6 0.518927 0.230362 0.009265
O O7 0.563672 0.973416 0.974651
O O8 0.041903 0.623236 0.750000
O O9 0.110779 0.769473 0.552486
O O10 0.063672 0.526584 0.474651
O O11 0.981073 0.730362 0.509265
O O12 0.110779 0.769473 0.947514
O O13 0.791604 0.237498 0.750000
O O14 0.273896 0.347561 0.530249
O O15 0.295471 0.077927 0.476211
O O16 0.147916 0.324321 0.487360
#
# Coordination Sequence:
#
# PCOD8155783 Si02
#       8
#     4   4   4   4   4   4   4   4
#     4  10  20  33  50  72  99 130 161 197 242 287
#     4  10  17  26  44  69  95 123 159 199 238 281
#     4   9  16  28  45  67  96 124 156 199 242 282
#     4   9  16  28  45  67  96 124 156 199 242 282
#     4   9  19  33  49  72  99 127 160 197 237 286
#     4   9  19  33  49  72  99 127 160 197 237 286
#     4  10  17  26  44  69  95 123 159 199 238 281
#     4  10  20  33  50  72  99 130 161 197 242 287
#
# _framework density 18.760477000000002
#
# number of rings (size 3 to 8) (size 9 to 14) (size 15 to 20)
#    0.000    2.500    0.000    6.750    0.000    6.000 
#    0.000    0.000    0.000    1.500    0.000   10.500 
#    0.000    0.000    0.000    0.000    0.000    0.000 
#
# Total GULP energy -396555.999976 kJ/mol
# GULP energy per Si atom -12392.374999 kJ/mol
# Density = 1.871778 g / cm^3
# Si number density = 18.760477 Si / 1000 Ang^3
#
#
#
# Elastic Constant Matrix: (Units=GPa)
#
#
# Indices 1 2 3 4 5 6 
#
# 1 34.0620 -8.3707 5.4357 0.0000 0.0000 0.0000
# 2 -8.3707 15.8263 6.4197 0.0000 0.0000 0.0000
# 3 5.4357 6.4197 70.5455 0.0000 0.0000 0.0000
# 4 0.0000 0.0000 0.0000 18.9335 0.0000 0.0000
# 5 0.0000 0.0000 0.0000 0.0000 36.2760 0.0000
# 6 0.0000 0.0000 0.0000 0.0000 0.0000 23.2311
#
#
#
# Elastic Compliance Matrix: (Units=1/GPa)
#
#
# Indices 1 2 3 4 5 6 
#
# 1 0.035104 0.020418 -0.004563 0.000000 0.000000 0.000000
# 2 0.020418 0.077483 -0.008624 0.000000 0.000000 0.000000
# 3 -0.004563 -0.008624 0.015312 0.000000 0.000000 0.000000
# 4 0.000000 0.000000 0.000000 0.052816 0.000000 0.000000
# 5 0.000000 0.000000 0.000000 0.000000 0.027566 0.000000
# 6 0.000000 0.000000 0.000000 0.000000 0.000000 0.043046
#
#
# Mechanical properties :
#
#
# Convention : Reuss Voigt Hill
#
# Bulk Modulus (GPa) = 7.02445 14.15592 10.59019
# Shear Modulus (GPa) = 17.58585 23.48474 20.53529
#
# Velocity S-wave (km/s) = 3.06500 3.54195 3.31207
# Velocity P-wave (km/s) = 4.03461 4.92840 4.50373
#
# Compressibility (1/GPa) = 0.14235989
#
# Stress axis : x y z
#
# Youngs Moduli (GPa) = 28.48676 12.90602 65.30983
#
# Poissons Ratio (x) = -0.26351 0.29800
# Poissons Ratio (y) = -0.58163 0.56325
# Poissons Ratio (z) = 0.12998 0.11130
#
# Static dielectric constant tensor:
#      x y z
#    x 4.360610 0.000000 0.000000 
#    y 0.000000 2.783710 0.000000 
#    z 0.000000 0.000000 3.381550 
# 
# 
# High freq. dielectric constant tensor:
#      x y z
#    x 1.758190 0.000000 0.000000 
#    y 0.000000 1.646480 0.000000 
#    z 0.000000 0.000000 1.737040 
# 
# From -- ./inp_files/4714.got.cif
#   From: 2010.03.12/outbox.cif.g09.slc.cpg/sg18_3_cif.got.tgz:4714.got - 2010.04.10 18:53:55.
