data_PCOD8155086
_publ_section_title
;
Structure prediction by ZEFSAII (Michael W. Deem and Ramdas Pophale) SiO2 
 PCOD8155086
Probable space group: C 2/C
;
_chemical_formula_sum "Si O2"
_cell_formula_units_Z 36
_cell_length_a 11.884456
_cell_length_b 13.214684
_cell_length_c 12.919385
_cell_angle_alpha 90.000000
_cell_angle_beta 47.353015
_cell_angle_gamma 90.000000
_cell_volume 1492.400108
_symmetry_space_group_name_H-M "C 2/C"
_symmetry_group_IT_number 15
_symmetry_cell_setting 'monoclinic'
loop_
_space_group_symop_operation_xyz
x,y,z
-x,y,1/2-z
-x,-y,-z
x,-y,1/2+z
1/2+x,1/2+y,z
1/2-x,1/2+y,1/2-z
1/2-x,1/2-y,-z
1/2+x,1/2-y,1/2+z
loop_
_atom_site_type_symbol
_atom_site_label
_atom_site_fract_x
_atom_site_fract_y
_atom_site_fract_z
Si Si1 0.745449 0.940004 0.245837
Si Si2 0.377804 0.359003 0.746132
Si Si3 0.651258 0.839745 0.515803
Si Si4 0.500000 0.008410 0.250000
Si Si5 0.591394 0.263152 0.455768
O O1 0.729600 0.889153 0.367341
O O2 0.864814 0.876522 0.104018
O O3 0.811194 0.052790 0.216309
O O4 0.582135 0.941932 0.287818
O O5 0.500000 0.405628 0.750000
O O6 0.463863 0.272733 0.624851
O O7 0.241818 0.301739 0.893546
O O8 0.750000 0.750000 0.500000
O O9 0.632804 0.925138 0.614247
O O10 0.483761 0.796570 0.593197
#
# Coordination Sequence:
#
# PCOD8155086 Si02
#       5
#     8   8   8   4   8
#     4  12  28  47  78 115 154 201 264 315 396 449
#     4  12  28  47  77 111 158 200 260 322 387 459
#     4  12  26  49  79 110 155 207 257 320 388 463
#     4  12  26  46  76 114 154 200 258 328 376 462
#     4  12  26  51  71 116 151 205 257 316 392 460
#
# _framework density 24.122216999999999
#
# number of rings (size 3 to 8) (size 9 to 14) (size 15 to 20)
#    0.000    0.000    4.444    4.667    7.778    0.000 
#    0.000    0.000    0.000    0.000    0.000    0.000 
#    0.000    0.000    0.000    0.000    0.000    0.000 
#
# Total GULP energy -223314.783747 kJ/mol
# GULP energy per Si atom -12406.376875 kJ/mol
# Density = 2.406731 g / cm^3
# Si number density = 24.122217 Si / 1000 Ang^3
#
#
#
# Elastic Constant Matrix: (Units=GPa)
#
#
# Indices 1 2 3 4 5 6 
#
# 1 126.4342 24.3613 27.6389 0.0000 -8.5215 0.0000
# 2 24.3613 81.7195 15.8526 0.0000 -11.3377 0.0000
# 3 27.6389 15.8526 84.9039 0.0000 -11.6724 0.0000
# 4 0.0000 0.0000 0.0000 48.9004 0.0000 -2.4389
# 5 -8.5215 -11.3377 -11.6724 0.0000 37.9651 0.0000
# 6 0.0000 0.0000 0.0000 -2.4389 0.0000 47.0638
#
#
#
# Elastic Compliance Matrix: (Units=1/GPa)
#
#
# Indices 1 2 3 4 5 6 
#
# 1 0.008883 -0.002093 -0.002415 0.000000 0.000626 0.000000
# 2 -0.002093 0.013573 -0.001420 0.000000 0.003147 0.000000
# 3 -0.002415 -0.001420 0.013257 0.000000 0.003110 0.000000
# 4 0.000000 0.000000 0.000000 0.020503 0.000000 0.001062
# 5 0.000626 0.003147 0.003110 0.000000 0.028376 0.000000
# 6 0.000000 0.000000 0.000000 0.001062 0.000000 0.021303
#
#
# Mechanical properties :
#
#
# Convention : Reuss Voigt Hill
#
# Bulk Modulus (GPa) = 41.91671 47.64038 44.77855
# Shear Modulus (GPa) = 39.77662 41.79953 40.78807
#
# Velocity S-wave (km/s) = 4.06515 4.16723 4.11651
# Velocity P-wave (km/s) = 6.28080 6.55339 6.41854
#
# Compressibility (1/GPa) = 0.02385683
#
# Stress axis : x y z
#
# Youngs Moduli (GPa) = 112.58040 73.67592 75.43294
#
# Poissons Ratio (x) = 0.15418 0.18215
# Poissons Ratio (y) = 0.23559 0.10714
# Poissons Ratio (z) = 0.27185 0.10465
#
# Static dielectric constant tensor:
#      x y z
#    x 4.509770 0.000000 -0.087440 
#    y 0.000000 4.288140 0.000000 
#    z -0.087440 0.000000 4.209830 
# 
# 
# High freq. dielectric constant tensor:
#      x y z
#    x 1.964880 0.000000 -0.005150 
#    y 0.000000 1.967840 0.000000 
#    z -0.005150 0.000000 1.958120 
# 
# From -- ./inp_files/55565.got.cif
#   From: 2010.06.25/outbox.cif.g09.slc.cpg/sg15_28_cif.got.tgz:55565.got - 2010.06.28 07:06:18.
