data_PCOD8155216
_publ_section_title
;
Structure prediction by ZEFSAII (Michael W. Deem and Ramdas Pophale) SiO2 
 PCOD8155216
Probable space group: P 2 2 2
;
_chemical_formula_sum "Si O2"
_cell_formula_units_Z 32
_cell_length_a 36.138620
_cell_length_b 5.198255
_cell_length_c 8.035304
_cell_angle_alpha 90.000000
_cell_angle_beta 90.000000
_cell_angle_gamma 90.000000
_cell_volume 1509.494227
_symmetry_space_group_name_H-M "P 2 2 2"
_symmetry_group_IT_number 16
_symmetry_cell_setting 'orthorhombic'
loop_
_space_group_symop_operation_xyz
x,y,z
-x,-y,z
x,-y,-z
-x,y,-z
loop_
_atom_site_type_symbol
_atom_site_label
_atom_site_fract_x
_atom_site_fract_y
_atom_site_fract_z
Si Si1 0.915359 0.999600 0.302472
Si Si2 0.516044 0.745952 0.311966
Si Si3 0.041576 0.498511 0.302000
Si Si4 0.831919 0.992152 0.194154
Si Si5 0.208111 0.489181 0.801144
Si Si6 0.402597 0.756376 0.605877
Si Si7 0.291471 0.482481 0.802656
Si Si8 0.666517 0.025672 0.803030
O O1 0.938628 0.757577 0.236367
O O2 0.912226 0.000000 0.500000
O O3 0.935698 0.255402 0.236353
O O4 0.875162 0.974924 0.225567
O O5 0.500000 0.500000 0.215149
O O6 0.500000 0.746068 0.500000
O O7 0.560029 0.700403 0.294449
O O8 0.500000 0.000000 0.221530
O O9 0.040166 0.500000 0.500000
O O10 0.000000 0.500000 0.229550
O O11 0.815790 0.253638 0.272602
O O12 0.810212 0.748764 0.272506
O O13 0.823861 0.000000 0.000000
O O14 0.249861 0.444772 0.736618
O O15 0.207217 0.500000 0.000000
O O16 0.390361 0.500000 0.500000
O O17 0.414574 0.000000 0.500000
O O18 0.371453 0.870685 0.727231
O O19 0.318422 0.251508 0.736823
O O20 0.304253 0.761678 0.740840
O O21 0.292337 0.500000 0.000000
O O22 0.661620 0.000000 0.000000
#
# Coordination Sequence:
#
# PCOD8155216 Si02
#       8
#     4   4   4   4   4   4   4   4
#     4  10  19  31  49  71  98 126 157 202 246 299
#     4  10  16  30  49  76 103 128 174 221 256 293
#     4   9  17  30  49  71  92 123 167 207 240 280
#     4  10  19  31  49  75 101 125 159 207 254 292
#     4   9  17  30  52  76  95 125 172 212 240 290
#     4  12  21  33  55  82 107 139 179 226 265 315
#     4   9  17  33  54  75 101 136 176 214 254 309
#     4  10  21  35  53  79 109 139 171 217 274 321
#
# _framework density 21.199152000000002
#
# number of rings (size 3 to 8) (size 9 to 14) (size 15 to 20)
#    0.000    2.125    2.500    2.625    0.000    4.500 
#    0.000    0.000    0.000   10.125    0.000    1.750 
#    0.000    0.000    0.000    0.000    0.000    0.000 
#
# Total GULP energy -396516.689399 kJ/mol
# GULP energy per Si atom -12391.146544 kJ/mol
# Density = 2.115090 g / cm^3
# Si number density = 21.199152 Si / 1000 Ang^3
#
#
#
# Elastic Constant Matrix: (Units=GPa)
#
#
# Indices 1 2 3 4 5 6 
#
# 1 183.1553 87.1370 11.7568 0.0000 0.0000 0.0000
# 2 87.1370 218.8076 16.9761 0.0000 0.0000 0.0000
# 3 11.7568 16.9761 10.0286 0.0000 0.0000 0.0000
# 4 0.0000 0.0000 0.0000 8.3232 0.0000 0.0000
# 5 0.0000 0.0000 0.0000 0.0000 17.0004 0.0000
# 6 0.0000 0.0000 0.0000 0.0000 0.0000 47.9605
#
#
#
# Elastic Compliance Matrix: (Units=1/GPa)
#
#
# Indices 1 2 3 4 5 6 
#
# 1 0.006869 -0.002430 -0.003939 0.000000 0.000000 0.000000
# 2 -0.002430 0.006121 -0.007512 0.000000 0.000000 0.000000
# 3 -0.003939 -0.007512 0.117050 0.000000 0.000000 0.000000
# 4 0.000000 0.000000 0.000000 0.120147 0.000000 0.000000
# 5 0.000000 0.000000 0.000000 0.000000 0.058822 0.000000
# 6 0.000000 0.000000 0.000000 0.000000 0.000000 0.020851
#
#
# Mechanical properties :
#
#
# Convention : Reuss Voigt Hill
#
# Bulk Modulus (GPa) = 9.77745 71.52571 40.65158
# Shear Modulus (GPa) = 12.76442 34.39824 23.58133
#
# Velocity S-wave (km/s) = 2.45647 4.03255 3.33884
# Velocity P-wave (km/s) = 3.55920 7.44950 5.83794
#
# Compressibility (1/GPa) = 0.10227611
#
# Stress axis : x y z
#
# Youngs Moduli (GPa) = 145.58874 163.38058 8.54336
#
# Poissons Ratio (x) = 0.39697 0.03366
# Poissons Ratio (y) = 0.35374 0.06418
# Poissons Ratio (z) = 0.57353 1.22740
#
# Static dielectric constant tensor:
#      x y z
#    x 3.904380 0.000000 0.000000 
#    y 0.000000 5.286610 0.000000 
#    z 0.000000 0.000000 3.193980 
# 
# 
# High freq. dielectric constant tensor:
#      x y z
#    x 1.845860 0.000000 0.000000 
#    y 0.000000 1.861470 0.000000 
#    z 0.000000 0.000000 1.761880 
# 
# From -- ./inp_files/5660.got.cif
#   From: 2010.03.12/outbox.cif.g09.slc.cpg/sg16_3_cif.got.tgz:5660.got - 2010.03.31 00:51:45.
