data_PCOD8155438
_publ_section_title
;
Structure prediction by ZEFSAII (Michael W. Deem and Ramdas Pophale) SiO2 
 PCOD8155438
Probable space group: P 2 2 21
;
_chemical_formula_sum "Si O2"
_cell_formula_units_Z 32
_cell_length_a 12.782689
_cell_length_b 5.051672
_cell_length_c 26.766340
_cell_angle_alpha 90.000000
_cell_angle_beta 90.000000
_cell_angle_gamma 90.000000
_cell_volume 1728.408357
_symmetry_space_group_name_H-M "P 2 2 21"
_symmetry_group_IT_number 17
_symmetry_cell_setting 'orthorhombic'
loop_
_space_group_symop_operation_xyz
x,y,z
-x,-y,1/2+z
x,-y,-z
-x,y,1/2-z
loop_
_atom_site_type_symbol
_atom_site_label
_atom_site_fract_x
_atom_site_fract_y
_atom_site_fract_z
Si Si1 0.036497 0.060669 0.686275
Si Si2 0.264277 0.543369 0.184990
Si Si3 0.499417 0.469568 0.809667
Si Si4 0.939504 0.572968 0.643973
Si Si5 0.626348 0.027576 0.165624
Si Si6 0.905512 0.560385 0.944156
Si Si7 0.784274 0.956927 0.744900
Si Si8 0.806939 0.047310 0.902460
O O1 0.997178 0.358139 0.679002
O O2 0.093690 0.025652 0.740507
O O3 0.124627 0.982376 0.646098
O O4 0.944425 0.849874 0.674574
O O5 0.382795 0.482374 0.169077
O O6 0.252583 0.847677 0.201201
O O7 0.184094 0.494099 0.138840
O O8 0.229268 0.349497 0.230237
O O9 0.500000 0.495971 0.750000
O O10 0.533151 0.180205 0.827393
O O11 0.577676 0.680686 0.833728
O O12 0.989067 0.579944 0.588920
O O13 0.708930 0.980021 0.209226
O O14 0.685060 0.983354 0.112637
O O15 0.827330 0.338364 0.923361
O O16 0.839899 0.832155 0.944070
O O17 0.943211 0.500000 0.000000
#
# Coordination Sequence:
#
# PCOD8155438 Si02
#       8
#     4   4   4   4   4   4   4   4
#     4   9  19  33  49  66 102 136 169 202 252 302
#     4  12  23  31  47  69 101 136 187 216 241 284
#     4  12  21  34  50  71  99 149 192 225 247 281
#     4  10  21  35  46  73 103 129 163 211 251 309
#     4  11  20  35  52  71 106 136 178 225 260 290
#     4  10  19  36  59  81 103 126 157 202 265 335
#     4  11  20  32  48  70  94 142 178 213 250 287
#     4   9  19  33  54  82 103 129 163 209 262 318
#
# _framework density 18.514140999999999
#
# number of rings (size 3 to 8) (size 9 to 14) (size 15 to 20)
#    0.000    1.500    2.500    3.750    0.000    7.000 
#    0.000    0.000    0.000    0.000    0.000    5.250 
#    0.000    0.000    0.000    0.000    0.000    0.000 
#
# Total GULP energy -396881.108670 kJ/mol
# GULP energy per Si atom -12402.534646 kJ/mol
# Density = 1.847200 g / cm^3
# Si number density = 18.514141 Si / 1000 Ang^3
#
#
#
# Elastic Constant Matrix: (Units=GPa)
#
#
# Indices 1 2 3 4 5 6 
#
# 1 105.7601 4.4515 20.5286 0.0000 0.0000 0.0000
# 2 4.4515 79.0100 5.6674 0.0000 0.0000 0.0000
# 3 20.5286 5.6674 58.9969 0.0000 0.0000 0.0000
# 4 0.0000 0.0000 0.0000 19.8112 0.0000 0.0000
# 5 0.0000 0.0000 0.0000 0.0000 15.6609 0.0000
# 6 0.0000 0.0000 0.0000 0.0000 0.0000 30.7555
#
#
#
# Elastic Compliance Matrix: (Units=1/GPa)
#
#
# Indices 1 2 3 4 5 6 
#
# 1 0.010148 -0.000321 -0.003500 0.000000 0.000000 0.000000
# 2 -0.000321 0.012755 -0.001114 0.000000 0.000000 0.000000
# 3 -0.003500 -0.001114 0.018275 0.000000 0.000000 0.000000
# 4 0.000000 0.000000 0.000000 0.050476 0.000000 0.000000
# 5 0.000000 0.000000 0.000000 0.000000 0.063853 0.000000
# 6 0.000000 0.000000 0.000000 0.000000 0.000000 0.032514
#
#
# Mechanical properties :
#
#
# Convention : Reuss Voigt Hill
#
# Bulk Modulus (GPa) = 31.94026 33.89576 32.91801
# Shear Modulus (GPa) = 24.00065 27.45350 25.72707
#
# Velocity S-wave (km/s) = 3.60438 3.85494 3.73177
# Velocity P-wave (km/s) = 5.88314 6.17753 6.03213
#
# Compressibility (1/GPa) = 0.03130845
#
# Stress axis : x y z
#
# Youngs Moduli (GPa) = 98.53861 78.40321 54.71947
#
# Poissons Ratio (x) = 0.02514 0.19154
# Poissons Ratio (y) = 0.03160 0.06094
# Poissons Ratio (z) = 0.34493 0.08731
#
# Static dielectric constant tensor:
#      x y z
#    x 3.616380 0.000000 0.000000 
#    y 0.000000 3.488060 0.000000 
#    z 0.000000 0.000000 3.050850 
# 
# 
# High freq. dielectric constant tensor:
#      x y z
#    x 1.722880 0.000000 0.000000 
#    y 0.000000 1.739960 0.000000 
#    z 0.000000 0.000000 1.664170 
# 
# From -- ./inp_files/11024.got.cif
#   From: 2010.03.12/outbox.cif.g09.slc.cpg/sg17_6_cif.got.tgz:11024.got - 2010.04.10 18:46:23.
