data_PCOD8155550
_publ_section_title
;
Structure prediction by ZEFSAII (Michael W. Deem and Ramdas Pophale) SiO2 
 PCOD8155550
Probable space group: P 2 2 21
;
_chemical_formula_sum "Si O2"
_cell_formula_units_Z 20
_cell_length_a 8.472374
_cell_length_b 9.437292
_cell_length_c 11.647412
_cell_angle_alpha 90.000000
_cell_angle_beta 90.000000
_cell_angle_gamma 90.000000
_cell_volume 931.283588
_symmetry_space_group_name_H-M "P 2 2 21"
_symmetry_group_IT_number 17
_symmetry_cell_setting 'orthorhombic'
loop_
_space_group_symop_operation_xyz
x,y,z
-x,-y,1/2+z
x,-y,-z
-x,y,1/2-z
loop_
_atom_site_type_symbol
_atom_site_label
_atom_site_fract_x
_atom_site_fract_y
_atom_site_fract_z
Si Si1 0.857592 0.374508 0.660128
Si Si2 0.316835 0.153803 0.278148
Si Si3 0.392754 0.338460 0.482631
Si Si4 0.756347 0.334086 0.420640
Si Si5 0.330669 0.843696 0.298231
O O1 0.887639 0.335548 0.523810
O O2 0.766542 0.524092 0.657452
O O3 0.754185 0.243935 0.700187
O O4 0.000000 0.387414 0.750000
O O5 0.500000 0.146511 0.250000
O O6 0.298555 0.274154 0.374849
O O7 0.218396 0.201642 0.164762
O O8 0.251794 0.999478 0.317626
O O9 0.337134 0.500000 0.500000
O O10 0.581508 0.328846 0.474784
O O11 0.330507 0.245914 0.587175
O O12 0.500000 0.877963 0.250000
#
# Coordination Sequence:
#
# PCOD8155550 Si02
#       5
#     4   4   4   4   4
#     4  11  23  41  64  89 128 175 228 266 320 391
#     4   9  21  34  61  97 127 159 209 266 338 394
#     4  11  18  34  64  97 127 161 207 270 330 394
#     4  10  20  42  61  88 127 169 215 273 330 382
#     4  11  20  37  63  97 129 162 212 272 330 397
#
# _framework density 21.475735
#
# number of rings (size 3 to 8) (size 9 to 14) (size 15 to 20)
#    0.000    1.600    4.000    1.800    0.000    2.400 
#   10.800    1.000    4.400    0.000    0.000    0.000 
#    0.000    0.000    0.000    0.000    0.000    0.000 
#
# Total GULP energy -247768.112091 kJ/mol
# GULP energy per Si atom -12388.405605 kJ/mol
# Density = 2.142686 g / cm^3
# Si number density = 21.475735 Si / 1000 Ang^3
#
#
#
# Elastic Constant Matrix: (Units=GPa)
#
#
# Indices 1 2 3 4 5 6 
#
# 1 23.4156 26.8037 27.4395 0.0000 0.0000 0.0000
# 2 26.8037 207.9631 101.4757 0.0000 0.0000 0.0000
# 3 27.4395 101.4757 158.2749 0.0000 0.0000 0.0000
# 4 0.0000 0.0000 0.0000 65.4862 0.0000 0.0000
# 5 0.0000 0.0000 0.0000 0.0000 37.4029 0.0000
# 6 0.0000 0.0000 0.0000 0.0000 0.0000 7.4218
#
#
#
# Elastic Compliance Matrix: (Units=1/GPa)
#
#
# Indices 1 2 3 4 5 6 
#
# 1 0.055356 -0.003568 -0.007309 0.000000 0.000000 0.000000
# 2 -0.003568 0.007228 -0.004015 0.000000 0.000000 0.000000
# 3 -0.007309 -0.004015 0.010160 0.000000 0.000000 0.000000
# 4 0.000000 0.000000 0.000000 0.015270 0.000000 0.000000
# 5 0.000000 0.000000 0.000000 0.000000 0.026736 0.000000
# 6 0.000000 0.000000 0.000000 0.000000 0.000000 0.134739
#
#
# Mechanical properties :
#
#
# Convention : Reuss Voigt Hill
#
# Bulk Modulus (GPa) = 23.27845 77.89904 50.58874
# Shear Modulus (GPa) = 17.03036 37.65784 27.34410
#
# Velocity S-wave (km/s) = 2.81909 4.19203 3.57214
# Velocity P-wave (km/s) = 4.63242 7.73192 6.37346
#
# Compressibility (1/GPa) = 0.04295819
#
# Stress axis : x y z
#
# Youngs Moduli (GPa) = 18.06482 138.35604 98.42826
#
# Poissons Ratio (x) = 0.49367 0.71943
# Poissons Ratio (y) = 0.06446 0.39523
# Poissons Ratio (z) = 0.13204 0.55555
#
# Static dielectric constant tensor:
#      x y z
#    x 3.206250 0.000000 0.000000 
#    y 0.000000 4.272360 0.000000 
#    z 0.000000 0.000000 4.169780 
# 
# 
# High freq. dielectric constant tensor:
#      x y z
#    x 1.782510 0.000000 0.000000 
#    y 0.000000 1.861320 0.000000 
#    z 0.000000 0.000000 1.860540 
# 
# From -- ./inp_files/6409.got.cif
#   From: 2010.03.12/outbox.cif.g09.slc.cpg/sg17_4_cif.got.tgz:6409.got - 2010.04.10 18:46:23.
