data_PCOD8155369
_publ_section_title
;
Structure prediction by ZEFSAII (Michael W. Deem and Ramdas Pophale) SiO2 
 PCOD8155369
Probable space group: P 2 2 21
;
_chemical_formula_sum "Si O2"
_cell_formula_units_Z 32
_cell_length_a 5.073351
_cell_length_b 11.080544
_cell_length_c 29.582919
_cell_angle_alpha 90.000000
_cell_angle_beta 90.000000
_cell_angle_gamma 90.000000
_cell_volume 1663.018257
_symmetry_space_group_name_H-M "P 2 2 21"
_symmetry_group_IT_number 17
_symmetry_cell_setting 'orthorhombic'
loop_
_space_group_symop_operation_xyz
x,y,z
-x,-y,1/2+z
x,-y,-z
-x,y,1/2-z
loop_
_atom_site_type_symbol
_atom_site_label
_atom_site_fract_x
_atom_site_fract_y
_atom_site_fract_z
Si Si1 0.546825 0.241664 0.619165
Si Si2 0.512446 0.749729 0.015900
Si Si3 0.535386 0.783216 0.583085
Si Si4 0.023808 0.612138 0.024421
Si Si5 0.047610 0.874841 0.698119
Si Si6 0.545842 0.017963 0.343087
Si Si7 0.037026 0.329976 0.373467
Si Si8 0.971776 0.601827 0.124945
O O1 0.583822 0.203182 0.565658
O O2 0.802875 0.305304 0.641955
O O3 0.310290 0.334602 0.627416
O O4 0.491629 0.121178 0.646768
O O5 0.314061 0.639349 0.004729
O O6 0.821373 0.722709 0.020001
O O7 0.478229 0.828129 0.969797
O O8 0.522513 0.907284 0.610611
O O9 0.293316 0.695447 0.595925
O O10 0.793415 0.705294 0.594489
O O11 0.060368 0.570005 0.074948
O O12 0.890495 0.500000 0.000000
O O13 0.331297 0.936580 0.692784
O O14 0.034008 0.749025 0.671798
O O15 0.000000 0.844638 0.750000
O O16 0.832382 0.967659 0.678768
O O17 0.032663 0.467428 0.353551
#
# Coordination Sequence:
#
# PCOD8155369 Si02
#       8
#     4   4   4   4   4   4   4   4
#     4  10  21  34  50  76 109 149 184 207 247 308
#     4  10  19  29  44  69 102 143 183 216 250 289
#     4  10  19  32  51  76 107 141 182 227 263 293
#     4  10  18  27  42  65  98 140 184 220 245 285
#     4  10  21  39  64  85 100 125 165 220 275 319
#     4  10  21  37  57  81 108 137 174 218 260 312
#     4  10  20  34  54  81 106 133 172 219 272 316
#     4  10  19  32  50  73 108 146 174 209 257 306
#
# _framework density 19.242124
#
# number of rings (size 3 to 8) (size 9 to 14) (size 15 to 20)
#    0.000    2.000    0.000    4.500    0.000    2.500 
#    0.000    0.000    0.000   13.500    0.000    0.000 
#    0.000    0.000    0.000    0.000    0.000    0.000 
#
# Total GULP energy -396500.547779 kJ/mol
# GULP energy per Si atom -12390.642118 kJ/mol
# Density = 1.919833 g / cm^3
# Si number density = 19.242124 Si / 1000 Ang^3
#
#
#
# Elastic Constant Matrix: (Units=GPa)
#
#
# Indices 1 2 3 4 5 6 
#
# 1 108.0508 22.1639 7.8386 0.0000 0.0000 0.0000
# 2 22.1639 97.6892 25.6813 0.0000 0.0000 0.0000
# 3 7.8386 25.6813 73.1201 0.0000 0.0000 0.0000
# 4 0.0000 0.0000 0.0000 12.1197 0.0000 0.0000
# 5 0.0000 0.0000 0.0000 0.0000 15.1588 0.0000
# 6 0.0000 0.0000 0.0000 0.0000 0.0000 20.9500
#
#
#
# Elastic Compliance Matrix: (Units=1/GPa)
#
#
# Indices 1 2 3 4 5 6 
#
# 1 0.009712 -0.002126 -0.000294 0.000000 0.000000 0.000000
# 2 -0.002126 0.011743 -0.003897 0.000000 0.000000 0.000000
# 3 -0.000294 -0.003897 0.015076 0.000000 0.000000 0.000000
# 4 0.000000 0.000000 0.000000 0.082510 0.000000 0.000000
# 5 0.000000 0.000000 0.000000 0.000000 0.065968 0.000000
# 6 0.000000 0.000000 0.000000 0.000000 0.000000 0.047733
#
#
# Mechanical properties :
#
#
# Convention : Reuss Voigt Hill
#
# Bulk Modulus (GPa) = 41.84519 43.35865 42.60192
# Shear Modulus (GPa) = 19.73604 24.52411 22.13007
#
# Velocity S-wave (km/s) = 3.20608 3.57389 3.39497
# Velocity P-wave (km/s) = 5.95812 6.29383 6.12827
#
# Compressibility (1/GPa) = 0.02389761
#
# Stress axis : x y z
#
# Youngs Moduli (GPa) = 102.96124 85.15499 66.32952
#
# Poissons Ratio (x) = 0.18105 0.01953
# Poissons Ratio (y) = 0.21891 0.25846
# Poissons Ratio (z) = 0.03032 0.33181
#
# Static dielectric constant tensor:
#      x y z
#    x 3.764010 0.000000 0.000000 
#    y 0.000000 3.455510 0.000000 
#    z 0.000000 0.000000 3.362310 
# 
# 
# High freq. dielectric constant tensor:
#      x y z
#    x 1.770960 0.000000 0.000000 
#    y 0.000000 1.728320 0.000000 
#    z 0.000000 0.000000 1.721360 
# 
# From -- ./inp_files/11192.got.cif
#   From: 2010.03.12/outbox.cif.g09.slc.cpg/sg17_6_cif.got.tgz:11192.got - 2010.04.10 18:46:23.
