data_PCOD8155044
_publ_section_title
;
Structure prediction by ZEFSAII (Michael W. Deem and Ramdas Pophale) SiO2 
 PCOD8155044
Probable space group: C 2/C
;
_chemical_formula_sum "Si O2"
_cell_formula_units_Z 36
_cell_length_a 7.909777
_cell_length_b 22.026656
_cell_length_c 16.633597
_cell_angle_alpha 90.000000
_cell_angle_beta 35.014178
_cell_angle_gamma 90.000000
_cell_volume 1662.814199
_symmetry_space_group_name_H-M "C 2/C"
_symmetry_group_IT_number 15
_symmetry_cell_setting 'monoclinic'
loop_
_space_group_symop_operation_xyz
x,y,z
-x,y,1/2-z
-x,-y,-z
x,-y,1/2+z
1/2+x,1/2+y,z
1/2-x,1/2+y,1/2-z
1/2-x,1/2-y,-z
1/2+x,1/2-y,1/2+z
loop_
_atom_site_type_symbol
_atom_site_label
_atom_site_fract_x
_atom_site_fract_y
_atom_site_fract_z
Si Si1 0.918231 0.633289 0.432792
Si Si2 0.000000 0.291404 0.750000
Si Si3 0.265641 0.109921 0.771761
Si Si4 0.008679 0.294611 0.055354
Si Si5 0.814007 0.511835 0.150701
O O1 0.560589 0.630791 0.573242
O O2 0.071472 0.660606 0.454596
O O3 0.066237 0.669647 0.302689
O O4 0.014597 0.565255 0.371387
O O5 0.733815 0.250478 0.883425
O O6 0.500000 0.097687 0.750000
O O7 0.389512 0.165167 0.673335
O O8 0.256429 0.048449 0.724450
O O9 0.250000 0.250000 0.000000
O O10 0.500000 0.539113 0.250000
O O11 0.000000 0.500000 0.000000
#
# Coordination Sequence:
#
# PCOD8155044 Si02
#       5
#     8   4   8   8   8
#     4  12  27  50  72 108 150 189 250 303 368 444
#     4  12  28  44  74 102 146 194 240 298 364 442
#     4  12  26  47  76 105 149 191 242 311 373 430
#     4  12  26  46  73 104 145 193 242 300 369 440
#     4  12  25  48  76 105 146 197 245 303 372 433
#
# _framework density 21.650043
#
# number of rings (size 3 to 8) (size 9 to 14) (size 15 to 20)
#    0.000    0.000    6.667    2.000    7.778    2.667 
#    0.000    0.000    0.000    0.000    0.000    0.000 
#    0.000    0.000    0.000    0.000    0.000    0.000 
#
# Total GULP energy -223016.892982 kJ/mol
# GULP energy per Si atom -12389.827388 kJ/mol
# Density = 2.160077 g / cm^3
# Si number density = 21.650043 Si / 1000 Ang^3
#
#
#
# Elastic Constant Matrix: (Units=GPa)
#
#
# Indices 1 2 3 4 5 6 
#
# 1 93.2168 19.7068 25.1454 -0.0002 -9.4898 -0.0014
# 2 19.7068 126.9386 30.0245 0.0011 -2.4610 -0.0018
# 3 25.1454 30.0245 85.9198 -0.0181 1.5234 -0.0018
# 4 -0.0002 0.0011 -0.0181 30.9353 0.0026 -8.2323
# 5 -9.4898 -2.4610 1.5234 0.0026 36.4278 0.0003
# 6 -0.0014 -0.0018 -0.0018 -8.2323 0.0003 30.8689
#
#
#
# Elastic Compliance Matrix: (Units=1/GPa)
#
#
# Indices 1 2 3 4 5 6 
#
# 1 0.012155 -0.001057 -0.003245 -0.000002 0.003231 0.000000
# 2 -0.001057 0.008698 -0.002738 -0.000002 0.000427 0.000000
# 3 -0.003245 -0.002738 0.013574 0.000009 -0.001598 0.000003
# 4 -0.000002 -0.000002 0.000009 0.034795 -0.000004 0.009279
# 5 0.003231 0.000427 -0.001598 -0.000004 0.028389 -0.000001
# 6 0.000000 0.000000 0.000003 0.009279 -0.000001 0.034870
#
#
# Mechanical properties :
#
#
# Convention : Reuss Voigt Hill
#
# Bulk Modulus (GPa) = 49.14746 50.64762 49.89754
# Shear Modulus (GPa) = 32.60675 35.05963 33.83319
#
# Velocity S-wave (km/s) = 3.88504 4.02852 3.95743
# Velocity P-wave (km/s) = 6.54789 6.71440 6.63167
#
# Compressibility (1/GPa) = 0.02034693
#
# Stress axis : x y z
#
# Youngs Moduli (GPa) = 82.26741 114.97292 73.67255
#
# Poissons Ratio (x) = 0.12151 0.23910
# Poissons Ratio (y) = 0.08694 0.20169
# Poissons Ratio (z) = 0.26699 0.31476
#
# Static dielectric constant tensor:
#      x y z
#    x 4.193180 0.000070 -0.350830 
#    y 0.000070 4.072750 -0.000980 
#    z -0.350830 -0.000980 5.823640 
# 
# 
# High freq. dielectric constant tensor:
#      x y z
#    x 1.849710 0.000000 -0.002690 
#    y 0.000000 1.881130 0.000000 
#    z -0.002690 0.000000 1.856050 
# 
# From -- ./inp_files/22507.got.cif
#   From: 2010.06.25/outbox.cif.g09.slc.cpg/sg15_12_cif.got.tgz:22507.got - 2010.06.28 07:06:18.
