data_PCOD8155711
_publ_section_title
;
Structure prediction by ZEFSAII (Michael W. Deem and Ramdas Pophale) SiO2 
 PCOD8155711
Probable space group: P 2 2 21
;
_chemical_formula_sum "Si O2"
_cell_formula_units_Z 30
_cell_length_a 8.650848
_cell_length_b 12.163250
_cell_length_c 14.274712
_cell_angle_alpha 90.000000
_cell_angle_beta 90.000000
_cell_angle_gamma 90.000000
_cell_volume 1502.019840
_symmetry_space_group_name_H-M "P 2 2 21"
_symmetry_group_IT_number 17
_symmetry_cell_setting 'orthorhombic'
loop_
_space_group_symop_operation_xyz
x,y,z
-x,-y,1/2+z
x,-y,-z
-x,y,1/2-z
loop_
_atom_site_type_symbol
_atom_site_label
_atom_site_fract_x
_atom_site_fract_y
_atom_site_fract_z
Si Si1 0.468464 0.500000 0.500000
Si Si2 0.352714 0.706682 0.063827
Si Si3 0.817734 0.207900 0.250310
Si Si4 0.399158 0.938284 0.656452
Si Si5 0.701781 0.106764 0.439015
Si Si6 0.820669 0.345640 0.750593
Si Si7 0.660228 0.562521 0.801628
Si Si8 0.610421 0.818363 0.161023
O O1 0.591706 0.410371 0.530611
O O2 0.364541 0.449950 0.414612
O O3 0.244722 0.692229 0.152154
O O4 0.505671 0.779754 0.076018
O O5 0.255751 0.778467 0.989907
O O6 0.751496 0.140621 0.160705
O O7 0.783748 0.127481 0.338912
O O8 0.725506 0.323183 0.239997
O O9 0.000000 0.230892 0.250000
O O10 0.500000 0.928283 0.750000
O O11 0.516466 0.906919 0.573339
O O12 0.328578 0.059551 0.642227
O O13 0.762047 0.000000 0.500000
O O14 0.783432 0.471373 0.772504
O O15 0.751961 0.266010 0.830330
O O16 0.000000 0.327501 0.750000
O O17 0.500000 0.536175 0.750000
O O18 0.500000 0.814173 0.250000
#
# Coordination Sequence:
#
# PCOD8155711 Si02
#       8
#     2   4   4   4   4   4   4   4
#     4  12  22  38  74  98 122 164 234 280 318 386
#     4  11  21  39  64  93 123 162 222 277 317 383
#     4  11  25  43  64  94 140 179 208 268 358 409
#     4   9  18  37  63  87 117 164 216 263 312 370
#     4  11  22  41  68  99 124 169 236 283 315 391
#     4  11  23  40  60  92 134 172 199 257 346 403
#     4  12  22  45  69  95 127 172 227 278 326 394
#     4   9  17  35  60  85 117 158 208 257 305 373
#
# _framework density 19.973105
#
# number of rings (size 3 to 8) (size 9 to 14) (size 15 to 20)
#    0.000    1.333    4.000    3.600    1.867    0.533 
#    2.400    0.667    0.000    0.000    0.000    0.000 
#    0.000    0.000    0.000    0.000    0.000    0.000 
#
# Total GULP energy -371653.843425 kJ/mol
# GULP energy per Si atom -12388.461448 kJ/mol
# Density = 1.992765 g / cm^3
# Si number density = 19.973105 Si / 1000 Ang^3
#
#
#
# Elastic Constant Matrix: (Units=GPa)
#
#
# Indices 1 2 3 4 5 6 
#
# 1 89.8458 26.6444 19.9194 0.0000 0.0000 0.0000
# 2 26.6444 124.1365 18.5211 0.0000 0.0000 0.0000
# 3 19.9194 18.5211 73.8507 0.0000 0.0000 0.0000
# 4 0.0000 0.0000 0.0000 66.0771 0.0000 0.0000
# 5 0.0000 0.0000 0.0000 0.0000 8.5744 0.0000
# 6 0.0000 0.0000 0.0000 0.0000 0.0000 34.1912
#
#
#
# Elastic Compliance Matrix: (Units=1/GPa)
#
#
# Indices 1 2 3 4 5 6 
#
# 1 0.012415 -0.002249 -0.002784 0.000000 0.000000 0.000000
# 2 -0.002249 0.008776 -0.001594 0.000000 0.000000 0.000000
# 3 -0.002784 -0.001594 0.014692 0.000000 0.000000 0.000000
# 4 0.000000 0.000000 0.000000 0.015134 0.000000 0.000000
# 5 0.000000 0.000000 0.000000 0.000000 0.116627 0.000000
# 6 0.000000 0.000000 0.000000 0.000000 0.000000 0.029247
#
#
# Mechanical properties :
#
#
# Convention : Reuss Voigt Hill
#
# Bulk Modulus (GPa) = 44.19581 46.44475 45.32028
# Shear Modulus (GPa) = 22.96860 36.61841 29.79351
#
# Velocity S-wave (km/s) = 3.39481 4.28645 3.86642
# Velocity P-wave (km/s) = 6.12715 6.91392 6.53239
#
# Compressibility (1/GPa) = 0.02262658
#
# Stress axis : x y z
#
# Youngs Moduli (GPa) = 80.55089 113.94345 68.06556
#
# Poissons Ratio (x) = 0.25628 0.18952
# Poissons Ratio (y) = 0.18117 0.10852
# Poissons Ratio (z) = 0.22429 0.18167
#
# Static dielectric constant tensor:
#      x y z
#    x 3.366690 0.000000 0.000000 
#    y 0.000000 4.130280 0.000000 
#    z 0.000000 0.000000 3.871020 
# 
# 
# High freq. dielectric constant tensor:
#      x y z
#    x 1.743750 0.000000 0.000000 
#    y 0.000000 1.802950 0.000000 
#    z 0.000000 0.000000 1.779730 
# 
# From -- ./inp_files/8254.got.cif
#   From: 2010.03.12/outbox.cif.g09.slc.cpg/sg17_5_cif.got.tgz:8254.got - 2010.04.10 18:46:23.
