data_PCOD8155877
_publ_section_title
;
Structure prediction by ZEFSAII (Michael W. Deem and Ramdas Pophale) SiO2 
 PCOD8155877
Probable space group: P 21 21 2
;
_chemical_formula_sum "Si O2"
_cell_formula_units_Z 32
_cell_length_a 14.578118
_cell_length_b 13.300469
_cell_length_c 8.059951
_cell_angle_alpha 90.000000
_cell_angle_beta 90.000000
_cell_angle_gamma 90.000000
_cell_volume 1562.790700
_symmetry_space_group_name_H-M "P 21 21 2"
_symmetry_group_IT_number 18
_symmetry_cell_setting 'orthorhombic'
loop_
_space_group_symop_operation_xyz
x,y,z
-x,-y,z
1/2+x,1/2-y,-z
1/2-x,1/2+y,-z
loop_
_atom_site_type_symbol
_atom_site_label
_atom_site_fract_x
_atom_site_fract_y
_atom_site_fract_z
Si Si1 0.208278 0.331975 0.556635
Si Si2 0.955634 0.780293 0.977596
Si Si3 0.775819 0.838025 0.786093
Si Si4 0.076719 0.419848 0.800229
Si Si5 0.142255 0.163545 0.308724
Si Si6 0.843353 0.996854 0.559516
Si Si7 0.742507 0.958377 0.068625
Si Si8 0.413926 0.438780 0.102063
O O1 0.252597 0.268260 0.709269
O O2 0.112299 0.376965 0.624097
O O3 0.183051 0.261833 0.400916
O O4 0.284524 0.415478 0.525491
O O5 0.879591 0.836634 0.863431
O O6 0.961059 0.663835 0.926983
O O7 0.057237 0.823745 0.938233
O O8 0.930122 0.796966 0.172173
O O9 0.770503 0.921721 0.643503
O O10 0.709584 0.874516 0.933757
O O11 0.159772 0.469644 0.896465
O O12 0.000000 0.500000 0.755815
O O13 0.099604 0.077251 0.432599
O O14 0.227497 0.103604 0.229523
O O15 0.907491 0.047439 0.698457
O O16 0.822276 0.029454 0.992958
O O17 0.500000 0.500000 0.028266
#
# Coordination Sequence:
#
# PCOD8155877 Si02
#       8
#     4   4   4   4   4   4   4   4
#     4  10  21  38  62  94 131 170 214 272 334 390
#     4  10  21  42  63  93 133 170 215 273 321 391
#     4   8  18  36  61  88 129 165 212 266 319 385
#     4  11  25  46  65  90 136 182 220 266 333 403
#     4  10  20  38  66  96 127 165 215 276 327 387
#     4  10  19  35  62  93 124 170 212 266 338 379
#     4  10  20  41  70  90 127 175 220 274 323 395
#     4  11  20  40  65  99 132 166 218 277 336 384
#
# _framework density 20.476191
#
# number of rings (size 3 to 8) (size 9 to 14) (size 15 to 20)
#    0.000    2.000    5.000    0.000    3.500    1.000 
#    6.750    0.625    2.750    0.000    0.000    0.000 
#    0.000    0.000    0.000    0.000    0.000    0.000 
#
# Total GULP energy -396482.183141 kJ/mol
# GULP energy per Si atom -12390.068223 kJ/mol
# Density = 2.042959 g / cm^3
# Si number density = 20.476191 Si / 1000 Ang^3
#
#
#
# Elastic Constant Matrix: (Units=GPa)
#
#
# Indices 1 2 3 4 5 6 
#
# 1 59.9928 44.7758 22.9521 0.0000 0.0000 0.0000
# 2 44.7758 133.7034 55.8800 0.0000 0.0000 0.0000
# 3 22.9521 55.8800 110.6379 0.0000 0.0000 0.0000
# 4 0.0000 0.0000 0.0000 35.8063 0.0000 0.0000
# 5 0.0000 0.0000 0.0000 0.0000 26.7127 0.0000
# 6 0.0000 0.0000 0.0000 0.0000 0.0000 35.7686
#
#
#
# Elastic Compliance Matrix: (Units=1/GPa)
#
#
# Indices 1 2 3 4 5 6 
#
# 1 0.022325 -0.007023 -0.001084 0.000000 0.000000 0.000000
# 2 -0.007023 0.011690 -0.004447 0.000000 0.000000 0.000000
# 3 -0.001084 -0.004447 0.011510 0.000000 0.000000 0.000000
# 4 0.000000 0.000000 0.000000 0.027928 0.000000 0.000000
# 5 0.000000 0.000000 0.000000 0.000000 0.037435 0.000000
# 6 0.000000 0.000000 0.000000 0.000000 0.000000 0.027957
#
#
# Mechanical properties :
#
#
# Convention : Reuss Voigt Hill
#
# Bulk Modulus (GPa) = 48.98276 61.28332 55.13304
# Shear Modulus (GPa) = 29.28076 31.70593 30.49335
#
# Velocity S-wave (km/s) = 3.78562 3.93928 3.86321
# Velocity P-wave (km/s) = 6.56366 7.11931 6.84713
#
# Compressibility (1/GPa) = 0.02041534
#
# Stress axis : x y z
#
# Youngs Moduli (GPa) = 44.79207 85.54325 86.88419
#
# Poissons Ratio (x) = 0.60081 0.09419
# Poissons Ratio (y) = 0.31459 0.38640
# Poissons Ratio (z) = 0.04856 0.38043
#
# Static dielectric constant tensor:
#      x y z
#    x 3.301510 0.000000 0.000000 
#    y 0.000000 4.000680 0.000000 
#    z 0.000000 0.000000 3.980340 
# 
# 
# High freq. dielectric constant tensor:
#      x y z
#    x 1.750920 0.000000 0.000000 
#    y 0.000000 1.820080 0.000000 
#    z 0.000000 0.000000 1.811980 
# 
# From -- ./inp_files/4297.got.cif
#   From: 2010.03.12/outbox.cif.g09.slc.cpg/sg18_3_cif.got.tgz:4297.got - 2010.04.10 18:53:55.
