data_PCOD8155395
_publ_section_title
;
Structure prediction by ZEFSAII (Michael W. Deem and Ramdas Pophale) SiO2 
 PCOD8155395
Probable space group: P 2 2 21
;
_chemical_formula_sum "Si O2"
_cell_formula_units_Z 24
_cell_length_a 10.108900
_cell_length_b 12.260583
_cell_length_c 8.770498
_cell_angle_alpha 90.000000
_cell_angle_beta 90.000000
_cell_angle_gamma 90.000000
_cell_volume 1087.024358
_symmetry_space_group_name_H-M "P 2 2 21"
_symmetry_group_IT_number 17
_symmetry_cell_setting 'orthorhombic'
loop_
_space_group_symop_operation_xyz
x,y,z
-x,-y,1/2+z
x,-y,-z
-x,y,1/2-z
loop_
_atom_site_type_symbol
_atom_site_label
_atom_site_fract_x
_atom_site_fract_y
_atom_site_fract_z
Si Si1 0.706263 0.362796 0.181879
Si Si2 0.646391 0.015837 0.680560
Si Si3 0.150369 0.167404 0.215018
Si Si4 0.751787 0.762981 0.387446
Si Si5 0.544288 0.375028 0.472519
Si Si6 0.135688 0.457414 0.825365
O O1 0.820714 0.271185 0.174550
O O2 0.607663 0.330365 0.317491
O O3 0.615673 0.363468 0.029226
O O4 0.759281 0.483274 0.216012
O O5 0.500000 0.007223 0.750000
O O6 0.718332 0.131696 0.715002
O O7 0.632370 0.000000 0.500000
O O8 0.744509 0.927398 0.755836
O O9 0.000000 0.128886 0.250000
O O10 0.170248 0.201297 0.039758
O O11 0.609231 0.702834 0.402426
O O12 0.846008 0.672911 0.309490
O O13 0.586679 0.500000 0.500000
O O14 0.000000 0.492007 0.750000
O O15 0.145167 0.500000 0.000000
#
# Coordination Sequence:
#
# PCOD8155395 Si02
#       6
#     4   4   4   4   4   4
#     4  10  20  33  61  90 119 166 204 252 301 377
#     4  10  24  43  68  94 123 163 209 265 319 370
#     4  10  21  40  65  86 125 168 215 252 308 378
#     4  10  21  41  62  89 127 164 202 268 319 365
#     4  10  18  34  59  90 126 158 204 248 317 368
#     4  12  23  41  62  89 130 168 207 254 310 379
#
# _framework density 22.078620999999998
#
# number of rings (size 3 to 8) (size 9 to 14) (size 15 to 20)
#    0.000    1.667    5.000    0.500    7.000    2.667 
#    0.000    4.167    0.000    0.000    0.000    0.000 
#    0.000    0.000    0.000    0.000    0.000    0.000 
#
# Total GULP energy -297360.585944 kJ/mol
# GULP energy per Si atom -12390.024414 kJ/mol
# Density = 2.202837 g / cm^3
# Si number density = 22.078621 Si / 1000 Ang^3
#
#
#
# Elastic Constant Matrix: (Units=GPa)
#
#
# Indices 1 2 3 4 5 6 
#
# 1 145.9694 43.3026 30.2021 0.0000 0.0000 0.0000
# 2 43.3026 146.1029 11.9159 0.0000 0.0000 0.0000
# 3 30.2021 11.9159 22.3640 0.0000 0.0000 0.0000
# 4 0.0000 0.0000 0.0000 8.1695 0.0000 0.0000
# 5 0.0000 0.0000 0.0000 0.0000 25.7238 0.0000
# 6 0.0000 0.0000 0.0000 0.0000 0.0000 29.4133
#
#
#
# Elastic Compliance Matrix: (Units=1/GPa)
#
#
# Indices 1 2 3 4 5 6 
#
# 1 0.010012 -0.001949 -0.012482 0.000000 0.000000 0.000000
# 2 -0.001949 0.007535 -0.001382 0.000000 0.000000 0.000000
# 3 -0.012482 -0.001382 0.062308 0.000000 0.000000 0.000000
# 4 0.000000 0.000000 0.000000 0.122406 0.000000 0.000000
# 5 0.000000 0.000000 0.000000 0.000000 0.038874 0.000000
# 6 0.000000 0.000000 0.000000 0.000000 0.000000 0.033998
#
#
# Mechanical properties :
#
#
# Convention : Reuss Voigt Hill
#
# Bulk Modulus (GPa) = 20.73505 53.91970 37.32737
# Shear Modulus (GPa) = 15.48775 27.92904 21.70840
#
# Velocity S-wave (km/s) = 2.65142 3.56052 3.13905
# Velocity P-wave (km/s) = 4.33419 6.43255 5.48466
#
# Compressibility (1/GPa) = 0.04822752
#
# Stress axis : x y z
#
# Youngs Moduli (GPa) = 99.88417 132.71467 16.04936
#
# Poissons Ratio (x) = 0.25870 0.20033
# Poissons Ratio (y) = 0.19470 0.02218
# Poissons Ratio (z) = 1.24674 0.18345
#
# Static dielectric constant tensor:
#      x y z
#    x 4.218860 0.000000 0.000000 
#    y 0.000000 4.251750 0.000000 
#    z 0.000000 0.000000 3.756720 
# 
# 
# High freq. dielectric constant tensor:
#      x y z
#    x 1.877090 0.000000 0.000000 
#    y 0.000000 1.876310 0.000000 
#    z 0.000000 0.000000 1.821230 
# 
# From -- ./inp_files/6559.got.cif
#   From: 2010.03.12/outbox.cif.g09.slc.cpg/sg17_4_cif.got.tgz:6559.got - 2010.04.10 18:46:23.
