data_PCOD8155487
_publ_section_title
;
Structure prediction by ZEFSAII (Michael W. Deem and Ramdas Pophale) SiO2 
 PCOD8155487
Probable space group: P 2 2 21
;
_chemical_formula_sum "Si O2"
_cell_formula_units_Z 18
_cell_length_a 16.902359
_cell_length_b 10.068272
_cell_length_c 5.235074
_cell_angle_alpha 90.000000
_cell_angle_beta 90.000000
_cell_angle_gamma 90.000000
_cell_volume 890.892056
_symmetry_space_group_name_H-M "P 2 2 21"
_symmetry_group_IT_number 17
_symmetry_cell_setting 'orthorhombic'
loop_
_space_group_symop_operation_xyz
x,y,z
-x,-y,1/2+z
x,-y,-z
-x,y,1/2-z
loop_
_atom_site_type_symbol
_atom_site_label
_atom_site_fract_x
_atom_site_fract_y
_atom_site_fract_z
Si Si1 0.547953 0.343996 0.500591
Si Si2 0.191150 0.351989 0.518450
Si Si3 0.077905 0.867699 0.371629
Si Si4 0.799633 0.000000 0.500000
Si Si5 0.276414 0.265437 0.039561
O O1 0.565065 0.500000 0.500000
O O2 0.500000 0.299920 0.750000
O O3 0.630849 0.268940 0.511716
O O4 0.500000 0.299993 0.250000
O O5 0.154863 0.500000 0.500000
O O6 0.119800 0.246700 0.457343
O O7 0.229610 0.322773 0.794378
O O8 0.256175 0.348754 0.293553
O O9 0.146826 0.922183 0.196409
O O10 0.000000 0.799327 0.250000
O O11 0.042598 0.000000 0.500000
O O12 0.744060 0.113675 0.382774
#
# Coordination Sequence:
#
# PCOD8155487 Si02
#       5
#     4   4   4   2   4
#     4  10  20  35  56  84 117 155 197 242 300 361
#     4  11  23  39  62  92 123 159 205 255 308 358
#     4  11  21  39  62  88 120 161 208 249 304 366
#     4  10  22  38  60  88 114 160 208 244 294 368
#     4  11  22  39  63  88 123 159 203 252 300 362
#
# _framework density 20.204467000000001
#
# number of rings (size 3 to 8) (size 9 to 14) (size 15 to 20)
#    0.000    1.333    3.333    3.333    0.000    1.778 
#    0.000    6.667    0.000    0.000    0.000    0.000 
#    0.000    0.000    0.000    0.000    0.000    0.000 
#
# Total GULP energy -223080.780232 kJ/mol
# GULP energy per Si atom -12393.376680 kJ/mol
# Density = 2.015848 g / cm^3
# Si number density = 20.204467 Si / 1000 Ang^3
#
#
#
# Elastic Constant Matrix: (Units=GPa)
#
#
# Indices 1 2 3 4 5 6 
#
# 1 137.2385 54.0903 34.8819 0.0000 0.0000 0.0000
# 2 54.0903 116.1382 27.4224 0.0000 0.0000 0.0000
# 3 34.8819 27.4224 116.5102 0.0000 0.0000 0.0000
# 4 0.0000 0.0000 0.0000 14.0757 0.0000 0.0000
# 5 0.0000 0.0000 0.0000 0.0000 31.2419 0.0000
# 6 0.0000 0.0000 0.0000 0.0000 0.0000 24.2311
#
#
#
# Elastic Compliance Matrix: (Units=1/GPa)
#
#
# Indices 1 2 3 4 5 6 
#
# 1 0.009293 -0.003887 -0.001867 0.000000 0.000000 0.000000
# 2 -0.003887 0.010743 -0.001365 0.000000 0.000000 0.000000
# 3 -0.001867 -0.001365 0.009463 0.000000 0.000000 0.000000
# 4 0.000000 0.000000 0.000000 0.071044 0.000000 0.000000
# 5 0.000000 0.000000 0.000000 0.000000 0.032008 0.000000
# 6 0.000000 0.000000 0.000000 0.000000 0.000000 0.041269
#
#
# Mechanical properties :
#
#
# Convention : Reuss Voigt Hill
#
# Bulk Modulus (GPa) = 65.52739 66.96402 66.24571
# Shear Modulus (GPa) = 25.88695 30.80923 28.34809
#
# Velocity S-wave (km/s) = 3.58334 3.90920 3.74981
# Velocity P-wave (km/s) = 7.04436 7.32058 7.18380
#
# Compressibility (1/GPa) = 0.01526079
#
# Stress axis : x y z
#
# Youngs Moduli (GPa) = 107.60363 93.08228 105.67222
#
# Poissons Ratio (x) = 0.36185 0.19733
# Poissons Ratio (y) = 0.41830 0.14421
# Poissons Ratio (z) = 0.20094 0.12703
#
# Static dielectric constant tensor:
#      x y z
#    x 3.684160 0.000000 0.000000 
#    y 0.000000 4.368210 0.000000 
#    z 0.000000 0.000000 3.707010 
# 
# 
# High freq. dielectric constant tensor:
#      x y z
#    x 1.788340 0.000000 0.000000 
#    y 0.000000 1.785250 0.000000 
#    z 0.000000 0.000000 1.790970 
# 
# From -- ./inp_files/844.got.cif
#   From: 2010.03.12/outbox.cif.g09.slc.cpg/sg17_1_cif.got.tgz:844.got - 2010.04.10 18:46:23.
