data_PCOD8155237
_publ_section_title
;
Structure prediction by ZEFSAII (Michael W. Deem and Ramdas Pophale) SiO2 
 PCOD8155237
Probable space group: P 2 2 2
;
_chemical_formula_sum "Si O2"
_cell_formula_units_Z 25
_cell_length_a 11.793768
_cell_length_b 17.954919
_cell_length_c 6.078313
_cell_angle_alpha 90.000000
_cell_angle_beta 90.000000
_cell_angle_gamma 90.000000
_cell_volume 1287.120154
_symmetry_space_group_name_H-M "P 2 2 2"
_symmetry_group_IT_number 16
_symmetry_cell_setting 'orthorhombic'
loop_
_space_group_symop_operation_xyz
x,y,z
-x,-y,z
x,-y,-z
-x,y,-z
loop_
_atom_site_type_symbol
_atom_site_label
_atom_site_fract_x
_atom_site_fract_y
_atom_site_fract_z
Si Si1 0.500000 0.726941 0.500000
Si Si2 0.000000 0.596621 0.000000
Si Si3 0.810580 0.436763 0.682187
Si Si4 0.616901 0.072364 0.115595
Si Si5 0.310263 0.226745 0.808864
Si Si6 0.500000 0.000000 0.500000
Si Si7 0.891354 0.307959 0.376834
Si Si8 0.612486 0.642992 0.124158
O O1 0.579192 0.777582 0.652865
O O2 0.581179 0.673554 0.361905
O O3 0.922527 0.648222 0.845578
O O4 0.082385 0.545824 0.843879
O O5 0.793582 0.500000 0.500000
O O6 0.831438 0.361061 0.552378
O O7 0.699156 0.425708 0.835362
O O8 0.700131 0.143571 0.091799
O O9 0.585581 0.052191 0.364490
O O10 0.500000 0.094065 0.000000
O O11 0.674139 0.000000 0.000000
O O12 0.194392 0.241583 0.678448
O O13 0.327235 0.291127 0.988378
O O14 0.000000 0.272691 0.500000
O O15 0.500000 0.613013 0.000000
#
# Coordination Sequence:
#
# PCOD8155237 Si02
#       8
#     2   2   4   4   4   1   4   4
#     4  10  19  32  59  85 115 150 202 234 281 360
#     4  10  22  43  60  88 115 146 194 258 305 352
#     4  11  23  41  65  86 117 152 196 248 309 357
#     4   9  18  31  48  84 124 156 198 231 288 349
#     4  11  19  35  60  85 120 160 192 247 293 350
#     4   8  16  32  48  82 128 156 188 248 282 344
#     4  10  22  38  60  89 114 146 198 251 297 355
#     4  10  21  37  60  86 118 159 198 234 290 362
#
# _framework density 19.423206
#
# number of rings (size 3 to 8) (size 9 to 14) (size 15 to 20)
#    0.000    2.080    3.200    1.920    0.000    5.440 
#    0.000    0.400    3.520    0.960    0.000    3.360 
#    0.000    0.000    0.000    0.000    0.000    0.000 
#
# Total GULP energy -309919.592916 kJ/mol
# GULP energy per Si atom -12396.783717 kJ/mol
# Density = 1.937900 g / cm^3
# Si number density = 19.423206 Si / 1000 Ang^3
#
#
#
# Elastic Constant Matrix: (Units=GPa)
#
#
# Indices 1 2 3 4 5 6 
#
# 1 116.3100 68.4043 43.0819 0.0000 0.0000 0.0000
# 2 68.4043 112.2543 42.4888 0.0000 0.0000 0.0000
# 3 43.0819 42.4888 105.5104 0.0000 0.0000 0.0000
# 4 0.0000 0.0000 0.0000 18.5943 0.0000 0.0000
# 5 0.0000 0.0000 0.0000 0.0000 36.3243 0.0000
# 6 0.0000 0.0000 0.0000 0.0000 0.0000 25.2210
#
#
#
# Elastic Compliance Matrix: (Units=1/GPa)
#
#
# Indices 1 2 3 4 5 6 
#
# 1 0.014021 -0.007524 -0.002695 0.000000 0.000000 0.000000
# 2 -0.007524 0.014548 -0.002786 0.000000 0.000000 0.000000
# 3 -0.002695 -0.002786 0.011700 0.000000 0.000000 0.000000
# 4 0.000000 0.000000 0.000000 0.053780 0.000000 0.000000
# 5 0.000000 0.000000 0.000000 0.000000 0.027530 0.000000
# 6 0.000000 0.000000 0.000000 0.000000 0.000000 0.039650
#
#
# Mechanical properties :
#
#
# Convention : Reuss Voigt Hill
#
# Bulk Modulus (GPa) = 70.13376 71.33608 70.73492
# Shear Modulus (GPa) = 26.04287 28.03458 27.03873
#
# Velocity S-wave (km/s) = 3.66568 3.80327 3.73511
# Velocity P-wave (km/s) = 7.35547 7.48956 7.42282
#
# Compressibility (1/GPa) = 0.01425847
#
# Stress axis : x y z
#
# Youngs Moduli (GPa) = 71.32204 68.73946 85.46825
#
# Poissons Ratio (x) = 0.51718 0.23035
# Poissons Ratio (y) = 0.53661 0.23813
# Poissons Ratio (z) = 0.19223 0.19152
#
# Static dielectric constant tensor:
#      x y z
#    x 3.588510 0.000000 0.000000 
#    y 0.000000 3.237460 0.000000 
#    z 0.000000 0.000000 3.739260 
# 
# 
# High freq. dielectric constant tensor:
#      x y z
#    x 1.740040 0.000000 0.000000 
#    y 0.000000 1.726480 0.000000 
#    z 0.000000 0.000000 1.778840 
# 
# From -- ./inp_files/1649.got.cif
#   From: 2010.03.12/outbox.cif.g09.slc.cpg/sg16_1_cif.got.tgz:1649.got - 2010.03.31 00:51:45.
