data_PCOD8155213
_publ_section_title
;
Structure prediction by ZEFSAII (Michael W. Deem and Ramdas Pophale) SiO2 
 PCOD8155213
Probable space group: P 2 2 2
;
_chemical_formula_sum "Si O2"
_cell_formula_units_Z 13
_cell_length_a 5.249918
_cell_length_b 13.857608
_cell_length_c 10.425638
_cell_angle_alpha 90.000000
_cell_angle_beta 90.000000
_cell_angle_gamma 90.000000
_cell_volume 758.478777
_symmetry_space_group_name_H-M "P 2 2 2"
_symmetry_group_IT_number 16
_symmetry_cell_setting 'orthorhombic'
loop_
_space_group_symop_operation_xyz
x,y,z
-x,-y,z
x,-y,-z
-x,y,-z
loop_
_atom_site_type_symbol
_atom_site_label
_atom_site_fract_x
_atom_site_fract_y
_atom_site_fract_z
Si Si1 0.749879 0.761621 0.916017
Si Si2 0.249859 0.541715 0.143588
Si Si3 0.760368 0.056840 0.255226
Si Si4 0.000000 0.000000 0.500000
O O1 0.751638 0.656527 0.853342
O O2 0.741965 0.836273 0.799626
O O3 0.500000 0.776904 0.000000
O O4 0.000000 0.778273 0.000000
O O5 0.500000 0.500000 0.215222
O O6 0.000000 0.500000 0.215391
O O7 0.249992 0.500000 0.000000
O O8 0.817914 0.065325 0.408486
O O9 0.500000 0.000000 0.227018
O O10 0.000000 0.000000 0.189890
#
# Coordination Sequence:
#
# PCOD8155213 Si02
#       4
#     4   4   4   1
#     4  12  21  31  52  82 114 141 173 202 273 327
#     4  10  16  30  46  68 108 149 165 202 239 320
#     4  10  22  38  56  74 105 141 175 229 254 309
#     4   8  22  44  56  68 104 132 206 210 266 280
#
# _framework density 17.139571
#
# number of rings (size 3 to 8) (size 9 to 14) (size 15 to 20)
#    0.923    0.615    6.154    2.308    0.000    3.692 
#    0.000    0.000    0.000    0.000    0.000    1.077 
#    0.000    0.000    0.000    0.000    0.000    0.000 
#
# Total GULP energy -161080.941160 kJ/mol
# GULP energy per Si atom -12390.841628 kJ/mol
# Density = 1.710056 g / cm^3
# Si number density = 17.139571 Si / 1000 Ang^3
#
#
#
# Elastic Constant Matrix: (Units=GPa)
#
#
# Indices 1 2 3 4 5 6 
#
# 1 185.3887 64.7756 38.0768 0.0000 0.0000 0.0000
# 2 64.7756 172.9329 63.0978 0.0000 0.0000 0.0000
# 3 38.0768 63.0978 57.1907 0.0000 0.0000 0.0000
# 4 0.0000 0.0000 0.0000 5.4560 0.0000 0.0000
# 5 0.0000 0.0000 0.0000 0.0000 48.4612 0.0000
# 6 0.0000 0.0000 0.0000 0.0000 0.0000 37.9140
#
#
#
# Elastic Compliance Matrix: (Units=1/GPa)
#
#
# Indices 1 2 3 4 5 6 
#
# 1 0.006451 -0.001421 -0.002727 0.000000 0.000000 0.000000
# 2 -0.001421 0.009992 -0.010078 0.000000 0.000000 0.000000
# 3 -0.002727 -0.010078 0.030419 0.000000 0.000000 0.000000
# 4 0.000000 0.000000 0.000000 0.183286 0.000000 0.000000
# 5 0.000000 0.000000 0.000000 0.000000 0.020635 0.000000
# 6 0.000000 0.000000 0.000000 0.000000 0.000000 0.026375
#
#
# Mechanical properties :
#
#
# Convention : Reuss Voigt Hill
#
# Bulk Modulus (GPa) = 54.31646 83.04586 68.68116
# Shear Modulus (GPa) = 16.03864 35.00371 25.52117
#
# Velocity S-wave (km/s) = 3.06235 4.52406 3.86297
# Velocity P-wave (km/s) = 6.65308 8.70904 7.74954
#
# Compressibility (1/GPa) = 0.01841063
#
# Stress axis : x y z
#
# Youngs Moduli (GPa) = 155.02122 100.07931 32.87379
#
# Poissons Ratio (x) = 0.14225 0.08963
# Poissons Ratio (y) = 0.22035 0.33129
# Poissons Ratio (z) = 0.42268 1.00858
#
# Static dielectric constant tensor:
#      x y z
#    x -1.753170 0.000000 0.000000 
#    y 0.000000 3.179740 0.000000 
#    z 0.000000 0.000000 2.668880 
# 
# 
# High freq. dielectric constant tensor:
#      x y z
#    x 1.699730 0.000000 0.000000 
#    y 0.000000 1.663280 0.000000 
#    z 0.000000 0.000000 1.593450 
# 
# From -- ./inp_files/1159.got.cif
#   From: 2010.03.12/outbox.cif.g09.slc.cpg/sg16_1_cif.got.tgz:1159.got - 2010.03.31 00:51:45.
