data_PCOD8155695
_publ_section_title
;
Structure prediction by ZEFSAII (Michael W. Deem and Ramdas Pophale) SiO2 
 PCOD8155695
Probable space group: P 2 2 21
;
_chemical_formula_sum "Si O2"
_cell_formula_units_Z 18
_cell_length_a 11.553443
_cell_length_b 5.070434
_cell_length_c 13.291120
_cell_angle_alpha 90.000000
_cell_angle_beta 90.000000
_cell_angle_gamma 90.000000
_cell_volume 778.606705
_symmetry_space_group_name_H-M "P 2 2 21"
_symmetry_group_IT_number 17
_symmetry_cell_setting 'orthorhombic'
loop_
_space_group_symop_operation_xyz
x,y,z
-x,-y,1/2+z
x,-y,-z
-x,y,1/2-z
loop_
_atom_site_type_symbol
_atom_site_label
_atom_site_fract_x
_atom_site_fract_y
_atom_site_fract_z
Si Si1 0.585075 0.266536 0.938309
Si Si2 0.500000 0.971007 0.250000
Si Si3 0.840837 0.000000 0.500000
Si Si4 0.184947 0.604134 0.329993
Si Si5 0.753272 0.891718 0.714285
Si Si6 0.997451 0.500000 0.000000
O O1 0.497505 0.213305 0.847715
O O2 0.703761 0.397786 0.901134
O O3 0.521988 0.500000 0.000000
O O4 0.610162 0.000000 0.000000
O O5 0.381073 0.135811 0.248993
O O6 0.758870 0.024132 0.402309
O O7 0.922785 0.248505 0.496017
O O8 0.191646 0.391242 0.239447
O O9 0.076348 0.529294 0.398358
O O10 0.176159 0.891905 0.279372
#
# Coordination Sequence:
#
# PCOD8155695 Si02
#       6
#     4   2   2   4   4   2
#     4  11  23  41  68 103 135 176 230 285 331 410
#     4  10  26  44  70 102 136 188 218 278 354 404
#     4  12  28  46  66 106 140 178 226 288 352 412
#     4  11  24  44  73 100 134 179 239 282 326 416
#     4  11  26  47  68 103 142 179 233 279 343 419
#     4  12  26  44  74 102 136 184 228 286 356 384
#
# _framework density 23.118217999999999
#
# number of rings (size 3 to 8) (size 9 to 14) (size 15 to 20)
#    0.000    0.889    1.111    5.333    3.111   13.333 
#    2.000    0.000    0.000    0.000    0.000    0.000 
#    0.000    0.000    0.000    0.000    0.000    0.000 
#
# Total GULP energy -223190.476615 kJ/mol
# GULP energy per Si atom -12399.470923 kJ/mol
# Density = 2.306560 g / cm^3
# Si number density = 23.118218 Si / 1000 Ang^3
#
#
#
# Elastic Constant Matrix: (Units=GPa)
#
#
# Indices 1 2 3 4 5 6 
#
# 1 79.2614 28.8148 25.9105 0.0000 0.0000 0.0000
# 2 28.8148 141.8915 30.3596 0.0000 0.0000 0.0000
# 3 25.9105 30.3596 134.5698 0.0000 0.0000 0.0000
# 4 0.0000 0.0000 0.0000 40.1392 0.0000 0.0000
# 5 0.0000 0.0000 0.0000 0.0000 35.7883 0.0000
# 6 0.0000 0.0000 0.0000 0.0000 0.0000 12.7560
#
#
#
# Elastic Compliance Matrix: (Units=1/GPa)
#
#
# Indices 1 2 3 4 5 6 
#
# 1 0.014211 -0.002417 -0.002191 0.000000 0.000000 0.000000
# 2 -0.002417 0.007816 -0.001298 0.000000 0.000000 0.000000
# 3 -0.002191 -0.001298 0.008146 0.000000 0.000000 0.000000
# 4 0.000000 0.000000 0.000000 0.024913 0.000000 0.000000
# 5 0.000000 0.000000 0.000000 0.000000 0.027942 0.000000
# 6 0.000000 0.000000 0.000000 0.000000 0.000000 0.078395
#
#
# Mechanical properties :
#
#
# Convention : Reuss Voigt Hill
#
# Bulk Modulus (GPa) = 54.46285 58.43252 56.44768
# Shear Modulus (GPa) = 27.87749 35.77920 31.82835
#
# Velocity S-wave (km/s) = 3.47633 3.93830 3.71450
# Velocity P-wave (km/s) = 6.30259 6.78312 6.54727
#
# Compressibility (1/GPa) = 0.01836114
#
# Stress axis : x y z
#
# Youngs Moduli (GPa) = 70.36569 127.93884 122.76298
#
# Poissons Ratio (x) = 0.30926 0.26897
# Poissons Ratio (y) = 0.17009 0.15934
# Poissons Ratio (z) = 0.15417 0.16606
#
# Static dielectric constant tensor:
#      x y z
#    x 4.374910 0.000000 0.000000 
#    y 0.000000 4.186110 0.000000 
#    z 0.000000 0.000000 4.559030 
# 
# 
# High freq. dielectric constant tensor:
#      x y z
#    x 1.898000 0.000000 0.000000 
#    y 0.000000 1.923780 0.000000 
#    z 0.000000 0.000000 1.935530 
# 
# From -- ./inp_files/6861.got.cif
#   From: 2010.03.12/outbox.cif.g09.slc.cpg/sg17_4_cif.got.tgz:6861.got - 2010.04.10 18:46:23.
