data_PCOD8155828
_publ_section_title
;
Structure prediction by ZEFSAII (Michael W. Deem and Ramdas Pophale) SiO2 
 PCOD8155828
Probable space group: P 21 21 2
;
_chemical_formula_sum "Si O2"
_cell_formula_units_Z 28
_cell_length_a 8.456614
_cell_length_b 20.407318
_cell_length_c 7.456108
_cell_angle_alpha 90.000000
_cell_angle_beta 90.000000
_cell_angle_gamma 90.000000
_cell_volume 1286.751342
_symmetry_space_group_name_H-M "P 21 21 2"
_symmetry_group_IT_number 18
_symmetry_cell_setting 'orthorhombic'
loop_
_space_group_symop_operation_xyz
x,y,z
-x,-y,z
1/2+x,1/2-y,-z
1/2-x,1/2+y,-z
loop_
_atom_site_type_symbol
_atom_site_label
_atom_site_fract_x
_atom_site_fract_y
_atom_site_fract_z
Si Si1 0.313301 0.217160 0.767148
Si Si2 0.500000 0.500000 0.327820
Si Si3 0.111409 0.294195 0.011826
Si Si4 0.125838 0.693686 0.691568
Si Si5 0.248181 0.907436 0.797449
Si Si6 0.261149 0.092155 0.541703
Si Si7 0.823812 0.699599 0.463302
Si Si8 0.000000 0.500000 0.299844
O O1 0.214664 0.231172 0.952711
O O2 0.240727 0.149752 0.690944
O O3 0.271463 0.279741 0.642314
O O4 0.503536 0.214554 0.806986
O O5 0.580728 0.555227 0.201929
O O6 0.619876 0.460342 0.455339
O O7 0.980587 0.313485 0.864569
O O8 0.232655 0.354780 0.042849
O O9 0.223637 0.626707 0.653408
O O10 0.254913 0.752680 0.698258
O O11 0.012561 0.704791 0.511629
O O12 0.275832 0.873133 0.601560
O O13 0.375918 0.964437 0.829514
O O14 0.422390 0.053990 0.573621
#
# Coordination Sequence:
#
# PCOD8155828 Si02
#       8
#     4   2   4   4   4   4   4   2
#     4  10  22  37  62  95 129 161 207 262 325 369
#     4  10  26  36  68  86 122 174 212 268 286 386
#     4  11  22  37  62  98 130 164 196 269 330 372
#     4  10  21  36  63  96 124 161 202 267 318 366
#     4  11  21  40  62  89 120 164 219 250 318 368
#     4  10  20  41  60  91 117 163 222 251 309 373
#     4  10  20  36  63  90 122 158 206 259 307 373
#     4  10  18  38  66  74 114 168 218 254 288 380
#
# _framework density 21.760224999999998
#
# number of rings (size 3 to 8) (size 9 to 14) (size 15 to 20)
#    0.000    1.714    2.857    1.714    8.000    0.000 
#    0.000    0.714    0.000    4.286    0.000    0.000 
#    0.000    0.000    0.000    0.000    0.000    0.000 
#
# Total GULP energy -347020.761688 kJ/mol
# GULP energy per Si atom -12393.598632 kJ/mol
# Density = 2.171070 g / cm^3
# Si number density = 21.760225 Si / 1000 Ang^3
#
#
#
# Elastic Constant Matrix: (Units=GPa)
#
#
# Indices 1 2 3 4 5 6 
#
# 1 105.2535 43.0651 10.1622 0.0000 0.0000 0.0000
# 2 43.0651 112.9559 21.0088 0.0000 0.0000 0.0000
# 3 10.1622 21.0088 30.8435 0.0000 0.0000 0.0000
# 4 0.0000 0.0000 0.0000 16.3234 0.0000 0.0000
# 5 0.0000 0.0000 0.0000 0.0000 28.0701 0.0000
# 6 0.0000 0.0000 0.0000 0.0000 0.0000 48.0813
#
#
#
# Elastic Compliance Matrix: (Units=1/GPa)
#
#
# Indices 1 2 3 4 5 6 
#
# 1 0.011279 -0.004132 -0.000901 0.000000 0.000000 0.000000
# 2 -0.004132 0.011651 -0.006575 0.000000 0.000000 0.000000
# 3 -0.000901 -0.006575 0.037197 0.000000 0.000000 0.000000
# 4 0.000000 0.000000 0.000000 0.061262 0.000000 0.000000
# 5 0.000000 0.000000 0.000000 0.000000 0.035625 0.000000
# 6 0.000000 0.000000 0.000000 0.000000 0.000000 0.020798
#
#
# Mechanical properties :
#
#
# Convention : Reuss Voigt Hill
#
# Bulk Modulus (GPa) = 27.09277 44.16948 35.63113
# Shear Modulus (GPa) = 23.43759 30.14940 26.79349
#
# Velocity S-wave (km/s) = 3.28546 3.72631 3.51280
# Velocity P-wave (km/s) = 5.18362 6.23347 5.73263
#
# Compressibility (1/GPa) = 0.03691022
#
# Stress axis : x y z
#
# Youngs Moduli (GPa) = 88.66263 85.82682 26.88386
#
# Poissons Ratio (x) = 0.35467 0.02423
# Poissons Ratio (y) = 0.36639 0.17675
# Poissons Ratio (z) = 0.07991 0.56429
#
# Static dielectric constant tensor:
#      x y z
#    x 4.295150 0.000000 0.000000 
#    y 0.000000 3.963450 0.000000 
#    z 0.000000 0.000000 3.917960 
# 
# 
# High freq. dielectric constant tensor:
#      x y z
#    x 1.878150 0.000000 0.000000 
#    y 0.000000 1.848960 0.000000 
#    z 0.000000 0.000000 1.837850 
# 
# From -- ./inp_files/3467.got.cif
#   From: 2010.03.12/outbox.cif.g09.slc.cpg/sg18_2_cif.got.tgz:3467.got - 2010.04.10 18:53:55.
