data_PCOD8155808
_publ_section_title
;
Structure prediction by ZEFSAII (Michael W. Deem and Ramdas Pophale) SiO2 
 PCOD8155808
Probable space group: P 21 21 2
;
_chemical_formula_sum "Si O2"
_cell_formula_units_Z 32
_cell_length_a 16.153090
_cell_length_b 16.166454
_cell_length_c 6.475455
_cell_angle_alpha 90.000000
_cell_angle_beta 90.000000
_cell_angle_gamma 90.000000
_cell_volume 1690.988575
_symmetry_space_group_name_H-M "P 21 21 2"
_symmetry_group_IT_number 18
_symmetry_cell_setting 'orthorhombic'
loop_
_space_group_symop_operation_xyz
x,y,z
-x,-y,z
1/2+x,1/2-y,-z
1/2-x,1/2+y,-z
loop_
_atom_site_type_symbol
_atom_site_label
_atom_site_fract_x
_atom_site_fract_y
_atom_site_fract_z
Si Si1 0.196214 0.091315 0.614660
Si Si2 0.426466 0.944574 0.533409
Si Si3 0.601565 0.305159 0.060868
Si Si4 0.864141 0.633711 0.073134
Si Si5 0.334056 0.085412 0.299449
Si Si6 0.914332 0.956316 0.237103
Si Si7 0.769448 0.010804 0.995112
Si Si8 0.001071 0.668001 0.783759
O O1 0.164808 0.164094 0.763762
O O2 0.278276 0.120265 0.488919
O O3 0.123782 0.067213 0.457172
O O4 0.217972 0.011142 0.754200
O O5 0.365461 0.909895 0.705646
O O6 0.465096 0.862068 0.434265
O O7 0.500000 0.000000 0.630520
O O8 0.377604 0.000068 0.367780
O O9 0.520710 0.264823 0.175655
O O10 0.648250 0.233265 0.927644
O O11 0.571775 0.376043 0.906669
O O12 0.783246 0.593808 0.966737
O O13 0.951363 0.613614 0.956689
O O14 0.400405 0.153022 0.218924
O O15 0.276017 0.067459 0.103467
O O16 0.856772 0.021363 0.112796
O O17 0.000000 0.000000 0.284460
#
# Coordination Sequence:
#
# PCOD8155808 Si02
#       8
#     4   4   4   4   4   4   4   4
#     4  10  21  38  61  86 118 158 206 256 298 354
#     4  10  19  29  56  92 122 161 195 226 289 381
#     4   9  22  39  61  84 122 162 197 258 302 350
#     4  10  20  33  59  88 123 155 185 243 311 356
#     4  10  18  34  57  93 122 157 198 241 292 377
#     4  10  23  44  64  81 110 160 218 255 289 357
#     4  10  20  37  62  89 115 148 197 247 308 362
#     4   9  21  33  56  88 128 156 189 239 303 367
#
# _framework density 18.923840999999999
#
# number of rings (size 3 to 8) (size 9 to 14) (size 15 to 20)
#    0.750    1.500    2.500    0.000    3.500    2.000 
#    0.000    5.000    0.000    0.000    0.000    0.000 
#    0.000    0.000    0.000    0.000    0.000    0.000 
#
# Total GULP energy -396500.268537 kJ/mol
# GULP energy per Si atom -12390.633392 kJ/mol
# Density = 1.888077 g / cm^3
# Si number density = 18.923841 Si / 1000 Ang^3
#
#
#
# Elastic Constant Matrix: (Units=GPa)
#
#
# Indices 1 2 3 4 5 6 
#
# 1 112.2742 36.0437 34.4143 0.0000 0.0000 0.0000
# 2 36.0437 80.6321 33.2878 0.0000 0.0000 0.0000
# 3 34.4143 33.2878 80.5389 0.0000 0.0000 0.0000
# 4 0.0000 0.0000 0.0000 25.7928 0.0000 0.0000
# 5 0.0000 0.0000 0.0000 0.0000 25.9061 0.0000
# 6 0.0000 0.0000 0.0000 0.0000 0.0000 27.1505
#
#
#
# Elastic Compliance Matrix: (Units=1/GPa)
#
#
# Indices 1 2 3 4 5 6 
#
# 1 0.011056 -0.003607 -0.003233 0.000000 0.000000 0.000000
# 2 -0.003607 0.016131 -0.005126 0.000000 0.000000 0.000000
# 3 -0.003233 -0.005126 0.015916 0.000000 0.000000 0.000000
# 4 0.000000 0.000000 0.000000 0.038770 0.000000 0.000000
# 5 0.000000 0.000000 0.000000 0.000000 0.038601 0.000000
# 6 0.000000 0.000000 0.000000 0.000000 0.000000 0.036832
#
#
# Mechanical properties :
#
#
# Convention : Reuss Voigt Hill
#
# Bulk Modulus (GPa) = 52.16328 53.43743 52.80036
# Shear Modulus (GPa) = 26.64841 27.08318 26.86579
#
# Velocity S-wave (km/s) = 3.75666 3.78718 3.77195
# Velocity P-wave (km/s) = 6.81479 6.88644 6.85071
#
# Compressibility (1/GPa) = 0.01917057
#
# Stress axis : x y z
#
# Youngs Moduli (GPa) = 90.44950 61.99411 62.82836
#
# Poissons Ratio (x) = 0.22363 0.20314
# Poissons Ratio (y) = 0.32628 0.32203
# Poissons Ratio (z) = 0.29244 0.31775
#
# Static dielectric constant tensor:
#      x y z
#    x 3.466960 0.000000 0.000000 
#    y 0.000000 3.151860 0.000000 
#    z 0.000000 0.000000 3.436920 
# 
# 
# High freq. dielectric constant tensor:
#      x y z
#    x 1.730970 0.000000 0.000000 
#    y 0.000000 1.704470 0.000000 
#    z 0.000000 0.000000 1.740910 
# 
# From -- ./inp_files/1917.got.cif
#   From: 2010.03.12/outbox.cif.g09.slc.cpg/sg18_1_cif.got.tgz:1917.got - 2010.04.10 18:53:55.
