data_PCOD8155136
_publ_section_title
;
Structure prediction by ZEFSAII (Michael W. Deem and Ramdas Pophale) SiO2 
 PCOD8155136
Probable space group: C 2/C
;
_chemical_formula_sum "Si O2"
_cell_formula_units_Z 32
_cell_length_a 28.232679
_cell_length_b 4.850855
_cell_length_c 17.913231
_cell_angle_alpha 90.000000
_cell_angle_beta 145.614134
_cell_angle_gamma 90.000000
_cell_volume 1385.513900
_symmetry_space_group_name_H-M "C 2/C"
_symmetry_group_IT_number 15
_symmetry_cell_setting 'monoclinic'
loop_
_space_group_symop_operation_xyz
x,y,z
-x,y,1/2-z
-x,-y,-z
x,-y,1/2+z
1/2+x,1/2+y,z
1/2-x,1/2+y,1/2-z
1/2-x,1/2-y,-z
1/2+x,1/2-y,1/2+z
loop_
_atom_site_type_symbol
_atom_site_label
_atom_site_fract_x
_atom_site_fract_y
_atom_site_fract_z
Si Si1 0.578406 0.649765 0.303496
Si Si2 0.229787 0.055563 0.268291
Si Si3 0.315492 0.856475 0.525505
Si Si4 0.946994 0.758201 0.902405
O O1 0.500000 0.747244 0.250000
O O2 0.602779 0.338955 0.359902
O O3 0.555246 0.706839 0.188597
O O4 0.659786 0.831767 0.425257
O O5 0.288060 0.310495 0.315304
O O6 0.145980 0.215262 0.184608
O O7 0.274769 0.873277 0.390842
O O8 0.250000 0.750000 0.500000
O O9 0.000000 0.500000 0.000000
O O10 0.000000 0.000000 0.000000
#
# Coordination Sequence:
#
# PCOD8155136 Si02
#       4
#     8   8   8   8
#     4  12  28  48  74 109 146 199 246 305 372 440
#     4  12  28  47  77 113 148 197 249 309 376 442
#     4  12  26  50  76 103 147 195 256 304 361 443
#     4  12  28  48  73 108 153 194 244 305 376 444
#
# _framework density 23.096121
#
# number of rings (size 3 to 8) (size 9 to 14) (size 15 to 20)
#    0.000    0.000    2.500    6.000   14.000    0.000 
#    0.000    0.000    0.000    0.000    0.000    0.000 
#    0.000    0.000    0.000    0.000    0.000    0.000 
#
# Total GULP energy -198303.936998 kJ/mol
# GULP energy per Si atom -12393.996062 kJ/mol
# Density = 2.304355 g / cm^3
# Si number density = 23.096121 Si / 1000 Ang^3
#
#
#
# Elastic Constant Matrix: (Units=GPa)
#
#
# Indices 1 2 3 4 5 6 
#
# 1 167.7497 54.1473 64.6358 0.0022 -5.3723 -0.0007
# 2 54.1473 148.9810 56.6893 0.0107 -9.6144 -0.0033
# 3 64.6358 56.6893 134.2332 0.0017 -11.3344 -0.0025
# 4 0.0022 0.0107 0.0017 52.0194 0.0019 27.3333
# 5 -5.3723 -9.6144 -11.3344 0.0019 30.3779 0.0018
# 6 -0.0007 -0.0033 -0.0025 27.3333 0.0018 15.6093
#
#
#
# Elastic Compliance Matrix: (Units=1/GPa)
#
#
# Indices 1 2 3 4 5 6 
#
# 1 0.007644 -0.001653 -0.003008 0.000004 -0.000293 -0.000008
# 2 -0.001653 0.008406 -0.002637 -0.000028 0.001384 0.000050
# 3 -0.003008 -0.002637 0.010218 -0.000001 0.002446 0.000002
# 4 0.000004 -0.000028 -0.000001 0.240590 0.000002 -0.421296
# 5 -0.000293 0.001384 0.002446 0.000002 0.034217 -0.000007
# 6 -0.000008 0.000050 0.000002 -0.421296 -0.000007 0.801791
#
#
# Mechanical properties :
#
#
# Convention : Reuss Voigt Hill
#
# Bulk Modulus (GPa) = 85.66763 89.10097 87.38430
# Shear Modulus (GPa) = 4.45890 37.96743 21.21316
#
# Velocity S-wave (km/s) = 1.39096 4.05889 3.03392
# Velocity P-wave (km/s) = 6.30492 7.78641 7.08450
#
# Compressibility (1/GPa) = 0.01167302
#
# Stress axis : x y z
#
# Youngs Moduli (GPa) = 130.81759 118.96549 97.86441
#
# Poissons Ratio (x) = 0.19663 0.29434
# Poissons Ratio (y) = 0.21622 0.25809
# Poissons Ratio (z) = 0.39345 0.31374
#
# Static dielectric constant tensor:
#      x y z
#    x 4.245300 0.000000 0.038880 
#    y 0.000000 4.461490 -0.000020 
#    z 0.038880 -0.000020 4.259820 
# 
# 
# High freq. dielectric constant tensor:
#      x y z
#    x 1.926940 0.000000 -0.006360 
#    y 0.000000 1.938590 0.000000 
#    z -0.006360 0.000000 1.919450 
# 
# From -- ./inp_files/223990.got.cif
#   From: 2010.06.25/outbox.cif.g09.slc.cpg/sg15_112_cif.got.tgz:223990.got - 2010.06.28 07:06:18.
