data_PCOD8155160
_publ_section_title
;
Structure prediction by ZEFSAII (Michael W. Deem and Ramdas Pophale) SiO2 
 PCOD8155160
Probable space group: C 2/C
;
_chemical_formula_sum "Si O2"
_cell_formula_units_Z 32
_cell_length_a 13.130068
_cell_length_b 18.111189
_cell_length_c 7.354604
_cell_angle_alpha 90.000000
_cell_angle_beta 47.590860
_cell_angle_gamma 90.000000
_cell_volume 1291.320947
_symmetry_space_group_name_H-M "C 2/C"
_symmetry_group_IT_number 15
_symmetry_cell_setting 'monoclinic'
loop_
_space_group_symop_operation_xyz
x,y,z
-x,y,1/2-z
-x,-y,-z
x,-y,1/2+z
1/2+x,1/2+y,z
1/2-x,1/2+y,1/2-z
1/2-x,1/2-y,-z
1/2+x,1/2-y,1/2+z
loop_
_atom_site_type_symbol
_atom_site_label
_atom_site_fract_x
_atom_site_fract_y
_atom_site_fract_z
Si Si1 0.529079 0.816095 0.501757
Si Si2 0.243213 0.421651 0.120669
Si Si3 0.150287 0.930329 0.123947
Si Si4 0.770551 0.182372 0.261125
O O1 0.500000 0.816524 0.750000
O O2 0.590142 0.895412 0.365662
O O3 0.391868 0.799094 0.552715
O O4 0.646119 0.757164 0.306687
O O5 0.346610 0.412881 0.166437
O O6 0.237465 0.507196 0.064884
O O7 0.304093 0.373929 0.882386
O O8 0.000000 0.959999 0.250000
O O9 0.183385 0.853664 0.984419
#
# Coordination Sequence:
#
# PCOD8155160 Si02
#       4
#     8   8   8   8
#     4  12  27  51  78 115 157 204 254 318 381 457
#     4  12  27  49  79 112 153 202 258 313 382 456
#     4  12  27  49  78 116 157 203 253 318 384 456
#     4  12  28  51  79 115 155 205 256 316 385 453
#
# _framework density 24.780828
#
# number of rings (size 3 to 8) (size 9 to 14) (size 15 to 20)
#    0.000    0.000    5.000    3.750    3.500    1.000 
#    4.500    0.000    0.000    0.000    0.000    0.000 
#    0.000    0.000    0.000    0.000    0.000    0.000 
#
# Total GULP energy -198537.709656 kJ/mol
# GULP energy per Si atom -12408.606854 kJ/mol
# Density = 2.472443 g / cm^3
# Si number density = 24.780828 Si / 1000 Ang^3
#
#
#
# Elastic Constant Matrix: (Units=GPa)
#
#
# Indices 1 2 3 4 5 6 
#
# 1 160.1951 44.9458 50.4301 0.0000 -0.3674 0.0000
# 2 44.9458 101.4696 25.9750 0.0000 -28.7810 0.0000
# 3 50.4301 25.9750 77.2541 0.0000 -23.4983 0.0000
# 4 0.0000 0.0000 0.0000 48.8415 0.0000 3.0713
# 5 -0.3674 -28.7810 -23.4983 0.0000 50.6883 0.0000
# 6 0.0000 0.0000 0.0000 3.0713 0.0000 28.2949
#
#
#
# Elastic Compliance Matrix: (Units=1/GPa)
#
#
# Indices 1 2 3 4 5 6 
#
# 1 0.009331 -0.003967 -0.006312 0.000000 -0.005111 0.000000
# 2 -0.003967 0.013775 0.000382 0.000000 0.007970 0.000000
# 3 -0.006312 0.000382 0.019777 0.000000 0.009339 0.000000
# 4 0.000000 0.000000 0.000000 0.020615 0.000000 -0.002238
# 5 -0.005111 0.007970 0.009339 0.000000 0.028546 0.000000
# 6 0.000000 0.000000 0.000000 -0.002238 0.000000 0.035585
#
#
# Mechanical properties :
#
#
# Convention : Reuss Voigt Hill
#
# Bulk Modulus (GPa) = 43.30939 64.62451 53.96695
# Shear Modulus (GPa) = 32.23357 40.06948 36.15153
#
# Velocity S-wave (km/s) = 3.61050 4.02550 3.82363
# Velocity P-wave (km/s) = 5.90727 6.90950 6.42795
#
# Compressibility (1/GPa) = 0.02308968
#
# Stress axis : x y z
#
# Youngs Moduli (GPa) = 107.17472 72.59499 50.56467
#
# Poissons Ratio (x) = 0.28798 0.31914
# Poissons Ratio (y) = 0.42515 -0.01932
# Poissons Ratio (z) = 0.67644 -0.02774
#
# Static dielectric constant tensor:
#      x y z
#    x 4.626720 0.000000 0.129100 
#    y 0.000000 4.476780 0.000000 
#    z 0.129100 0.000000 4.533380 
# 
# 
# High freq. dielectric constant tensor:
#      x y z
#    x 1.997180 0.000000 0.019600 
#    y 0.000000 1.986300 0.000000 
#    z 0.019600 0.000000 1.995690 
# 
# From -- ./inp_files/31619.got.cif
#   From: 2010.06.25/outbox.cif.g09.slc.cpg/sg15_16_cif.got.tgz:31619.got - 2010.06.28 07:06:18.
