data_PCOD8155417
_publ_section_title
;
Structure prediction by ZEFSAII (Michael W. Deem and Ramdas Pophale) SiO2 
 PCOD8155417
Probable space group: P 2 2 21
;
_chemical_formula_sum "Si O2"
_cell_formula_units_Z 26
_cell_length_a 20.944531
_cell_length_b 13.749540
_cell_length_c 5.007082
_cell_angle_alpha 90.000000
_cell_angle_beta 90.000000
_cell_angle_gamma 90.000000
_cell_volume 1441.927792
_symmetry_space_group_name_H-M "P 2 2 21"
_symmetry_group_IT_number 17
_symmetry_cell_setting 'orthorhombic'
loop_
_space_group_symop_operation_xyz
x,y,z
-x,-y,1/2+z
x,-y,-z
-x,y,1/2-z
loop_
_atom_site_type_symbol
_atom_site_label
_atom_site_fract_x
_atom_site_fract_y
_atom_site_fract_z
Si Si1 0.043169 0.797566 0.502246
Si Si2 0.883025 0.394416 0.967619
Si Si3 0.500000 0.066054 0.250000
Si Si4 0.825115 0.110362 0.930667
Si Si5 0.637632 0.931195 0.749926
Si Si6 0.244034 0.190833 0.085944
Si Si7 0.201954 0.605761 0.962364
O O1 0.068691 0.689245 0.557204
O O2 0.098967 0.873204 0.420975
O O3 0.000000 0.834338 0.750000
O O4 0.000000 0.791246 0.250000
O O5 0.822257 0.392462 0.160560
O O6 0.917228 0.500000 0.000000
O O7 0.857441 0.378964 0.665823
O O8 0.432195 0.122226 0.294922
O O9 0.513556 0.000000 0.500000
O O10 0.787464 0.131200 0.656811
O O11 0.803076 0.182834 0.163419
O O12 0.808662 0.000000 0.000000
O O13 0.687909 0.846978 0.688573
O O14 0.635738 0.000000 0.500000
O O15 0.656677 0.000000 0.000000
O O16 0.251180 0.304341 0.002625
O O17 0.235663 0.500000 0.000000
#
# Coordination Sequence:
#
# PCOD8155417 Si02
#       7
#     4   4   2   4   4   4   4
#     4  12  24  38  56  73  99 129 172 212 265 325
#     4  10  20  37  56  76  99 126 162 213 269 321
#     4   8  16  30  46  70 112 148 174 208 244 294
#     4  12  25  39  55  76 102 135 174 219 260 303
#     4  10  19  31  50  79 111 146 178 208 251 301
#     4  12  20  36  57  79 105 135 173 218 258 304
#     4  10  19  34  56  77 102 131 163 208 269 316
#
# _framework density 18.031414999999999
#
# number of rings (size 3 to 8) (size 9 to 14) (size 15 to 20)
#    0.000    1.231    3.077    4.615    0.000    1.231 
#    0.000    0.000    0.000    0.000    0.000    0.000 
#    0.000   13.538    0.000    0.000    0.000   18.308 
#
# Total GULP energy -322163.897033 kJ/mol
# GULP energy per Si atom -12390.919117 kJ/mol
# Density = 1.799037 g / cm^3
# Si number density = 18.031415 Si / 1000 Ang^3
#
#
#
# Elastic Constant Matrix: (Units=GPa)
#
#
# Indices 1 2 3 4 5 6 
#
# 1 102.1070 58.4070 20.2632 0.0000 0.0000 0.0000
# 2 58.4070 79.8064 16.6616 0.0000 0.0000 0.0000
# 3 20.2632 16.6616 88.1458 0.0000 0.0000 0.0000
# 4 0.0000 0.0000 0.0000 18.1266 0.0000 0.0000
# 5 0.0000 0.0000 0.0000 0.0000 33.9690 0.0000
# 6 0.0000 0.0000 0.0000 0.0000 0.0000 -262.7946
#
#
#
# Elastic Compliance Matrix: (Units=1/GPa)
#
#
# Indices 1 2 3 4 5 6 
#
# 1 0.017067 -0.012151 -0.001627 0.000000 0.000000 0.000000
# 2 -0.012151 0.021696 -0.001308 0.000000 0.000000 0.000000
# 3 -0.001627 -0.001308 0.011966 0.000000 0.000000 0.000000
# 4 0.000000 0.000000 0.000000 0.055168 0.000000 0.000000
# 5 0.000000 0.000000 0.000000 0.000000 0.029439 0.000000
# 6 0.000000 0.000000 0.000000 0.000000 0.000000 -0.003805
#
#
# Mechanical properties :
#
#
# Convention : Reuss Voigt Hill
#
# Bulk Modulus (GPa) = 48.64196 51.19142 49.91669
# Shear Modulus (GPa) = 29.66409 -30.49133 -0.41362
#
# Velocity S-wave (km/s) = 4.06042 -4.11665 -0.47946
# Velocity P-wave (km/s) = 7.00125 2.41992 5.23801
#
# Compressibility (1/GPa) = 0.02055838
#
# Stress axis : x y z
#
# Youngs Moduli (GPa) = 58.59223 46.09088 83.57035
#
# Poissons Ratio (x) = 0.56006 0.13594
# Poissons Ratio (y) = 0.71196 0.10929
# Poissons Ratio (z) = 0.09531 0.06028
#
# Static dielectric constant tensor:
#      x y z
#    x 3.533950 0.000000 0.000000 
#    y 0.000000 3.221260 0.000000 
#    z 0.000000 0.000000 5.447580 
# 
# 
# High freq. dielectric constant tensor:
#      x y z
#    x 1.670650 0.000000 0.000000 
#    y 0.000000 1.682380 0.000000 
#    z 0.000000 0.000000 1.726930 
# 
# From -- ./inp_files/2679.got.cif
#   From: 2010.03.12/outbox.cif.g09.slc.cpg/sg17_2_cif.got.tgz:2679.got - 2010.04.10 18:46:23.
