data_PCOD8155397
_publ_section_title
;
Structure prediction by ZEFSAII (Michael W. Deem and Ramdas Pophale) SiO2 
 PCOD8155397
Probable space group: P 2 2 21
;
_chemical_formula_sum "Si O2"
_cell_formula_units_Z 26
_cell_length_a 7.746443
_cell_length_b 6.097095
_cell_length_c 25.931888
_cell_angle_alpha 90.000000
_cell_angle_beta 90.000000
_cell_angle_gamma 90.000000
_cell_volume 1224.783787
_symmetry_space_group_name_H-M "P 2 2 21"
_symmetry_group_IT_number 17
_symmetry_cell_setting 'orthorhombic'
loop_
_space_group_symop_operation_xyz
x,y,z
-x,-y,1/2+z
x,-y,-z
-x,y,1/2-z
loop_
_atom_site_type_symbol
_atom_site_label
_atom_site_fract_x
_atom_site_fract_y
_atom_site_fract_z
Si Si1 0.586380 0.176703 0.537172
Si Si2 0.671565 0.500000 0.000000
Si Si3 0.325365 0.038984 0.618137
Si Si4 0.317482 0.210533 0.278552
Si Si5 0.868885 0.410987 0.828134
Si Si6 0.837612 0.500000 0.500000
Si Si7 0.910683 0.318332 0.077504
Si Si8 0.000000 0.912867 0.250000
O O1 0.431314 0.274466 0.503193
O O2 0.509181 0.075166 0.589559
O O3 0.727257 0.369896 0.543787
O O4 0.674918 0.000000 0.500000
O O5 0.775033 0.489632 0.053367
O O6 0.266531 0.273876 0.638403
O O7 0.363378 0.875569 0.664875
O O8 0.173105 0.924391 0.583666
O O9 0.500000 0.222287 0.250000
O O10 0.234810 0.452838 0.284260
O O11 0.175330 0.057809 0.249436
O O12 0.967076 0.581426 0.866657
O O13 0.002005 0.243361 0.800666
O O14 0.938215 0.680583 0.534632
#
# Coordination Sequence:
#
# PCOD8155397 Si02
#       8
#     4   2   4   4   4   2   4   2
#     4  11  21  38  58  90 128 165 203 256 308 367
#     4  10  18  34  64  82 118 168 204 244 296 364
#     4  10  21  38  66  90 119 170 218 247 312 390
#     4  10  23  42  65  95 126 160 211 270 327 387
#     4  10  21  39  66  90 123 164 213 259 321 385
#     4  10  26  36  56  96 134 156 204 266 314 346
#     4  10  20  39  59  91 120 168 210 250 304 379
#     4  10  22  42  64  96 122 164 210 266 326 386
#
# _framework density 21.228235999999999
#
# number of rings (size 3 to 8) (size 9 to 14) (size 15 to 20)
#    0.000    1.846    3.077    0.462    0.000    4.923 
#    0.000    9.231    0.000    0.000    0.000    0.000 
#    0.000    0.000    0.000    0.000    0.000    0.000 
#
# Total GULP energy -322100.374171 kJ/mol
# GULP energy per Si atom -12388.475930 kJ/mol
# Density = 2.117992 g / cm^3
# Si number density = 21.228236 Si / 1000 Ang^3
#
#
#
# Elastic Constant Matrix: (Units=GPa)
#
#
# Indices 1 2 3 4 5 6 
#
# 1 111.8701 46.4863 52.2989 0.0000 0.0000 0.0000
# 2 46.4863 105.8114 36.1502 0.0000 0.0000 0.0000
# 3 52.2989 36.1502 91.1701 0.0000 0.0000 0.0000
# 4 0.0000 0.0000 0.0000 40.5769 0.0000 0.0000
# 5 0.0000 0.0000 0.0000 0.0000 26.7770 0.0000
# 6 0.0000 0.0000 0.0000 0.0000 0.0000 18.3559
#
#
#
# Elastic Compliance Matrix: (Units=1/GPa)
#
#
# Indices 1 2 3 4 5 6 
#
# 1 0.013401 -0.003772 -0.006192 0.000000 0.000000 0.000000
# 2 -0.003772 0.011993 -0.002592 0.000000 0.000000 0.000000
# 3 -0.006192 -0.002592 0.015548 0.000000 0.000000 0.000000
# 4 0.000000 0.000000 0.000000 0.024645 0.000000 0.000000
# 5 0.000000 0.000000 0.000000 0.000000 0.037345 0.000000
# 6 0.000000 0.000000 0.000000 0.000000 0.000000 0.054478
#
#
# Mechanical properties :
#
#
# Convention : Reuss Voigt Hill
#
# Bulk Modulus (GPa) = 63.16567 64.30248 63.73408
# Shear Modulus (GPa) = 26.62423 28.73639 27.68031
#
# Velocity S-wave (km/s) = 3.54530 3.68324 3.61493
# Velocity P-wave (km/s) = 6.82488 6.96025 6.89290
#
# Compressibility (1/GPa) = 0.01583138
#
# Stress axis : x y z
#
# Youngs Moduli (GPa) = 74.62148 83.37895 64.31716
#
# Poissons Ratio (x) = 0.31451 0.39823
# Poissons Ratio (y) = 0.28148 0.16669
# Poissons Ratio (z) = 0.46203 0.21610
#
# Static dielectric constant tensor:
#      x y z
#    x 3.625320 0.000000 0.000000 
#    y 0.000000 3.938090 0.000000 
#    z 0.000000 0.000000 3.844680 
# 
# 
# High freq. dielectric constant tensor:
#      x y z
#    x 1.804990 0.000000 0.000000 
#    y 0.000000 1.845940 0.000000 
#    z 0.000000 0.000000 1.827880 
# 
# From -- ./inp_files/10591.got.cif
#   From: 2010.03.12/outbox.cif.g09.slc.cpg/sg17_6_cif.got.tgz:10591.got - 2010.04.10 18:46:23.
