data_PCOD8155599
_publ_section_title
;
Structure prediction by ZEFSAII (Michael W. Deem and Ramdas Pophale) SiO2 
 PCOD8155599
Probable space group: P 2 2 21
;
_chemical_formula_sum "Si O2"
_cell_formula_units_Z 20
_cell_length_a 10.860023
_cell_length_b 7.056403
_cell_length_c 12.404614
_cell_angle_alpha 90.000000
_cell_angle_beta 90.000000
_cell_angle_gamma 90.000000
_cell_volume 950.599049
_symmetry_space_group_name_H-M "P 2 2 21"
_symmetry_group_IT_number 17
_symmetry_cell_setting 'orthorhombic'
loop_
_space_group_symop_operation_xyz
x,y,z
-x,-y,1/2+z
x,-y,-z
-x,y,1/2-z
loop_
_atom_site_type_symbol
_atom_site_label
_atom_site_fract_x
_atom_site_fract_y
_atom_site_fract_z
Si Si1 0.527845 0.877975 0.906026
Si Si2 0.224277 0.622700 0.332343
Si Si3 0.425217 0.500000 0.500000
Si Si4 0.972928 0.500000 0.000000
Si Si5 0.695341 0.013915 0.274787
Si Si6 0.115378 0.688300 0.820024
O O1 0.490484 0.669891 0.952108
O O2 0.413176 0.004307 0.863397
O O3 0.636268 0.854512 0.818826
O O4 0.589854 0.000000 0.000000
O O5 0.344741 0.570896 0.399579
O O6 0.109457 0.624837 0.416603
O O7 0.194561 0.477524 0.236255
O O8 0.251061 0.820449 0.273036
O O9 0.065317 0.637550 0.937529
O O10 0.804115 0.124423 0.333023
O O11 0.000000 0.748274 0.750000
#
# Coordination Sequence:
#
# PCOD8155599 Si02
#       6
#     4   4   2   2   4   4
#     4  11  24  41  63  98 128 171 224 265 327 404
#     4  10  21  41  67  91 131 171 212 273 326 391
#     4  11  20  41  68  88 126 181 215 260 332 396
#     4   9  22  41  68  96 130 177 227 260 332 402
#     4  11  24  41  64  97 134 164 218 278 326 385
#     4  10  22  42  65  98 128 170 221 270 324 388
#
# _framework density 21.039363999999999
#
# number of rings (size 3 to 8) (size 9 to 14) (size 15 to 20)
#    0.000    1.600    4.000    0.000    0.000    6.400 
#    0.000    4.000    0.000    0.000    0.000    0.000 
#    0.000    0.000    0.000    0.000    0.000    0.000 
#
# Total GULP energy -247862.734516 kJ/mol
# GULP energy per Si atom -12393.136726 kJ/mol
# Density = 2.099148 g / cm^3
# Si number density = 21.039364 Si / 1000 Ang^3
#
#
#
# Elastic Constant Matrix: (Units=GPa)
#
#
# Indices 1 2 3 4 5 6 
#
# 1 88.4076 43.1382 30.6785 0.0000 0.0000 0.0000
# 2 43.1382 116.6259 34.7860 0.0000 0.0000 0.0000
# 3 30.6785 34.7860 83.8840 0.0000 0.0000 0.0000
# 4 0.0000 0.0000 0.0000 19.5616 0.0000 0.0000
# 5 0.0000 0.0000 0.0000 0.0000 21.1318 0.0000
# 6 0.0000 0.0000 0.0000 0.0000 0.0000 35.1207
#
#
#
# Elastic Compliance Matrix: (Units=1/GPa)
#
#
# Indices 1 2 3 4 5 6 
#
# 1 0.014677 -0.004368 -0.003556 0.000000 0.000000 0.000000
# 2 -0.004368 0.011085 -0.002999 0.000000 0.000000 0.000000
# 3 -0.003556 -0.002999 0.014466 0.000000 0.000000 0.000000
# 4 0.000000 0.000000 0.000000 0.051121 0.000000 0.000000
# 5 0.000000 0.000000 0.000000 0.000000 0.047322 0.000000
# 6 0.000000 0.000000 0.000000 0.000000 0.000000 0.028473
#
#
# Mechanical properties :
#
#
# Convention : Reuss Voigt Hill
#
# Bulk Modulus (GPa) = 54.40704 56.23588 55.32146
# Shear Modulus (GPa) = 25.62572 27.18379 26.40476
#
# Velocity S-wave (km/s) = 3.49376 3.59840 3.54646
# Velocity P-wave (km/s) = 6.49545 6.63714 6.56668
#
# Compressibility (1/GPa) = 0.01837997
#
# Stress axis : x y z
#
# Youngs Moduli (GPa) = 68.13556 90.21486 69.12947
#
# Poissons Ratio (x) = 0.39405 0.24584
# Poissons Ratio (y) = 0.29761 0.20734
# Poissons Ratio (z) = 0.24231 0.27058
#
# Static dielectric constant tensor:
#      x y z
#    x 3.770590 0.000000 0.000000 
#    y 0.000000 3.628300 0.000000 
#    z 0.000000 0.000000 3.912530 
# 
# 
# High freq. dielectric constant tensor:
#      x y z
#    x 1.816180 0.000000 0.000000 
#    y 0.000000 1.812810 0.000000 
#    z 0.000000 0.000000 1.837650 
# 
# From -- ./inp_files/8415.got.cif
#   From: 2010.03.12/outbox.cif.g09.slc.cpg/sg17_5_cif.got.tgz:8415.got - 2010.04.10 18:46:23.
