data_PCOD8155474
_publ_section_title
;
Structure prediction by ZEFSAII (Michael W. Deem and Ramdas Pophale) SiO2 
 PCOD8155474
Probable space group: P 2 2 21
;
_chemical_formula_sum "Si O2"
_cell_formula_units_Z 26
_cell_length_a 12.581101
_cell_length_b 8.308151
_cell_length_c 12.592975
_cell_angle_alpha 90.000000
_cell_angle_beta 90.000000
_cell_angle_gamma 90.000000
_cell_volume 1316.289361
_symmetry_space_group_name_H-M "P 2 2 21"
_symmetry_group_IT_number 17
_symmetry_cell_setting 'orthorhombic'
loop_
_space_group_symop_operation_xyz
x,y,z
-x,-y,1/2+z
x,-y,-z
-x,y,1/2-z
loop_
_atom_site_type_symbol
_atom_site_label
_atom_site_fract_x
_atom_site_fract_y
_atom_site_fract_z
Si Si1 0.894845 0.000000 0.500000
Si Si2 0.004633 0.725346 0.124086
Si Si3 0.734046 0.779903 0.623143
Si Si4 0.716794 0.914304 0.853327
Si Si5 0.774495 0.245276 0.933874
Si Si6 0.164653 0.500000 0.000000
Si Si7 0.616449 0.500000 0.000000
Si Si8 0.503529 0.764221 0.869738
O O1 0.970107 0.096603 0.580606
O O2 0.818861 0.108618 0.431184
O O3 0.091990 0.604931 0.077969
O O4 0.000000 0.724620 0.250000
O O5 0.888023 0.674160 0.086045
O O6 0.746642 0.811432 0.749085
O O7 0.761207 0.600180 0.582017
O O8 0.612490 0.823116 0.590488
O O9 0.589744 0.908510 0.878729
O O10 0.748993 0.102947 0.847974
O O11 0.778178 0.827206 0.948127
O O12 0.688728 0.388042 0.923622
O O13 0.539121 0.608196 0.932033
O O14 0.500000 0.702864 0.750000
#
# Coordination Sequence:
#
# PCOD8155474 Si02
#       8
#     2   4   4   4   4   2   2   4
#     4  10  22  36  56  82 108 146 190 228 282 334
#     4  11  23  39  57  82 112 145 188 235 280 335
#     4  10  20  38  56  80 116 150 186 234 277 332
#     4   9  19  36  59  81 108 147 187 228 281 339
#     4  10  20  36  57  83 111 141 185 237 284 335
#     4  10  24  38  56  82 112 154 192 224 286 340
#     4  10  20  34  56  84 112 142 180 230 282 336
#     4   9  19  35  55  79 109 145 183 223 277 335
#
# _framework density 19.752496000000001
#
# number of rings (size 3 to 8) (size 9 to 14) (size 15 to 20)
#    0.000    2.154    0.000    2.769    0.000    7.385 
#    0.000    6.923    0.000    0.000    0.000    0.000 
#    0.000    0.000    0.000    0.000    0.000    0.000 
#
# Total GULP energy -322267.909843 kJ/mol
# GULP energy per Si atom -12394.919609 kJ/mol
# Density = 1.970754 g / cm^3
# Si number density = 19.752496 Si / 1000 Ang^3
#
#
#
# Elastic Constant Matrix: (Units=GPa)
#
#
# Indices 1 2 3 4 5 6 
#
# 1 89.7539 6.9440 38.4388 0.0000 0.0000 0.0000
# 2 6.9440 66.5444 27.6443 0.0000 0.0000 0.0000
# 3 38.4388 27.6443 105.5816 0.0000 0.0000 0.0000
# 4 0.0000 0.0000 0.0000 31.7825 0.0000 0.0000
# 5 0.0000 0.0000 0.0000 0.0000 67.8459 0.0000
# 6 0.0000 0.0000 0.0000 0.0000 0.0000 33.2530
#
#
#
# Elastic Compliance Matrix: (Units=1/GPa)
#
#
# Indices 1 2 3 4 5 6 
#
# 1 0.013228 0.000696 -0.004998 0.000000 0.000000 0.000000
# 2 0.000696 0.016898 -0.004678 0.000000 0.000000 0.000000
# 3 -0.004998 -0.004678 0.012516 0.000000 0.000000 0.000000
# 4 0.000000 0.000000 0.000000 0.031464 0.000000 0.000000
# 5 0.000000 0.000000 0.000000 0.000000 0.014739 0.000000
# 6 0.000000 0.000000 0.000000 0.000000 0.000000 0.030073
#
#
# Mechanical properties :
#
#
# Convention : Reuss Voigt Hill
#
# Bulk Modulus (GPa) = 40.51496 45.32602 42.92049
# Shear Modulus (GPa) = 34.45768 39.16647 36.81208
#
# Velocity S-wave (km/s) = 4.18122 4.45776 4.32170
# Velocity P-wave (km/s) = 6.62314 7.03508 6.83221
#
# Compressibility (1/GPa) = 0.02468224
#
# Stress axis : x y z
#
# Youngs Moduli (GPa) = 75.59540 59.17784 79.89876
#
# Poissons Ratio (x) = -0.04119 0.39935
# Poissons Ratio (y) = -0.05261 0.37375
# Poissons Ratio (z) = 0.37784 0.27682
#
# Static dielectric constant tensor:
#      x y z
#    x 3.889850 0.000000 0.000000 
#    y 0.000000 3.372380 0.000000 
#    z 0.000000 0.000000 3.586610 
# 
# 
# High freq. dielectric constant tensor:
#      x y z
#    x 1.785970 0.000000 0.000000 
#    y 0.000000 1.763770 0.000000 
#    z 0.000000 0.000000 1.766450 
# 
# From -- ./inp_files/6992.got.cif
#   From: 2010.03.12/outbox.cif.g09.slc.cpg/sg17_4_cif.got.tgz:6992.got - 2010.04.10 18:46:23.
