data_PCOD8155778
_publ_section_title
;
Structure prediction by ZEFSAII (Michael W. Deem and Ramdas Pophale) SiO2 
 PCOD8155778
Probable space group: P 21 21 2
;
_chemical_formula_sum "Si O2"
_cell_formula_units_Z 30
_cell_length_a 14.861275
_cell_length_b 9.012990
_cell_length_c 10.679201
_cell_angle_alpha 90.000000
_cell_angle_beta 90.000000
_cell_angle_gamma 90.000000
_cell_volume 1430.420484
_symmetry_space_group_name_H-M "P 21 21 2"
_symmetry_group_IT_number 18
_symmetry_cell_setting 'orthorhombic'
loop_
_space_group_symop_operation_xyz
x,y,z
-x,-y,z
1/2+x,1/2-y,-z
1/2-x,1/2+y,-z
loop_
_atom_site_type_symbol
_atom_site_label
_atom_site_fract_x
_atom_site_fract_y
_atom_site_fract_z
Si Si1 0.993554 0.677528 0.495548
Si Si2 0.186293 0.237729 0.629318
Si Si3 0.713770 0.512464 0.536926
Si Si4 0.000000 0.500000 0.835473
Si Si5 0.568114 0.382254 0.711082
Si Si6 0.681390 0.120658 0.103972
Si Si7 0.769359 0.800421 0.134091
Si Si8 0.139432 0.673763 0.669846
O O1 0.913194 0.718376 0.588583
O O2 0.982325 0.747331 0.358471
O O3 0.000000 0.500000 0.481744
O O4 0.085896 0.751149 0.554562
O O5 0.260351 0.313328 0.532316
O O6 0.206426 0.062999 0.600953
O O7 0.201426 0.277538 0.773979
O O8 0.622787 0.477171 0.609553
O O9 0.798308 0.458818 0.620895
O O10 0.073565 0.405777 0.917052
O O11 0.057110 0.608287 0.749289
O O12 0.500000 0.500000 0.774157
O O13 0.628792 0.310032 0.817827
O O14 0.731013 0.964160 0.111634
O O15 0.728855 0.205102 0.990533
O O16 0.702762 0.724256 0.239325
#
# Coordination Sequence:
#
# PCOD8155778 Si02
#       8
#     4   4   4   2   4   4   4   4
#     4  11  18  34  63  94 112 152 214 258 299 384
#     4  11  20  37  61  91 120 156 204 255 315 370
#     4  10  20  34  61  90 121 158 194 251 315 379
#     4  10  16  36  70  82 110 160 222 246 298 356
#     4  10  23  40  54  85 132 162 190 253 331 365
#     4  11  21  44  65  90 120 171 218 262 305 375
#     4  10  23  44  61  86 129 168 216 253 313 374
#     4  10  16  36  63  85 115 159 197 257 307 356
#
# _framework density 20.972853000000001
#
# number of rings (size 3 to 8) (size 9 to 14) (size 15 to 20)
#    0.000    1.600    7.333    0.000    1.867    0.000 
#   13.200    0.000    0.000    0.800    0.000    0.000 
#    0.000    0.000    0.000    0.000    0.000    0.000 
#
# Total GULP energy -371647.777960 kJ/mol
# GULP energy per Si atom -12388.259265 kJ/mol
# Density = 2.092512 g / cm^3
# Si number density = 20.972853 Si / 1000 Ang^3
#
#
#
# Elastic Constant Matrix: (Units=GPa)
#
#
# Indices 1 2 3 4 5 6 
#
# 1 108.5819 24.3681 39.5243 0.0000 0.0000 0.0000
# 2 24.3681 42.8867 38.4980 0.0000 0.0000 0.0000
# 3 39.5243 38.4980 84.4025 0.0000 0.0000 0.0000
# 4 0.0000 0.0000 0.0000 27.9505 0.0000 0.0000
# 5 0.0000 0.0000 0.0000 0.0000 32.5913 0.0000
# 6 0.0000 0.0000 0.0000 0.0000 0.0000 23.7407
#
#
#
# Elastic Compliance Matrix: (Units=1/GPa)
#
#
# Indices 1 2 3 4 5 6 
#
# 1 0.011301 -0.002829 -0.004002 0.000000 0.000000 0.000000
# 2 -0.002829 0.040192 -0.017008 0.000000 0.000000 0.000000
# 3 -0.004002 -0.017008 0.021480 0.000000 0.000000 0.000000
# 4 0.000000 0.000000 0.000000 0.035778 0.000000 0.000000
# 5 0.000000 0.000000 0.000000 0.000000 0.030683 0.000000
# 6 0.000000 0.000000 0.000000 0.000000 0.000000 0.042122
#
#
# Mechanical properties :
#
#
# Convention : Reuss Voigt Hill
#
# Bulk Modulus (GPa) = 39.53244 48.96131 44.24688
# Shear Modulus (GPa) = 21.03809 25.75520 23.39665
#
# Velocity S-wave (km/s) = 3.17063 3.50812 3.34364
# Velocity P-wave (km/s) = 5.68279 6.30912 6.00413
#
# Compressibility (1/GPa) = 0.02529568
#
# Stress axis : x y z
#
# Youngs Moduli (GPa) = 88.48614 24.88059 46.55585
#
# Poissons Ratio (x) = 0.07039 0.18631
# Poissons Ratio (y) = 0.25033 0.79181
# Poissons Ratio (z) = 0.35410 0.42316
#
# Static dielectric constant tensor:
#      x y z
#    x 4.296570 0.000000 0.000000 
#    y 0.000000 3.636670 0.000000 
#    z 0.000000 0.000000 3.754310 
# 
# 
# High freq. dielectric constant tensor:
#      x y z
#    x 1.847050 0.000000 0.000000 
#    y 0.000000 1.801160 0.000000 
#    z 0.000000 0.000000 1.799060 
# 
# From -- ./inp_files/6090.got.cif
#   From: 2010.03.12/outbox.cif.g09.slc.cpg/sg18_4_cif.got.tgz:6090.got - 2010.04.10 18:53:55.
