data_PCOD8155928
_publ_section_title
;
Structure prediction by ZEFSAII (Michael W. Deem and Ramdas Pophale) SiO2 
 PCOD8155928
Probable space group: P 21 21 2
;
_chemical_formula_sum "Si O2"
_cell_formula_units_Z 32
_cell_length_a 17.394842
_cell_length_b 9.060044
_cell_length_c 11.522449
_cell_angle_alpha 90.000000
_cell_angle_beta 90.000000
_cell_angle_gamma 90.000000
_cell_volume 1815.915308
_symmetry_space_group_name_H-M "P 21 21 2"
_symmetry_group_IT_number 18
_symmetry_cell_setting 'orthorhombic'
loop_
_space_group_symop_operation_xyz
x,y,z
-x,-y,z
1/2+x,1/2-y,-z
1/2-x,1/2+y,-z
loop_
_atom_site_type_symbol
_atom_site_label
_atom_site_fract_x
_atom_site_fract_y
_atom_site_fract_z
Si Si1 0.804552 0.337614 0.844829
Si Si2 0.195448 0.337613 0.844830
Si Si3 0.223233 0.175727 0.382681
Si Si4 0.723233 0.675728 0.617319
Si Si5 0.912869 0.669353 0.259894
Si Si6 0.138221 0.163300 0.043775
Si Si7 0.087131 0.669352 0.259895
Si Si8 0.138221 0.836700 0.043774
O O1 0.842449 0.500000 0.840203
O O2 0.786619 0.280848 0.714700
O O3 0.724785 0.347508 0.912580
O O4 0.862579 0.229537 0.912970
O O5 0.213382 0.280847 0.714701
O O6 0.275214 0.347508 0.912583
O O7 0.137421 0.229535 0.912970
O O8 0.250000 0.250000 0.500000
O O9 0.139921 0.237808 0.347383
O O10 0.216440 1.000000 0.395659
O O11 0.639921 0.737809 0.652616
O O12 0.910167 0.733100 0.129411
O O13 0.884521 0.500000 0.256979
O O14 1.000000 0.680429 0.305793
O O15 0.101091 1.000000 0.039897
O O16 0.089833 0.733100 0.129411
#
# Coordination Sequence:
#
# PCOD8155928 Si02
#       8
#     4   4   4   4   4   4   4   4
#     4   8  15  27  43  66  94 122 152 188 233 283
#     4   8  15  27  43  66  94 122 152 188 233 283
#     4  10  20  33  51  74 100 132 170 211 251 296
#     4  10  20  33  51  74 100 132 170 211 251 296
#     4  10  20  33  50  72  99 131 165 204 252 303
#     4   9  16  26  44  69  94 121 152 190 237 285
#     4  10  20  33  50  72  99 131 165 204 252 303
#     4   9  16  26  44  69  94 121 152 190 237 285
#
# _framework density 17.621967999999999
#
# number of rings (size 3 to 8) (size 9 to 14) (size 15 to 20)
#    0.000    2.750    0.000    3.750    0.000    9.000 
#    0.000    0.000    0.000    1.500    0.000   10.500 
#    0.000    0.000    0.000    0.000    0.000    0.000 
#
# Total GULP energy -396653.895810 kJ/mol
# GULP energy per Si atom -12395.434244 kJ/mol
# Density = 1.758186 g / cm^3
# Si number density = 17.621968 Si / 1000 Ang^3
#
#
#
# Elastic Constant Matrix: (Units=GPa)
#
#
# Indices 1 2 3 4 5 6 
#
# 1 48.1606 37.3750 37.1412 0.0000 0.0000 0.0000
# 2 37.3750 129.1733 68.5953 0.0000 0.0000 0.0000
# 3 37.1412 68.5953 144.9311 0.0000 0.0000 0.0000
# 4 0.0000 0.0000 0.0000 33.4475 0.0000 0.0000
# 5 0.0000 0.0000 0.0000 0.0000 13.7617 0.0000
# 6 0.0000 0.0000 0.0000 0.0000 0.0000 20.5050
#
#
#
# Elastic Compliance Matrix: (Units=1/GPa)
#
#
# Indices 1 2 3 4 5 6 
#
# 1 0.028910 -0.005918 -0.004608 0.000000 0.000000 0.000000
# 2 -0.005918 0.011552 -0.003951 0.000000 0.000000 0.000000
# 3 -0.004608 -0.003951 0.009951 0.000000 0.000000 0.000000
# 4 0.000000 0.000000 0.000000 0.029898 0.000000 0.000000
# 5 0.000000 0.000000 0.000000 0.000000 0.072665 0.000000
# 6 0.000000 0.000000 0.000000 0.000000 0.000000 0.048768
#
#
# Mechanical properties :
#
#
# Convention : Reuss Voigt Hill
#
# Bulk Modulus (GPa) = 46.59991 67.60976 57.10484
# Shear Modulus (GPa) = 21.02165 25.48642 23.25404
#
# Velocity S-wave (km/s) = 3.45762 3.80713 3.63658
# Velocity P-wave (km/s) = 6.51474 7.60103 7.07875
#
# Compressibility (1/GPa) = 0.02145927
#
# Stress axis : x y z
#
# Youngs Moduli (GPa) = 34.59018 86.56603 100.49659
#
# Poissons Ratio (x) = 0.51229 0.46306
# Poissons Ratio (y) = 0.20470 0.39705
# Poissons Ratio (z) = 0.15938 0.34201
#
# Static dielectric constant tensor:
#      x y z
#    x 2.857110 0.000000 0.000000 
#    y 0.000000 3.617520 0.000000 
#    z 0.000000 0.000000 3.334630 
# 
# 
# High freq. dielectric constant tensor:
#      x y z
#    x 1.634700 0.000000 0.000000 
#    y 0.000000 1.699750 0.000000 
#    z 0.000000 0.000000 1.670740 
# 
# From -- ./inp_files/6147.got.cif
#   From: 2010.03.12/outbox.cif.g09.slc.cpg/sg18_4_cif.got.tgz:6147.got - 2010.04.10 18:53:55.
