data_PCOD8155605
_publ_section_title
;
Structure prediction by ZEFSAII (Michael W. Deem and Ramdas Pophale) SiO2 
 PCOD8155605
Probable space group: P 2 2 21
;
_chemical_formula_sum "Si O2"
_cell_formula_units_Z 26
_cell_length_a 9.222572
_cell_length_b 10.943861
_cell_length_c 12.920722
_cell_angle_alpha 90.000000
_cell_angle_beta 90.000000
_cell_angle_gamma 90.000000
_cell_volume 1304.095527
_symmetry_space_group_name_H-M "P 2 2 21"
_symmetry_group_IT_number 17
_symmetry_cell_setting 'orthorhombic'
loop_
_space_group_symop_operation_xyz
x,y,z
-x,-y,1/2+z
x,-y,-z
-x,y,1/2-z
loop_
_atom_site_type_symbol
_atom_site_label
_atom_site_fract_x
_atom_site_fract_y
_atom_site_fract_z
Si Si1 0.744461 0.000000 0.000000
Si Si2 0.434716 0.577249 0.645720
Si Si3 0.916742 0.321485 0.522394
Si Si4 0.369620 0.856426 0.686435
Si Si5 0.678834 0.500000 0.500000
Si Si6 0.888062 0.836143 0.665977
Si Si7 0.817362 0.500000 0.000000
Si Si8 0.003243 0.084272 0.627058
O O1 0.645295 0.917990 0.925681
O O2 0.838606 0.090016 0.926308
O O3 0.500000 0.513842 0.750000
O O4 0.387025 0.713625 0.669126
O O5 0.572878 0.580536 0.570245
O O6 0.290951 0.510675 0.599423
O O7 0.790211 0.411837 0.563561
O O8 0.863677 0.279298 0.408423
O O9 0.076985 0.383270 0.517287
O O10 0.914671 0.204450 0.596612
O O11 0.500000 0.916178 0.750000
O O12 0.242640 0.883776 0.765749
O O13 0.000000 0.787700 0.750000
O O14 0.939234 0.950758 0.593517
O O15 0.000000 0.079601 0.750000
#
# Coordination Sequence:
#
# PCOD8155605 Si02
#       8
#     2   4   4   4   2   4   2   4
#     4  12  20  42  60  92 136 158 192 282 314 376
#     4  10  21  42  61  81 120 167 204 261 298 370
#     4  11  21  37  61  92 126 157 202 272 303 372
#     4  11  23  40  64  94 122 168 219 250 315 385
#     4  10  24  40  58  90 120 158 214 244 310 362
#     4  11  19  38  65  94 117 161 214 255 316 385
#     4  10  22  36  62  94 114 164 224 246 324 368
#     4  11  21  36  62  91 125 159 199 250 330 374
#
# _framework density 19.937190999999999
#
# number of rings (size 3 to 8) (size 9 to 14) (size 15 to 20)
#    0.000    1.231    4.615    3.692    0.000    1.231 
#    5.538    3.077    0.000    0.000    0.000    0.000 
#    0.000    0.000    0.000    0.000    0.000    0.000 
#
# Total GULP energy -322137.816371 kJ/mol
# GULP energy per Si atom -12389.916014 kJ/mol
# Density = 1.989181 g / cm^3
# Si number density = 19.937191 Si / 1000 Ang^3
#
#
#
# Elastic Constant Matrix: (Units=GPa)
#
#
# Indices 1 2 3 4 5 6 
#
# 1 106.5425 9.6066 37.8652 0.0000 0.0000 0.0000
# 2 9.6066 70.9659 17.9422 0.0000 0.0000 0.0000
# 3 37.8652 17.9422 86.1137 0.0000 0.0000 0.0000
# 4 0.0000 0.0000 0.0000 34.2784 0.0000 0.0000
# 5 0.0000 0.0000 0.0000 0.0000 36.5890 0.0000
# 6 0.0000 0.0000 0.0000 0.0000 0.0000 17.3106
#
#
#
# Elastic Compliance Matrix: (Units=1/GPa)
#
#
# Indices 1 2 3 4 5 6 
#
# 1 0.011130 -0.000284 -0.004835 0.000000 0.000000 0.000000
# 2 -0.000284 0.014882 -0.002976 0.000000 0.000000 0.000000
# 3 -0.004835 -0.002976 0.014358 0.000000 0.000000 0.000000
# 4 0.000000 0.000000 0.000000 0.029173 0.000000 0.000000
# 5 0.000000 0.000000 0.000000 0.000000 0.027331 0.000000
# 6 0.000000 0.000000 0.000000 0.000000 0.000000 0.057768
#
#
# Mechanical properties :
#
#
# Convention : Reuss Voigt Hill
#
# Bulk Modulus (GPa) = 41.35491 43.82778 42.59134
# Shear Modulus (GPa) = 27.94985 30.84945 29.39965
#
# Velocity S-wave (km/s) = 3.74825 3.93788 3.84424
# Velocity P-wave (km/s) = 6.28650 6.53502 6.41197
#
# Compressibility (1/GPa) = 0.02418093
#
# Stress axis : x y z
#
# Youngs Moduli (GPa) = 89.84880 67.19473 69.64547
#
# Poissons Ratio (x) = 0.01910 0.33671
# Poissons Ratio (y) = 0.02554 0.20725
# Poissons Ratio (z) = 0.43439 0.19995
#
# Static dielectric constant tensor:
#      x y z
#    x 3.657290 0.000000 0.000000 
#    y 0.000000 3.586450 0.000000 
#    z 0.000000 0.000000 3.822330 
# 
# 
# High freq. dielectric constant tensor:
#      x y z
#    x 1.780700 0.000000 0.000000 
#    y 0.000000 1.770110 0.000000 
#    z 0.000000 0.000000 1.783880 
# 
# From -- ./inp_files/8228.got.cif
#   From: 2010.03.12/outbox.cif.g09.slc.cpg/sg17_5_cif.got.tgz:8228.got - 2010.04.10 18:46:23.
