data_PCOD8155065
_publ_section_title
;
Structure prediction by ZEFSAII (Michael W. Deem and Ramdas Pophale) SiO2 
 PCOD8155065
Probable space group: C 2/C
;
_chemical_formula_sum "Si O2"
_cell_formula_units_Z 52
_cell_length_a 11.103776
_cell_length_b 9.639148
_cell_length_c 22.999780
_cell_angle_alpha 90.000000
_cell_angle_beta 116.679223
_cell_angle_gamma 90.000000
_cell_volume 2199.602647
_symmetry_space_group_name_H-M "C 2/C"
_symmetry_group_IT_number 15
_symmetry_cell_setting 'monoclinic'
loop_
_space_group_symop_operation_xyz
x,y,z
-x,y,1/2-z
-x,-y,-z
x,-y,1/2+z
1/2+x,1/2+y,z
1/2-x,1/2+y,1/2-z
1/2-x,1/2-y,-z
1/2+x,1/2-y,1/2+z
loop_
_atom_site_type_symbol
_atom_site_label
_atom_site_fract_x
_atom_site_fract_y
_atom_site_fract_z
Si Si1 0.884127 0.462796 0.117539
Si Si2 0.589363 0.621906 0.543599
Si Si3 0.793678 0.146099 0.272916
Si Si4 0.591595 0.350998 0.180660
Si Si5 0.000000 0.324586 0.250000
Si Si6 0.313126 0.745361 0.631744
Si Si7 0.957866 0.372699 0.453259
O O1 0.746250 0.397754 0.064804
O O2 0.873923 0.628910 0.106756
O O3 0.904572 0.423779 0.190367
O O4 0.007526 0.403274 0.106662
O O5 0.500000 0.500000 0.500000
O O6 0.563522 0.635357 0.606525
O O7 0.547902 0.751231 0.496993
O O8 0.664694 0.202387 0.208560
O O9 0.770369 0.184809 0.334424
O O10 0.923031 0.225374 0.277477
O O11 0.819752 0.979383 0.273971
O O12 0.442003 0.348649 0.178286
O O13 0.202402 0.654647 0.573520
O O14 0.000000 0.500000 0.500000
#
# Coordination Sequence:
#
# PCOD8155065 Si02
#       7
#     8   8   8   8   4   8   8
#     4  12  26  51  79 110 157 209 255 331 392 460
#     4  12  25  50  78 112 154 210 259 316 392 466
#     4  12  26  52  73 114 153 199 261 318 392 460
#     4  12  29  47  82 111 157 207 259 327 392 467
#     4  12  26  46  82 110 152 200 262 320 392 462
#     4  12  27  50  77 111 155 200 255 326 389 459
#     4  12  28  48  77 114 152 203 266 315 386 476
#
# _framework density 23.640633000000001
#
# number of rings (size 3 to 8) (size 9 to 14) (size 15 to 20)
#    0.000    0.000    6.154    1.846    8.615    3.692 
#    0.000    0.000    0.000    0.000    0.000    0.000 
#    0.000    0.000    0.000    0.000    0.000    0.000 
#
# Total GULP energy -322423.262712 kJ/mol
# GULP energy per Si atom -12400.894720 kJ/mol
# Density = 2.358683 g / cm^3
# Si number density = 23.640633 Si / 1000 Ang^3
#
#
#
# Elastic Constant Matrix: (Units=GPa)
#
#
# Indices 1 2 3 4 5 6 
#
# 1 118.1405 57.9170 37.5507 0.0000 28.4911 0.0000
# 2 57.9170 158.9353 69.0713 0.0000 12.2286 0.0000
# 3 37.5507 69.0713 127.9369 0.0000 23.1799 0.0000
# 4 0.0000 0.0000 0.0000 44.3340 0.0000 2.6642
# 5 28.4911 12.2286 23.1799 0.0000 43.9699 0.0000
# 6 0.0000 0.0000 0.0000 2.6642 0.0000 38.5723
#
#
#
# Elastic Compliance Matrix: (Units=1/GPa)
#
#
# Indices 1 2 3 4 5 6 
#
# 1 0.011969 -0.003719 -0.000318 0.000000 -0.006554 0.000000
# 2 -0.003719 0.009377 -0.004350 0.000000 0.002096 0.000000
# 3 -0.000318 -0.004350 0.011058 0.000000 -0.004414 0.000000
# 4 0.000000 0.000000 0.000000 0.022650 0.000000 -0.001564
# 5 -0.006554 0.002096 -0.004414 0.000000 0.028734 0.000000
# 6 0.000000 0.000000 0.000000 -0.001564 0.000000 0.026033
#
#
# Mechanical properties :
#
#
# Convention : Reuss Voigt Hill
#
# Bulk Modulus (GPa) = 63.98254 81.56563 72.77409
# Shear Modulus (GPa) = 37.93468 41.40681 39.67075
#
# Velocity S-wave (km/s) = 4.01014 4.18965 4.10087
# Velocity P-wave (km/s) = 6.96886 7.61455 7.29885
#
# Compressibility (1/GPa) = 0.01562926
#
# Stress axis : x y z
#
# Youngs Moduli (GPa) = 83.54608 106.64844 90.43274
#
# Poissons Ratio (x) = 0.39667 0.02872
# Poissons Ratio (y) = 0.31075 0.39341
# Poissons Ratio (z) = 0.02654 0.46395
#
# Static dielectric constant tensor:
#      x y z
#    x 4.624820 0.000000 0.043790 
#    y 0.000000 4.384080 0.000000 
#    z 0.043790 0.000000 4.178910 
# 
# 
# High freq. dielectric constant tensor:
#      x y z
#    x 1.950910 0.000000 0.007370 
#    y 0.000000 1.943390 0.000000 
#    z 0.007370 0.000000 1.938470 
# 
# From -- ./inp_files/291677.got.cif
#   From: 2010.06.25/outbox.cif.g09.slc.cpg/sg15_146_cif.got.tgz:291677.got - 2010.06.28 07:06:18.
