data_PCOD8155673
_publ_section_title
;
Structure prediction by ZEFSAII (Michael W. Deem and Ramdas Pophale) SiO2 
 PCOD8155673
Probable space group: P 2 2 21
;
_chemical_formula_sum "Si O2"
_cell_formula_units_Z 24
_cell_length_a 7.529692
_cell_length_b 5.211884
_cell_length_c 27.240640
_cell_angle_alpha 90.000000
_cell_angle_beta 90.000000
_cell_angle_gamma 90.000000
_cell_volume 1069.028442
_symmetry_space_group_name_H-M "P 2 2 21"
_symmetry_group_IT_number 17
_symmetry_cell_setting 'orthorhombic'
loop_
_space_group_symop_operation_xyz
x,y,z
-x,-y,1/2+z
x,-y,-z
-x,y,1/2-z
loop_
_atom_site_type_symbol
_atom_site_label
_atom_site_fract_x
_atom_site_fract_y
_atom_site_fract_z
Si Si1 0.112618 0.250182 0.977150
Si Si2 0.710947 0.749916 0.980111
Si Si3 0.300334 0.259502 0.877883
Si Si4 0.673778 0.785838 0.773394
Si Si5 0.543880 0.239738 0.120045
Si Si6 0.183290 0.281366 0.768037
O O1 0.142947 0.251395 0.918555
O O2 0.907068 0.250184 0.994994
O O3 0.207505 0.500000 0.000000
O O4 0.207150 0.000000 0.000000
O O5 0.607977 0.500000 0.000000
O O6 0.697971 0.748717 0.921334
O O7 0.608164 0.000000 0.000000
O O8 0.411362 0.520490 0.882723
O O9 0.199391 0.242902 0.826201
O O10 0.431408 0.019971 0.884035
O O11 0.500000 0.916863 0.750000
O O12 0.661734 0.754237 0.831382
O O13 0.683047 0.504378 0.748894
O O14 0.815045 0.005216 0.759542
O O15 0.000000 0.406555 0.750000
#
# Coordination Sequence:
#
# PCOD8155673 Si02
#       6
#     4   4   4   4   4   4
#     4  10  23  41  64  87 131 172 213 278 340 396
#     4  10  23  43  63  94 130 168 227 275 329 404
#     4  12  24  42  65 100 131 177 220 278 341 406
#     4  12  23  46  72 100 144 182 225 292 332 410
#     4  12  25  40  73  98 131 179 232 271 345 405
#     4  12  26  43  69 104 143 181 230 278 344 408
#
# _framework density 22.450289999999999
#
# number of rings (size 3 to 8) (size 9 to 14) (size 15 to 20)
#    0.000    0.667    3.333    4.000    0.000    9.333 
#    0.000    0.000    0.000    0.000    0.000    0.000 
#    0.000    0.000    0.000    0.000    0.000    0.000 
#
# Total GULP energy -297379.530456 kJ/mol
# GULP energy per Si atom -12390.813769 kJ/mol
# Density = 2.239919 g / cm^3
# Si number density = 22.450290 Si / 1000 Ang^3
#
#
#
# Elastic Constant Matrix: (Units=GPa)
#
#
# Indices 1 2 3 4 5 6 
#
# 1 69.0172 10.3927 54.5953 0.0000 0.0000 0.0000
# 2 10.3927 191.1857 54.6312 0.0000 0.0000 0.0000
# 3 54.5953 54.6312 227.1151 0.0000 0.0000 0.0000
# 4 0.0000 0.0000 0.0000 29.8167 0.0000 0.0000
# 5 0.0000 0.0000 0.0000 0.0000 48.4708 0.0000
# 6 0.0000 0.0000 0.0000 0.0000 0.0000 -10.3857
#
#
#
# Elastic Compliance Matrix: (Units=1/GPa)
#
#
# Indices 1 2 3 4 5 6 
#
# 1 0.017905 0.000276 -0.004370 0.000000 0.000000 0.000000
# 2 0.000276 0.005621 -0.001418 0.000000 0.000000 0.000000
# 3 -0.004370 -0.001418 0.005795 0.000000 0.000000 0.000000
# 4 0.000000 0.000000 0.000000 0.033538 0.000000 0.000000
# 5 0.000000 0.000000 0.000000 0.000000 0.020631 0.000000
# 6 0.000000 0.000000 0.000000 0.000000 0.000000 -0.096287
#
#
# Mechanical properties :
#
#
# Convention : Reuss Voigt Hill
#
# Bulk Modulus (GPa) = 54.66220 80.72848 67.69534
# Shear Modulus (GPa) = 1155.45504 38.09361 596.77433
#
# Velocity S-wave (km/s) = 22.71101 4.12369 16.32168
# Velocity P-wave (km/s) = 26.68559 7.66224 19.63200
#
# Compressibility (1/GPa) = 0.01829418
#
# Stress axis : x y z
#
# Youngs Moduli (GPa) = 55.85112 177.91020 172.56906
#
# Poissons Ratio (x) = -0.04902 0.75418
# Poissons Ratio (y) = -0.01539 0.24475
# Poissons Ratio (z) = 0.24409 0.25233
#
# Static dielectric constant tensor:
#      x y z
#    x 3.642360 0.000000 0.000000 
#    y 0.000000 7.537940 0.000000 
#    z 0.000000 0.000000 4.195850 
# 
# 
# High freq. dielectric constant tensor:
#      x y z
#    x 1.862940 0.000000 0.000000 
#    y 0.000000 1.923350 0.000000 
#    z 0.000000 0.000000 1.894860 
# 
# From -- ./inp_files/10952.got.cif
#   From: 2010.03.12/outbox.cif.g09.slc.cpg/sg17_6_cif.got.tgz:10952.got - 2010.04.10 18:46:23.
