data_PCOD8155802
_publ_section_title
;
Structure prediction by ZEFSAII (Michael W. Deem and Ramdas Pophale) SiO2 
 PCOD8155802
Probable space group: P 21 21 2
;
_chemical_formula_sum "Si O2"
_cell_formula_units_Z 24
_cell_length_a 4.980111
_cell_length_b 18.054581
_cell_length_c 15.412827
_cell_angle_alpha 90.000000
_cell_angle_beta 90.000000
_cell_angle_gamma 90.000000
_cell_volume 1385.826113
_symmetry_space_group_name_H-M "P 21 21 2"
_symmetry_group_IT_number 18
_symmetry_cell_setting 'orthorhombic'
loop_
_space_group_symop_operation_xyz
x,y,z
-x,-y,z
1/2+x,1/2-y,-z
1/2-x,1/2+y,-z
loop_
_atom_site_type_symbol
_atom_site_label
_atom_site_fract_x
_atom_site_fract_y
_atom_site_fract_z
Si Si1 0.518339 0.653444 0.804819
Si Si2 0.000000 0.000000 0.280386
Si Si3 0.910113 0.799384 0.597692
Si Si4 0.500000 0.000000 0.400972
Si Si5 0.725848 0.261996 0.945937
Si Si6 0.448952 0.244811 0.226711
Si Si7 0.409292 0.849651 0.501129
O O1 0.559878 0.568337 0.782407
O O2 0.400953 0.662508 0.903738
O O3 0.299686 0.692662 0.740325
O O4 0.801281 0.693203 0.795966
O O5 0.249185 0.018070 0.341070
O O6 0.618852 0.832596 0.578072
O O7 0.932917 0.712485 0.573464
O O8 0.973278 0.804928 0.700388
O O9 0.115970 0.848566 0.543069
O O10 0.551218 0.070185 0.461390
O O11 0.847365 0.215137 0.863257
O O12 0.476816 0.219057 0.991025
#
# Coordination Sequence:
#
# PCOD8155802 Si02
#       7
#     4   2   4   2   4   4   4
#     4  10  20  31  51  79 109 139 173 208 268 327
#     4  12  22  34  52  76 114 148 174 202 258 344
#     4  10  19  34  51  75 102 137 184 224 254 305
#     4  12  24  36  52  76 114 154 174 220 278 326
#     4  10  18  33  51  78 110 133 165 222 268 319
#     4  10  19  32  53  77 106 134 179 223 264 312
#     4  10  21  33  51  72 106 142 177 220 262 305
#
# _framework density 17.318190999999999
#
# number of rings (size 3 to 8) (size 9 to 14) (size 15 to 20)
#    1.000    0.667    1.667    5.000    0.000    2.667 
#    0.000    0.000    0.000    0.000    0.000    4.667 
#    0.000    0.000    0.000    0.000    0.000    0.000 
#
# Total GULP energy -297348.976590 kJ/mol
# GULP energy per Si atom -12389.540691 kJ/mol
# Density = 1.727877 g / cm^3
# Si number density = 17.318191 Si / 1000 Ang^3
#
#
#
# Elastic Constant Matrix: (Units=GPa)
#
#
# Indices 1 2 3 4 5 6 
#
# 1 72.8989 10.5158 5.3947 0.0000 0.0000 0.0000
# 2 10.5158 67.0380 28.1312 0.0000 0.0000 0.0000
# 3 5.3947 28.1312 83.4273 0.0000 0.0000 0.0000
# 4 0.0000 0.0000 0.0000 13.5463 0.0000 0.0000
# 5 0.0000 0.0000 0.0000 0.0000 20.5214 0.0000
# 6 0.0000 0.0000 0.0000 0.0000 0.0000 16.9866
#
#
#
# Elastic Compliance Matrix: (Units=1/GPa)
#
#
# Indices 1 2 3 4 5 6 
#
# 1 0.014038 -0.002121 -0.000192 0.000000 0.000000 0.000000
# 2 -0.002121 0.017696 -0.005830 0.000000 0.000000 0.000000
# 3 -0.000192 -0.005830 0.013965 0.000000 0.000000 0.000000
# 4 0.000000 0.000000 0.000000 0.073821 0.000000 0.000000
# 5 0.000000 0.000000 0.000000 0.000000 0.048730 0.000000
# 6 0.000000 0.000000 0.000000 0.000000 0.000000 0.058870
#
#
# Mechanical properties :
#
#
# Convention : Reuss Voigt Hill
#
# Bulk Modulus (GPa) = 34.00031 34.60530 34.30281
# Shear Modulus (GPa) = 19.74646 22.16570 20.95608
#
# Velocity S-wave (km/s) = 3.38037 3.58146 3.48237
# Velocity P-wave (km/s) = 5.90857 6.09327 6.00163
#
# Compressibility (1/GPa) = 0.02941150
#
# Stress axis : x y z
#
# Youngs Moduli (GPa) = 71.23590 56.50984 71.60905
#
# Poissons Ratio (x) = 0.11987 0.01378
# Poissons Ratio (y) = 0.15111 0.41747
# Poissons Ratio (z) = 0.01371 0.32944
#
# Static dielectric constant tensor:
#      x y z
#    x 3.565290 0.000000 0.000000 
#    y 0.000000 2.803500 0.000000 
#    z 0.000000 0.000000 3.281690 
# 
# 
# High freq. dielectric constant tensor:
#      x y z
#    x 1.703620 0.000000 0.000000 
#    y 0.000000 1.610860 0.000000 
#    z 0.000000 0.000000 1.665840 
# 
# From -- ./inp_files/6504.got.cif
#   From: 2010.03.12/outbox.cif.g09.slc.cpg/sg18_4_cif.got.tgz:6504.got - 2010.04.10 18:53:55.
