data_PCOD8155219
_publ_section_title
;
Structure prediction by ZEFSAII (Michael W. Deem and Ramdas Pophale) SiO2 
 PCOD8155219
Probable space group: P 2 2 2
;
_chemical_formula_sum "Si O2"
_cell_formula_units_Z 32
_cell_length_a 8.936034
_cell_length_b 15.152673
_cell_length_c 11.738730
_cell_angle_alpha 90.000000
_cell_angle_beta 90.000000
_cell_angle_gamma 90.000000
_cell_volume 1589.480401
_symmetry_space_group_name_H-M "P 2 2 2"
_symmetry_group_IT_number 16
_symmetry_cell_setting 'orthorhombic'
loop_
_space_group_symop_operation_xyz
x,y,z
-x,-y,z
x,-y,-z
-x,y,-z
loop_
_atom_site_type_symbol
_atom_site_label
_atom_site_fract_x
_atom_site_fract_y
_atom_site_fract_z
Si Si1 0.179002 0.165345 0.612185
Si Si2 0.667429 0.993450 0.695986
Si Si3 0.322274 0.503921 0.371348
Si Si4 0.308363 0.666855 0.765465
Si Si5 0.160605 0.829159 0.649377
Si Si6 0.324726 0.725156 0.009932
Si Si7 0.339442 0.318924 0.744010
Si Si8 0.664917 0.082872 0.054222
O O1 0.241869 0.066230 0.607999
O O2 0.187473 0.194692 0.481954
O O3 0.279899 0.230825 0.685917
O O4 0.015411 0.157471 0.667560
O O5 0.660368 0.936516 0.812021
O O6 0.500000 0.000000 0.648683
O O7 0.746683 0.088802 0.701686
O O8 0.500000 0.500000 0.372875
O O9 0.258148 0.500000 0.500000
O O10 0.258489 0.425560 0.291687
O O11 0.270200 0.596716 0.319234
O O12 0.207372 0.743114 0.716265
O O13 0.271572 0.668120 0.901139
O O14 0.481242 0.685454 0.737747
O O15 0.500000 0.740010 0.000000
O O16 0.285570 0.672386 0.125025
O O17 0.254448 0.824245 0.022585
O O18 0.500000 0.083918 0.000000
O O19 0.755611 0.000000 0.000000
#
# Coordination Sequence:
#
# PCOD8155219 Si02
#       8
#     4   4   4   4   4   4   4   4
#     4  11  24  42  56  80 119 158 196 242 297 344
#     4  12  22  36  62  89 109 151 199 238 290 350
#     4   9  18  32  55  90 123 148 189 250 295 331
#     4  10  20  36  60  89 115 152 197 239 294 349
#     4  11  25  40  57  80 119 159 194 246 293 346
#     4   9  18  31  54  86 117 149 190 240 293 341
#     4  10  19  36  62  85 117 156 193 244 292 350
#     4  10  17  30  53  83 115 146 181 237 285 334
#
# _framework density 20.132363999999999
#
# number of rings (size 3 to 8) (size 9 to 14) (size 15 to 20)
#    0.000    1.750    2.500    3.000    1.750    5.000 
#    0.000    3.750    0.000    3.000    0.000    1.750 
#    0.000    0.000    0.000    0.000    0.000    0.000 
#
# Total GULP energy -396616.204446 kJ/mol
# GULP energy per Si atom -12394.256389 kJ/mol
# Density = 2.008654 g / cm^3
# Si number density = 20.132364 Si / 1000 Ang^3
#
#
#
# Elastic Constant Matrix: (Units=GPa)
#
#
# Indices 1 2 3 4 5 6 
#
# 1 59.3227 21.9456 19.6417 0.0000 0.0000 0.0000
# 2 21.9456 126.2040 51.0190 0.0000 0.0000 0.0000
# 3 19.6417 51.0190 121.9562 0.0000 0.0000 0.0000
# 4 0.0000 0.0000 0.0000 45.8260 0.0000 0.0000
# 5 0.0000 0.0000 0.0000 0.0000 15.7293 0.0000
# 6 0.0000 0.0000 0.0000 0.0000 0.0000 8.8063
#
#
#
# Elastic Compliance Matrix: (Units=1/GPa)
#
#
# Indices 1 2 3 4 5 6 
#
# 1 0.018395 -0.002408 -0.001955 0.000000 0.000000 0.000000
# 2 -0.002408 0.009852 -0.003733 0.000000 0.000000 0.000000
# 3 -0.001955 -0.003733 0.010076 0.000000 0.000000 0.000000
# 4 0.000000 0.000000 0.000000 0.021822 0.000000 0.000000
# 5 0.000000 0.000000 0.000000 0.000000 0.063576 0.000000
# 6 0.000000 0.000000 0.000000 0.000000 0.000000 0.113555
#
#
# Mechanical properties :
#
#
# Convention : Reuss Voigt Hill
#
# Bulk Modulus (GPa) = 45.18870 54.74396 49.96633
# Shear Modulus (GPa) = 19.16837 28.39741 23.78289
#
# Velocity S-wave (km/s) = 3.08899 3.75978 3.44077
# Velocity P-wave (km/s) = 5.93439 6.78963 6.37636
#
# Compressibility (1/GPa) = 0.02212943
#
# Stress axis : x y z
#
# Youngs Moduli (GPa) = 54.36187 101.50465 99.24165
#
# Poissons Ratio (x) = 0.24446 0.19403
# Poissons Ratio (y) = 0.13092 0.37052
# Poissons Ratio (z) = 0.10628 0.37897
#
# Static dielectric constant tensor:
#      x y z
#    x 3.249580 0.000000 0.000000 
#    y 0.000000 3.930780 0.000000 
#    z 0.000000 0.000000 4.008000 
# 
# 
# High freq. dielectric constant tensor:
#      x y z
#    x 1.736980 0.000000 0.000000 
#    y 0.000000 1.795490 0.000000 
#    z 0.000000 0.000000 1.801540 
# 
# From -- ./inp_files/6627.got.cif
#   From: 2010.03.12/outbox.cif.g09.slc.cpg/sg16_4_cif.got.tgz:6627.got - 2010.03.31 00:51:45.
