data_PCOD8155204
_publ_section_title
;
Structure prediction by ZEFSAII (Michael W. Deem and Ramdas Pophale) SiO2 
 PCOD8155204
Probable space group: C 2/C
;
_chemical_formula_sum "Si O2"
_cell_formula_units_Z 32
_cell_length_a 14.041650
_cell_length_b 8.122982
_cell_length_c 23.997731
_cell_angle_alpha 90.000000
_cell_angle_beta 145.913772
_cell_angle_gamma 90.000000
_cell_volume 1534.026611
_symmetry_space_group_name_H-M "C 2/C"
_symmetry_group_IT_number 15
_symmetry_cell_setting 'monoclinic'
loop_
_space_group_symop_operation_xyz
x,y,z
-x,y,1/2-z
-x,-y,-z
x,-y,1/2+z
1/2+x,1/2+y,z
1/2-x,1/2+y,1/2-z
1/2-x,1/2-y,-z
1/2+x,1/2-y,1/2+z
loop_
_atom_site_type_symbol
_atom_site_label
_atom_site_fract_x
_atom_site_fract_y
_atom_site_fract_z
Si Si1 0.134887 0.300924 0.528538
Si Si2 0.043891 0.801395 0.356533
Si Si3 0.273924 0.007562 0.537961
Si Si4 0.737641 0.899827 0.142375
O O1 0.220902 0.119470 0.565992
O O2 0.185870 0.386185 0.496129
O O3 0.200169 0.404314 0.614333
O O4 0.931484 0.291549 0.433003
O O5 0.057262 0.602506 0.368648
O O6 0.165550 0.838672 0.364320
O O7 0.853495 0.867625 0.253084
O O8 0.113236 0.888361 0.446214
#
# Coordination Sequence:
#
# PCOD8155204 Si02
#       4
#     8   8   8   8
#     4   9  18  33  52  73 100 133 168 210 254 303
#     4   9  18  33  50  71 103 135 165 207 255 305
#     4   9  18  33  51  72 101 134 167 207 254 302
#     4   9  18  33  51  73 102 132 166 209 255 300
#
# _framework density 20.860133999999999
#
# number of rings (size 3 to 8) (size 9 to 14) (size 15 to 20)
#    0.000    3.000    0.000    0.000    0.000    3.000 
#    0.000   15.000    0.000    0.000    0.000    0.000 
#    0.000    0.000    0.000    0.000    0.000    0.000 
#
# Total GULP energy -198227.375357 kJ/mol
# GULP energy per Si atom -12389.210960 kJ/mol
# Density = 2.081266 g / cm^3
# Si number density = 20.860134 Si / 1000 Ang^3
#
#
#
# Elastic Constant Matrix: (Units=GPa)
#
#
# Indices 1 2 3 4 5 6 
#
# 1 14.3894 18.4352 17.2151 0.0000 11.3246 0.0000
# 2 18.4352 120.5854 62.4090 -0.0001 4.5711 0.0000
# 3 17.2151 62.4090 139.5981 -0.0002 7.7978 -0.0001
# 4 0.0000 -0.0001 -0.0002 25.3015 0.0000 -1.7048
# 5 11.3246 4.5711 7.7978 0.0000 27.2799 0.0000
# 6 0.0000 0.0000 -0.0001 -1.7048 0.0000 7.7289
#
#
#
# Elastic Compliance Matrix: (Units=1/GPa)
#
#
# Indices 1 2 3 4 5 6 
#
# 1 0.140524 -0.015654 -0.007336 0.000000 -0.053615 0.000000
# 2 -0.015654 0.012538 -0.003984 0.000000 0.005536 0.000000
# 3 -0.007336 -0.003984 0.009798 0.000000 0.000912 0.000000
# 4 0.000000 0.000000 0.000000 0.040120 0.000000 0.008850
# 5 -0.053615 0.005536 0.000912 0.000000 0.057726 0.000000
# 6 0.000000 0.000000 0.000000 0.008850 0.000000 0.131336
#
#
# Mechanical properties :
#
#
# Convention : Reuss Voigt Hill
#
# Bulk Modulus (GPa) = 9.18176 52.29906 30.74041
# Shear Modulus (GPa) = 10.36711 23.82964 17.09837
#
# Velocity S-wave (km/s) = 2.23173 3.38354 2.86609
# Velocity P-wave (km/s) = 3.32445 6.35533 5.07159
#
# Compressibility (1/GPa) = 0.10891156
#
# Stress axis : x y z
#
# Youngs Moduli (GPa) = 7.11623 79.75607 102.05858
#
# Poissons Ratio (x) = 1.24852 0.74870
# Poissons Ratio (y) = 0.11140 0.40662
# Poissons Ratio (z) = 0.05220 0.31776
#
# Static dielectric constant tensor:
#      x y z
#    x 3.605670 0.000000 -0.085300 
#    y 0.000000 4.359510 0.000000 
#    z -0.085300 0.000000 4.065960 
# 
# 
# High freq. dielectric constant tensor:
#      x y z
#    x 1.795550 0.000000 0.007920 
#    y 0.000000 1.816080 0.000000 
#    z 0.007920 0.000000 1.798480 
# 
# From -- ./inp_files/140708.got.cif
#   From: 2010.06.25/outbox.cif.g09.slc.cpg/sg15_71_cif.got.tgz:140708.got - 2010.06.28 07:06:18.
