data_PCOD8155060
_publ_section_title
;
Structure prediction by ZEFSAII (Michael W. Deem and Ramdas Pophale) SiO2 
 PCOD8155060
Probable space group: C 2/C
;
_chemical_formula_sum "Si O2"
_cell_formula_units_Z 36
_cell_length_a 12.530039
_cell_length_b 11.169434
_cell_length_c 11.432161
_cell_angle_alpha 90.000000
_cell_angle_beta 96.780502
_cell_angle_gamma 90.000000
_cell_volume 1588.779698
_symmetry_space_group_name_H-M "C 2/C"
_symmetry_group_IT_number 15
_symmetry_cell_setting 'monoclinic'
loop_
_space_group_symop_operation_xyz
x,y,z
-x,y,1/2-z
-x,-y,-z
x,-y,1/2+z
1/2+x,1/2+y,z
1/2-x,1/2+y,1/2-z
1/2-x,1/2-y,-z
1/2+x,1/2-y,1/2+z
loop_
_atom_site_type_symbol
_atom_site_label
_atom_site_fract_x
_atom_site_fract_y
_atom_site_fract_z
Si Si1 0.856460 0.223077 0.083759
Si Si2 0.673192 0.877969 0.196755
Si Si3 0.437879 0.224775 0.028068
Si Si4 0.000000 0.434181 0.750000
Si Si5 0.103042 0.958037 0.344503
O O1 0.849454 0.273602 0.213632
O O2 0.874916 0.082055 0.088209
O O3 0.750000 0.250000 0.000000
O O4 0.952891 0.290185 0.031041
O O5 0.795719 0.922066 0.223455
O O6 0.593337 0.988495 0.203685
O O7 0.658406 0.824355 0.064904
O O8 0.443442 0.148544 0.146748
O O9 0.416549 0.362448 0.055837
O O10 0.000000 0.968865 0.250000
#
# Coordination Sequence:
#
# PCOD8155060 Si02
#       5
#     8   8   8   4   8
#     4  12  27  48  75 109 151 198 248 305 376 445
#     4  12  27  47  76 107 148 197 250 310 370 447
#     4  12  25  50  73 111 145 198 252 307 373 444
#     4  12  26  48  78 106 148 192 258 300 372 446
#     4  12  27  48  76 110 154 191 247 311 373 442
#
# _framework density 22.658901
#
# number of rings (size 3 to 8) (size 9 to 14) (size 15 to 20)
#    0.000    0.000    3.333    6.000    6.222    1.778 
#    0.000    0.000    0.000    0.000    0.000    0.000 
#    0.000    0.000    0.000    0.000    0.000    0.000 
#
# Total GULP energy -223395.669498 kJ/mol
# GULP energy per Si atom -12410.870528 kJ/mol
# Density = 2.260733 g / cm^3
# Si number density = 22.658901 Si / 1000 Ang^3
#
#
#
# Elastic Constant Matrix: (Units=GPa)
#
#
# Indices 1 2 3 4 5 6 
#
# 1 126.4529 33.0089 24.6646 0.0000 15.2776 0.0000
# 2 33.0089 146.7605 71.0219 0.0000 22.5949 0.0000
# 3 24.6646 71.0219 146.9393 0.0000 20.1856 0.0000
# 4 0.0000 0.0000 0.0000 34.9768 0.0000 3.2521
# 5 15.2776 22.5949 20.1856 0.0000 37.7898 0.0000
# 6 0.0000 0.0000 0.0000 3.2521 0.0000 32.7351
#
#
#
# Elastic Compliance Matrix: (Units=1/GPa)
#
#
# Indices 1 2 3 4 5 6 
#
# 1 0.008645 -0.001342 -0.000467 0.000000 -0.002443 0.000000
# 2 -0.001342 0.009491 -0.003947 0.000000 -0.003024 0.000000
# 3 -0.000467 -0.003947 0.009110 0.000000 -0.002318 0.000000
# 4 0.000000 0.000000 0.000000 0.028857 0.000000 -0.002867
# 5 -0.002443 -0.003024 -0.002318 0.000000 0.030496 0.000000
# 6 0.000000 0.000000 0.000000 -0.002867 0.000000 0.030833
#
#
# Mechanical properties :
#
#
# Convention : Reuss Voigt Hill
#
# Bulk Modulus (GPa) = 63.55573 75.28262 69.41918
# Shear Modulus (GPa) = 37.26113 40.53082 38.89598
#
# Velocity S-wave (km/s) = 4.05956 4.23393 4.14767
# Velocity P-wave (km/s) = 7.07695 7.56294 7.32398
#
# Compressibility (1/GPa) = 0.01573422
#
# Stress axis : x y z
#
# Youngs Moduli (GPa) = 115.67832 105.35973 109.77088
#
# Poissons Ratio (x) = 0.14144 0.05122
# Poissons Ratio (y) = 0.15529 0.43324
# Poissons Ratio (z) = 0.05398 0.41583
#
# Static dielectric constant tensor:
#      x y z
#    x 4.325330 0.000000 0.018460 
#    y 0.000000 3.849430 0.000000 
#    z 0.018460 0.000000 4.060540 
# 
# 
# High freq. dielectric constant tensor:
#      x y z
#    x 1.912090 0.000000 0.002070 
#    y 0.000000 1.908740 0.000000 
#    z 0.002070 0.000000 1.901600 
# 
# From -- ./inp_files/84448.got.cif
#   From: 2010.06.25/outbox.cif.g09.slc.cpg/sg15_43_cif.got.tgz:84448.got - 2010.06.28 07:06:18.
