data_PCOD8155988
_publ_section_title
;
Structure prediction by ZEFSAII (Michael W. Deem and Ramdas Pophale) SiO2 
 PCOD8155988
Probable space group: P 21 21 2
;
_chemical_formula_sum "Si O2"
_cell_formula_units_Z 26
_cell_length_a 23.984290
_cell_length_b 7.878455
_cell_length_c 5.348679
_cell_angle_alpha 90.000000
_cell_angle_beta 90.000000
_cell_angle_gamma 90.000000
_cell_volume 1010.681835
_symmetry_space_group_name_H-M "P 21 21 2"
_symmetry_group_IT_number 18
_symmetry_cell_setting 'orthorhombic'
loop_
_space_group_symop_operation_xyz
x,y,z
-x,-y,z
1/2+x,1/2-y,-z
1/2-x,1/2+y,-z
loop_
_atom_site_type_symbol
_atom_site_label
_atom_site_fract_x
_atom_site_fract_y
_atom_site_fract_z
Si Si1 0.832000 0.127650 0.957270
Si Si2 0.883878 0.060241 0.459817
Si Si3 0.564504 0.954064 0.360242
Si Si4 0.000000 0.000000 0.282057
Si Si5 0.339543 0.802344 0.500685
Si Si6 0.213274 0.253271 0.996421
Si Si7 0.039129 0.661535 0.139702
O O1 0.867018 0.170081 0.704562
O O2 0.779786 0.255008 0.968557
O O3 0.873087 0.157901 0.193881
O O4 0.810667 0.934858 0.973892
O O5 0.843696 0.898900 0.479286
O O6 0.946718 0.987928 0.462330
O O7 0.570170 0.814428 0.585304
O O8 0.500000 0.000000 0.311395
O O9 0.600345 0.114482 0.445897
O O10 0.581708 0.876588 0.088916
O O11 0.996637 0.166406 0.100070
O O12 0.313290 0.858512 0.767939
O O13 0.300178 0.851107 0.264698
O O14 0.000000 0.500000 0.195400
#
# Coordination Sequence:
#
# PCOD8155988 Si02
#       7
#     4   4   4   2   4   4   4
#     4  10  22  43  64  96 130 167 227 280 333 406
#     4  10  23  40  67  96 132 176 222 269 337 414
#     4  10  20  38  61  93 133 164 218 271 313 393
#     4  12  26  46  70  98 144 188 220 280 346 402
#     4  10  20  39  67  93 123 180 218 263 342 404
#     4  10  21  40  67  91 125 170 218 280 339 391
#     4  10  23  40  63  92 133 180 221 270 319 397
#
# _framework density 25.725209
#
# number of rings (size 3 to 8) (size 9 to 14) (size 15 to 20)
#    0.000    1.846    0.000    3.692    0.000    9.846 
#    8.308    0.000    0.000    0.000    0.000    0.000 
#    0.000    0.000    0.000    0.000    0.000    0.000 
#
# Total GULP energy -322344.284885 kJ/mol
# GULP energy per Si atom -12397.857111 kJ/mol
# Density = 2.566666 g / cm^3
# Si number density = 25.725209 Si / 1000 Ang^3
#
#
#
# Elastic Constant Matrix: (Units=GPa)
#
#
# Indices 1 2 3 4 5 6 
#
# 1 116.5070 -10.3656 72.1906 0.0000 0.0000 0.0000
# 2 -10.3656 72.6939 44.4013 0.0000 0.0000 0.0000
# 3 72.1906 44.4013 268.0990 0.0000 0.0000 0.0000
# 4 0.0000 0.0000 0.0000 27.8406 0.0000 0.0000
# 5 0.0000 0.0000 0.0000 0.0000 48.1597 0.0000
# 6 0.0000 0.0000 0.0000 0.0000 0.0000 37.3176
#
#
#
# Elastic Compliance Matrix: (Units=1/GPa)
#
#
# Indices 1 2 3 4 5 6 
#
# 1 0.011180 0.003819 -0.003643 0.000000 0.000000 0.000000
# 2 0.003819 0.016609 -0.003779 0.000000 0.000000 0.000000
# 3 -0.003643 -0.003779 0.005337 0.000000 0.000000 0.000000
# 4 0.000000 0.000000 0.000000 0.035919 0.000000 0.000000
# 5 0.000000 0.000000 0.000000 0.000000 0.020764 0.000000
# 6 0.000000 0.000000 0.000000 0.000000 0.000000 0.026797
#
#
# Mechanical properties :
#
#
# Convention : Reuss Voigt Hill
#
# Bulk Modulus (GPa) = 38.57919 74.41693 56.49806
# Shear Modulus (GPa) = 37.74944 46.06849 41.90897
#
# Velocity S-wave (km/s) = 3.83484 4.23637 4.04059
# Velocity P-wave (km/s) = 5.88533 7.27458 6.61652
#
# Compressibility (1/GPa) = 0.02592071
#
# Stress axis : x y z
#
# Youngs Moduli (GPa) = 89.44290 60.20737 187.37758
#
# Poissons Ratio (x) = -0.22996 0.68263
# Poissons Ratio (y) = -0.34162 0.70814
# Poissons Ratio (z) = 0.32585 0.22754
#
# Static dielectric constant tensor:
#      x y z
#    x 4.487810 0.000000 0.000000 
#    y 0.000000 4.568990 0.000000 
#    z 0.000000 0.000000 5.622550 
# 
# 
# High freq. dielectric constant tensor:
#      x y z
#    x 2.024920 0.000000 0.000000 
#    y 0.000000 2.035220 0.000000 
#    z 0.000000 0.000000 2.057830 
# 
# From -- ./inp_files/2214.got.cif
#   From: 2010.03.12/outbox.cif.g09.slc.cpg/sg18_2_cif.got.tgz:2214.got - 2010.04.10 18:53:55.
