data_PCOD8155300
_publ_section_title
;
Structure prediction by ZEFSAII (Michael W. Deem and Ramdas Pophale) SiO2 
 PCOD8155300
Probable space group: P 2 2 2
;
_chemical_formula_sum "Si O2"
_cell_formula_units_Z 18
_cell_length_a 6.126493
_cell_length_b 16.124881
_cell_length_c 8.852700
_cell_angle_alpha 90.000000
_cell_angle_beta 90.000000
_cell_angle_gamma 90.000000
_cell_volume 874.549120
_symmetry_space_group_name_H-M "P 2 2 2"
_symmetry_group_IT_number 16
_symmetry_cell_setting 'orthorhombic'
loop_
_space_group_symop_operation_xyz
x,y,z
-x,-y,z
x,-y,-z
-x,y,-z
loop_
_atom_site_type_symbol
_atom_site_label
_atom_site_fract_x
_atom_site_fract_y
_atom_site_fract_z
Si Si1 0.500000 0.150053 0.000000
Si Si2 0.803618 0.635438 0.394887
Si Si3 0.000000 0.000000 0.500000
Si Si4 0.500000 0.224537 0.500000
Si Si5 0.879694 0.754877 0.150286
Si Si6 0.232413 0.876180 0.276551
Si Si7 0.500000 0.500000 0.500000
O O1 0.356351 0.207579 0.110793
O O2 0.661350 0.096422 0.112294
O O3 0.706967 0.719770 0.462679
O O4 0.869273 0.663922 0.227794
O O5 0.637797 0.558487 0.387901
O O6 0.000000 0.605420 0.500000
O O7 0.842835 0.050045 0.386262
O O8 0.568467 0.169815 0.357976
O O9 0.019919 0.819435 0.250388
O O10 0.000000 0.731661 0.000000
#
# Coordination Sequence:
#
# PCOD8155300 Si02
#       7
#     2   4   1   2   4   4   1
#     4  10  22  42  69  93 126 164 224 278 334 397
#     4  11  20  39  63  96 126 166 213 271 320 385
#     4  12  28  42  66  92 146 176 216 286 344 406
#     4  11  20  36  72  91 114 166 230 269 310 386
#     4  10  21  39  68  96 121 165 224 274 316 389
#     4  11  23  43  64  99 125 170 227 276 334 397
#     4  10  26  32  60  98 136 166 206 260 340 390
#
# _framework density 20.582034
#
# number of rings (size 3 to 8) (size 9 to 14) (size 15 to 20)
#    0.000    1.333    4.444    1.667    0.000    0.444 
#    0.000    6.111    0.000   10.000    0.000    0.000 
#    0.000    0.000    0.000    0.000    0.000    0.000 
#
# Total GULP energy -223042.453581 kJ/mol
# GULP energy per Si atom -12391.247421 kJ/mol
# Density = 2.053519 g / cm^3
# Si number density = 20.582034 Si / 1000 Ang^3
#
#
#
# Elastic Constant Matrix: (Units=GPa)
#
#
# Indices 1 2 3 4 5 6 
#
# 1 114.6361 47.2210 56.2785 0.0000 0.0000 0.0000
# 2 47.2210 104.4570 69.4801 0.0000 0.0000 0.0000
# 3 56.2785 69.4801 127.3391 0.0000 0.0000 0.0000
# 4 0.0000 0.0000 0.0000 21.9400 0.0000 0.0000
# 5 0.0000 0.0000 0.0000 0.0000 41.8522 0.0000
# 6 0.0000 0.0000 0.0000 0.0000 0.0000 -71.2831
#
#
#
# Elastic Compliance Matrix: (Units=1/GPa)
#
#
# Indices 1 2 3 4 5 6 
#
# 1 0.011673 -0.002897 -0.003579 0.000000 0.000000 0.000000
# 2 -0.002897 0.015746 -0.007311 0.000000 0.000000 0.000000
# 3 -0.003579 -0.007311 0.013424 0.000000 0.000000 0.000000
# 4 0.000000 0.000000 0.000000 0.045579 0.000000 0.000000
# 5 0.000000 0.000000 0.000000 0.000000 0.023894 0.000000
# 6 0.000000 0.000000 0.000000 0.000000 0.000000 -0.014029
#
#
# Mechanical properties :
#
#
# Convention : Reuss Voigt Hill
#
# Bulk Modulus (GPa) = 75.35783 76.93240 76.14512
# Shear Modulus (GPa) = 38.97623 10.06533 24.52078
#
# Velocity S-wave (km/s) = 4.35639 2.21381 3.45536
# Velocity P-wave (km/s) = 7.87382 6.63281 7.27981
#
# Compressibility (1/GPa) = 0.01327002
#
# Stress axis : x y z
#
# Youngs Moduli (GPa) = 85.66548 63.50847 74.49440
#
# Poissons Ratio (x) = 0.18397 0.26658
# Poissons Ratio (y) = 0.24815 0.54464
# Poissons Ratio (z) = 0.30656 0.46432
#
# Static dielectric constant tensor:
#      x y z
#    x 3.915110 0.000000 0.000000 
#    y 0.000000 3.493820 0.000000 
#    z 0.000000 0.000000 4.357320 
# 
# 
# High freq. dielectric constant tensor:
#      x y z
#    x 1.827380 0.000000 0.000000 
#    y 0.000000 1.769520 0.000000 
#    z 0.000000 0.000000 1.815960 
# 
# From -- ./inp_files/3126.got.cif
#   From: 2010.03.12/outbox.cif.g09.slc.cpg/sg16_2_cif.got.tgz:3126.got - 2010.03.31 00:51:45.
