data_PCOD8155896
_publ_section_title
;
Structure prediction by ZEFSAII (Michael W. Deem and Ramdas Pophale) SiO2 
 PCOD8155896
Probable space group: P 21 21 2
;
_chemical_formula_sum "Si O2"
_cell_formula_units_Z 30
_cell_length_a 14.884134
_cell_length_b 7.406665
_cell_length_c 12.889523
_cell_angle_alpha 90.000000
_cell_angle_beta 90.000000
_cell_angle_gamma 90.000000
_cell_volume 1420.964144
_symmetry_space_group_name_H-M "P 21 21 2"
_symmetry_group_IT_number 18
_symmetry_cell_setting 'orthorhombic'
loop_
_space_group_symop_operation_xyz
x,y,z
-x,-y,z
1/2+x,1/2-y,-z
1/2-x,1/2+y,-z
loop_
_atom_site_type_symbol
_atom_site_label
_atom_site_fract_x
_atom_site_fract_y
_atom_site_fract_z
Si Si1 0.844070 0.690508 0.238289
Si Si2 0.099326 0.561529 0.725894
Si Si3 0.896963 0.029740 0.794618
Si Si4 0.000000 0.500000 0.344146
Si Si5 0.705589 0.518687 0.392518
Si Si6 0.637815 0.841314 0.498976
Si Si7 0.758406 0.025283 0.144957
Si Si8 0.764723 0.418942 0.082238
O O1 0.944832 0.644809 0.275599
O O2 0.774681 0.650863 0.331443
O O3 0.832455 0.899813 0.203363
O O4 0.826477 0.564675 0.138914
O O5 0.120192 0.761371 0.768194
O O6 0.112852 0.541397 0.602268
O O7 0.171852 0.436252 0.782891
O O8 0.000000 0.500000 0.757762
O O9 0.859837 0.921476 0.692214
O O10 0.840136 0.961797 0.892919
O O11 0.000000 0.000000 0.818870
O O12 0.934623 0.376428 0.412596
O O13 0.640291 0.630871 0.468956
O O14 0.761378 0.377804 0.459806
O O15 0.798541 0.222024 0.119865
O O16 0.723503 0.927354 0.040804
#
# Coordination Sequence:
#
# PCOD8155896 Si02
#       8
#     4   4   4   2   4   4   4   4
#     4  10  21  44  61  93 128 167 219 262 327 391
#     4  11  21  36  59  95 127 159 221 266 315 381
#     4  10  20  39  56  89 127 161 209 272 317 380
#     4  10  22  40  66  86 140 172 212 280 324 388
#     4   9  20  37  59  85 121 158 213 261 308 390
#     4  10  19  37  62  87 121 172 208 262 329 375
#     4  12  21  41  68  94 125 171 214 267 325 398
#     4  11  22  40  69  93 127 170 212 264 335 392
#
# _framework density 21.112425000000002
#
# number of rings (size 3 to 8) (size 9 to 14) (size 15 to 20)
#    0.000    1.600    6.000    0.800    0.000    4.267 
#    3.600    2.000    2.933    0.000    0.000    0.000 
#    0.000    0.000    0.000    0.000    0.000    0.000 
#
# Total GULP energy -371919.910193 kJ/mol
# GULP energy per Si atom -12397.330340 kJ/mol
# Density = 2.106437 g / cm^3
# Si number density = 21.112425 Si / 1000 Ang^3
#
#
#
# Elastic Constant Matrix: (Units=GPa)
#
#
# Indices 1 2 3 4 5 6 
#
# 1 111.8753 14.7755 43.4549 0.0000 0.0000 0.0000
# 2 14.7755 59.7008 20.2286 0.0000 0.0000 0.0000
# 3 43.4549 20.2286 96.8168 0.0000 0.0000 0.0000
# 4 0.0000 0.0000 0.0000 31.4715 0.0000 0.0000
# 5 0.0000 0.0000 0.0000 0.0000 23.0082 0.0000
# 6 0.0000 0.0000 0.0000 0.0000 0.0000 28.4307
#
#
#
# Elastic Compliance Matrix: (Units=1/GPa)
#
#
# Indices 1 2 3 4 5 6 
#
# 1 0.010895 -0.001119 -0.004656 0.000000 0.000000 0.000000
# 2 -0.001119 0.018141 -0.003288 0.000000 0.000000 0.000000
# 3 -0.004656 -0.003288 0.013106 0.000000 0.000000 0.000000
# 4 0.000000 0.000000 0.000000 0.031775 0.000000 0.000000
# 5 0.000000 0.000000 0.000000 0.000000 0.043463 0.000000
# 6 0.000000 0.000000 0.000000 0.000000 0.000000 0.035173
#
#
# Mechanical properties :
#
#
# Convention : Reuss Voigt Hill
#
# Bulk Modulus (GPa) = 41.64000 47.25676 44.44838
# Shear Modulus (GPa) = 27.98233 29.24435 28.61334
#
# Velocity S-wave (km/s) = 3.64455 3.72583 3.68541
# Velocity P-wave (km/s) = 6.12177 6.39852 6.26168
#
# Compressibility (1/GPa) = 0.02401537
#
# Stress axis : x y z
#
# Youngs Moduli (GPa) = 91.78625 55.12303 76.30245
#
# Poissons Ratio (x) = 0.06167 0.35529
# Poissons Ratio (y) = 0.10268 0.25090
# Poissons Ratio (z) = 0.42738 0.18126
#
# Static dielectric constant tensor:
#      x y z
#    x 3.875590 0.000000 0.000000 
#    y 0.000000 3.637810 0.000000 
#    z 0.000000 0.000000 3.932740 
# 
# 
# High freq. dielectric constant tensor:
#      x y z
#    x 1.810780 0.000000 0.000000 
#    y 0.000000 1.816790 0.000000 
#    z 0.000000 0.000000 1.833920 
# 
# From -- ./inp_files/6076.got.cif
#   From: 2010.03.12/outbox.cif.g09.slc.cpg/sg18_4_cif.got.tgz:6076.got - 2010.04.10 18:53:55.
