data_PCOD8155916
_publ_section_title
;
Structure prediction by ZEFSAII (Michael W. Deem and Ramdas Pophale) SiO2 
 PCOD8155916
Probable space group: P 21 21 2
;
_chemical_formula_sum "Si O2"
_cell_formula_units_Z 32
_cell_length_a 11.787951
_cell_length_b 9.708706
_cell_length_c 14.144591
_cell_angle_alpha 90.000000
_cell_angle_beta 90.000000
_cell_angle_gamma 90.000000
_cell_volume 1618.788334
_symmetry_space_group_name_H-M "P 21 21 2"
_symmetry_group_IT_number 18
_symmetry_cell_setting 'orthorhombic'
loop_
_space_group_symop_operation_xyz
x,y,z
-x,-y,z
1/2+x,1/2-y,-z
1/2-x,1/2+y,-z
loop_
_atom_site_type_symbol
_atom_site_label
_atom_site_fract_x
_atom_site_fract_y
_atom_site_fract_z
Si Si1 0.724913 0.336802 0.824788
Si Si2 0.998341 0.162201 0.264500
Si Si3 0.397080 0.664698 0.162556
Si Si4 0.877353 0.135582 0.922761
Si Si5 0.825412 0.417619 0.638368
Si Si6 0.936220 0.707480 0.636547
Si Si7 0.086486 0.123379 0.455312
Si Si8 0.805105 0.142729 0.128782
O O1 0.593993 0.295711 0.810496
O O2 0.769234 0.228957 0.900661
O O3 0.793308 0.324935 0.727997
O O4 0.745363 0.492719 0.855915
O O5 0.027806 0.216150 0.370597
O O6 0.878156 0.201337 0.218326
O O7 0.000000 0.000000 0.280843
O O8 0.370637 0.505903 0.137062
O O9 0.508655 0.714491 0.106989
O O10 0.421618 0.690145 0.273773
O O11 0.295668 0.750781 0.117328
O O12 0.882026 0.122779 0.035702
O O13 0.860783 0.574207 0.662046
O O14 0.713845 0.427301 0.572132
O O15 0.936370 0.334897 0.603315
O O16 0.887489 0.783261 0.545373
O O17 0.000000 0.000000 0.483123
#
# Coordination Sequence:
#
# PCOD8155916 Si02
#       8
#     4   4   4   4   4   4   4   4
#     4  10  19  40  65  84 123 164 205 256 304 379
#     4   8  19  37  62  90 114 159 211 252 299 378
#     4  11  25  41  60  96 127 164 209 267 320 377
#     4  11  25  38  59  95 126 159 211 261 321 372
#     4  10  22  42  63  96 122 169 219 258 311 389
#     4  11  23  41  66  91 132 167 210 275 320 378
#     4  10  23  38  67  94 124 167 212 257 328 383
#     4  11  22  39  69  87 125 168 209 259 315 380
#
# _framework density 19.767871
#
# number of rings (size 3 to 8) (size 9 to 14) (size 15 to 20)
#    0.000    1.750    2.500    1.500   10.500    0.500 
#    2.250    0.625    0.000    0.000    0.000    0.000 
#    0.000    0.000    0.000    0.000    0.000    0.000 
#
# Total GULP energy -396482.312739 kJ/mol
# GULP energy per Si atom -12390.072273 kJ/mol
# Density = 1.972288 g / cm^3
# Si number density = 19.767871 Si / 1000 Ang^3
#
#
#
# Elastic Constant Matrix: (Units=GPa)
#
#
# Indices 1 2 3 4 5 6 
#
# 1 92.1624 38.1879 36.7144 0.0000 0.0000 0.0000
# 2 38.1879 51.5830 28.2593 0.0000 0.0000 0.0000
# 3 36.7144 28.2593 103.0340 0.0000 0.0000 0.0000
# 4 0.0000 0.0000 0.0000 11.7262 0.0000 0.0000
# 5 0.0000 0.0000 0.0000 0.0000 22.6398 0.0000
# 6 0.0000 0.0000 0.0000 0.0000 0.0000 19.9990
#
#
#
# Elastic Compliance Matrix: (Units=1/GPa)
#
#
# Indices 1 2 3 4 5 6 
#
# 1 0.016382 -0.010509 -0.002955 0.000000 0.000000 0.000000
# 2 -0.010509 0.029556 -0.004362 0.000000 0.000000 0.000000
# 3 -0.002955 -0.004362 0.011955 0.000000 0.000000 0.000000
# 4 0.000000 0.000000 0.000000 0.085279 0.000000 0.000000
# 5 0.000000 0.000000 0.000000 0.000000 0.044170 0.000000
# 6 0.000000 0.000000 0.000000 0.000000 0.000000 0.050002
#
#
# Mechanical properties :
#
#
# Convention : Reuss Voigt Hill
#
# Bulk Modulus (GPa) = 44.96182 50.34474 47.65328
# Shear Modulus (GPa) = 17.83105 20.44752 19.13928
#
# Velocity S-wave (km/s) = 3.00663 3.21967 3.11497
# Velocity P-wave (km/s) = 5.90316 6.27255 6.09066
#
# Compressibility (1/GPa) = 0.02224109
#
# Stress axis : x y z
#
# Youngs Moduli (GPa) = 61.04224 33.83443 83.64835
#
# Poissons Ratio (x) = 0.35557 0.24719
# Poissons Ratio (y) = 0.64149 0.36484
# Poissons Ratio (z) = 0.18039 0.14757
#
# Static dielectric constant tensor:
#      x y z
#    x 8.138110 0.000000 0.000000 
#    y 0.000000 3.337360 0.000000 
#    z 0.000000 0.000000 3.759590 
# 
# 
# High freq. dielectric constant tensor:
#      x y z
#    x 1.787420 0.000000 0.000000 
#    y 0.000000 1.740080 0.000000 
#    z 0.000000 0.000000 1.776230 
# 
# From -- ./inp_files/6921.got.cif
#   From: 2010.03.12/outbox.cif.g09.slc.cpg/sg18_4_cif.got.tgz:6921.got - 2010.04.10 18:53:55.
