data_PCOD8155490
_publ_section_title
;
Structure prediction by ZEFSAII (Michael W. Deem and Ramdas Pophale) SiO2 
 PCOD8155490
Probable space group: P 2 2 21
;
_chemical_formula_sum "Si O2"
_cell_formula_units_Z 18
_cell_length_a 5.112938
_cell_length_b 10.561091
_cell_length_c 19.009831
_cell_angle_alpha 90.000000
_cell_angle_beta 90.000000
_cell_angle_gamma 90.000000
_cell_volume 1026.496723
_symmetry_space_group_name_H-M "P 2 2 21"
_symmetry_group_IT_number 17
_symmetry_cell_setting 'orthorhombic'
loop_
_space_group_symop_operation_xyz
x,y,z
-x,-y,1/2+z
x,-y,-z
-x,y,1/2-z
loop_
_atom_site_type_symbol
_atom_site_label
_atom_site_fract_x
_atom_site_fract_y
_atom_site_fract_z
Si Si1 0.782753 0.000000 0.500000
Si Si2 0.020514 0.581257 0.170070
Si Si3 0.455260 0.757971 0.957235
Si Si4 0.521245 0.417123 0.170148
Si Si5 0.976208 0.242505 0.957213
O O1 0.598917 0.909808 0.548640
O O2 0.966290 0.909113 0.451735
O O3 0.805761 0.474051 0.154937
O O4 0.970886 0.701760 0.120879
O O5 0.000000 0.630510 0.250000
O O6 0.305324 0.523942 0.154860
O O7 0.484299 0.704132 0.879243
O O8 0.706735 0.728261 0.004080
O O9 0.208154 0.692508 0.996747
O O10 0.500000 0.367640 0.250000
#
# Coordination Sequence:
#
# PCOD8155490 Si02
#       5
#     2   4   4   4   4
#     4   8  22  36  56  76 114 132 192 218 266 296
#     4  10  21  36  55  82 114 140 172 221 274 323
#     4  10  20  35  58  77 110 141 180 222 264 310
#     4  10  21  36  55  82 114 140 172 221 274 323
#     4  10  20  35  58  77 110 141 180 222 264 310
#
# _framework density 17.535371000000001
#
# number of rings (size 3 to 8) (size 9 to 14) (size 15 to 20)
#    1.333    0.889    0.000    3.333    0.000    5.333 
#    0.000    0.000    9.778    0.000    0.000    0.000 
#    0.000    0.000    0.000    0.000    0.000    0.000 
#
# Total GULP energy -223079.987914 kJ/mol
# GULP energy per Si atom -12393.332662 kJ/mol
# Density = 1.749546 g / cm^3
# Si number density = 17.535371 Si / 1000 Ang^3
#
#
#
# Elastic Constant Matrix: (Units=GPa)
#
#
# Indices 1 2 3 4 5 6 
#
# 1 98.4071 8.5818 26.7968 0.0000 0.0000 0.0000
# 2 8.5818 84.1135 70.2464 0.0000 0.0000 0.0000
# 3 26.7968 70.2464 113.2665 0.0000 0.0000 0.0000
# 4 0.0000 0.0000 0.0000 21.1704 0.0000 0.0000
# 5 0.0000 0.0000 0.0000 0.0000 23.6314 0.0000
# 6 0.0000 0.0000 0.0000 0.0000 0.0000 11.0828
#
#
#
# Elastic Compliance Matrix: (Units=1/GPa)
#
#
# Indices 1 2 3 4 5 6 
#
# 1 0.011053 0.002191 -0.003974 0.000000 0.000000 0.000000
# 2 0.002191 0.025097 -0.016083 0.000000 0.000000 0.000000
# 3 -0.003974 -0.016083 0.019743 0.000000 0.000000 0.000000
# 4 0.000000 0.000000 0.000000 0.047236 0.000000 0.000000
# 5 0.000000 0.000000 0.000000 0.000000 0.042317 0.000000
# 6 0.000000 0.000000 0.000000 0.000000 0.000000 0.090230
#
#
# Mechanical properties :
#
#
# Convention : Reuss Voigt Hill
#
# Bulk Modulus (GPa) = 49.59994 56.33746 52.96870
# Shear Modulus (GPa) = 17.97743 23.85439 20.91591
#
# Velocity S-wave (km/s) = 3.20536 3.69231 3.45742
# Velocity P-wave (km/s) = 6.48430 7.09754 6.79784
#
# Compressibility (1/GPa) = 0.02016131
#
# Stress axis : x y z
#
# Youngs Moduli (GPa) = 90.47436 39.84605 50.65030
#
# Poissons Ratio (x) = -0.08730 0.20127
# Poissons Ratio (y) = -0.19822 0.81460
# Poissons Ratio (z) = 0.35951 0.64084
#
# Static dielectric constant tensor:
#      x y z
#    x 3.480880 0.000000 0.000000 
#    y 0.000000 2.965270 0.000000 
#    z 0.000000 0.000000 3.147500 
# 
# 
# High freq. dielectric constant tensor:
#      x y z
#    x 1.701990 0.000000 0.000000 
#    y 0.000000 1.653400 0.000000 
#    z 0.000000 0.000000 1.663700 
# 
# From -- ./inp_files/7532.got.cif
#   From: 2010.03.12/outbox.cif.g09.slc.cpg/sg17_4_cif.got.tgz:7532.got - 2010.04.10 18:46:23.
