data_PCOD8155220
_publ_section_title
;
Structure prediction by ZEFSAII (Michael W. Deem and Ramdas Pophale) SiO2 
 PCOD8155220
Probable space group: P 2 2 2
;
_chemical_formula_sum "Si O2"
_cell_formula_units_Z 27
_cell_length_a 7.850510
_cell_length_b 10.112654
_cell_length_c 16.285520
_cell_angle_alpha 90.000000
_cell_angle_beta 90.000000
_cell_angle_gamma 90.000000
_cell_volume 1292.899149
_symmetry_space_group_name_H-M "P 2 2 2"
_symmetry_group_IT_number 16
_symmetry_cell_setting 'orthorhombic'
loop_
_space_group_symop_operation_xyz
x,y,z
-x,-y,z
x,-y,-z
-x,y,-z
loop_
_atom_site_type_symbol
_atom_site_label
_atom_site_fract_x
_atom_site_fract_y
_atom_site_fract_z
Si Si1 0.000000 0.500000 0.177837
Si Si2 0.962551 0.216998 0.094987
Si Si3 0.698042 0.738705 0.414781
Si Si4 0.700888 0.498250 0.302410
Si Si5 0.500000 0.000000 0.000000
Si Si6 0.294947 0.245352 0.597467
Si Si7 0.310724 0.986931 0.677363
Si Si8 0.748093 0.976570 0.134720
O O1 0.043165 0.631935 0.125741
O O2 0.826316 0.529709 0.227115
O O3 0.791793 0.129320 0.109296
O O4 0.100782 0.128093 0.141633
O O5 0.000000 0.222185 0.000000
O O6 0.743640 0.601115 0.373582
O O7 0.780674 0.740245 0.505697
O O8 0.496322 0.754585 0.414222
O O9 0.779022 0.857296 0.360562
O O10 0.500000 0.500000 0.275259
O O11 0.759106 0.360394 0.340828
O O12 0.381227 0.918799 0.935138
O O13 0.215561 0.116155 0.641974
O O14 0.328449 0.981480 0.774974
O O15 0.500000 0.000000 0.641225
#
# Coordination Sequence:
#
# PCOD8155220 Si02
#       8
#     2   4   4   4   1   4   4   4
#     4  12  25  42  63  88 128 160 200 262 309 355
#     4  11  23  43  61  85 118 164 200 243 315 369
#     4   9  17  31  52  80 117 157 197 245 297 351
#     4  10  21  39  59  85 113 159 205 245 295 359
#     4  12  20  38  68  98 122 154 208 258 296 358
#     4   9  17  31  52  80 117 157 197 245 297 351
#     4  10  18  28  51  86 117 147 191 245 300 352
#     4  11  21  39  64  91 120 159 201 248 300 369
#
# _framework density 20.883299000000001
#
# number of rings (size 3 to 8) (size 9 to 14) (size 15 to 20)
#    0.000    1.778    2.222    3.333    0.000    3.556 
#    2.667    1.481    0.000    1.778    0.000    8.296 
#    0.000    0.000    0.000    0.000    0.000    0.000 
#
# Total GULP energy -334480.361533 kJ/mol
# GULP energy per Si atom -12388.161538 kJ/mol
# Density = 2.083577 g / cm^3
# Si number density = 20.883299 Si / 1000 Ang^3
#
#
#
# Elastic Constant Matrix: (Units=GPa)
#
#
# Indices 1 2 3 4 5 6 
#
# 1 51.0949 16.8386 10.9415 0.0000 0.0000 0.0000
# 2 16.8386 125.9454 25.6803 0.0000 0.0000 0.0000
# 3 10.9415 25.6803 72.4727 0.0000 0.0000 0.0000
# 4 0.0000 0.0000 0.0000 26.2967 0.0000 0.0000
# 5 0.0000 0.0000 0.0000 0.0000 13.3655 0.0000
# 6 0.0000 0.0000 0.0000 0.0000 0.0000 7.1412
#
#
#
# Elastic Compliance Matrix: (Units=1/GPa)
#
#
# Indices 1 2 3 4 5 6 
#
# 1 0.020831 -0.002311 -0.002326 0.000000 0.000000 0.000000
# 2 -0.002311 0.008815 -0.002775 0.000000 0.000000 0.000000
# 3 -0.002326 -0.002775 0.015133 0.000000 0.000000 0.000000
# 4 0.000000 0.000000 0.000000 0.038028 0.000000 0.000000
# 5 0.000000 0.000000 0.000000 0.000000 0.074820 0.000000
# 6 0.000000 0.000000 0.000000 0.000000 0.000000 0.140033
#
#
# Mechanical properties :
#
#
# Convention : Reuss Voigt Hill
#
# Bulk Modulus (GPa) = 33.38294 39.60375 36.49334
# Shear Modulus (GPa) = 15.50548 22.43084 18.96816
#
# Velocity S-wave (km/s) = 2.72781 3.28091 3.01706
# Velocity P-wave (km/s) = 5.09327 5.77564 5.44515
#
# Compressibility (1/GPa) = 0.02995542
#
# Stress axis : x y z
#
# Youngs Moduli (GPa) = 48.00519 113.44784 66.08237
#
# Poissons Ratio (x) = 0.26215 0.15372
# Poissons Ratio (y) = 0.11093 0.18335
# Poissons Ratio (z) = 0.11167 0.31477
#
# Static dielectric constant tensor:
#      x y z
#    x 3.667380 0.000000 0.000000 
#    y 0.000000 4.126740 0.000000 
#    z 0.000000 0.000000 3.804410 
# 
# 
# High freq. dielectric constant tensor:
#      x y z
#    x 1.790270 0.000000 0.000000 
#    y 0.000000 1.820030 0.000000 
#    z 0.000000 0.000000 1.827270 
# 
# From -- ./inp_files/8938.got.cif
#   From: 2010.03.12/outbox.cif.g09.slc.cpg/sg16_5_cif.got.tgz:8938.got - 2010.03.31 00:51:45.
