data_PCOD8155389
_publ_section_title
;
Structure prediction by ZEFSAII (Michael W. Deem and Ramdas Pophale) SiO2 
 PCOD8155389
Probable space group: P 2 2 21
;
_chemical_formula_sum "Si O2"
_cell_formula_units_Z 26
_cell_length_a 6.340873
_cell_length_b 9.490554
_cell_length_c 21.694393
_cell_angle_alpha 90.000000
_cell_angle_beta 90.000000
_cell_angle_gamma 90.000000
_cell_volume 1305.533808
_symmetry_space_group_name_H-M "P 2 2 21"
_symmetry_group_IT_number 17
_symmetry_cell_setting 'orthorhombic'
loop_
_space_group_symop_operation_xyz
x,y,z
-x,-y,1/2+z
x,-y,-z
-x,y,1/2-z
loop_
_atom_site_type_symbol
_atom_site_label
_atom_site_fract_x
_atom_site_fract_y
_atom_site_fract_z
Si Si1 0.000000 0.404531 0.750000
Si Si2 0.620798 0.727216 0.188583
Si Si3 0.301090 0.504577 0.143884
Si Si4 0.152154 0.707777 0.047739
Si Si5 0.586083 0.235199 0.424268
Si Si6 0.237564 0.849968 0.496530
Si Si7 0.429021 0.924880 0.100077
O O1 0.135539 0.307630 0.703162
O O2 0.155041 0.496276 0.794209
O O3 0.500000 0.757495 0.250000
O O4 0.511414 0.597953 0.152331
O O5 0.595171 0.874745 0.152276
O O6 0.179301 0.558202 0.082085
O O7 0.380057 0.346795 0.130506
O O8 0.224107 0.824876 0.097883
O O9 0.903423 0.732069 0.036224
O O10 0.272724 0.717456 0.982654
O O11 0.334961 0.219964 0.441071
O O12 0.652976 0.084841 0.394845
O O13 0.451064 0.895812 0.463083
O O14 0.107625 0.000000 0.500000
#
# Coordination Sequence:
#
# PCOD8155389 Si02
#       7
#     2   4   4   4   4   4   4
#     4  10  20  38  60  78 104 146 200 242 276 324
#     4   9  19  36  56  76  98 136 185 229 270 321
#     4  10  21  35  54  79 111 148 186 230 278 331
#     4  10  18  33  55  81 112 147 183 221 272 340
#     4  10  20  33  51  82 115 142 175 224 289 344
#     4   9  17  30  51  78 108 142 177 216 268 331
#     4   9  18  33  54  78 108 140 176 225 276 329
#
# _framework density 19.915223999999998
#
# number of rings (size 3 to 8) (size 9 to 14) (size 15 to 20)
#    0.000    2.462    0.000    3.692    0.000    1.231 
#    0.000    6.923    0.000    9.231    0.000    0.000 
#    0.000    0.000    0.000    0.000    0.000    0.000 
#
# Total GULP energy -322089.381745 kJ/mol
# GULP energy per Si atom -12388.053144 kJ/mol
# Density = 1.986990 g / cm^3
# Si number density = 19.915224 Si / 1000 Ang^3
#
#
#
# Elastic Constant Matrix: (Units=GPa)
#
#
# Indices 1 2 3 4 5 6 
#
# 1 77.0177 31.1115 19.1781 0.0000 0.0000 0.0000
# 2 31.1115 117.4600 49.4056 0.0000 0.0000 0.0000
# 3 19.1781 49.4056 73.0356 0.0000 0.0000 0.0000
# 4 0.0000 0.0000 0.0000 22.9849 0.0000 0.0000
# 5 0.0000 0.0000 0.0000 0.0000 28.9738 0.0000
# 6 0.0000 0.0000 0.0000 0.0000 0.0000 11.9819
#
#
#
# Elastic Compliance Matrix: (Units=1/GPa)
#
#
# Indices 1 2 3 4 5 6 
#
# 1 0.014691 -0.003171 -0.001713 0.000000 0.000000 0.000000
# 2 -0.003171 0.012584 -0.007680 0.000000 0.000000 0.000000
# 3 -0.001713 -0.007680 0.019337 0.000000 0.000000 0.000000
# 4 0.000000 0.000000 0.000000 0.043507 0.000000 0.000000
# 5 0.000000 0.000000 0.000000 0.000000 0.034514 0.000000
# 6 0.000000 0.000000 0.000000 0.000000 0.000000 0.083459
#
#
# Mechanical properties :
#
#
# Convention : Reuss Voigt Hill
#
# Bulk Modulus (GPa) = 46.54402 51.87820 49.21111
# Shear Modulus (GPa) = 20.80040 23.97600 22.38820
#
# Velocity S-wave (km/s) = 3.23530 3.47349 3.35651
# Velocity P-wave (km/s) = 6.11376 6.49561 6.30757
#
# Compressibility (1/GPa) = 0.02148504
#
# Stress axis : x y z
#
# Youngs Moduli (GPa) = 68.06700 79.46854 51.71522
#
# Poissons Ratio (x) = 0.25199 0.08858
# Poissons Ratio (y) = 0.21583 0.39716
# Poissons Ratio (z) = 0.11658 0.61029
#
# Static dielectric constant tensor:
#      x y z
#    x 3.866300 0.000000 0.000000 
#    y 0.000000 3.661120 0.000000 
#    z 0.000000 0.000000 3.707660 
# 
# 
# High freq. dielectric constant tensor:
#      x y z
#    x 1.769470 0.000000 0.000000 
#    y 0.000000 1.761180 0.000000 
#    z 0.000000 0.000000 1.764620 
# 
# From -- ./inp_files/10865.got.cif
#   From: 2010.03.12/outbox.cif.g09.slc.cpg/sg17_6_cif.got.tgz:10865.got - 2010.04.10 18:46:23.
