data_PCOD8155856
_publ_section_title
;
Structure prediction by ZEFSAII (Michael W. Deem and Ramdas Pophale) SiO2 
 PCOD8155856
Probable space group: P 21 21 2
;
_chemical_formula_sum "Si O2"
_cell_formula_units_Z 24
_cell_length_a 9.199876
_cell_length_b 14.908002
_cell_length_c 9.135658
_cell_angle_alpha 90.000000
_cell_angle_beta 90.000000
_cell_angle_gamma 90.000000
_cell_volume 1252.971663
_symmetry_space_group_name_H-M "P 21 21 2"
_symmetry_group_IT_number 18
_symmetry_cell_setting 'orthorhombic'
loop_
_space_group_symop_operation_xyz
x,y,z
-x,-y,z
1/2+x,1/2-y,-z
1/2-x,1/2+y,-z
loop_
_atom_site_type_symbol
_atom_site_label
_atom_site_fract_x
_atom_site_fract_y
_atom_site_fract_z
Si Si1 0.913207 0.682429 0.030665
Si Si2 0.334961 0.973075 0.165321
Si Si3 0.716613 0.145832 0.434211
Si Si4 0.524474 0.097457 0.674751
Si Si5 0.089993 0.711147 0.555112
Si Si6 0.297460 0.172206 0.137858
O O1 0.974328 0.665577 0.191531
O O2 0.816207 0.771550 0.041868
O O3 0.824161 0.595581 0.971415
O O4 0.044218 0.699033 0.920308
O O5 0.257057 0.066590 0.120822
O O6 0.500000 0.000000 0.208884
O O7 0.258959 0.926221 0.304914
O O8 0.864869 0.200262 0.463854
O O9 0.580453 0.213480 0.393595
O O10 0.677594 0.096175 0.586739
O O11 0.601854 0.872029 0.560297
O O12 0.500000 0.000000 0.741241
O O13 0.200909 0.697248 0.689810
#
# Coordination Sequence:
#
# PCOD8155856 Si02
#       6
#     4   4   4   4   4   4
#     4  11  22  35  62  89 115 150 201 240 289 350
#     4  10  19  38  62  84 114 165 196 235 290 369
#     4  10  19  35  59  86 114 152 195 238 291 347
#     4  10  19  33  58  86 108 146 197 238 275 343
#     4  10  20  35  58  87 117 148 197 238 293 345
#     4  11  21  40  58  87 119 156 199 242 294 355
#
# _framework density 19.154464000000001
#
# number of rings (size 3 to 8) (size 9 to 14) (size 15 to 20)
#    1.000    0.667    5.000    3.000    2.333    0.000 
#    0.000    0.833    0.000    3.000    4.333    0.000 
#    0.000    0.000    0.000    0.000    0.000    0.000 
#
# Total GULP energy -297345.574076 kJ/mol
# GULP energy per Si atom -12389.398920 kJ/mol
# Density = 1.911087 g / cm^3
# Si number density = 19.154464 Si / 1000 Ang^3
#
#
#
# Elastic Constant Matrix: (Units=GPa)
#
#
# Indices 1 2 3 4 5 6 
#
# 1 43.6313 49.2748 15.9021 0.0000 0.0000 0.0000
# 2 49.2748 144.8595 40.3296 0.0000 0.0000 0.0000
# 3 15.9021 40.3296 94.2909 0.0000 0.0000 0.0000
# 4 0.0000 0.0000 0.0000 40.9977 0.0000 0.0000
# 5 0.0000 0.0000 0.0000 0.0000 18.5383 0.0000
# 6 0.0000 0.0000 0.0000 0.0000 0.0000 33.9073
#
#
#
# Elastic Compliance Matrix: (Units=1/GPa)
#
#
# Indices 1 2 3 4 5 6 
#
# 1 0.037296 -0.012413 -0.000981 0.000000 0.000000 0.000000
# 2 -0.012413 0.011968 -0.003025 0.000000 0.000000 0.000000
# 3 -0.000981 -0.003025 0.012065 0.000000 0.000000 0.000000
# 4 0.000000 0.000000 0.000000 0.024392 0.000000 0.000000
# 5 0.000000 0.000000 0.000000 0.000000 0.053942 0.000000
# 6 0.000000 0.000000 0.000000 0.000000 0.000000 0.029492
#
#
# Mechanical properties :
#
#
# Convention : Reuss Voigt Hill
#
# Bulk Modulus (GPa) = 35.10007 54.86609 44.98308
# Shear Modulus (GPa) = 23.64179 30.50700 27.07439
#
# Velocity S-wave (km/s) = 3.51703 3.99517 3.76370
# Velocity P-wave (km/s) = 5.90400 7.07023 6.51327
#
# Compressibility (1/GPa) = 0.02848997
#
# Stress axis : x y z
#
# Youngs Moduli (GPa) = 26.81280 83.55620 82.88549
#
# Poissons Ratio (x) = 1.03721 0.08127
# Poissons Ratio (y) = 0.33284 0.25076
# Poissons Ratio (z) = 0.02629 0.25279
#
# Static dielectric constant tensor:
#      x y z
#    x 3.066210 0.000000 0.000000 
#    y 0.000000 3.567400 0.000000 
#    z 0.000000 0.000000 3.584860 
# 
# 
# High freq. dielectric constant tensor:
#      x y z
#    x 1.690020 0.000000 0.000000 
#    y 0.000000 1.739820 0.000000 
#    z 0.000000 0.000000 1.760040 
# 
# From -- ./inp_files/3168.got.cif
#   From: 2010.03.12/outbox.cif.g09.slc.cpg/sg18_2_cif.got.tgz:3168.got - 2010.04.10 18:53:55.
