data_PCOD8155630
_publ_section_title
;
Structure prediction by ZEFSAII (Michael W. Deem and Ramdas Pophale) SiO2 
 PCOD8155630
Probable space group: P 2 2 21
;
_chemical_formula_sum "Si O2"
_cell_formula_units_Z 24
_cell_length_a 13.589772
_cell_length_b 9.041085
_cell_length_c 9.400379
_cell_angle_alpha 90.000000
_cell_angle_beta 90.000000
_cell_angle_gamma 90.000000
_cell_volume 1154.989634
_symmetry_space_group_name_H-M "P 2 2 21"
_symmetry_group_IT_number 17
_symmetry_cell_setting 'orthorhombic'
loop_
_space_group_symop_operation_xyz
x,y,z
-x,-y,1/2+z
x,-y,-z
-x,y,1/2-z
loop_
_atom_site_type_symbol
_atom_site_label
_atom_site_fract_x
_atom_site_fract_y
_atom_site_fract_z
Si Si1 0.216198 0.663666 0.021466
Si Si2 0.581960 0.019794 0.341934
Si Si3 0.388338 0.307842 0.768497
Si Si4 0.884501 0.856131 0.239196
Si Si5 0.772413 0.161488 0.253084
Si Si6 0.769484 0.335543 0.968857
O O1 0.329733 0.650831 0.084011
O O2 0.155957 0.769781 0.125185
O O3 0.173940 0.500000 0.000000
O O4 0.186811 0.722918 0.865703
O O5 0.500000 0.105318 0.250000
O O6 0.605041 0.868083 0.260538
O O7 0.540983 0.000000 0.500000
O O8 0.678367 0.115442 0.345019
O O9 0.500000 0.375156 0.750000
O O10 0.325426 0.357136 0.631805
O O11 0.856383 0.759303 0.102234
O O12 0.000000 0.873285 0.250000
O O13 0.841592 0.021406 0.223829
O O14 0.740767 0.246151 0.110499
O O15 0.810201 0.500000 0.000000
#
# Coordination Sequence:
#
# PCOD8155630 Si02
#       6
#     4   4   4   4   4   4
#     4  11  23  43  66  92 130 170 205 259 322 379
#     4  11  22  36  62  97 129 169 220 268 315 367
#     4  10  22  40  61  91 133 171 214 262 305 369
#     4  11  25  45  68  94 123 160 213 269 323 386
#     4  12  22  40  68  93 125 166 216 265 312 378
#     4  11  25  43  64  95 131 170 211 259 325 385
#
# _framework density 20.779408
#
# number of rings (size 3 to 8) (size 9 to 14) (size 15 to 20)
#    0.000    1.000    5.000    3.000    4.667    4.000 
#    0.000    3.333    0.000    0.000    0.000    0.000 
#    0.000    0.000    0.000    0.000    0.000    0.000 
#
# Total GULP energy -297366.018076 kJ/mol
# GULP energy per Si atom -12390.250753 kJ/mol
# Density = 2.073211 g / cm^3
# Si number density = 20.779408 Si / 1000 Ang^3
#
#
#
# Elastic Constant Matrix: (Units=GPa)
#
#
# Indices 1 2 3 4 5 6 
#
# 1 110.5676 33.7336 38.1803 0.0000 0.0000 0.0000
# 2 33.7336 126.5438 40.9197 0.0000 0.0000 0.0000
# 3 38.1803 40.9197 136.4001 0.0000 0.0000 0.0000
# 4 0.0000 0.0000 0.0000 28.6279 0.0000 0.0000
# 5 0.0000 0.0000 0.0000 0.0000 12.0407 0.0000
# 6 0.0000 0.0000 0.0000 0.0000 0.0000 -0.7297
#
#
#
# Elastic Compliance Matrix: (Units=1/GPa)
#
#
# Indices 1 2 3 4 5 6 
#
# 1 0.010467 -0.002041 -0.002318 0.000000 0.000000 0.000000
# 2 -0.002041 0.009149 -0.002173 0.000000 0.000000 0.000000
# 3 -0.002318 -0.002173 0.008632 0.000000 0.000000 0.000000
# 4 0.000000 0.000000 0.000000 0.034931 0.000000 0.000000
# 5 0.000000 0.000000 0.000000 0.000000 0.083052 0.000000
# 6 0.000000 0.000000 0.000000 0.000000 0.000000 -1.370472
#
#
# Mechanical properties :
#
#
# Convention : Reuss Voigt Hill
#
# Bulk Modulus (GPa) = 65.85616 66.57541 66.21578
# Shear Modulus (GPa) = -4.14554 25.36631 10.61038
#
# Velocity S-wave (km/s) = -1.41399 3.49770 2.26214
# Velocity P-wave (km/s) = 5.39407 6.95849 6.22562
#
# Compressibility (1/GPa) = 0.01518461
#
# Stress axis : x y z
#
# Youngs Moduli (GPa) = 95.53636 109.29824 115.84577
#
# Poissons Ratio (x) = 0.22306 0.26849
# Poissons Ratio (y) = 0.19498 0.25179
# Poissons Ratio (z) = 0.22142 0.23756
#
# Static dielectric constant tensor:
#      x y z
#    x 3.898620 0.000000 0.000000 
#    y 0.000000 3.768740 0.000000 
#    z 0.000000 0.000000 3.942490 
# 
# 
# High freq. dielectric constant tensor:
#      x y z
#    x 1.792760 0.000000 0.000000 
#    y 0.000000 1.816450 0.000000 
#    z 0.000000 0.000000 1.829030 
# 
# From -- ./inp_files/5111.got.cif
#   From: 2010.03.12/outbox.cif.g09.slc.cpg/sg17_3_cif.got.tgz:5111.got - 2010.04.10 18:46:23.
