data_PCOD8155372
_publ_section_title
;
Structure prediction by ZEFSAII (Michael W. Deem and Ramdas Pophale) SiO2 
 PCOD8155372
Probable space group: P 2 2 21
;
_chemical_formula_sum "Si O2"
_cell_formula_units_Z 24
_cell_length_a 8.956326
_cell_length_b 8.934311
_cell_length_c 15.746290
_cell_angle_alpha 90.000000
_cell_angle_beta 90.000000
_cell_angle_gamma 90.000000
_cell_volume 1259.996111
_symmetry_space_group_name_H-M "P 2 2 21"
_symmetry_group_IT_number 17
_symmetry_cell_setting 'orthorhombic'
loop_
_space_group_symop_operation_xyz
x,y,z
-x,-y,1/2+z
x,-y,-z
-x,y,1/2-z
loop_
_atom_site_type_symbol
_atom_site_label
_atom_site_fract_x
_atom_site_fract_y
_atom_site_fract_z
Si Si1 0.081608 0.360750 0.833833
Si Si2 0.872917 0.402124 0.080986
Si Si3 0.431611 0.359840 0.336648
Si Si4 0.422379 0.327456 0.828396
Si Si5 0.374608 0.320795 0.010855
Si Si6 0.927353 0.176423 0.503611
O O1 0.255097 0.387473 0.810292
O O2 0.000000 0.306556 0.750000
O O3 0.007397 0.510133 0.872410
O O4 0.066889 0.223593 0.898268
O O5 0.746955 0.356835 0.149971
O O6 0.933368 0.244153 0.047195
O O7 0.812410 0.500000 0.000000
O O8 0.500000 0.285301 0.250000
O O9 0.468505 0.533106 0.336227
O O10 0.505016 0.279363 0.418049
O O11 0.500000 0.232488 0.750000
O O12 0.426823 0.246874 0.920505
O O13 0.221616 0.243346 0.039315
O O14 0.347802 0.500000 0.000000
O O15 0.932758 0.000000 0.500000
#
# Coordination Sequence:
#
# PCOD8155372 Si02
#       6
#     4   4   4   4   4   4
#     4  10  19  33  55  83 108 135 177 229 272 318
#     4  10  19  33  55  80 106 138 179 226 273 321
#     4  10  18  29  49  80 108 133 171 223 273 318
#     4   9  16  27  48  78 105 129 165 217 273 318
#     4   9  17  33  54  76 103 136 177 224 269 318
#     4  10  21  37  54  75 108 149 184 217 270 329
#
# _framework density 19.047677
#
# number of rings (size 3 to 8) (size 9 to 14) (size 15 to 20)
#    0.000    2.333    0.000    7.000    0.000    1.333 
#    0.000    3.333    0.000    4.000    0.000    4.667 
#    0.000    0.000    0.000    0.000    0.000    0.000 
#
# Total GULP energy -297345.188238 kJ/mol
# GULP energy per Si atom -12389.382843 kJ/mol
# Density = 1.900432 g / cm^3
# Si number density = 19.047677 Si / 1000 Ang^3
#
#
#
# Elastic Constant Matrix: (Units=GPa)
#
#
# Indices 1 2 3 4 5 6 
#
# 1 128.2128 35.1947 65.0311 0.0000 0.0000 0.0000
# 2 35.1947 83.7238 22.4186 0.0000 0.0000 0.0000
# 3 65.0311 22.4186 126.2795 0.0000 0.0000 0.0000
# 4 0.0000 0.0000 0.0000 9.3099 0.0000 0.0000
# 5 0.0000 0.0000 0.0000 0.0000 43.2594 0.0000
# 6 0.0000 0.0000 0.0000 0.0000 0.0000 6.6478
#
#
#
# Elastic Compliance Matrix: (Units=1/GPa)
#
#
# Indices 1 2 3 4 5 6 
#
# 1 0.011401 -0.003381 -0.005271 0.000000 0.000000 0.000000
# 2 -0.003381 0.013543 -0.000663 0.000000 0.000000 0.000000
# 3 -0.005271 -0.000663 0.010751 0.000000 0.000000 0.000000
# 4 0.000000 0.000000 0.000000 0.107412 0.000000 0.000000
# 5 0.000000 0.000000 0.000000 0.000000 0.023116 0.000000
# 6 0.000000 0.000000 0.000000 0.000000 0.000000 0.150427
#
#
# Mechanical properties :
#
#
# Convention : Reuss Voigt Hill
#
# Bulk Modulus (GPa) = 58.60102 64.83388 61.71745
# Shear Modulus (GPa) = 14.66406 26.21487 20.43946
#
# Velocity S-wave (km/s) = 2.77765 3.71384 3.27933
# Velocity P-wave (km/s) = 6.41244 7.24581 6.84182
#
# Compressibility (1/GPa) = 0.01706455
#
# Stress axis : x y z
#
# Youngs Moduli (GPa) = 87.70955 73.83921 93.01332
#
# Poissons Ratio (x) = 0.24967 0.49028
# Poissons Ratio (y) = 0.29657 0.06167
# Poissons Ratio (z) = 0.46233 0.04896
#
# Static dielectric constant tensor:
#      x y z
#    x 3.739600 0.000000 0.000000 
#    y 0.000000 2.786270 0.000000 
#    z 0.000000 0.000000 4.517350 
# 
# 
# High freq. dielectric constant tensor:
#      x y z
#    x 1.752930 0.000000 0.000000 
#    y 0.000000 1.662800 0.000000 
#    z 0.000000 0.000000 1.761070 
# 
# From -- ./inp_files/9405.got.cif
#   From: 2010.03.12/outbox.cif.g09.slc.cpg/sg17_5_cif.got.tgz:9405.got - 2010.04.10 18:46:23.
