data_PCOD8155405
_publ_section_title
;
Structure prediction by ZEFSAII (Michael W. Deem and Ramdas Pophale) SiO2 
 PCOD8155405
Probable space group: P 2 2 21
;
_chemical_formula_sum "Si O2"
_cell_formula_units_Z 20
_cell_length_a 11.268297
_cell_length_b 15.515019
_cell_length_c 5.823346
_cell_angle_alpha 90.000000
_cell_angle_beta 90.000000
_cell_angle_gamma 90.000000
_cell_volume 1018.083015
_symmetry_space_group_name_H-M "P 2 2 21"
_symmetry_group_IT_number 17
_symmetry_cell_setting 'orthorhombic'
loop_
_space_group_symop_operation_xyz
x,y,z
-x,-y,1/2+z
x,-y,-z
-x,y,1/2-z
loop_
_atom_site_type_symbol
_atom_site_label
_atom_site_fract_x
_atom_site_fract_y
_atom_site_fract_z
Si Si1 0.375501 0.415322 0.629509
Si Si2 0.376389 0.747097 0.680347
Si Si3 0.938187 0.000000 0.000000
Si Si4 0.169402 0.181105 0.560408
Si Si5 0.000000 0.708436 0.750000
Si Si6 0.797573 0.313025 0.559822
O O1 0.329147 0.500000 0.500000
O O2 0.500000 0.437935 0.750000
O O3 0.404680 0.340694 0.452066
O O4 0.263412 0.388443 0.790310
O O5 0.500000 0.791734 0.750000
O O6 0.306435 0.812967 0.517336
O O7 0.305614 0.725148 0.907025
O O8 0.860404 0.081163 0.922400
O O9 0.000000 0.977698 0.750000
O O10 0.088988 0.229552 0.379304
O O11 0.152178 0.230933 0.799705
O O12 0.913332 0.651378 0.583324
#
# Coordination Sequence:
#
# PCOD8155405 Si02
#       6
#     4   4   2   4   2   4
#     4  11  22  35  59  96 123 155 207 271 323 379
#     4  10  20  38  60  89 124 166 204 250 318 387
#     4  12  24  40  66  98 132 160 220 286 336 378
#     4  10  22  36  63  94 122 164 209 261 316 383
#     4  10  18  38  58  92 116 166 204 252 310 388
#     4  10  21  36  61  92 122 160 211 254 318 385
#
# _framework density 19.644763999999999
#
# number of rings (size 3 to 8) (size 9 to 14) (size 15 to 20)
#    0.000    1.600    3.000    2.400    2.800    0.000 
#    0.000    0.000    4.400    0.000  187.200    0.000 
#    0.000    0.000    0.000    0.000    0.000    0.000 
#
# Total GULP energy -247777.068956 kJ/mol
# GULP energy per Si atom -12388.853448 kJ/mol
# Density = 1.960005 g / cm^3
# Si number density = 19.644764 Si / 1000 Ang^3
#
#
#
# Elastic Constant Matrix: (Units=GPa)
#
#
# Indices 1 2 3 4 5 6 
#
# 1 135.4917 45.2621 51.2242 0.0000 0.0000 0.0000
# 2 45.2621 91.8553 31.3863 0.0000 0.0000 0.0000
# 3 51.2242 31.3863 109.5031 0.0000 0.0000 0.0000
# 4 0.0000 0.0000 0.0000 26.4293 0.0000 0.0000
# 5 0.0000 0.0000 0.0000 0.0000 101.2399 0.0000
# 6 0.0000 0.0000 0.0000 0.0000 0.0000 21.1952
#
#
#
# Elastic Compliance Matrix: (Units=1/GPa)
#
#
# Indices 1 2 3 4 5 6 
#
# 1 0.009976 -0.003682 -0.003611 0.000000 0.000000 0.000000
# 2 -0.003682 0.013427 -0.002126 0.000000 0.000000 0.000000
# 3 -0.003611 -0.002126 0.011431 0.000000 0.000000 0.000000
# 4 0.000000 0.000000 0.000000 0.037837 0.000000 0.000000
# 5 0.000000 0.000000 0.000000 0.000000 0.009878 0.000000
# 6 0.000000 0.000000 0.000000 0.000000 0.000000 0.047180
#
#
# Mechanical properties :
#
#
# Convention : Reuss Voigt Hill
#
# Bulk Modulus (GPa) = 62.51777 65.84392 64.18085
# Shear Modulus (GPa) = 32.48880 43.70471 38.09675
#
# Velocity S-wave (km/s) = 4.07112 4.72184 4.40851
# Velocity P-wave (km/s) = 7.34792 7.95725 7.65865
#
# Compressibility (1/GPa) = 0.01599545
#
# Stress axis : x y z
#
# Youngs Moduli (GPa) = 100.24380 74.47458 87.48182
#
# Poissons Ratio (x) = 0.27419 0.31592
# Poissons Ratio (y) = 0.36906 0.18602
# Poissons Ratio (z) = 0.36201 0.15836
#
# Static dielectric constant tensor:
#      x y z
#    x 3.331560 0.000000 0.000000 
#    y 0.000000 3.228170 0.000000 
#    z 0.000000 0.000000 4.048920 
# 
# 
# High freq. dielectric constant tensor:
#      x y z
#    x 1.775770 0.000000 0.000000 
#    y 0.000000 1.723660 0.000000 
#    z 0.000000 0.000000 1.791920 
# 
# From -- ./inp_files/1545.got.cif
#   From: 2010.03.12/outbox.cif.g09.slc.cpg/sg17_1_cif.got.tgz:1545.got - 2010.04.10 18:46:23.
