data_PCOD8155656
_publ_section_title
;
Structure prediction by ZEFSAII (Michael W. Deem and Ramdas Pophale) SiO2 
 PCOD8155656
Probable space group: P 2 2 21
;
_chemical_formula_sum "Si O2"
_cell_formula_units_Z 24
_cell_length_a 10.866249
_cell_length_b 5.989417
_cell_length_c 16.414343
_cell_angle_alpha 90.000000
_cell_angle_beta 90.000000
_cell_angle_gamma 90.000000
_cell_volume 1068.286421
_symmetry_space_group_name_H-M "P 2 2 21"
_symmetry_group_IT_number 17
_symmetry_cell_setting 'orthorhombic'
loop_
_space_group_symop_operation_xyz
x,y,z
-x,-y,1/2+z
x,-y,-z
-x,y,1/2-z
loop_
_atom_site_type_symbol
_atom_site_label
_atom_site_fract_x
_atom_site_fract_y
_atom_site_fract_z
Si Si1 0.412169 0.000000 0.000000
Si Si2 0.157010 0.465426 0.798750
Si Si3 0.575790 0.683948 0.107707
Si Si4 0.215801 0.500000 0.500000
Si Si5 0.923274 0.307059 0.143726
Si Si6 0.500000 0.965859 0.250000
Si Si7 0.000000 0.076577 0.750000
Si Si8 0.385183 0.312753 0.133725
O O1 0.496556 0.860286 0.059346
O O2 0.334417 0.177820 0.054020
O O3 0.161517 0.550289 0.705541
O O4 0.290669 0.494091 0.838771
O O5 0.063375 0.607754 0.853852
O O6 0.106909 0.213813 0.796561
O O7 0.587654 0.800696 0.196396
O O8 0.511930 0.440105 0.112540
O O9 0.705123 0.649837 0.062308
O O10 0.131619 0.670710 0.552909
O O11 0.928888 0.056722 0.178695
O O12 0.406123 0.126698 0.202465
#
# Coordination Sequence:
#
# PCOD8155656 Si02
#       8
#     2   4   4   2   4   2   2   4
#     4  10  22  44  60 100 132 184 224 274 364 396
#     4   9  21  44  70  97 133 174 238 283 331 413
#     4  11  24  44  64 101 143 181 229 287 341 417
#     4  12  24  46  68 100 150 178 222 304 344 402
#     4   9  22  43  66 100 134 179 228 278 349 410
#     4  10  26  40  66 108 132 190 238 262 360 416
#     4   8  18  46  72 100 128 180 236 282 350 412
#     4  11  22  43  69  97 140 182 232 289 341 416
#
# _framework density 22.465886000000001
#
# number of rings (size 3 to 8) (size 9 to 14) (size 15 to 20)
#    0.000    2.333    1.667    0.500    4.667    5.333 
#   15.000    0.000    0.000    0.000    0.000    0.000 
#    0.000    0.000    0.000    0.000    0.000    0.000 
#
# Total GULP energy -297426.260560 kJ/mol
# GULP energy per Si atom -12392.760857 kJ/mol
# Density = 2.241475 g / cm^3
# Si number density = 22.465886 Si / 1000 Ang^3
#
#
#
# Elastic Constant Matrix: (Units=GPa)
#
#
# Indices 1 2 3 4 5 6 
#
# 1 69.5259 18.4366 48.7777 0.0000 0.0000 0.0000
# 2 18.4366 114.3270 49.7242 0.0000 0.0000 0.0000
# 3 48.7777 49.7242 130.1489 0.0000 0.0000 0.0000
# 4 0.0000 0.0000 0.0000 35.5928 0.0000 0.0000
# 5 0.0000 0.0000 0.0000 0.0000 41.2158 0.0000
# 6 0.0000 0.0000 0.0000 0.0000 0.0000 -43.7015
#
#
#
# Elastic Compliance Matrix: (Units=1/GPa)
#
#
# Indices 1 2 3 4 5 6 
#
# 1 0.019514 0.000041 -0.007329 0.000000 0.000000 0.000000
# 2 0.000041 0.010490 -0.004023 0.000000 0.000000 0.000000
# 3 -0.007329 -0.004023 0.011967 0.000000 0.000000 0.000000
# 4 0.000000 0.000000 0.000000 0.028096 0.000000 0.000000
# 5 0.000000 0.000000 0.000000 0.000000 0.024263 0.000000
# 6 0.000000 0.000000 0.000000 0.000000 0.000000 -0.022883
#
#
# Mechanical properties :
#
#
# Convention : Reuss Voigt Hill
#
# Bulk Modulus (GPa) = 51.68294 60.87541 56.27918
# Shear Modulus (GPa) = 49.74138 19.75899 34.75018
#
# Velocity S-wave (km/s) = 4.71051 2.96887 3.93720
# Velocity P-wave (km/s) = 7.25536 6.23762 6.76565
#
# Compressibility (1/GPa) = 0.01934874
#
# Stress axis : x y z
#
# Youngs Moduli (GPa) = 51.24440 95.32879 83.56022
#
# Poissons Ratio (x) = -0.00389 0.61243
# Poissons Ratio (y) = -0.00209 0.33617
# Poissons Ratio (z) = 0.37558 0.38351
#
# Static dielectric constant tensor:
#      x y z
#    x 3.635060 0.000000 0.000000 
#    y 0.000000 4.217820 0.000000 
#    z 0.000000 0.000000 4.468760 
# 
# 
# High freq. dielectric constant tensor:
#      x y z
#    x 1.855360 0.000000 0.000000 
#    y 0.000000 1.896050 0.000000 
#    z 0.000000 0.000000 1.888050 
# 
# From -- ./inp_files/9616.got.cif
#   From: 2010.03.12/outbox.cif.g09.slc.cpg/sg17_5_cif.got.tgz:9616.got - 2010.04.10 18:46:23.
