data_PCOD8155114
_publ_section_title
;
Structure prediction by ZEFSAII (Michael W. Deem and Ramdas Pophale) SiO2 
 PCOD8155114
Probable space group: C 2/C
;
_chemical_formula_sum "Si O2"
_cell_formula_units_Z 40
_cell_length_a 18.337629
_cell_length_b 9.205216
_cell_length_c 25.877545
_cell_angle_alpha 90.000000
_cell_angle_beta 157.172662
_cell_angle_gamma 90.000000
_cell_volume 1694.657888
_symmetry_space_group_name_H-M "C 2/C"
_symmetry_group_IT_number 15
_symmetry_cell_setting 'monoclinic'
loop_
_space_group_symop_operation_xyz
x,y,z
-x,y,1/2-z
-x,-y,-z
x,-y,1/2+z
1/2+x,1/2+y,z
1/2-x,1/2+y,1/2-z
1/2-x,1/2-y,-z
1/2+x,1/2-y,1/2+z
loop_
_atom_site_type_symbol
_atom_site_label
_atom_site_fract_x
_atom_site_fract_y
_atom_site_fract_z
Si Si1 0.330370 0.094877 0.408184
Si Si2 0.336895 0.102072 0.534451
Si Si3 0.496059 0.639507 0.531409
Si Si4 0.573243 0.890091 0.742780
Si Si5 0.991234 0.908785 0.146214
O O1 0.341499 0.121541 0.476392
O O2 0.353012 0.245601 0.392103
O O3 0.500000 0.000000 0.500000
O O4 0.135381 0.016282 0.269075
O O5 0.250000 0.250000 0.500000
O O6 0.543204 0.038435 0.687933
O O7 0.211549 0.974652 0.476056
O O8 0.500000 0.500000 0.500000
O O9 0.279024 0.683648 0.383267
O O10 0.550806 0.600372 0.625482
O O11 0.500000 0.940802 0.750000
O O12 0.463220 0.752670 0.648875
#
# Coordination Sequence:
#
# PCOD8155114 Si02
#       5
#     8   8   8   8   8
#     4  12  27  49  76 112 148 195 252 311 372 440
#     4  12  28  49  79 109 148 198 252 309 368 452
#     4  12  29  47  73 111 151 194 245 314 379 437
#     4  12  26  48  77 106 148 196 250 302 377 453
#     4  12  27  49  77 105 150 200 248 306 372 454
#
# _framework density 23.603584999999999
#
# number of rings (size 3 to 8) (size 9 to 14) (size 15 to 20)
#    0.000    0.000    4.000    4.800    8.400    0.000 
#    0.000    0.000    0.000    0.000    0.000    0.000 
#    0.000    0.000    0.000    0.000    0.000    0.000 
#
# Total GULP energy -247840.895879 kJ/mol
# GULP energy per Si atom -12392.044794 kJ/mol
# Density = 2.354986 g / cm^3
# Si number density = 23.603585 Si / 1000 Ang^3
#
#
#
# Elastic Constant Matrix: (Units=GPa)
#
#
# Indices 1 2 3 4 5 6 
#
# 1 173.0640 25.4417 13.4760 -0.0018 -21.8800 -0.0001
# 2 25.4417 101.3153 16.4581 0.0020 10.5355 0.0005
# 3 13.4760 16.4581 62.8659 0.0223 -16.1678 0.0008
# 4 -0.0018 0.0020 0.0223 38.6368 -0.0011 12.1265
# 5 -21.8800 10.5355 -16.1678 -0.0011 27.2042 -0.0001
# 6 -0.0001 0.0005 0.0008 12.1265 -0.0001 51.7753
#
#
#
# Elastic Compliance Matrix: (Units=1/GPa)
#
#
# Indices 1 2 3 4 5 6 
#
# 1 0.007019 -0.002703 0.001091 0.000000 0.007340 0.000000
# 2 -0.002703 0.012464 -0.005293 0.000002 -0.010147 -0.000001
# 3 0.001091 -0.005293 0.021025 -0.000012 0.015423 0.000003
# 4 0.000000 0.000002 -0.000012 0.027936 -0.000007 -0.006543
# 5 0.007340 -0.010147 0.015423 -0.000007 0.055758 0.000002
# 6 0.000000 -0.000001 0.000003 -0.006543 0.000002 0.020847
#
#
# Mechanical properties :
#
#
# Convention : Reuss Voigt Hill
#
# Bulk Modulus (GPa) = 37.45710 49.77741 43.61726
# Shear Modulus (GPa) = 29.80494 42.31456 36.05975
#
# Velocity S-wave (km/s) = 3.55735 4.23864 3.91285
# Velocity P-wave (km/s) = 5.72509 6.71487 6.23964
#
# Compressibility (1/GPa) = 0.02669721
#
# Stress axis : x y z
#
# Youngs Moduli (GPa) = 142.47859 80.23190 47.56200
#
# Poissons Ratio (x) = 0.21686 -0.05188
# Poissons Ratio (y) = 0.38511 0.25175
# Poissons Ratio (z) = -0.15542 0.42468
#
# Static dielectric constant tensor:
#      x y z
#    x 4.244480 0.000050 -0.133970 
#    y 0.000050 4.430900 -0.000070 
#    z -0.133970 -0.000070 4.109720 
# 
# 
# High freq. dielectric constant tensor:
#      x y z
#    x 1.946700 0.000000 0.000500 
#    y 0.000000 1.951650 0.000000 
#    z 0.000500 0.000000 1.948280 
# 
# From -- ./inp_files/317610.got.cif
#   From: 2010.06.25/outbox.cif.g09.slc.cpg/sg15_159_cif.got.tgz:317610.got - 2010.06.28 07:06:18.
