data_PCOD8155531
_publ_section_title
;
Structure prediction by ZEFSAII (Michael W. Deem and Ramdas Pophale) SiO2 
 PCOD8155531
Probable space group: P 2 2 21
;
_chemical_formula_sum "Si O2"
_cell_formula_units_Z 26
_cell_length_a 5.894224
_cell_length_b 9.253814
_cell_length_c 20.674888
_cell_angle_alpha 90.000000
_cell_angle_beta 90.000000
_cell_angle_gamma 90.000000
_cell_volume 1127.692178
_symmetry_space_group_name_H-M "P 2 2 21"
_symmetry_group_IT_number 17
_symmetry_cell_setting 'orthorhombic'
loop_
_space_group_symop_operation_xyz
x,y,z
-x,-y,1/2+z
x,-y,-z
-x,y,1/2-z
loop_
_atom_site_type_symbol
_atom_site_label
_atom_site_fract_x
_atom_site_fract_y
_atom_site_fract_z
Si Si1 0.954601 0.256616 0.964468
Si Si2 0.085361 0.130273 0.178183
Si Si3 0.434424 0.387205 0.614158
Si Si4 0.270013 0.500000 0.000000
Si Si5 0.304868 0.867839 0.581046
Si Si6 0.664907 0.907497 0.392386
Si Si7 0.547303 0.339036 0.322332
O O1 0.823065 0.350823 0.908892
O O2 0.764406 0.185410 0.009681
O O3 0.111731 0.359593 0.008337
O O4 0.113734 0.130776 0.935493
O O5 0.189007 0.292024 0.165727
O O6 0.000000 0.116820 0.250000
O O7 0.277361 0.006767 0.169633
O O8 0.908683 0.083094 0.123382
O O9 0.569822 0.479787 0.561053
O O10 0.557520 0.239943 0.633500
O O11 0.466626 0.493003 0.675878
O O12 0.477197 0.000447 0.568044
O O13 0.404593 0.736120 0.621597
O O14 0.500000 0.280201 0.250000
#
# Coordination Sequence:
#
# PCOD8155531 Si02
#       7
#     4   4   4   2   4   4   4
#     4  11  23  42  68 103 140 187 229 288 363 422
#     4  11  23  45  70  97 132 183 244 293 353 417
#     4  11  23  42  62  99 139 180 223 291 351 413
#     4  10  20  38  66  96 138 176 230 278 342 418
#     4  11  23  43  72  97 138 184 234 297 351 422
#     4  10  26  43  65 102 139 179 233 289 355 429
#     4  11  23  43  67 101 131 182 243 293 341 428
#
# _framework density 23.055938000000001
#
# number of rings (size 3 to 8) (size 9 to 14) (size 15 to 20)
#    0.000    1.231    1.538    4.154    0.000    8.615 
#    5.538    0.000    0.000    0.000    0.000    0.000 
#    0.000    0.000    0.000    0.000    0.000    0.000 
#
# Total GULP energy -322197.255167 kJ/mol
# GULP energy per Si atom -12392.202122 kJ/mol
# Density = 2.300346 g / cm^3
# Si number density = 23.055938 Si / 1000 Ang^3
#
#
#
# Elastic Constant Matrix: (Units=GPa)
#
#
# Indices 1 2 3 4 5 6 
#
# 1 124.5917 52.3875 39.7051 0.0000 0.0000 0.0000
# 2 52.3875 138.0671 36.6182 0.0000 0.0000 0.0000
# 3 39.7051 36.6182 64.5126 0.0000 0.0000 0.0000
# 4 0.0000 0.0000 0.0000 -5.6004 0.0000 0.0000
# 5 0.0000 0.0000 0.0000 0.0000 26.0349 0.0000
# 6 0.0000 0.0000 0.0000 0.0000 0.0000 55.0298
#
#
#
# Elastic Compliance Matrix: (Units=1/GPa)
#
#
# Indices 1 2 3 4 5 6 
#
# 1 0.010804 -0.002750 -0.005089 0.000000 0.000000 0.000000
# 2 -0.002750 0.009226 -0.003545 0.000000 0.000000 0.000000
# 3 -0.005089 -0.003545 0.020645 0.000000 0.000000 0.000000
# 4 0.000000 0.000000 0.000000 -0.178558 0.000000 0.000000
# 5 0.000000 0.000000 0.000000 0.000000 0.038410 0.000000
# 6 0.000000 0.000000 0.000000 0.000000 0.000000 0.018172
#
#
# Mechanical properties :
#
#
# Convention : Reuss Voigt Hill
#
# Bulk Modulus (GPa) = 55.83801 64.95479 60.39640
# Shear Modulus (GPa) = -95.11967 28.32358 -33.39804
#
# Velocity S-wave (km/s) = -6.43005 3.50876 -3.81013
# Velocity P-wave (km/s) = 5.55485 6.68199 2.62609
#
# Compressibility (1/GPa) = 0.01790895
#
# Stress axis : x y z
#
# Youngs Moduli (GPa) = 92.55727 108.38552 48.43864
#
# Poissons Ratio (x) = 0.29804 0.24649
# Poissons Ratio (y) = 0.25452 0.17169
# Poissons Ratio (z) = 0.47100 0.38418
#
# Static dielectric constant tensor:
#      x y z
#    x 4.759240 0.000000 0.000000 
#    y 0.000000 4.435820 0.000000 
#    z 0.000000 0.000000 3.889040 
# 
# 
# High freq. dielectric constant tensor:
#      x y z
#    x 1.924070 0.000000 0.000000 
#    y 0.000000 1.922880 0.000000 
#    z 0.000000 0.000000 1.888480 
# 
# From -- ./inp_files/10455.got.cif
#   From: 2010.03.12/outbox.cif.g09.slc.cpg/sg17_6_cif.got.tgz:10455.got - 2010.04.10 18:46:23.
