data_PCOD8155191
_publ_section_title
;
Structure prediction by ZEFSAII (Michael W. Deem and Ramdas Pophale) SiO2 
 PCOD8155191
Probable space group: C 2/C
;
_chemical_formula_sum "Si O2"
_cell_formula_units_Z 48
_cell_length_a 10.258638
_cell_length_b 27.429709
_cell_length_c 10.113392
_cell_angle_alpha 90.000000
_cell_angle_beta 119.157156
_cell_angle_gamma 90.000000
_cell_volume 2485.218410
_symmetry_space_group_name_H-M "C 2/C"
_symmetry_group_IT_number 15
_symmetry_cell_setting 'monoclinic'
loop_
_space_group_symop_operation_xyz
x,y,z
-x,y,1/2-z
-x,-y,-z
x,-y,1/2+z
1/2+x,1/2+y,z
1/2-x,1/2+y,1/2-z
1/2-x,1/2-y,-z
1/2+x,1/2-y,1/2+z
loop_
_atom_site_type_symbol
_atom_site_label
_atom_site_fract_x
_atom_site_fract_y
_atom_site_fract_z
Si Si1 0.180176 0.459345 0.830013
Si Si2 0.583622 0.205111 0.151866
Si Si3 0.419758 0.315390 0.351146
Si Si4 0.644801 0.031262 0.597091
Si Si5 0.646490 0.141590 0.591854
Si Si6 0.307874 0.640934 0.391385
O O1 0.225754 0.505419 0.761206
O O2 0.269303 0.412800 0.815451
O O3 0.000000 0.448808 0.750000
O O4 0.241126 0.470008 0.008946
O O5 0.500000 0.203435 0.250000
O O6 0.597537 0.260120 0.106063
O O7 0.745329 0.181147 0.257957
O O8 0.500483 0.174731 0.995387
O O9 0.500000 0.315396 0.250000
O O10 0.254978 0.338114 0.259589
O O11 0.516349 0.347684 0.502490
O O12 0.500000 0.000000 0.500000
O O13 0.601959 0.086752 0.611275
O O14 0.728770 0.143924 0.493253
#
# Coordination Sequence:
#
# PCOD8155191 Si02
#       6
#     8   8   8   8   8   8
#     4   9  16  27  43  61  83 109 140 176 210 246
#     4   9  14  22  36  54  79 111 140 164 200 252
#     4   9  16  23  34  55  83 111 137 165 204 254
#     4   9  16  27  43  62  84 109 140 176 210 245
#     4   9  16  25  37  56  82 109 135 170 209 244
#     4   9  15  24  37  55  81 111 137 166 208 249
#
# _framework density 19.314198999999999
#
# number of rings (size 3 to 8) (size 9 to 14) (size 15 to 20)
#    0.000    3.000    0.000    4.500    0.000    4.000 
#    0.000    0.833    0.000    0.000    0.000    0.000 
#    0.000   36.000    0.000    0.167    0.000    0.000 
#
# Total GULP energy -297360.972549 kJ/mol
# GULP energy per Si atom -12390.040523 kJ/mol
# Density = 1.927024 g / cm^3
# Si number density = 19.314199 Si / 1000 Ang^3
#
#
#
# Elastic Constant Matrix: (Units=GPa)
#
#
# Indices 1 2 3 4 5 6 
#
# 1 11.7149 24.1420 26.5847 0.0000 6.5955 0.0000
# 2 24.1420 188.4211 78.1487 0.0000 15.4038 0.0000
# 3 26.5847 78.1487 109.6579 0.0000 29.5984 0.0000
# 4 0.0000 0.0000 0.0000 36.1293 0.0000 -2.5048
# 5 6.5955 15.4038 29.5984 0.0000 26.7219 0.0000
# 6 0.0000 0.0000 0.0000 -2.5048 0.0000 8.7630
#
#
#
# Elastic Compliance Matrix: (Units=1/GPa)
#
#
# Indices 1 2 3 4 5 6 
#
# 1 0.197648 -0.007574 -0.043550 0.000000 0.003821 0.000000
# 2 -0.007574 0.007924 -0.004397 0.000000 0.002172 0.000000
# 3 -0.043550 -0.004397 0.027425 0.000000 -0.017093 0.000000
# 4 0.000000 0.000000 0.000000 0.028238 0.000000 0.008071
# 5 0.003821 0.002172 -0.017093 0.000000 0.054160 0.000000
# 6 0.000000 0.000000 0.000000 0.008071 0.000000 0.116424
#
#
# Mechanical properties :
#
#
# Convention : Reuss Voigt Hill
#
# Bulk Modulus (GPa) = 8.19982 63.06053 35.63017
# Shear Modulus (GPa) = 8.56881 26.38406 17.47643
#
# Velocity S-wave (km/s) = 2.10859 3.70001 3.01133
# Velocity P-wave (km/s) = 3.19107 7.13962 5.52979
#
# Compressibility (1/GPa) = 0.12195386
#
# Stress axis : x y z
#
# Youngs Moduli (GPa) = 5.05951 126.20142 36.46360
#
# Poissons Ratio (x) = 0.95584 1.58799
# Poissons Ratio (y) = 0.03832 0.16033
# Poissons Ratio (z) = 0.22034 0.55492
#
# Static dielectric constant tensor:
#      x y z
#    x 2.857470 0.000000 0.045070 
#    y 0.000000 3.913900 0.000000 
#    z 0.045070 0.000000 4.077750 
# 
# 
# High freq. dielectric constant tensor:
#      x y z
#    x 1.659270 0.000000 0.016690 
#    y 0.000000 1.767660 0.000000 
#    z 0.016690 0.000000 1.750630 
# 
# From -- ./inp_files/34771.got.cif
#   From: 2010.06.25/outbox.cif.g09.slc.cpg/sg15_18_cif.got.tgz:34771.got - 2010.06.28 07:06:18.
