data_PCOD8155162
_publ_section_title
;
Structure prediction by ZEFSAII (Michael W. Deem and Ramdas Pophale) SiO2 
 PCOD8155162
Probable space group: C 2/C
;
_chemical_formula_sum "Si O2"
_cell_formula_units_Z 24
_cell_length_a 24.707733
_cell_length_b 4.686142
_cell_length_c 8.321940
_cell_angle_alpha 90.000000
_cell_angle_beta 78.996052
_cell_angle_gamma 90.000000
_cell_volume 945.831302
_symmetry_space_group_name_H-M "C 2/C"
_symmetry_group_IT_number 15
_symmetry_cell_setting 'monoclinic'
loop_
_space_group_symop_operation_xyz
x,y,z
-x,y,1/2-z
-x,-y,-z
x,-y,1/2+z
1/2+x,1/2+y,z
1/2-x,1/2+y,1/2-z
1/2-x,1/2-y,-z
1/2+x,1/2-y,1/2+z
loop_
_atom_site_type_symbol
_atom_site_label
_atom_site_fract_x
_atom_site_fract_y
_atom_site_fract_z
Si Si1 0.937479 0.403989 0.045054
Si Si2 0.270874 0.595491 0.330027
Si Si3 0.394930 0.400048 0.252738
O O1 0.899060 0.680096 0.100302
O O2 0.919376 0.255301 0.892532
O O3 0.000000 0.500000 0.000000
O O4 0.069027 0.819510 0.804652
O O5 0.231885 0.323547 0.314628
O O6 0.250000 0.750000 0.500000
O O7 0.332362 0.485916 0.317220
#
# Coordination Sequence:
#
# PCOD8155162 Si02
#       3
#     8   8   8
#     4  12  27  50  77 110 152 202 254 315 379 450
#     4  12  27  50  78 112 153 200 251 312 379 453
#     4  12  27  50  77 112 152 200 254 313 379 453
#
# _framework density 25.374502
#
# number of rings (size 3 to 8) (size 9 to 14) (size 15 to 20)
#    0.000    0.000    0.000    9.000    0.000    8.000 
#    0.000    3.333    0.000    0.000    0.000    0.000 
#    0.000    0.000    0.000    0.000    0.000    0.000 
#
# Total GULP energy -148894.351900 kJ/mol
# GULP energy per Si atom -12407.862658 kJ/mol
# Density = 2.531675 g / cm^3
# Si number density = 25.374502 Si / 1000 Ang^3
#
#
#
# Elastic Constant Matrix: (Units=GPa)
#
#
# Indices 1 2 3 4 5 6 
#
# 1 188.5655 90.2668 86.2050 0.0000 -11.5925 0.0000
# 2 90.2668 174.6779 41.1682 0.0000 -26.1317 0.0000
# 3 86.2050 41.1682 92.2664 0.0000 -28.9376 0.0000
# 4 0.0000 0.0000 0.0000 74.4230 0.0000 -5.8428
# 5 -11.5925 -26.1317 -28.9376 0.0000 36.9071 0.0000
# 6 0.0000 0.0000 0.0000 -5.8428 0.0000 65.5199
#
#
#
# Elastic Compliance Matrix: (Units=1/GPa)
#
#
# Indices 1 2 3 4 5 6 
#
# 1 0.013133 -0.005177 -0.013018 0.000000 -0.009747 0.000000
# 2 -0.005177 0.008706 0.003150 0.000000 0.007008 0.000000
# 3 -0.013018 0.003150 0.027864 0.000000 0.019989 0.000000
# 4 0.000000 0.000000 0.000000 0.013531 0.000000 0.001207
# 5 -0.009747 0.007008 0.019989 0.000000 0.044668 0.000000
# 6 0.000000 0.000000 0.000000 0.001207 0.000000 0.015370
#
#
# Mechanical properties :
#
#
# Convention : Reuss Voigt Hill
#
# Bulk Modulus (GPa) = 50.98128 98.97663 74.97896
# Shear Modulus (GPa) = 31.26944 51.22798 41.24871
#
# Velocity S-wave (km/s) = 3.51425 4.49807 4.03624
# Velocity P-wave (km/s) = 6.04994 8.12821 7.16483
#
# Compressibility (1/GPa) = 0.01961504
#
# Stress axis : x y z
#
# Youngs Moduli (GPa) = 76.14188 114.86293 35.88834
#
# Poissons Ratio (x) = 0.59464 0.46718
# Poissons Ratio (y) = 0.39418 -0.11306
# Poissons Ratio (z) = 0.99119 -0.36186
#
# Static dielectric constant tensor:
#      x y z
#    x 1.686710 0.000000 -0.064000 
#    y 0.000000 5.836400 0.000000 
#    z -0.064000 0.000000 4.984730 
# 
# 
# High freq. dielectric constant tensor:
#      x y z
#    x 2.008890 0.000000 -0.001410 
#    y 0.000000 2.053760 0.000000 
#    z -0.001410 0.000000 2.030080 
# 
# From -- ./inp_files/59465.got.cif
#   From: 2010.06.25/outbox.cif.g09.slc.cpg/sg15_30_cif.got.tgz:59465.got - 2010.06.28 07:06:18.
