data_PCOD8155008
_publ_section_title
;
Structure prediction by ZEFSAII (Michael W. Deem and Ramdas Pophale) SiO2 
 PCOD8155008
Probable space group: C 2/C
;
_chemical_formula_sum "Si O2"
_cell_formula_units_Z 48
_cell_length_a 11.066271
_cell_length_b 13.179073
_cell_length_c 20.628794
_cell_angle_alpha 90.000000
_cell_angle_beta 41.536894
_cell_angle_gamma 90.000000
_cell_volume 1994.988789
_symmetry_space_group_name_H-M "C 2/C"
_symmetry_group_IT_number 15
_symmetry_cell_setting 'monoclinic'
loop_
_space_group_symop_operation_xyz
x,y,z
-x,y,1/2-z
-x,-y,-z
x,-y,1/2+z
1/2+x,1/2+y,z
1/2-x,1/2+y,1/2-z
1/2-x,1/2-y,-z
1/2+x,1/2-y,1/2+z
loop_
_atom_site_type_symbol
_atom_site_label
_atom_site_fract_x
_atom_site_fract_y
_atom_site_fract_z
Si Si1 0.263152 0.360859 0.240881
Si Si2 0.000000 0.440311 0.250000
Si Si3 0.687449 0.085175 0.079144
Si Si4 0.887460 0.232375 0.085045
Si Si5 0.000000 0.874388 0.750000
Si Si6 0.488382 0.462052 0.882609
Si Si7 0.605069 0.190808 0.385229
O O1 0.213403 0.317166 0.331492
O O2 0.330630 0.477210 0.212756
O O3 0.424954 0.293343 0.144492
O O4 0.083552 0.362936 0.268438
O O5 0.854048 0.511163 0.344405
O O6 0.748579 0.192241 0.085710
O O7 0.514448 0.102082 0.100879
O O8 0.851235 0.033414 0.975429
O O9 0.965147 0.138282 0.094788
O O10 0.049606 0.291040 0.982259
O O11 0.900652 0.933809 0.848584
O O12 0.824212 0.820070 0.788886
#
# Coordination Sequence:
#
# PCOD8155008 Si02
#       7
#     8   4   8   8   4   8   8
#     4  12  26  47  77 112 151 205 247 308 374 444
#     4  12  25  46  77 108 150 204 257 300 377 440
#     4  12  26  50  77 111 152 198 255 307 375 451
#     4  12  26  49  78 113 154 194 254 311 373 449
#     4  12  29  50  71 112 158 192 257 306 375 448
#     4  12  27  49  75 111 154 201 246 317 371 448
#     4  12  27  49  74 112 151 199 251 309 370 449
#
# _framework density 24.060285
#
# number of rings (size 3 to 8) (size 9 to 14) (size 15 to 20)
#    0.000    0.000    5.000    4.500    4.667    1.333 
#    0.000    0.000    0.000    0.000    0.000    0.000 
#    0.000    0.000    0.000    0.000    0.000    0.000 
#
# Total GULP energy -297485.928860 kJ/mol
# GULP energy per Si atom -12395.247036 kJ/mol
# Density = 2.400552 g / cm^3
# Si number density = 24.060285 Si / 1000 Ang^3
#
#
#
# Elastic Constant Matrix: (Units=GPa)
#
#
# Indices 1 2 3 4 5 6 
#
# 1 113.3561 38.6326 45.5135 0.0000 2.7934 0.0000
# 2 38.6326 83.5872 52.7308 0.0000 8.4930 0.0000
# 3 45.5135 52.7308 166.2873 0.0002 22.5111 -0.0001
# 4 0.0000 0.0000 0.0002 41.0091 -0.0001 20.4610
# 5 2.7934 8.4930 22.5111 -0.0001 42.5359 0.0000
# 6 0.0000 0.0000 -0.0001 20.4610 0.0000 28.8381
#
#
#
# Elastic Compliance Matrix: (Units=1/GPa)
#
#
# Indices 1 2 3 4 5 6 
#
# 1 0.010898 -0.003966 -0.001869 0.000000 0.001065 0.000000
# 2 -0.003966 0.016409 -0.003996 0.000000 -0.000901 0.000000
# 3 -0.001869 -0.003996 0.008260 0.000000 -0.003451 0.000000
# 4 0.000000 0.000000 0.000000 0.037747 0.000000 -0.026782
# 5 0.001065 -0.000901 -0.003451 0.000000 0.025446 0.000000
# 6 0.000000 0.000000 0.000000 -0.026782 0.000000 0.053679
#
#
# Mechanical properties :
#
#
# Convention : Reuss Voigt Hill
#
# Bulk Modulus (GPa) = 62.87721 70.77605 66.82663
# Shear Modulus (GPa) = 28.18473 37.56689 32.87581
#
# Velocity S-wave (km/s) = 3.42632 3.95570 3.70049
# Velocity P-wave (km/s) = 6.46860 7.09531 6.78919
#
# Compressibility (1/GPa) = 0.01590401
#
# Stress axis : x y z
#
# Youngs Moduli (GPa) = 91.76331 60.94301 121.07095
#
# Poissons Ratio (x) = 0.24168 0.22633
# Poissons Ratio (y) = 0.36390 0.48379
# Poissons Ratio (z) = 0.17155 0.24352
#
# Static dielectric constant tensor:
#      x y z
#    x 4.208280 0.000000 0.189830 
#    y 0.000000 4.353040 0.000000 
#    z 0.189830 0.000000 4.306310 
# 
# 
# High freq. dielectric constant tensor:
#      x y z
#    x 1.950770 0.000000 0.011870 
#    y 0.000000 1.960250 0.000000 
#    z 0.011870 0.000000 1.968020 
# 
# From -- ./inp_files/238986.got.cif
#   From: 2010.06.25/outbox.cif.g09.slc.cpg/sg15_120_cif.got.tgz:238986.got - 2010.06.28 07:06:18.
