data_PCOD8155863
_publ_section_title
;
Structure prediction by ZEFSAII (Michael W. Deem and Ramdas Pophale) SiO2 
 PCOD8155863
Probable space group: P 21 21 2
;
_chemical_formula_sum "Si O2"
_cell_formula_units_Z 30
_cell_length_a 10.203560
_cell_length_b 14.247959
_cell_length_c 11.226890
_cell_angle_alpha 90.000000
_cell_angle_beta 90.000000
_cell_angle_gamma 90.000000
_cell_volume 1632.164196
_symmetry_space_group_name_H-M "P 21 21 2"
_symmetry_group_IT_number 18
_symmetry_cell_setting 'orthorhombic'
loop_
_space_group_symop_operation_xyz
x,y,z
-x,-y,z
1/2+x,1/2-y,-z
1/2-x,1/2+y,-z
loop_
_atom_site_type_symbol
_atom_site_label
_atom_site_fract_x
_atom_site_fract_y
_atom_site_fract_z
Si Si1 0.692353 0.352202 0.007105
Si Si2 0.000000 0.000000 0.591202
Si Si3 0.309248 0.404517 0.588844
Si Si4 0.350648 0.483406 0.837077
Si Si5 0.578647 0.777889 0.689857
Si Si6 0.408137 0.296876 0.949484
Si Si7 0.611811 0.074344 0.603061
Si Si8 0.718663 0.429838 0.265417
O O1 0.803074 0.272131 0.987663
O O2 0.716533 0.415515 0.123605
O O3 0.706943 0.421605 0.894118
O O4 0.546595 0.306488 0.019590
O O5 0.928023 0.926183 0.679798
O O6 0.110582 0.962948 0.505631
O O7 0.278603 0.457537 0.713526
O O8 0.390485 0.309435 0.605516
O O9 0.171123 0.392046 0.523065
O O10 0.500000 0.500000 0.800490
O O11 0.340323 0.398867 0.933125
O O12 0.554947 0.743834 0.822390
O O13 0.445038 0.829936 0.656912
O O14 0.702822 0.845198 0.675171
O O15 0.500000 0.000000 0.572887
O O16 0.712159 0.029216 0.700281
#
# Coordination Sequence:
#
# PCOD8155863 Si02
#       8
#     4   2   4   4   4   4   4   4
#     4  10  20  38  60  81 115 148 188 236 290 332
#     4  10  20  32  54  82 104 138 190 230 264 338
#     4  10  19  34  56  81 110 142 189 225 279 338
#     4   9  18  35  58  77 111 156 178 225 288 336
#     4   9  19  36  55  79 114 147 182 228 289 333
#     4   9  20  36  56  85 110 146 190 232 274 351
#     4   9  19  37  56  79 109 150 187 230 281 337
#     4   9  20  35  55  80 110 142 186 237 276 329
#
# _framework density 18.380503000000001
#
# number of rings (size 3 to 8) (size 9 to 14) (size 15 to 20)
#    0.000    2.667    0.667    0.000    4.667    1.067 
#    2.400    6.000    0.000    0.000    0.000    0.000 
#    0.000    0.000    0.000    0.000    0.000    0.000 
#
# Total GULP energy -371797.475716 kJ/mol
# GULP energy per Si atom -12393.249191 kJ/mol
# Density = 1.833867 g / cm^3
# Si number density = 18.380503 Si / 1000 Ang^3
#
#
#
# Elastic Constant Matrix: (Units=GPa)
#
#
# Indices 1 2 3 4 5 6 
#
# 1 80.5857 35.8044 38.0032 0.0000 0.0000 0.0000
# 2 35.8044 92.7385 32.8970 0.0000 0.0000 0.0000
# 3 38.0032 32.8970 60.6651 0.0000 0.0000 0.0000
# 4 0.0000 0.0000 0.0000 18.7967 0.0000 0.0000
# 5 0.0000 0.0000 0.0000 0.0000 28.5001 0.0000
# 6 0.0000 0.0000 0.0000 0.0000 0.0000 29.2881
#
#
#
# Elastic Compliance Matrix: (Units=1/GPa)
#
#
# Indices 1 2 3 4 5 6 
#
# 1 0.018623 -0.003779 -0.009618 0.000000 0.000000 0.000000
# 2 -0.003779 0.014118 -0.005289 0.000000 0.000000 0.000000
# 3 -0.009618 -0.005289 0.025377 0.000000 0.000000 0.000000
# 4 0.000000 0.000000 0.000000 0.053201 0.000000 0.000000
# 5 0.000000 0.000000 0.000000 0.000000 0.035088 0.000000
# 6 0.000000 0.000000 0.000000 0.000000 0.000000 0.034144
#
#
# Mechanical properties :
#
#
# Convention : Reuss Voigt Hill
#
# Bulk Modulus (GPa) = 48.19627 49.71095 48.95361
# Shear Modulus (GPa) = 22.23847 23.80263 23.02055
#
# Velocity S-wave (km/s) = 3.48213 3.60251 3.54283
# Velocity P-wave (km/s) = 6.51500 6.66395 6.58990
#
# Compressibility (1/GPa) = 0.02074850
#
# Stress axis : x y z
#
# Youngs Moduli (GPa) = 53.69577 70.83220 39.40626
#
# Poissons Ratio (x) = 0.26764 0.37899
# Poissons Ratio (y) = 0.20289 0.20841
# Poissons Ratio (z) = 0.51642 0.37461
#
# Static dielectric constant tensor:
#      x y z
#    x 4.028810 0.000000 0.000000 
#    y 0.000000 3.612030 0.000000 
#    z 0.000000 0.000000 3.294120 
# 
# 
# High freq. dielectric constant tensor:
#      x y z
#    x 1.705580 0.000000 0.000000 
#    y 0.000000 1.714750 0.000000 
#    z 0.000000 0.000000 1.707600 
# 
# From -- ./inp_files/3914.got.cif
#   From: 2010.03.12/outbox.cif.g09.slc.cpg/sg18_2_cif.got.tgz:3914.got - 2010.04.10 18:53:55.
