data_PCOD8155731
_publ_section_title
;
Structure prediction by ZEFSAII (Michael W. Deem and Ramdas Pophale) SiO2 
 PCOD8155731
Probable space group: P 2 2 21
;
_chemical_formula_sum "Si O2"
_cell_formula_units_Z 18
_cell_length_a 5.092253
_cell_length_b 12.117583
_cell_length_c 13.116183
_cell_angle_alpha 90.000000
_cell_angle_beta 90.000000
_cell_angle_gamma 90.000000
_cell_volume 809.344544
_symmetry_space_group_name_H-M "P 2 2 21"
_symmetry_group_IT_number 17
_symmetry_cell_setting 'orthorhombic'
loop_
_space_group_symop_operation_xyz
x,y,z
-x,-y,1/2+z
x,-y,-z
-x,y,1/2-z
loop_
_atom_site_type_symbol
_atom_site_label
_atom_site_fract_x
_atom_site_fract_y
_atom_site_fract_z
Si Si1 0.500000 0.419358 0.750000
Si Si2 0.000000 0.898729 0.750000
Si Si3 0.416877 0.416743 0.409875
Si Si4 0.798912 0.223672 0.657378
Si Si5 0.080471 0.269134 0.071301
Si Si6 0.500000 0.042865 0.750000
O O1 0.670666 0.504062 0.817100
O O2 0.678084 0.344493 0.676744
O O3 0.089756 0.829384 0.847769
O O4 0.250939 0.970597 0.715362
O O5 0.451257 0.500000 0.500000
O O6 0.692075 0.353444 0.396681
O O7 0.198869 0.326014 0.424073
O O8 0.911382 0.222569 0.543761
O O9 0.582534 0.125856 0.657927
O O10 0.000000 0.198126 0.750000
#
# Coordination Sequence:
#
# PCOD8155731 Si02
#       6
#     2   2   4   4   4   2
#     4  11  24  41  72 102 154 187 240 291 338 430
#     4  12  26  52  72 106 148 184 236 312 360 428
#     4  12  24  43  68 108 142 192 233 278 350 425
#     4  11  25  48  72 107 140 188 244 302 346 428
#     4  12  27  46  73 107 148 188 238 290 359 427
#     4  11  26  51  74 104 136 189 254 291 378 412
#
# _framework density 22.240217999999999
#
# number of rings (size 3 to 8) (size 9 to 14) (size 15 to 20)
#    0.000    0.444    3.333    4.667    6.222    0.889 
#    4.000    0.000    0.000    0.000    0.000    0.000 
#    0.000    0.000    0.000    0.000    0.000    0.000 
#
# Total GULP energy -223115.441081 kJ/mol
# GULP energy per Si atom -12395.302282 kJ/mol
# Density = 2.218960 g / cm^3
# Si number density = 22.240218 Si / 1000 Ang^3
#
#
#
# Elastic Constant Matrix: (Units=GPa)
#
#
# Indices 1 2 3 4 5 6 
#
# 1 241.5583 167.3180 74.0971 0.0000 0.0000 0.0000
# 2 167.3180 243.1277 107.7200 0.0000 0.0000 0.0000
# 3 74.0971 107.7200 175.0602 0.0000 0.0000 0.0000
# 4 0.0000 0.0000 0.0000 21.8546 0.0000 0.0000
# 5 0.0000 0.0000 0.0000 0.0000 390.8357 0.0000
# 6 0.0000 0.0000 0.0000 0.0000 0.0000 -210.4819
#
#
#
# Elastic Compliance Matrix: (Units=1/GPa)
#
#
# Indices 1 2 3 4 5 6 
#
# 1 0.007911 -0.005445 0.000002 0.000000 0.000000 0.000000
# 2 -0.005445 0.009403 -0.003481 0.000000 0.000000 0.000000
# 3 0.000002 -0.003481 0.007853 0.000000 0.000000 0.000000
# 4 0.000000 0.000000 0.000000 0.045757 0.000000 0.000000
# 5 0.000000 0.000000 0.000000 0.000000 0.002559 0.000000
# 6 0.000000 0.000000 0.000000 0.000000 0.000000 -0.004751
#
#
# Mechanical properties :
#
#
# Convention : Reuss Voigt Hill
#
# Bulk Modulus (GPa) = 136.63229 150.89069 143.76149
# Shear Modulus (GPa) = 56.16809 61.14909 58.65859
#
# Velocity S-wave (km/s) = 5.03091 5.24924 5.14123
# Velocity P-wave (km/s) = 9.76293 10.23389 10.00118
#
# Compressibility (1/GPa) = 0.00731891
#
# Stress axis : x y z
#
# Youngs Moduli (GPa) = 126.41176 106.35431 127.33384
#
# Poissons Ratio (x) = 0.57910 -0.00027
# Poissons Ratio (y) = 0.68831 0.44325
# Poissons Ratio (z) = -0.00027 0.37022
#
# Static dielectric constant tensor:
#      x y z
#    x 4.076440 0.000000 0.000000 
#    y 0.000000 2.523250 0.000000 
#    z 0.000000 0.000000 4.363000 
# 
# 
# High freq. dielectric constant tensor:
#      x y z
#    x 1.881360 0.000000 0.000000 
#    y 0.000000 1.898290 0.000000 
#    z 0.000000 0.000000 1.875920 
# 
# From -- ./inp_files/5853.got.cif
#   From: 2010.03.12/outbox.cif.g09.slc.cpg/sg17_3_cif.got.tgz:5853.got - 2010.04.10 18:46:23.
