data_PCOD8155430
_publ_section_title
;
Structure prediction by ZEFSAII (Michael W. Deem and Ramdas Pophale) SiO2 
 PCOD8155430
Probable space group: P 2 2 21
;
_chemical_formula_sum "Si O2"
_cell_formula_units_Z 32
_cell_length_a 14.305775
_cell_length_b 12.004029
_cell_length_c 9.437848
_cell_angle_alpha 90.000000
_cell_angle_beta 90.000000
_cell_angle_gamma 90.000000
_cell_volume 1620.732738
_symmetry_space_group_name_H-M "P 2 2 21"
_symmetry_group_IT_number 17
_symmetry_cell_setting 'orthorhombic'
loop_
_space_group_symop_operation_xyz
x,y,z
-x,-y,1/2+z
x,-y,-z
-x,y,1/2-z
loop_
_atom_site_type_symbol
_atom_site_label
_atom_site_fract_x
_atom_site_fract_y
_atom_site_fract_z
Si Si1 0.909814 0.756919 0.346859
Si Si2 0.893019 1.000000 0.709084
Si Si3 0.728260 0.369289 0.664855
Si Si4 0.296493 0.000000 0.340915
Si Si5 0.402644 0.783568 0.671120
Si Si6 0.909814 0.756919 0.653141
Si Si7 0.728260 0.630711 0.664855
Si Si8 0.402644 0.216432 0.671120
O O1 0.877061 0.884961 0.373690
O O2 0.824730 0.686757 0.281436
O O3 0.936312 0.706893 0.500000
O O4 0.000000 0.746135 0.250000
O O5 0.816515 0.000000 0.835064
O O6 0.000000 1.000000 0.750000
O O7 0.877061 0.884961 0.626310
O O8 0.737194 0.500000 0.686462
O O9 0.708399 0.338777 0.500000
O O10 0.645614 0.327121 0.766593
O O11 0.340154 0.887982 0.274927
O O12 0.330276 0.000000 0.500000
O O13 0.340154 0.112018 0.274927
O O14 0.500000 0.798105 0.750000
O O15 0.354386 0.672879 0.733407
O O16 0.413221 0.774335 0.500000
O O17 0.824730 0.686757 0.718564
O O18 0.000000 0.746134 0.750000
O O19 0.500000 0.201895 0.750000
#
# Coordination Sequence:
#
# PCOD8155430 Si02
#       8
#     4   4   4   4   4   4   4   4
#     4  10  21  36  57  87 120 158 197 241 294 352
#     4  10  19  34  57  89 121 156 190 235 285 352
#     4  10  22  41  62  86 118 157 203 252 297 345
#     4  10  21  38  62  91 124 157 192 240 293 355
#     4  11  23  41  64  91 120 154 195 244 301 359
#     4  10  21  36  57  87 120 158 197 241 294 352
#     4  10  22  41  62  86 118 157 203 252 297 345
#     4  11  23  41  64  91 120 154 195 244 301 359
#
# _framework density 19.744157000000001
#
# number of rings (size 3 to 8) (size 9 to 14) (size 15 to 20)
#    0.000    1.750    2.500    1.500    0.000    6.500 
#    0.000    1.875    0.000    0.000    0.000    0.000 
#    0.000    0.000    0.000    0.000    0.000    0.000 
#
# Total GULP energy -396503.240234 kJ/mol
# GULP energy per Si atom -12390.726257 kJ/mol
# Density = 1.969922 g / cm^3
# Si number density = 19.744157 Si / 1000 Ang^3
#
#
#
# Elastic Constant Matrix: (Units=GPa)
#
#
# Indices 1 2 3 4 5 6 
#
# 1 151.7717 61.2747 54.0113 0.0000 0.0000 0.0000
# 2 61.2747 116.7081 31.7900 0.0000 0.0000 0.0000
# 3 54.0113 31.7900 86.3249 0.0000 0.0000 0.0000
# 4 0.0000 0.0000 0.0000 21.9904 0.0000 0.0000
# 5 0.0000 0.0000 0.0000 0.0000 33.4647 0.0000
# 6 0.0000 0.0000 0.0000 0.0000 0.0000 24.8306
#
#
#
# Elastic Compliance Matrix: (Units=1/GPa)
#
#
# Indices 1 2 3 4 5 6 
#
# 1 0.009836 -0.003877 -0.004727 0.000000 0.000000 0.000000
# 2 -0.003877 0.011052 -0.001644 0.000000 0.000000 0.000000
# 3 -0.004727 -0.001644 0.015147 0.000000 0.000000 0.000000
# 4 0.000000 0.000000 0.000000 0.045474 0.000000 0.000000
# 5 0.000000 0.000000 0.000000 0.000000 0.029882 0.000000
# 6 0.000000 0.000000 0.000000 0.000000 0.000000 0.040273
#
#
# Mechanical properties :
#
#
# Convention : Reuss Voigt Hill
#
# Bulk Modulus (GPa) = 64.35204 72.10630 68.22917
# Shear Modulus (GPa) = 28.19457 29.90571 29.05014
#
# Velocity S-wave (km/s) = 3.78298 3.89609 3.83995
# Velocity P-wave (km/s) = 7.19340 7.53916 7.36831
#
# Compressibility (1/GPa) = 0.01553952
#
# Stress axis : x y z
#
# Youngs Moduli (GPa) = 101.66711 90.48423 66.01995
#
# Poissons Ratio (x) = 0.35078 0.31204
# Poissons Ratio (y) = 0.39413 0.10856
# Poissons Ratio (z) = 0.48053 0.14879
#
# Static dielectric constant tensor:
#      x y z
#    x 3.555000 0.000000 0.000000 
#    y 0.000000 3.893610 0.000000 
#    z 0.000000 0.000000 3.461220 
# 
# 
# High freq. dielectric constant tensor:
#      x y z
#    x 1.775850 0.000000 0.000000 
#    y 0.000000 1.774380 0.000000 
#    z 0.000000 0.000000 1.757620 
# 
# From -- ./inp_files/5286.got.cif
#   From: 2010.03.12/outbox.cif.g09.slc.cpg/sg17_3_cif.got.tgz:5286.got - 2010.04.10 18:46:23.
