data_PCOD8155804
_publ_section_title
;
Structure prediction by ZEFSAII (Michael W. Deem and Ramdas Pophale) SiO2 
 PCOD8155804
Probable space group: P 21 21 2
;
_chemical_formula_sum "Si O2"
_cell_formula_units_Z 28
_cell_length_a 9.914547
_cell_length_b 13.812224
_cell_length_c 11.607741
_cell_angle_alpha 90.000000
_cell_angle_beta 90.000000
_cell_angle_gamma 90.000000
_cell_volume 1589.586618
_symmetry_space_group_name_H-M "P 21 21 2"
_symmetry_group_IT_number 18
_symmetry_cell_setting 'orthorhombic'
loop_
_space_group_symop_operation_xyz
x,y,z
-x,-y,z
1/2+x,1/2-y,-z
1/2-x,1/2+y,-z
loop_
_atom_site_type_symbol
_atom_site_label
_atom_site_fract_x
_atom_site_fract_y
_atom_site_fract_z
Si Si1 0.516942 0.740127 0.326739
Si Si2 0.488625 0.111703 0.528452
Si Si3 0.735474 0.387672 0.323825
Si Si4 0.021485 0.285481 0.934106
Si Si5 0.763203 0.348024 0.063247
Si Si6 0.863002 0.548246 0.066735
Si Si7 0.768251 0.609783 0.303580
O O1 0.493262 0.827527 0.413462
O O2 0.405795 0.659932 0.355116
O O3 0.507803 0.784892 0.200268
O O4 0.660722 0.689584 0.340523
O O5 0.345160 0.141090 0.581524
O O6 0.600020 0.135865 0.623968
O O7 0.500000 0.000000 0.492864
O O8 0.786520 0.348596 0.200488
O O9 0.712859 0.502580 0.327216
O O10 0.116337 0.194493 0.969484
O O11 0.103842 0.384080 0.958416
O O12 0.882275 0.283494 0.006348
O O13 0.767115 0.460600 0.021911
O O14 0.798295 0.614443 0.166689
O O15 0.000000 0.500000 0.118024
#
# Coordination Sequence:
#
# PCOD8155804 Si02
#       7
#     4   4   4   4   4   4   4
#     4  11  21  31  49  76 103 124 152 201 249 283
#     4  10  20  34  51  71  97 130 163 192 235 293
#     4   9  19  35  52  72  95 124 164 205 236 271
#     4  10  19  31  48  74 100 125 157 194 242 290
#     4   9  18  32  51  71  96 126 160 200 236 277
#     4   9  17  32  52  71  94 129 164 197 234 279
#     4  10  18  33  55  73  91 124 169 203 232 275
#
# _framework density 17.614642
#
# number of rings (size 3 to 8) (size 9 to 14) (size 15 to 20)
#    0.000    2.286    0.000    5.143    0.000    1.714 
#    0.000    2.143    0.000    0.000    0.000    6.000 
#    0.000    0.000    0.000    0.000    0.000    0.000 
#
# Total GULP energy -347146.212768 kJ/mol
# GULP energy per Si atom -12398.079027 kJ/mol
# Density = 1.757455 g / cm^3
# Si number density = 17.614642 Si / 1000 Ang^3
#
#
#
# Elastic Constant Matrix: (Units=GPa)
#
#
# Indices 1 2 3 4 5 6 
#
# 1 64.3299 36.2782 27.1303 0.0000 0.0000 0.0000
# 2 36.2782 67.8169 40.4270 0.0000 0.0000 0.0000
# 3 27.1303 40.4270 67.0374 0.0000 0.0000 0.0000
# 4 0.0000 0.0000 0.0000 32.3440 0.0000 0.0000
# 5 0.0000 0.0000 0.0000 0.0000 21.1725 0.0000
# 6 0.0000 0.0000 0.0000 0.0000 0.0000 33.8390
#
#
#
# Elastic Compliance Matrix: (Units=1/GPa)
#
#
# Indices 1 2 3 4 5 6 
#
# 1 0.022615 -0.010370 -0.002899 0.000000 0.000000 0.000000
# 2 -0.010370 0.027777 -0.012554 0.000000 0.000000 0.000000
# 3 -0.002899 -0.012554 0.023661 0.000000 0.000000 0.000000
# 4 0.000000 0.000000 0.000000 0.030918 0.000000 0.000000
# 5 0.000000 0.000000 0.000000 0.000000 0.047231 0.000000
# 6 0.000000 0.000000 0.000000 0.000000 0.000000 0.029552
#
#
# Mechanical properties :
#
#
# Convention : Reuss Voigt Hill
#
# Bulk Modulus (GPa) = 44.62826 45.20614 44.91720
# Shear Modulus (GPa) = 20.75823 23.82766 22.29294
#
# Velocity S-wave (km/s) = 3.43660 3.68192 3.56137
# Velocity P-wave (km/s) = 6.41388 6.61778 6.51663
#
# Compressibility (1/GPa) = 0.02240733
#
# Stress axis : x y z
#
# Youngs Moduli (GPa) = 44.21754 36.00157 42.26370
#
# Poissons Ratio (x) = 0.37333 0.12252
# Poissons Ratio (y) = 0.45853 0.53058
# Poissons Ratio (z) = 0.12819 0.45196
#
# Static dielectric constant tensor:
#      x y z
#    x 3.346090 0.000000 0.000000 
#    y 0.000000 3.343220 0.000000 
#    z 0.000000 0.000000 3.117920 
# 
# 
# High freq. dielectric constant tensor:
#      x y z
#    x 1.686910 0.000000 0.000000 
#    y 0.000000 1.678360 0.000000 
#    z 0.000000 0.000000 1.667840 
# 
# From -- ./inp_files/5912.got.cif
#   From: 2010.03.12/outbox.cif.g09.slc.cpg/sg18_3_cif.got.tgz:5912.got - 2010.04.10 18:53:55.
