data_PCOD8155101
_publ_section_title
;
Structure prediction by ZEFSAII (Michael W. Deem and Ramdas Pophale) SiO2 
 PCOD8155101
Probable space group: C 2/C
;
_chemical_formula_sum "Si O2"
_cell_formula_units_Z 36
_cell_length_a 13.894048
_cell_length_b 14.476959
_cell_length_c 13.155883
_cell_angle_alpha 90.000000
_cell_angle_beta 146.362367
_cell_angle_gamma 90.000000
_cell_volume 1465.843817
_symmetry_space_group_name_H-M "C 2/C"
_symmetry_group_IT_number 15
_symmetry_cell_setting 'monoclinic'
loop_
_space_group_symop_operation_xyz
x,y,z
-x,y,1/2-z
-x,-y,-z
x,-y,1/2+z
1/2+x,1/2+y,z
1/2-x,1/2+y,1/2-z
1/2-x,1/2-y,-z
1/2+x,1/2-y,1/2+z
loop_
_atom_site_type_symbol
_atom_site_label
_atom_site_fract_x
_atom_site_fract_y
_atom_site_fract_z
Si Si1 0.500000 0.092233 0.750000
Si Si2 0.712132 0.845169 0.265697
Si Si3 0.299929 0.987117 0.406784
Si Si4 0.618734 0.639559 0.120958
Si Si5 0.206974 0.353676 0.935374
O O1 0.347208 0.152942 0.667781
O O2 0.443555 0.032416 0.604782
O O3 0.616196 0.922888 0.109808
O O4 0.673874 0.743188 0.194032
O O5 0.913385 0.868647 0.431030
O O6 0.202922 0.915187 0.396965
O O7 0.174431 0.067307 0.256130
O O8 0.710735 0.611394 0.097385
O O9 0.000000 0.367319 0.750000
O O10 0.250000 0.250000 0.000000
#
# Coordination Sequence:
#
# PCOD8155101 Si02
#       5
#     4   8   8   8   8
#     4  12  28  48  78 108 148 206 250 304 382 434
#     4  12  28  50  76 108 154 196 250 317 365 447
#     4  12  27  48  78 110 154 194 252 309 369 451
#     4  12  28  49  77 113 149 199 250 309 375 442
#     4  12  26  47  79 111 148 197 241 304 375 439
#
# _framework density 24.559232999999999
#
# number of rings (size 3 to 8) (size 9 to 14) (size 15 to 20)
#    0.000    0.000    3.333    5.333    3.111    6.222 
#    0.000    0.000    0.000    0.000    0.000    0.000 
#    0.000    0.000    0.000    0.000    0.000    0.000 
#
# Total GULP energy -223124.527036 kJ/mol
# GULP energy per Si atom -12395.807058 kJ/mol
# Density = 2.450334 g / cm^3
# Si number density = 24.559233 Si / 1000 Ang^3
#
#
#
# Elastic Constant Matrix: (Units=GPa)
#
#
# Indices 1 2 3 4 5 6 
#
# 1 215.3658 33.0779 72.4445 0.0009 -18.0674 -0.0005
# 2 33.0779 98.5716 46.1473 -0.0055 -38.5653 -0.0053
# 3 72.4445 46.1473 122.0745 0.0009 -27.6492 0.0005
# 4 0.0009 -0.0055 0.0009 59.5990 0.0019 -19.4929
# 5 -18.0674 -38.5653 -27.6492 0.0019 30.8444 0.0008
# 6 -0.0005 -0.0053 0.0005 -19.4929 0.0008 31.4325
#
#
#
# Elastic Compliance Matrix: (Units=1/GPa)
#
#
# Indices 1 2 3 4 5 6 
#
# 1 0.005815 -0.000451 -0.003308 0.000000 -0.000123 0.000000
# 2 -0.000451 0.020453 -0.002173 0.000003 0.023361 0.000004
# 3 -0.003308 -0.002173 0.012450 -0.000001 0.006505 -0.000001
# 4 0.000000 0.000003 -0.000001 0.021048 0.000001 0.013053
# 5 -0.000123 0.023361 0.006505 0.000001 0.067389 0.000003
# 6 0.000000 0.000004 -0.000001 0.013053 0.000003 0.039909
#
#
# Mechanical properties :
#
#
# Convention : Reuss Voigt Hill
#
# Bulk Modulus (GPa) = 37.23860 82.15015 59.69437
# Shear Modulus (GPa) = 26.61270 43.33133 34.97201
#
# Velocity S-wave (km/s) = 3.29540 4.20499 3.77767
# Velocity P-wave (km/s) = 5.44750 7.55634 6.58686
#
# Compressibility (1/GPa) = 0.02685385
#
# Stress axis : x y z
#
# Youngs Moduli (GPa) = 171.96795 48.89150 80.32123
#
# Poissons Ratio (x) = 0.02203 0.26573
# Poissons Ratio (y) = 0.07748 0.17457
# Poissons Ratio (z) = 0.56894 0.10626
#
# Static dielectric constant tensor:
#      x y z
#    x 4.159770 0.000220 1.270520 
#    y 0.000220 5.211720 -0.000410 
#    z 1.270520 -0.000410 0.778580 
# 
# 
# High freq. dielectric constant tensor:
#      x y z
#    x 1.990460 0.000000 -0.018250 
#    y 0.000000 2.002300 0.000000 
#    z -0.018250 0.000000 1.975840 
# 
# From -- ./inp_files/97249.got.cif
#   From: 2010.06.25/outbox.cif.g09.slc.cpg/sg15_49_cif.got.tgz:97249.got - 2010.06.28 07:06:18.
