data_PCOD8155001
_publ_section_title
;
Structure prediction by ZEFSAII (Michael W. Deem and Ramdas Pophale) SiO2 
 PCOD8155001
Probable space group: C 2/C
;
_chemical_formula_sum "Si O2"
_cell_formula_units_Z 32
_cell_length_a 8.740175
_cell_length_b 4.673029
_cell_length_c 28.392691
_cell_angle_alpha 90.000000
_cell_angle_beta 83.394429
_cell_angle_gamma 90.000000
_cell_volume 1151.947063
_symmetry_space_group_name_H-M "C 2/C"
_symmetry_group_IT_number 15
_symmetry_cell_setting 'monoclinic'
loop_
_space_group_symop_operation_xyz
x,y,z
-x,y,1/2-z
-x,-y,-z
x,-y,1/2+z
1/2+x,1/2+y,z
1/2-x,1/2+y,1/2-z
1/2-x,1/2-y,-z
1/2+x,1/2-y,1/2+z
loop_
_atom_site_type_symbol
_atom_site_label
_atom_site_fract_x
_atom_site_fract_y
_atom_site_fract_z
Si Si1 0.703415 0.543834 0.904754
Si Si2 0.159595 0.454867 0.469466
Si Si3 0.277254 0.883358 0.217427
Si Si4 0.952027 0.108044 0.345718
O O1 0.677666 0.208425 0.918422
O O2 0.860505 0.627392 0.873126
O O3 0.551464 0.595858 0.877627
O O4 0.711014 0.723432 0.954126
O O5 0.250000 0.250000 0.500000
O O6 0.000000 0.500000 0.500000
O O7 0.302435 0.196208 0.238633
O O8 0.169441 0.896152 0.175033
O O9 0.441154 0.753606 0.197383
#
# Coordination Sequence:
#
# PCOD8155001 Si02
#       4
#     8   8   8   8
#     4  12  27  47  76 111 151 200 252 314 379 452
#     4  12  25  46  74 109 150 198 251 311 378 451
#     4  12  30  52  80 114 155 204 256 317 384 457
#     4  12  29  51  78 114 154 200 256 316 382 456
#
# _framework density 27.779053999999999
#
# number of rings (size 3 to 8) (size 9 to 14) (size 15 to 20)
#    0.000    0.000    0.000    8.250    0.000   22.000 
#    0.000    0.000    0.000    0.000    0.000    0.000 
#    0.000    0.000    0.000    0.000    0.000    0.000 
#
# Total GULP energy -198316.923166 kJ/mol
# GULP energy per Si atom -12394.807698 kJ/mol
# Density = 2.771583 g / cm^3
# Si number density = 27.779054 Si / 1000 Ang^3
#
#
#
# Elastic Constant Matrix: (Units=GPa)
#
#
# Indices 1 2 3 4 5 6 
#
# 1 129.1806 44.6738 31.1365 0.0000 -11.3750 0.0000
# 2 44.6738 119.0529 21.7376 0.0000 -9.1755 0.0000
# 3 31.1365 21.7376 84.2151 0.0000 -10.3758 0.0000
# 4 0.0000 0.0000 0.0000 32.1389 0.0000 4.7381
# 5 -11.3750 -9.1755 -10.3758 0.0000 50.3007 0.0000
# 6 0.0000 0.0000 0.0000 4.7381 0.0000 42.6828
#
#
#
# Elastic Compliance Matrix: (Units=1/GPa)
#
#
# Indices 1 2 3 4 5 6 
#
# 1 0.009503 -0.003008 -0.002606 0.000000 0.001063 0.000000
# 2 -0.003008 0.009835 -0.001323 0.000000 0.000841 0.000000
# 3 -0.002606 -0.001323 0.013418 0.000000 0.001937 0.000000
# 4 0.000000 0.000000 0.000000 0.031633 0.000000 -0.003511
# 5 0.001063 0.000841 0.001937 0.000000 0.020674 0.000000
# 6 0.000000 0.000000 0.000000 -0.003511 0.000000 0.023818
#
#
# Mechanical properties :
#
#
# Convention : Reuss Voigt Hill
#
# Bulk Modulus (GPa) = 52.96131 58.61606 55.78868
# Shear Modulus (GPa) = 38.74500 40.68452 39.71476
#
# Velocity S-wave (km/s) = 3.73869 3.83113 3.78519
# Velocity P-wave (km/s) = 6.14359 6.38096 6.26340
#
# Compressibility (1/GPa) = 0.01888171
#
# Stress axis : x y z
#
# Youngs Moduli (GPa) = 105.22804 101.67999 74.52669
#
# Poissons Ratio (x) = 0.30588 0.19423
# Poissons Ratio (y) = 0.31655 0.09858
# Poissons Ratio (z) = 0.27424 0.13449
#
# Static dielectric constant tensor:
#      x y z
#    x 4.853640 0.000000 0.221990 
#    y 0.000000 5.243550 0.000000 
#    z 0.221990 0.000000 6.343130 
# 
# 
# High freq. dielectric constant tensor:
#      x y z
#    x 2.114300 0.000000 -0.004940 
#    y 0.000000 2.138150 0.000000 
#    z -0.004940 0.000000 2.151700 
# 
# From -- ./inp_files/306249.got.cif
#   From: 2010.06.25/outbox.cif.g09.slc.cpg/sg15_154_cif.got.tgz:306249.got - 2010.06.28 07:06:18.
