data_PCOD8155561
_publ_section_title
;
Structure prediction by ZEFSAII (Michael W. Deem and Ramdas Pophale) SiO2 
 PCOD8155561
Probable space group: P 2 2 21
;
_chemical_formula_sum "Si O2"
_cell_formula_units_Z 32
_cell_length_a 11.174073
_cell_length_b 9.899528
_cell_length_c 16.403225
_cell_angle_alpha 90.000000
_cell_angle_beta 90.000000
_cell_angle_gamma 90.000000
_cell_volume 1814.492739
_symmetry_space_group_name_H-M "P 2 2 21"
_symmetry_group_IT_number 17
_symmetry_cell_setting 'orthorhombic'
loop_
_space_group_symop_operation_xyz
x,y,z
-x,-y,1/2+z
x,-y,-z
-x,y,1/2-z
loop_
_atom_site_type_symbol
_atom_site_label
_atom_site_fract_x
_atom_site_fract_y
_atom_site_fract_z
Si Si1 0.318121 0.030212 0.202255
Si Si2 0.219317 0.869021 0.548727
Si Si3 0.863857 0.780549 0.776804
Si Si4 0.315430 0.726483 0.202509
Si Si5 0.227781 0.619129 0.441871
Si Si6 0.862566 0.530421 0.227689
Si Si7 0.448116 0.727691 0.373797
Si Si8 0.555769 0.970297 0.875080
O O1 0.211010 0.138129 0.207921
O O2 0.386608 0.027911 0.286770
O O3 0.415992 0.075057 0.132965
O O4 0.267568 0.878758 0.183594
O O5 0.149650 0.848166 0.634124
O O6 0.184288 0.752674 0.486566
O O7 0.363016 0.874728 0.567508
O O8 0.173974 0.000000 0.500000
O O9 0.818014 0.624986 0.777425
O O10 0.000000 0.788494 0.750000
O O11 0.210514 0.614601 0.203566
O O12 0.384251 0.729365 0.287009
O O13 0.413240 0.682984 0.133792
O O14 0.191417 0.500000 0.500000
O O15 0.155803 0.604459 0.358200
O O16 0.372072 0.623913 0.428939
O O17 0.000000 0.537388 0.250000
O O18 0.439845 0.878159 0.411658
#
# Coordination Sequence:
#
# PCOD8155561 Si02
#       8
#     4   4   4   4   4   4   4   4
#     4   8  15  29  50  74  98 124 165 207 247 305
#     4  11  20  34  55  79 103 137 172 220 279 322
#     4  10  21  36  52  75 106 141 183 225 263 308
#     4   8  15  29  50  74  96 127 165 204 248 302
#     4  11  20  34  51  79 105 133 177 219 267 321
#     4  10  21  36  52  73 106 146 184 220 263 312
#     4   8  14  28  49  72 102 127 153 201 256 308
#     4   8  14  28  49  74 100 127 153 197 264 311
#
# _framework density 17.635784000000001
#
# number of rings (size 3 to 8) (size 9 to 14) (size 15 to 20)
#    0.000    2.750    2.500    1.500    1.750    0.500 
#    2.250    2.500    0.000    3.000    0.000    0.000 
#    0.000    0.000    0.000    0.000    0.000    0.000 
#
# Total GULP energy -396426.913421 kJ/mol
# GULP energy per Si atom -12388.341044 kJ/mol
# Density = 1.759564 g / cm^3
# Si number density = 17.635784 Si / 1000 Ang^3
#
#
#
# Elastic Constant Matrix: (Units=GPa)
#
#
# Indices 1 2 3 4 5 6 
#
# 1 81.8404 47.4408 26.1985 0.0000 0.0000 0.0000
# 2 47.4408 107.6513 29.4440 0.0000 0.0000 0.0000
# 3 26.1985 29.4440 52.4955 0.0000 0.0000 0.0000
# 4 0.0000 0.0000 0.0000 15.4212 0.0000 0.0000
# 5 0.0000 0.0000 0.0000 0.0000 21.9795 0.0000
# 6 0.0000 0.0000 0.0000 0.0000 0.0000 29.8647
#
#
#
# Elastic Compliance Matrix: (Units=1/GPa)
#
#
# Indices 1 2 3 4 5 6 
#
# 1 0.017544 -0.006304 -0.005220 0.000000 0.000000 0.000000
# 2 -0.006304 0.013238 -0.004279 0.000000 0.000000 0.000000
# 3 -0.005220 -0.004279 0.024054 0.000000 0.000000 0.000000
# 4 0.000000 0.000000 0.000000 0.064846 0.000000 0.000000
# 5 0.000000 0.000000 0.000000 0.000000 0.045497 0.000000
# 6 0.000000 0.000000 0.000000 0.000000 0.000000 0.033484
#
#
# Mechanical properties :
#
#
# Convention : Reuss Voigt Hill
#
# Bulk Modulus (GPa) = 43.04603 49.79486 46.42045
# Shear Modulus (GPa) = 21.00738 22.71333 21.86035
#
# Velocity S-wave (km/s) = 3.45509 3.59264 3.52454
# Velocity P-wave (km/s) = 6.35438 6.74580 6.55302
#
# Compressibility (1/GPa) = 0.02323094
#
# Stress axis : x y z
#
# Youngs Moduli (GPa) = 56.99960 75.54260 41.57276
#
# Poissons Ratio (x) = 0.47620 0.21700
# Poissons Ratio (y) = 0.35931 0.17788
# Poissons Ratio (z) = 0.29753 0.32323
#
# Static dielectric constant tensor:
#      x y z
#    x 3.330460 0.000000 0.000000 
#    y 0.000000 3.413640 0.000000 
#    z 0.000000 0.000000 3.258700 
# 
# 
# High freq. dielectric constant tensor:
#      x y z
#    x 1.661390 0.000000 0.000000 
#    y 0.000000 1.679610 0.000000 
#    z 0.000000 0.000000 1.661550 
# 
# From -- ./inp_files/9672.got.cif
#   From: 2010.03.12/outbox.cif.g09.slc.cpg/sg17_5_cif.got.tgz:9672.got - 2010.04.10 18:46:23.
