data_PCOD8155332
_publ_section_title
;
Structure prediction by ZEFSAII (Michael W. Deem and Ramdas Pophale) SiO2 
 PCOD8155332
Probable space group: P 2 2 2
;
_chemical_formula_sum "Si O2"
_cell_formula_units_Z 12
_cell_length_a 8.725929
_cell_length_b 5.003101
_cell_length_c 10.983202
_cell_angle_alpha 90.000000
_cell_angle_beta 90.000000
_cell_angle_gamma 90.000000
_cell_volume 479.490400
_symmetry_space_group_name_H-M "P 2 2 2"
_symmetry_group_IT_number 16
_symmetry_cell_setting 'orthorhombic'
loop_
_space_group_symop_operation_xyz
x,y,z
-x,-y,z
x,-y,-z
-x,y,-z
loop_
_atom_site_type_symbol
_atom_site_label
_atom_site_fract_x
_atom_site_fract_y
_atom_site_fract_z
Si Si1 0.500000 0.500000 0.000000
Si Si2 0.000000 0.000000 0.500000
Si Si3 0.500000 0.000000 0.500000
Si Si4 0.748609 0.787022 0.334652
Si Si5 0.246672 0.722524 0.164149
Si Si6 0.000000 0.000000 0.000000
O O1 0.394527 0.306467 0.920362
O O2 0.900436 0.195159 0.584042
O O3 0.601409 0.786844 0.422968
O O4 0.775402 0.543352 0.243493
O O5 0.718560 0.047198 0.256748
O O6 0.099731 0.798100 0.082337
#
# Coordination Sequence:
#
# PCOD8155332 Si02
#       6
#     1   1   1   4   4   1
#     4  12  28  48  76 112 152 200 256 314 380 454
#     4  10  26  44  72 106 148 196 250 308 376 450
#     4  10  24  48  76 110 152 200 252 316 380 454
#     4  11  26  46  73 108 149 196 251 310 378 450
#     4  12  28  49  75 110 151 200 254 314 380 453
#     4  12  30  52  80 116 156 204 258 318 384 458
#
# _framework density 25.02657
#
# number of rings (size 3 to 8) (size 9 to 14) (size 15 to 20)
#    0.000    0.667    0.000    5.000    0.000   25.333 
#    0.000    0.000    0.000    0.000    0.000    0.000 
#    0.000    0.000    0.000    0.000    0.000    0.000 
#
# Total GULP energy -148810.279263 kJ/mol
# GULP energy per Si atom -12400.856605 kJ/mol
# Density = 2.496961 g / cm^3
# Si number density = 25.026570 Si / 1000 Ang^3
#
#
#
# Elastic Constant Matrix: (Units=GPa)
#
#
# Indices 1 2 3 4 5 6 
#
# 1 211.1952 82.2485 116.3720 0.0000 0.0000 0.0000
# 2 82.2485 203.5096 117.9240 0.0000 0.0000 0.0000
# 3 116.3720 117.9240 210.9822 0.0000 0.0000 0.0000
# 4 0.0000 0.0000 0.0000 5.9583 0.0000 0.0000
# 5 0.0000 0.0000 0.0000 0.0000 -17.9213 0.0000
# 6 0.0000 0.0000 0.0000 0.0000 0.0000 36.2389
#
#
#
# Elastic Compliance Matrix: (Units=1/GPa)
#
#
# Indices 1 2 3 4 5 6 
#
# 1 0.006903 -0.000863 -0.003325 0.000000 0.000000 0.000000
# 2 -0.000863 0.007375 -0.003646 0.000000 0.000000 0.000000
# 3 -0.003325 -0.003646 0.008612 0.000000 0.000000 0.000000
# 4 0.000000 0.000000 0.000000 0.167834 0.000000 0.000000
# 5 0.000000 0.000000 0.000000 0.000000 -0.055799 0.000000
# 6 0.000000 0.000000 0.000000 0.000000 0.000000 0.027595
#
#
# Mechanical properties :
#
#
# Convention : Reuss Voigt Hill
#
# Bulk Modulus (GPa) = 138.47892 139.86400 139.17146
# Shear Modulus (GPa) = 27.68600 25.46466 26.57533
#
# Velocity S-wave (km/s) = 3.32966 3.19330 3.26219
# Velocity P-wave (km/s) = 8.38064 8.34288 8.36178
#
# Compressibility (1/GPa) = 0.00722132
#
# Stress axis : x y z
#
# Youngs Moduli (GPa) = 144.85636 135.58497 116.11900
#
# Poissons Ratio (x) = 0.11703 0.38613
# Poissons Ratio (y) = 0.12504 0.42340
# Poissons Ratio (z) = 0.48169 0.49438
#
# Static dielectric constant tensor:
#      x y z
#    x 4.838810 0.000000 0.000000 
#    y 0.000000 4.190630 0.000000 
#    z 0.000000 0.000000 5.202940 
# 
# 
# High freq. dielectric constant tensor:
#      x y z
#    x 2.015880 0.000000 0.000000 
#    y 0.000000 1.995500 0.000000 
#    z 0.000000 0.000000 2.032010 
# 
# From -- ./inp_files/2977.got.cif
#   From: 2010.03.12/outbox.cif.g09.slc.cpg/sg16_2_cif.got.tgz:2977.got - 2010.03.31 00:51:45.
