data_PCOD8155895
_publ_section_title
;
Structure prediction by ZEFSAII (Michael W. Deem and Ramdas Pophale) SiO2 
 PCOD8155895
Probable space group: P 21 21 2
;
_chemical_formula_sum "Si O2"
_cell_formula_units_Z 26
_cell_length_a 14.519303
_cell_length_b 9.354948
_cell_length_c 9.778981
_cell_angle_alpha 90.000000
_cell_angle_beta 90.000000
_cell_angle_gamma 90.000000
_cell_volume 1328.252826
_symmetry_space_group_name_H-M "P 21 21 2"
_symmetry_group_IT_number 18
_symmetry_cell_setting 'orthorhombic'
loop_
_space_group_symop_operation_xyz
x,y,z
-x,-y,z
1/2+x,1/2-y,-z
1/2-x,1/2+y,-z
loop_
_atom_site_type_symbol
_atom_site_label
_atom_site_fract_x
_atom_site_fract_y
_atom_site_fract_z
Si Si1 0.319459 0.624728 0.596044
Si Si2 0.123477 0.825798 0.309916
Si Si3 0.000000 0.000000 0.127807
Si Si4 0.610272 0.872814 0.455186
Si Si5 0.581854 0.183638 0.377337
Si Si6 0.212878 0.355025 0.869908
Si Si7 0.177967 0.136455 0.099227
O O1 0.335877 0.453355 0.593179
O O2 0.212333 0.669070 0.591359
O O3 0.375111 0.687795 0.466757
O O4 0.350165 0.681128 0.745920
O O5 0.093121 0.688746 0.394272
O O6 0.203513 0.777236 0.206559
O O7 0.034628 0.873593 0.226288
O O8 0.085859 0.058622 0.037127
O O9 0.529476 0.802749 0.359870
O O10 0.602117 0.042511 0.465252
O O11 0.622859 0.165397 0.224954
O O12 0.236987 0.522565 0.896715
O O13 0.200525 0.276921 0.014370
#
# Coordination Sequence:
#
# PCOD8155895 Si02
#       7
#     4   4   2   4   4   4   4
#     4  10  19  39  60  84 113 159 187 243 285 353
#     4  10  19  37  62  82 117 153 194 230 296 348
#     4   8  18  38  58  84 110 158 196 244 272 364
#     4  11  19  35  59  88 119 149 182 246 292 339
#     4  11  22  36  59  89 119 145 194 239 297 337
#     4  10  21  41  56  83 116 159 187 246 281 348
#     4  10  21  40  61  81 118 154 202 232 298 337
#
# _framework density 19.574587000000001
#
# number of rings (size 3 to 8) (size 9 to 14) (size 15 to 20)
#    0.000    2.154    4.615    1.846    0.000    1.231 
#    8.308    0.000    0.000    1.846    0.000    0.000 
#    0.000    0.000    0.000    0.000    0.000    0.000 
#
# Total GULP energy -322126.577203 kJ/mol
# GULP energy per Si atom -12389.483739 kJ/mol
# Density = 1.953003 g / cm^3
# Si number density = 19.574587 Si / 1000 Ang^3
#
#
#
# Elastic Constant Matrix: (Units=GPa)
#
#
# Indices 1 2 3 4 5 6 
#
# 1 98.2890 4.6299 0.5394 0.0000 0.0000 0.0000
# 2 4.6299 55.1977 30.5553 0.0000 0.0000 0.0000
# 3 0.5394 30.5553 51.9031 0.0000 0.0000 0.0000
# 4 0.0000 0.0000 0.0000 34.9293 0.0000 0.0000
# 5 0.0000 0.0000 0.0000 0.0000 16.5642 0.0000
# 6 0.0000 0.0000 0.0000 0.0000 0.0000 22.8851
#
#
#
# Elastic Compliance Matrix: (Units=1/GPa)
#
#
# Indices 1 2 3 4 5 6 
#
# 1 0.010227 -0.001185 0.000591 0.000000 0.000000 0.000000
# 2 -0.001185 0.027012 -0.015890 0.000000 0.000000 0.000000
# 3 0.000591 -0.015890 0.028615 0.000000 0.000000 0.000000
# 4 0.000000 0.000000 0.000000 0.028629 0.000000 0.000000
# 5 0.000000 0.000000 0.000000 0.000000 0.060371 0.000000
# 6 0.000000 0.000000 0.000000 0.000000 0.000000 0.043696
#
#
# Mechanical properties :
#
#
# Convention : Reuss Voigt Hill
#
# Bulk Modulus (GPa) = 30.40750 30.75990 30.58370
# Shear Modulus (GPa) = 20.62034 26.18675 23.40355
#
# Velocity S-wave (km/s) = 3.24917 3.66155 3.46151
# Velocity P-wave (km/s) = 5.44463 5.79864 5.62443
#
# Compressibility (1/GPa) = 0.03288662
#
# Stress axis : x y z
#
# Youngs Moduli (GPa) = 97.78367 37.02066 34.94711
#
# Poissons Ratio (x) = 0.04388 -0.02067
# Poissons Ratio (y) = 0.11589 0.55529
# Poissons Ratio (z) = -0.05783 0.58824
#
# Static dielectric constant tensor:
#      x y z
#    x 4.170790 0.000000 0.000000 
#    y 0.000000 3.389200 0.000000 
#    z 0.000000 0.000000 3.269910 
# 
# 
# High freq. dielectric constant tensor:
#      x y z
#    x 1.785360 0.000000 0.000000 
#    y 0.000000 1.740760 0.000000 
#    z 0.000000 0.000000 1.730910 
# 
# From -- ./inp_files/4228.got.cif
#   From: 2010.03.12/outbox.cif.g09.slc.cpg/sg18_3_cif.got.tgz:4228.got - 2010.04.10 18:53:55.
