data_PCOD8155641
_publ_section_title
;
Structure prediction by ZEFSAII (Michael W. Deem and Ramdas Pophale) SiO2 
 PCOD8155641
Probable space group: P 2 2 21
;
_chemical_formula_sum "Si O2"
_cell_formula_units_Z 20
_cell_length_a 13.340718
_cell_length_b 5.177272
_cell_length_c 14.412373
_cell_angle_alpha 90.000000
_cell_angle_beta 90.000000
_cell_angle_gamma 90.000000
_cell_volume 995.441356
_symmetry_space_group_name_H-M "P 2 2 21"
_symmetry_group_IT_number 17
_symmetry_cell_setting 'orthorhombic'
loop_
_space_group_symop_operation_xyz
x,y,z
-x,-y,1/2+z
x,-y,-z
-x,y,1/2-z
loop_
_atom_site_type_symbol
_atom_site_label
_atom_site_fract_x
_atom_site_fract_y
_atom_site_fract_z
Si Si1 0.479670 0.077757 0.853326
Si Si2 0.408150 0.593385 0.597998
Si Si3 0.220692 0.727531 0.721477
Si Si4 0.117610 0.776826 0.252652
Si Si5 0.746298 0.973267 0.392199
O O1 0.500000 0.971671 0.750000
O O2 0.519072 0.841880 0.918697
O O3 0.364670 0.139996 0.877133
O O4 0.535578 0.349532 0.859314
O O5 0.363398 0.500000 0.500000
O O6 0.320899 0.683021 0.665311
O O7 0.143232 0.496974 0.701735
O O8 0.246723 0.759080 0.832100
O O9 0.167149 0.991913 0.686356
O O10 0.000000 0.819302 0.250000
O O11 0.168928 0.781337 0.150091
O O12 0.771085 0.000000 0.500000
#
# Coordination Sequence:
#
# PCOD8155641 Si02
#       5
#     4   4   4   4   4
#     4  12  23  40  62  92 134 174 211 251 321 376
#     4  12  24  40  61  95 131 173 211 257 308 391
#     4  10  22  41  64  90 123 167 208 260 322 380
#     4  10  22  42  65  88 122 162 208 267 336 373
#     4  10  23  40  64  96 125 163 214 268 313 385
#
# _framework density 20.091591000000001
#
# number of rings (size 3 to 8) (size 9 to 14) (size 15 to 20)
#    1.200    0.000    2.000    5.400    2.800    0.800 
#    0.000    2.000    0.000    0.000    0.000    0.000 
#    0.000    0.000    0.000    0.000    0.000    0.000 
#
# Total GULP energy -247834.741536 kJ/mol
# GULP energy per Si atom -12391.737077 kJ/mol
# Density = 2.004586 g / cm^3
# Si number density = 20.091591 Si / 1000 Ang^3
#
#
#
# Elastic Constant Matrix: (Units=GPa)
#
#
# Indices 1 2 3 4 5 6 
#
# 1 139.6961 51.7746 31.1914 0.0000 0.0000 0.0000
# 2 51.7746 148.2723 21.1133 0.0000 0.0000 0.0000
# 3 31.1914 21.1133 76.0254 0.0000 0.0000 0.0000
# 4 0.0000 0.0000 0.0000 22.0088 0.0000 0.0000
# 5 0.0000 0.0000 0.0000 0.0000 10.8165 0.0000
# 6 0.0000 0.0000 0.0000 0.0000 0.0000 31.2481
#
#
#
# Elastic Compliance Matrix: (Units=1/GPa)
#
#
# Indices 1 2 3 4 5 6 
#
# 1 0.008784 -0.002659 -0.002865 0.000000 0.000000 0.000000
# 2 -0.002659 0.007827 -0.001083 0.000000 0.000000 0.000000
# 3 -0.002865 -0.001083 0.014630 0.000000 0.000000 0.000000
# 4 0.000000 0.000000 0.000000 0.045436 0.000000 0.000000
# 5 0.000000 0.000000 0.000000 0.000000 0.092451 0.000000
# 6 0.000000 0.000000 0.000000 0.000000 0.000000 0.032002
#
#
# Mechanical properties :
#
#
# Convention : Reuss Voigt Hill
#
# Bulk Modulus (GPa) = 55.47459 63.57249 59.52354
# Shear Modulus (GPa) = 22.69088 30.14233 26.41661
#
# Velocity S-wave (km/s) = 3.36426 3.87750 3.62996
# Velocity P-wave (km/s) = 6.53925 7.19422 6.87454
#
# Compressibility (1/GPa) = 0.01802627
#
# Stress axis : x y z
#
# Youngs Moduli (GPa) = 113.84738 127.76197 68.35402
#
# Poissons Ratio (x) = 0.33974 0.19585
# Poissons Ratio (y) = 0.30274 0.07401
# Poissons Ratio (z) = 0.32620 0.13833
#
# Static dielectric constant tensor:
#      x y z
#    x 3.500710 0.000000 0.000000 
#    y 0.000000 3.813660 0.000000 
#    z 0.000000 0.000000 3.526950 
# 
# 
# High freq. dielectric constant tensor:
#      x y z
#    x 1.776550 0.000000 0.000000 
#    y 0.000000 1.797990 0.000000 
#    z 0.000000 0.000000 1.761900 
# 
# From -- ./inp_files/8397.got.cif
#   From: 2010.03.12/outbox.cif.g09.slc.cpg/sg17_5_cif.got.tgz:8397.got - 2010.04.10 18:46:23.
