data_PCOD8155043
_publ_section_title
;
Structure prediction by ZEFSAII (Michael W. Deem and Ramdas Pophale) SiO2 
 PCOD8155043
Probable space group: C 2/C
;
_chemical_formula_sum "Si O2"
_cell_formula_units_Z 36
_cell_length_a 7.228284
_cell_length_b 26.007666
_cell_length_c 8.843163
_cell_angle_alpha 90.000000
_cell_angle_beta 109.880013
_cell_angle_gamma 90.000000
_cell_volume 1563.363547
_symmetry_space_group_name_H-M "C 2/C"
_symmetry_group_IT_number 15
_symmetry_cell_setting 'monoclinic'
loop_
_space_group_symop_operation_xyz
x,y,z
-x,y,1/2-z
-x,-y,-z
x,-y,1/2+z
1/2+x,1/2+y,z
1/2-x,1/2+y,1/2-z
1/2-x,1/2-y,-z
1/2+x,1/2-y,1/2+z
loop_
_atom_site_type_symbol
_atom_site_label
_atom_site_fract_x
_atom_site_fract_y
_atom_site_fract_z
Si Si1 0.589486 0.379220 0.437593
Si Si2 0.000000 0.716951 0.750000
Si Si3 0.720305 0.861399 0.517672
Si Si4 0.554610 0.946372 0.941123
Si Si5 0.727081 0.201711 0.312725
O O1 0.500000 0.368185 0.250000
O O2 0.414998 0.387972 0.507594
O O3 0.715934 0.431988 0.475879
O O4 0.723542 0.329461 0.519492
O O5 0.848110 0.683301 0.613646
O O6 0.873417 0.750224 0.834898
O O7 0.556342 0.904293 0.490007
O O8 0.773238 0.837654 0.692422
O O9 0.500000 0.944903 0.750000
O O10 0.500000 0.000000 0.000000
O O11 0.500000 0.219685 0.250000
#
# Coordination Sequence:
#
# PCOD8155043 Si02
#       5
#     8   4   8   8   8
#     4  12  26  48  78 112 152 203 255 317 379 456
#     4  12  28  44  78 118 154 210 258 316 368 468
#     4  12  25  50  75 109 160 197 257 318 381 452
#     4  12  29  54  82 113 150 199 253 325 396 457
#     4  12  25  48  75 110 157 212 256 307 383 452
#
# _framework density 23.027273000000001
#
# number of rings (size 3 to 8) (size 9 to 14) (size 15 to 20)
#    0.000    0.000    6.667    2.000    4.667    4.444 
#    0.000    1.111    0.000    0.000    0.000    0.000 
#    0.000    0.000    0.000    0.000    0.000    0.000 
#
# Total GULP energy -223302.970475 kJ/mol
# GULP energy per Si atom -12405.720582 kJ/mol
# Density = 2.297486 g / cm^3
# Si number density = 23.027273 Si / 1000 Ang^3
#
#
#
# Elastic Constant Matrix: (Units=GPa)
#
#
# Indices 1 2 3 4 5 6 
#
# 1 173.7667 61.5291 37.2963 0.0000 6.8485 0.0000
# 2 61.5291 140.6875 51.9626 0.0000 1.5524 0.0000
# 3 37.2963 51.9626 128.7819 0.0000 18.4907 0.0000
# 4 0.0000 0.0000 0.0000 -52.1962 0.0000 61.9149
# 5 6.8485 1.5524 18.4907 0.0000 30.2598 0.0000
# 6 0.0000 0.0000 0.0000 61.9149 0.0000 -9.5014
#
#
#
# Elastic Compliance Matrix: (Units=1/GPa)
#
#
# Indices 1 2 3 4 5 6 
#
# 1 0.006925 -0.002736 -0.000764 0.000000 -0.000960 0.000000
# 2 -0.002736 0.009523 -0.003364 0.000000 0.002186 0.000000
# 3 -0.000764 -0.003364 0.010188 0.000000 -0.005880 0.000000
# 4 0.000000 0.000000 0.000000 0.002847 0.000000 0.018551
# 5 -0.000960 0.002186 -0.005880 0.000000 0.036745 0.000000
# 6 0.000000 0.000000 0.000000 0.018551 0.000000 0.015639
#
#
# Mechanical properties :
#
#
# Convention : Reuss Voigt Hill
#
# Bulk Modulus (GPa) = 77.46811 82.75690 80.11251
# Shear Modulus (GPa) = 50.05099 13.20899 31.62999
#
# Velocity S-wave (km/s) = 4.66720 2.39764 3.71022
# Velocity P-wave (km/s) = 7.92203 6.60920 7.29521
#
# Compressibility (1/GPa) = 0.01290854
#
# Stress axis : x y z
#
# Youngs Moduli (GPa) = 144.39478 105.00978 98.15619
#
# Poissons Ratio (x) = 0.28732 0.07497
# Poissons Ratio (y) = 0.39508 0.33019
# Poissons Ratio (z) = 0.11029 0.35325
#
# Static dielectric constant tensor:
#      x y z
#    x 5.599620 0.000000 -1.324240 
#    y 0.000000 4.354330 0.000000 
#    z -1.324240 0.000000 5.722070 
# 
# 
# High freq. dielectric constant tensor:
#      x y z
#    x 1.934920 0.000000 -0.002040 
#    y 0.000000 1.894180 0.000000 
#    z -0.002040 0.000000 1.923210 
# 
# From -- ./inp_files/24682.got.cif
#   From: 2010.06.25/outbox.cif.g09.slc.cpg/sg15_13_cif.got.tgz:24682.got - 2010.06.28 07:06:18.
