data_PCOD8155508
_publ_section_title
;
Structure prediction by ZEFSAII (Michael W. Deem and Ramdas Pophale) SiO2 
 PCOD8155508
Probable space group: P 2 2 21
;
_chemical_formula_sum "Si O2"
_cell_formula_units_Z 32
_cell_length_a 14.957277
_cell_length_b 10.238191
_cell_length_c 10.135731
_cell_angle_alpha 90.000000
_cell_angle_beta 90.000000
_cell_angle_gamma 90.000000
_cell_volume 1552.139817
_symmetry_space_group_name_H-M "P 2 2 21"
_symmetry_group_IT_number 17
_symmetry_cell_setting 'orthorhombic'
loop_
_space_group_symop_operation_xyz
x,y,z
-x,-y,1/2+z
x,-y,-z
-x,y,1/2-z
loop_
_atom_site_type_symbol
_atom_site_label
_atom_site_fract_x
_atom_site_fract_y
_atom_site_fract_z
Si Si1 0.430408 0.348630 0.645799
Si Si2 0.995883 0.289491 0.606023
Si Si3 0.821811 0.846468 0.487957
Si Si4 0.243221 0.254855 0.728530
Si Si5 0.426269 0.346939 0.349619
Si Si6 0.770068 0.726251 0.756335
Si Si7 0.845641 0.142126 0.006362
Si Si8 0.872766 0.512456 0.146003
O O1 0.500000 0.284406 0.750000
O O2 0.335113 0.328640 0.711529
O O3 0.435716 0.285819 0.497892
O O4 0.447912 0.501552 0.635422
O O5 0.075611 0.246278 0.508724
O O6 0.020767 0.446216 0.627077
O O7 0.000000 0.217886 0.750000
O O8 0.906786 0.248679 0.530900
O O9 0.756778 0.827250 0.363549
O O10 0.769113 0.791341 0.613263
O O11 0.847848 0.000000 0.500000
O O12 0.227811 0.154857 0.608900
O O13 0.165083 0.364053 0.728771
O O14 0.500000 0.283749 0.250000
O O15 0.327585 0.329047 0.289570
O O16 0.795119 0.841119 0.856151
O O17 0.847510 0.615054 0.769606
O O18 0.889822 0.000000 0.000000
O O19 0.826758 0.500000 0.000000
#
# Coordination Sequence:
#
# PCOD8155508 Si02
#       8
#     4   4   4   4   4   4   4   4
#     4  10  20  36  65  96 135 171 206 259 338 417
#     4  11  23  42  65  89 129 170 209 284 326 387
#     4  12  28  47  64  94 133 182 237 277 320 383
#     4  11  21  42  67  90 133 173 208 276 328 393
#     4  10  21  38  63 102 137 168 212 270 335 412
#     4  12  24  41  70  98 132 175 213 284 328 402
#     4  11  22  41  68  89 115 177 232 257 315 389
#     4  11  20  41  66  96 129 161 213 264 345 393
#
# _framework density 20.616700000000002
#
# number of rings (size 3 to 8) (size 9 to 14) (size 15 to 20)
#    0.000    1.000    7.500    1.125    1.750    2.000 
#    0.000    0.000    0.000    4.500    0.000    0.000 
#    0.000    0.000    0.000    0.000    0.000    0.000 
#
# Total GULP energy -396493.863319 kJ/mol
# GULP energy per Si atom -12390.433229 kJ/mol
# Density = 2.056978 g / cm^3
# Si number density = 20.616700 Si / 1000 Ang^3
#
#
#
# Elastic Constant Matrix: (Units=GPa)
#
#
# Indices 1 2 3 4 5 6 
#
# 1 72.5688 14.0886 40.8496 0.0000 0.0000 0.0000
# 2 14.0886 70.8752 24.1030 0.0000 0.0000 0.0000
# 3 40.8496 24.1030 157.0171 0.0000 0.0000 0.0000
# 4 0.0000 0.0000 0.0000 19.0226 0.0000 0.0000
# 5 0.0000 0.0000 0.0000 0.0000 25.2380 0.0000
# 6 0.0000 0.0000 0.0000 0.0000 0.0000 14.7604
#
#
#
# Elastic Compliance Matrix: (Units=1/GPa)
#
#
# Indices 1 2 3 4 5 6 
#
# 1 0.016385 -0.001907 -0.003970 0.000000 0.000000 0.000000
# 2 -0.001907 0.015108 -0.001823 0.000000 0.000000 0.000000
# 3 -0.003970 -0.001823 0.007681 0.000000 0.000000 0.000000
# 4 0.000000 0.000000 0.000000 0.052569 0.000000 0.000000
# 5 0.000000 0.000000 0.000000 0.000000 0.039623 0.000000
# 6 0.000000 0.000000 0.000000 0.000000 0.000000 0.067749
#
#
# Mechanical properties :
#
#
# Convention : Reuss Voigt Hill
#
# Bulk Modulus (GPa) = 42.06149 50.94928 46.50538
# Shear Modulus (GPa) = 22.47793 26.56553 24.52173
#
# Velocity S-wave (km/s) = 3.30552 3.59352 3.45253
# Velocity P-wave (km/s) = 5.91731 6.47952 6.20478
#
# Compressibility (1/GPa) = 0.02377472
#
# Stress axis : x y z
#
# Youngs Moduli (GPa) = 61.03143 66.18852 130.18410
#
# Poissons Ratio (x) = 0.12622 0.51683
# Poissons Ratio (y) = 0.11638 0.23734
# Poissons Ratio (z) = 0.24230 0.12067
#
# Static dielectric constant tensor:
#      x y z
#    x 3.651700 0.000000 0.000000 
#    y 0.000000 3.527690 0.000000 
#    z 0.000000 0.000000 4.179280 
# 
# 
# High freq. dielectric constant tensor:
#      x y z
#    x 1.789390 0.000000 0.000000 
#    y 0.000000 1.775460 0.000000 
#    z 0.000000 0.000000 1.825770 
# 
# From -- ./inp_files/5288.got.cif
#   From: 2010.03.12/outbox.cif.g09.slc.cpg/sg17_3_cif.got.tgz:5288.got - 2010.04.10 18:46:23.
