data_PCOD8155526
_publ_section_title
;
Structure prediction by ZEFSAII (Michael W. Deem and Ramdas Pophale) SiO2 
 PCOD8155526
Probable space group: P 2 2 21
;
_chemical_formula_sum "Si O2"
_cell_formula_units_Z 24
_cell_length_a 7.777042
_cell_length_b 9.113027
_cell_length_c 14.439538
_cell_angle_alpha 90.000000
_cell_angle_beta 90.000000
_cell_angle_gamma 90.000000
_cell_volume 1023.364622
_symmetry_space_group_name_H-M "P 2 2 21"
_symmetry_group_IT_number 17
_symmetry_cell_setting 'orthorhombic'
loop_
_space_group_symop_operation_xyz
x,y,z
-x,-y,1/2+z
x,-y,-z
-x,y,1/2-z
loop_
_atom_site_type_symbol
_atom_site_label
_atom_site_fract_x
_atom_site_fract_y
_atom_site_fract_z
Si Si1 0.522308 0.061138 0.407444
Si Si2 0.021997 0.558912 0.898643
Si Si3 0.146558 0.721712 0.320755
Si Si4 0.500000 0.825681 0.250000
Si Si5 0.788689 0.221921 0.015604
Si Si6 0.376272 0.369886 0.163105
Si Si7 0.441917 0.500000 0.500000
O O1 0.322219 0.099167 0.431637
O O2 0.622691 0.202415 0.371586
O O3 0.613876 0.000000 0.500000
O O4 0.533303 0.929459 0.336623
O O5 0.176854 0.584824 0.825103
O O6 0.889990 0.446123 0.851501
O O7 0.931340 0.717278 0.913386
O O8 0.083263 0.500000 0.000000
O O9 0.331834 0.725866 0.269025
O O10 0.138777 0.826215 0.413733
O O11 0.000000 0.778692 0.250000
O O12 0.668200 0.355994 0.984999
O O13 0.500000 0.384069 0.250000
O O14 0.441413 0.487030 0.089720
#
# Coordination Sequence:
#
# PCOD8155526 Si02
#       7
#     4   4   4   2   4   4   2
#     4  11  24  47  74 100 147 204 256 305 375 455
#     4  10  22  45  68 111 150 188 251 309 401 448
#     4  11  25  43  74 109 150 188 251 322 373 456
#     4  12  26  52  72 112 146 198 268 298 380 458
#     4  10  21  44  67  99 151 198 238 319 378 444
#     4  11  24  41  73 112 148 200 254 313 384 465
#     4  10  20  38  64 102 146 196 240 302 384 448
#
# _framework density 23.452051000000001
#
# number of rings (size 3 to 8) (size 9 to 14) (size 15 to 20)
#    0.000    1.333    5.833    0.000    2.333    4.000 
#    3.000    0.833    0.000    0.000    0.000    0.000 
#    0.000    0.000    0.000    0.000    0.000    0.000 
#
# Total GULP energy -297455.392407 kJ/mol
# GULP energy per Si atom -12393.974684 kJ/mol
# Density = 2.339867 g / cm^3
# Si number density = 23.452051 Si / 1000 Ang^3
#
#
#
# Elastic Constant Matrix: (Units=GPa)
#
#
# Indices 1 2 3 4 5 6 
#
# 1 153.2941 45.1363 58.2974 0.0000 0.0000 0.0000
# 2 45.1363 71.0455 43.6374 0.0000 0.0000 0.0000
# 3 58.2974 43.6374 141.2393 0.0000 0.0000 0.0000
# 4 0.0000 0.0000 0.0000 38.2975 0.0000 0.0000
# 5 0.0000 0.0000 0.0000 0.0000 51.3016 0.0000
# 6 0.0000 0.0000 0.0000 0.0000 0.0000 39.9689
#
#
#
# Elastic Compliance Matrix: (Units=1/GPa)
#
#
# Indices 1 2 3 4 5 6 
#
# 1 0.008587 -0.004047 -0.002294 0.000000 0.000000 0.000000
# 2 -0.004047 0.019279 -0.004286 0.000000 0.000000 0.000000
# 3 -0.002294 -0.004286 0.009351 0.000000 0.000000 0.000000
# 4 0.000000 0.000000 0.000000 0.026111 0.000000 0.000000
# 5 0.000000 0.000000 0.000000 0.000000 0.019493 0.000000
# 6 0.000000 0.000000 0.000000 0.000000 0.000000 0.025019
#
#
# Mechanical properties :
#
#
# Convention : Reuss Voigt Hill
#
# Bulk Modulus (GPa) = 62.64190 73.30236 67.97213
# Shear Modulus (GPa) = 37.19781 40.48078 38.83930
#
# Velocity S-wave (km/s) = 3.98694 4.15915 4.07395
# Velocity P-wave (km/s) = 6.92552 7.37488 7.15373
#
# Compressibility (1/GPa) = 0.01596376
#
# Stress axis : x y z
#
# Youngs Moduli (GPa) = 116.44994 51.86993 106.93545
#
# Poissons Ratio (x) = 0.20989 0.24534
# Poissons Ratio (y) = 0.47122 0.45835
# Poissons Ratio (z) = 0.26717 0.22233
#
# Static dielectric constant tensor:
#      x y z
#    x 4.371950 0.000000 0.000000 
#    y 0.000000 5.199810 0.000000 
#    z 0.000000 0.000000 4.802280 
# 
# 
# High freq. dielectric constant tensor:
#      x y z
#    x 1.915510 0.000000 0.000000 
#    y 0.000000 1.913840 0.000000 
#    z 0.000000 0.000000 1.946310 
# 
# From -- ./inp_files/8141.got.cif
#   From: 2010.03.12/outbox.cif.g09.slc.cpg/sg17_5_cif.got.tgz:8141.got - 2010.04.10 18:46:23.
