data_PCOD8155766
_publ_section_title
;
Structure prediction by ZEFSAII (Michael W. Deem and Ramdas Pophale) SiO2 
 PCOD8155766
Probable space group: P 2 2 21
;
_chemical_formula_sum "Si O2"
_cell_formula_units_Z 20
_cell_length_a 5.319046
_cell_length_b 4.882427
_cell_length_c 31.255867
_cell_angle_alpha 90.000000
_cell_angle_beta 90.000000
_cell_angle_gamma 90.000000
_cell_volume 811.710297
_symmetry_space_group_name_H-M "P 2 2 21"
_symmetry_group_IT_number 17
_symmetry_cell_setting 'orthorhombic'
loop_
_space_group_symop_operation_xyz
x,y,z
-x,-y,1/2+z
x,-y,-z
-x,y,1/2-z
loop_
_atom_site_type_symbol
_atom_site_label
_atom_site_fract_x
_atom_site_fract_y
_atom_site_fract_z
Si Si1 0.315620 0.254118 0.918650
Si Si2 0.185458 0.749993 0.470735
Si Si3 0.638338 0.907695 0.205305
Si Si4 0.930157 0.404971 0.204030
Si Si5 0.323445 0.753708 0.861801
O O1 0.564333 0.159446 0.944543
O O2 0.425321 0.516504 0.892841
O O3 0.065035 0.339909 0.944613
O O4 0.211665 0.000241 0.890213
O O5 0.272867 0.500000 0.500000
O O6 0.098085 0.000000 0.500000
O O7 0.500000 0.900790 0.250000
O O8 0.888930 0.083909 0.212805
O O9 0.519667 0.094685 0.168546
O O10 0.695102 0.598817 0.189021
O O11 0.000000 0.540701 0.250000
O O12 0.134435 0.424531 0.167279
#
# Coordination Sequence:
#
# PCOD8155766 Si02
#       5
#     4   4   4   4   4
#     4  12  28  47  80 115 152 194 248 319 394 451
#     4  12  26  52  80 112 148 196 244 304 384 492
#     4  12  26  45  70 100 147 206 265 317 377 448
#     4  12  26  45  70 100 147 206 265 317 377 448
#     4  12  28  47  68 113 150 198 250 325 380 447
#
# _framework density 24.639330999999999
#
# number of rings (size 3 to 8) (size 9 to 14) (size 15 to 20)
#    0.000    0.000    2.000    7.200   11.200    0.000 
#    0.000    0.000    0.000    0.000    0.000    0.000 
#    0.000    0.000    0.000    0.000    0.000    0.000 
#
# Total GULP energy -247807.319228 kJ/mol
# GULP energy per Si atom -12390.365961 kJ/mol
# Density = 2.458325 g / cm^3
# Si number density = 24.639331 Si / 1000 Ang^3
#
#
#
# Elastic Constant Matrix: (Units=GPa)
#
#
# Indices 1 2 3 4 5 6 
#
# 1 104.1107 -3.5406 42.7559 0.0000 0.0000 0.0000
# 2 -3.5406 126.0616 48.9579 0.0000 0.0000 0.0000
# 3 42.7559 48.9579 120.9521 0.0000 0.0000 0.0000
# 4 0.0000 0.0000 0.0000 45.4246 0.0000 0.0000
# 5 0.0000 0.0000 0.0000 0.0000 33.7094 0.0000
# 6 0.0000 0.0000 0.0000 0.0000 0.0000 47.3418
#
#
#
# Elastic Compliance Matrix: (Units=1/GPa)
#
#
# Indices 1 2 3 4 5 6 
#
# 1 0.011778 0.002311 -0.005099 0.000000 0.000000 0.000000
# 2 0.002311 0.009866 -0.004810 0.000000 0.000000 0.000000
# 3 -0.005099 -0.004810 0.012017 0.000000 0.000000 0.000000
# 4 0.000000 0.000000 0.000000 0.022014 0.000000 0.000000
# 5 0.000000 0.000000 0.000000 0.000000 0.029665 0.000000
# 6 0.000000 0.000000 0.000000 0.000000 0.000000 0.021123
#
#
# Mechanical properties :
#
#
# Convention : Reuss Voigt Hill
#
# Bulk Modulus (GPa) = 54.15812 58.60786 56.38299
# Shear Modulus (GPa) = 39.11928 42.82525 40.97227
#
# Velocity S-wave (km/s) = 3.98889 4.17356 4.08227
# Velocity P-wave (km/s) = 6.57594 6.86023 6.71959
#
# Compressibility (1/GPa) = 0.01846445
#
# Stress axis : x y z
#
# Youngs Moduli (GPa) = 84.90624 101.36149 83.21417
#
# Poissons Ratio (x) = -0.23424 0.42429
# Poissons Ratio (y) = -0.19622 0.40028
# Poissons Ratio (z) = 0.43292 0.48758
#
# Static dielectric constant tensor:
#      x y z
#    x 4.202520 0.000000 0.000000 
#    y 0.000000 4.510020 0.000000 
#    z 0.000000 0.000000 4.749460 
# 
# 
# High freq. dielectric constant tensor:
#      x y z
#    x 1.967610 0.000000 0.000000 
#    y 0.000000 2.006230 0.000000 
#    z 0.000000 0.000000 1.994090 
# 
# From -- ./inp_files/10752.got.cif
#   From: 2010.03.12/outbox.cif.g09.slc.cpg/sg17_6_cif.got.tgz:10752.got - 2010.04.10 18:46:23.
