data_PCOD8155275
_publ_section_title
;
Structure prediction by ZEFSAII (Michael W. Deem and Ramdas Pophale) SiO2 
 PCOD8155275
Probable space group: P 2 2 2
;
_chemical_formula_sum "Si O2"
_cell_formula_units_Z 32
_cell_length_a 14.842817
_cell_length_b 8.604667
_cell_length_c 12.589613
_cell_angle_alpha 90.000000
_cell_angle_beta 90.000000
_cell_angle_gamma 90.000000
_cell_volume 1607.913868
_symmetry_space_group_name_H-M "P 2 2 2"
_symmetry_group_IT_number 16
_symmetry_cell_setting 'orthorhombic'
loop_
_space_group_symop_operation_xyz
x,y,z
-x,-y,z
x,-y,-z
-x,y,-z
loop_
_atom_site_type_symbol
_atom_site_label
_atom_site_fract_x
_atom_site_fract_y
_atom_site_fract_z
Si Si1 0.352050 0.604660 0.597253
Si Si2 0.154894 0.883406 0.353021
Si Si3 0.038498 0.161232 0.847821
Si Si4 0.314718 0.320416 0.728570
Si Si5 0.081997 0.599920 0.750246
Si Si6 0.493690 0.178660 0.627896
Si Si7 0.821952 0.785894 0.424174
Si Si8 0.809278 0.613710 0.900441
O O1 0.393029 0.500000 0.500000
O O2 0.310464 0.496420 0.687640
O O3 0.423501 0.711427 0.660772
O O4 0.275678 0.715375 0.546875
O O5 0.072951 0.872086 0.271303
O O6 0.237766 0.779056 0.323303
O O7 0.122599 0.825516 0.468914
O O8 0.192187 0.058482 0.355833
O O9 0.118277 0.243280 0.918947
O O10 0.952727 0.275174 0.837571
O O11 0.000000 0.000000 0.898722
O O12 0.409088 0.245683 0.692901
O O13 0.288476 0.324161 0.856218
O O14 0.122048 0.666752 0.643701
O O15 0.153856 0.488761 0.804311
O O16 0.000000 0.500000 0.707288
O O17 0.500000 0.190206 0.500000
O O18 0.500000 0.000000 0.664249
O O19 0.796430 0.500000 0.000000
#
# Coordination Sequence:
#
# PCOD8155275 Si02
#       8
#     4   4   4   4   4   4   4   4
#     4  12  21  33  56  86 126 160 209 240 292 370
#     4  10  21  34  54  82 124 169 199 239 297 379
#     4  10  20  38  60  86 120 156 205 259 308 364
#     4  11  21  37  59  87 120 160 199 259 307 361
#     4  10  21  36  56  82 118 155 203 262 306 358
#     4  11  22  35  56  91 130 166 199 240 299 367
#     4  11  20  35  53  81 126 170 202 235 301 375
#     4  10  23  43  65  87 117 156 208 269 329 369
#
# _framework density 19.901562999999999
#
# number of rings (size 3 to 8) (size 9 to 14) (size 15 to 20)
#    0.000    1.375    5.000    1.125    0.000    4.750 
#    0.000    4.375    0.000    1.500    0.000    0.875 
#    0.000    0.000    0.000    0.000    0.000    0.000 
#
# Total GULP energy -396463.870864 kJ/mol
# GULP energy per Si atom -12389.495964 kJ/mol
# Density = 1.985627 g / cm^3
# Si number density = 19.901563 Si / 1000 Ang^3
#
#
#
# Elastic Constant Matrix: (Units=GPa)
#
#
# Indices 1 2 3 4 5 6 
#
# 1 90.8695 41.2782 41.4331 0.0000 0.0000 0.0000
# 2 41.2782 130.6158 38.1632 0.0000 0.0000 0.0000
# 3 41.4331 38.1632 81.5227 0.0000 0.0000 0.0000
# 4 0.0000 0.0000 0.0000 -53.0610 0.0000 0.0000
# 5 0.0000 0.0000 0.0000 0.0000 12.6693 0.0000
# 6 0.0000 0.0000 0.0000 0.0000 0.0000 33.3821
#
#
#
# Elastic Compliance Matrix: (Units=1/GPa)
#
#
# Indices 1 2 3 4 5 6 
#
# 1 0.015252 -0.002960 -0.006366 0.000000 0.000000 0.000000
# 2 -0.002960 0.009444 -0.002916 0.000000 0.000000 0.000000
# 3 -0.006366 -0.002916 0.016867 0.000000 0.000000 0.000000
# 4 0.000000 0.000000 0.000000 -0.018846 0.000000 0.000000
# 5 0.000000 0.000000 0.000000 0.000000 0.078931 0.000000
# 6 0.000000 0.000000 0.000000 0.000000 0.000000 0.029956
#
#
# Mechanical properties :
#
#
# Convention : Reuss Voigt Hill
#
# Bulk Modulus (GPa) = 58.55506 60.52857 59.54181
# Shear Modulus (GPa) = 30.90585 10.74031 20.82308
#
# Velocity S-wave (km/s) = 3.94501 2.32560 3.23817
# Velocity P-wave (km/s) = 7.08780 6.13932 6.63054
#
# Compressibility (1/GPa) = 0.01707794
#
# Stress axis : x y z
#
# Youngs Moduli (GPa) = 65.56479 105.89164 59.28647
#
# Poissons Ratio (x) = 0.31344 0.37742
# Poissons Ratio (y) = 0.19408 0.17290
# Poissons Ratio (z) = 0.41739 0.30882
#
# Static dielectric constant tensor:
#      x y z
#    x 3.952910 0.000000 0.000000 
#    y 0.000000 4.142220 0.000000 
#    z 0.000000 0.000000 3.537250 
# 
# 
# High freq. dielectric constant tensor:
#      x y z
#    x 1.764530 0.000000 0.000000 
#    y 0.000000 1.803690 0.000000 
#    z 0.000000 0.000000 1.737430 
# 
# From -- ./inp_files/5218.got.cif
#   From: 2010.03.12/outbox.cif.g09.slc.cpg/sg16_3_cif.got.tgz:5218.got - 2010.03.31 00:51:45.
