data_PCOD8155720
_publ_section_title
;
Structure prediction by ZEFSAII (Michael W. Deem and Ramdas Pophale) SiO2 
 PCOD8155720
Probable space group: P 2 2 21
;
_chemical_formula_sum "Si O2"
_cell_formula_units_Z 12
_cell_length_a 14.006075
_cell_length_b 8.138264
_cell_length_c 4.900794
_cell_angle_alpha 90.000000
_cell_angle_beta 90.000000
_cell_angle_gamma 90.000000
_cell_volume 558.617670
_symmetry_space_group_name_H-M "P 2 2 21"
_symmetry_group_IT_number 17
_symmetry_cell_setting 'orthorhombic'
loop_
_space_group_symop_operation_xyz
x,y,z
-x,-y,1/2+z
x,-y,-z
-x,y,1/2-z
loop_
_atom_site_type_symbol
_atom_site_label
_atom_site_fract_x
_atom_site_fract_y
_atom_site_fract_z
Si Si1 0.097674 0.816984 0.389431
Si Si2 0.398220 0.618403 0.750965
Si Si3 0.801176 0.313552 0.397730
O O1 0.124650 0.704374 0.647862
O O2 0.000000 0.753896 0.250000
O O3 0.086646 0.000000 0.500000
O O4 0.176608 0.807600 0.150211
O O5 0.376272 0.500000 0.500000
O O6 0.500000 0.718688 0.750000
O O7 0.305675 0.734495 0.793891
O O8 0.412930 0.500000 0.000000
O O9 0.806144 0.500000 0.500000
#
# Coordination Sequence:
#
# PCOD8155720 Si02
#       3
#     4   4   4
#     4  12  25  43  61  82 119 164 201 236 296 367
#     4   9  17  32  56  88 123 153 185 233 294 353
#     4  11  22  39  64  94 119 147 199 255 291 332
#
# _framework density 21.481598999999999
#
# number of rings (size 3 to 8) (size 9 to 14) (size 15 to 20)
#    0.000    1.333    0.000    9.000    0.000    2.667 
#    0.000    3.333    0.000    4.000    0.000    4.667 
#    0.000    0.000    0.000    0.000    0.000    0.000 
#
# Total GULP energy -148689.832268 kJ/mol
# GULP energy per Si atom -12390.819356 kJ/mol
# Density = 2.143271 g / cm^3
# Si number density = 21.481599 Si / 1000 Ang^3
#
#
#
# Elastic Constant Matrix: (Units=GPa)
#
#
# Indices 1 2 3 4 5 6 
#
# 1 153.3157 46.6559 59.8310 0.0000 0.0000 0.0000
# 2 46.6559 34.8498 24.7138 0.0000 0.0000 0.0000
# 3 59.8310 24.7138 158.8375 0.0000 0.0000 0.0000
# 4 0.0000 0.0000 0.0000 41.7129 0.0000 0.0000
# 5 0.0000 0.0000 0.0000 0.0000 41.5904 0.0000
# 6 0.0000 0.0000 0.0000 0.0000 0.0000 7.6536
#
#
#
# Elastic Compliance Matrix: (Units=1/GPa)
#
#
# Indices 1 2 3 4 5 6 
#
# 1 0.011656 -0.014040 -0.002206 0.000000 0.000000 0.000000
# 2 -0.014040 0.049166 -0.002361 0.000000 0.000000 0.000000
# 3 -0.002206 -0.002361 0.007494 0.000000 0.000000 0.000000
# 4 0.000000 0.000000 0.000000 0.023973 0.000000 0.000000
# 5 0.000000 0.000000 0.000000 0.000000 0.024044 0.000000
# 6 0.000000 0.000000 0.000000 0.000000 0.000000 0.130658
#
#
# Mechanical properties :
#
#
# Convention : Reuss Voigt Hill
#
# Bulk Modulus (GPa) = 32.15333 67.71162 49.93247
# Shear Modulus (GPa) = 16.97369 32.57819 24.77594
#
# Velocity S-wave (km/s) = 2.81401 3.89853 3.39979
# Velocity P-wave (km/s) = 5.05555 7.20097 6.22143
#
# Compressibility (1/GPa) = 0.03110098
#
# Stress axis : x y z
#
# Youngs Moduli (GPa) = 85.79223 20.33933 133.43869
#
# Poissons Ratio (x) = 0.28557 0.29437
# Poissons Ratio (y) = 1.20456 0.31506
# Poissons Ratio (z) = 0.18926 0.04802
#
# Static dielectric constant tensor:
#      x y z
#    x 4.930200 0.000000 0.000000 
#    y 0.000000 3.282380 0.000000 
#    z 0.000000 0.000000 4.378210 
# 
# 
# High freq. dielectric constant tensor:
#      x y z
#    x 1.866080 0.000000 0.000000 
#    y 0.000000 1.774820 0.000000 
#    z 0.000000 0.000000 1.881960 
# 
# From -- ./inp_files/620.got.cif
#   From: 2010.03.12/outbox.cif.g09.slc.cpg/sg17_1_cif.got.tgz:620.got - 2010.04.10 18:46:23.
