data_PCOD8155666
_publ_section_title
;
Structure prediction by ZEFSAII (Michael W. Deem and Ramdas Pophale) SiO2 
 PCOD8155666
Probable space group: P 2 2 21
;
_chemical_formula_sum "Si O2"
_cell_formula_units_Z 32
_cell_length_a 11.499727
_cell_length_b 9.140928
_cell_length_c 15.381707
_cell_angle_alpha 90.000000
_cell_angle_beta 90.000000
_cell_angle_gamma 90.000000
_cell_volume 1616.896992
_symmetry_space_group_name_H-M "P 2 2 21"
_symmetry_group_IT_number 17
_symmetry_cell_setting 'orthorhombic'
loop_
_space_group_symop_operation_xyz
x,y,z
-x,-y,1/2+z
x,-y,-z
-x,y,1/2-z
loop_
_atom_site_type_symbol
_atom_site_label
_atom_site_fract_x
_atom_site_fract_y
_atom_site_fract_z
Si Si1 0.775961 0.445589 0.901688
Si Si2 0.615780 0.711433 0.440677
Si Si3 0.322515 0.688356 0.698551
Si Si4 0.052440 0.208076 0.657332
Si Si5 0.751947 0.008391 0.772720
Si Si6 0.822965 0.089977 0.587879
Si Si7 0.427859 0.384870 0.124012
Si Si8 0.575799 0.756216 0.173206
O O1 0.780753 0.587713 0.839713
O O2 0.891495 0.349699 0.888513
O O3 0.663577 0.355067 0.871884
O O4 0.763480 0.500000 0.000000
O O5 0.741476 0.766917 0.410644
O O6 0.610671 0.716294 0.544124
O O7 0.588287 0.552924 0.400908
O O8 0.513403 0.814100 0.401077
O O9 0.279803 0.853399 0.686171
O O10 0.439749 0.655483 0.645409
O O11 0.340169 0.654616 0.799358
O O12 0.000000 0.257056 0.750000
O O13 0.954607 0.147080 0.592671
O O14 0.145534 0.079055 0.670211
O O15 0.791873 0.992378 0.672354
O O16 0.637934 0.108227 0.780484
O O17 0.803122 0.000000 0.500000
O O18 0.500000 0.676151 0.250000
#
# Coordination Sequence:
#
# PCOD8155666 Si02
#       8
#     4   4   4   4   4   4   4   4
#     4  11  23  42  65  94 125 168 221 271 321 396
#     4  11  21  38  60  94 130 170 208 258 316 398
#     4  11  22  38  62  91 131 169 202 260 327 378
#     4   9  23  46  66  86 121 170 222 268 327 387
#     4  10  23  40  63  94 126 166 215 262 319 392
#     4  11  23  41  67  89 127 167 218 271 327 373
#     4  10  23  35  57  95 139 159 202 261 323 379
#     4  11  20  36  65  92 128 174 211 246 323 402
#
# _framework density 19.790993
#
# number of rings (size 3 to 8) (size 9 to 14) (size 15 to 20)
#    0.000    1.500    2.500    2.250    5.250    2.000 
#    2.250    7.500    0.000    0.000    0.000    0.000 
#    0.000    0.000    0.000    0.000    0.000    0.000 
#
# Total GULP energy -396790.346048 kJ/mol
# GULP energy per Si atom -12399.698314 kJ/mol
# Density = 1.974595 g / cm^3
# Si number density = 19.790993 Si / 1000 Ang^3
#
#
#
# Elastic Constant Matrix: (Units=GPa)
#
#
# Indices 1 2 3 4 5 6 
#
# 1 114.9110 60.2278 46.1231 0.0000 0.0000 0.0000
# 2 60.2278 120.2647 54.2783 0.0000 0.0000 0.0000
# 3 46.1231 54.2783 103.7793 0.0000 0.0000 0.0000
# 4 0.0000 0.0000 0.0000 28.2089 0.0000 0.0000
# 5 0.0000 0.0000 0.0000 0.0000 22.4492 0.0000
# 6 0.0000 0.0000 0.0000 0.0000 0.0000 25.7068
#
#
#
# Elastic Compliance Matrix: (Units=1/GPa)
#
#
# Indices 1 2 3 4 5 6 
#
# 1 0.012465 -0.004898 -0.002978 0.000000 0.000000 0.000000
# 2 -0.004898 0.012809 -0.004522 0.000000 0.000000 0.000000
# 3 -0.002978 -0.004522 0.013325 0.000000 0.000000 0.000000
# 4 0.000000 0.000000 0.000000 0.035450 0.000000 0.000000
# 5 0.000000 0.000000 0.000000 0.000000 0.044545 0.000000
# 6 0.000000 0.000000 0.000000 0.000000 0.000000 0.038900
#
#
# Mechanical properties :
#
#
# Convention : Reuss Voigt Hill
#
# Bulk Modulus (GPa) = 72.45670 73.35706 72.90688
# Shear Modulus (GPa) = 26.75346 27.16136 26.95741
#
# Velocity S-wave (km/s) = 3.68067 3.70862 3.69467
# Velocity P-wave (km/s) = 7.39956 7.44882 7.42423
#
# Compressibility (1/GPa) = 0.01380135
#
# Stress axis : x y z
#
# Youngs Moduli (GPa) = 80.22420 78.06924 75.04904
#
# Poissons Ratio (x) = 0.38241 0.22349
# Poissons Ratio (y) = 0.39297 0.33940
# Poissons Ratio (z) = 0.23890 0.35306
#
# Static dielectric constant tensor:
#      x y z
#    x 3.707630 0.000000 0.000000 
#    y 0.000000 3.545930 0.000000 
#    z 0.000000 0.000000 3.812210 
# 
# 
# High freq. dielectric constant tensor:
#      x y z
#    x 1.769370 0.000000 0.000000 
#    y 0.000000 1.760380 0.000000 
#    z 0.000000 0.000000 1.784600 
# 
# From -- ./inp_files/8568.got.cif
#   From: 2010.03.12/outbox.cif.g09.slc.cpg/sg17_5_cif.got.tgz:8568.got - 2010.04.10 18:46:23.
