data_PCOD8155746
_publ_section_title
;
Structure prediction by ZEFSAII (Michael W. Deem and Ramdas Pophale) SiO2 
 PCOD8155746
Probable space group: P 2 2 21
;
_chemical_formula_sum "Si O2"
_cell_formula_units_Z 12
_cell_length_a 12.575811
_cell_length_b 5.204863
_cell_length_c 7.622612
_cell_angle_alpha 90.000000
_cell_angle_beta 90.000000
_cell_angle_gamma 90.000000
_cell_volume 498.940915
_symmetry_space_group_name_H-M "P 2 2 21"
_symmetry_group_IT_number 17
_symmetry_cell_setting 'orthorhombic'
loop_
_space_group_symop_operation_xyz
x,y,z
-x,-y,1/2+z
x,-y,-z
-x,y,1/2-z
loop_
_atom_site_type_symbol
_atom_site_label
_atom_site_fract_x
_atom_site_fract_y
_atom_site_fract_z
Si Si1 0.500000 0.399074 0.250000
Si Si2 0.082738 0.739446 0.102083
Si Si3 0.317114 0.208360 0.843949
Si Si4 0.395466 0.000000 0.500000
O O1 0.594527 0.569923 0.330618
O O2 0.468768 0.227587 0.420490
O O3 0.202269 0.654544 0.154033
O O4 0.000000 0.809355 0.250000
O O5 0.031229 0.500000 0.000000
O O6 0.097336 0.000000 0.000000
O O7 0.318008 0.069442 0.657574
O O8 0.337658 0.000000 0.000000
#
# Coordination Sequence:
#
# PCOD8155746 Si02
#       4
#     2   4   4   2
#     4  12  30  52  72 116 162 206 264 312 392 472
#     4  11  27  51  83 114 154 201 258 326 392 467
#     4  11  30  50  78 113 157 206 260 324 388 463
#     4  12  30  44  78 112 156 216 250 324 382 466
#
# _framework density 24.050946
#
# number of rings (size 3 to 8) (size 9 to 14) (size 15 to 20)
#    0.000    0.667    0.000    3.000   25.667    2.667 
#    0.000    0.000    0.000    0.000    0.000    0.000 
#    0.000    0.000    0.000    0.000    0.000    0.000 
#
# Total GULP energy -148685.654686 kJ/mol
# GULP energy per Si atom -12390.471224 kJ/mol
# Density = 2.399620 g / cm^3
# Si number density = 24.050946 Si / 1000 Ang^3
#
#
#
# Elastic Constant Matrix: (Units=GPa)
#
#
# Indices 1 2 3 4 5 6 
#
# 1 164.2462 47.7748 52.1161 0.0000 0.0000 0.0000
# 2 47.7748 139.4550 50.4241 0.0000 0.0000 0.0000
# 3 52.1161 50.4241 171.9061 0.0000 0.0000 0.0000
# 4 0.0000 0.0000 0.0000 21.1947 0.0000 0.0000
# 5 0.0000 0.0000 0.0000 0.0000 64.9195 0.0000
# 6 0.0000 0.0000 0.0000 0.0000 0.0000 84.2445
#
#
#
# Elastic Compliance Matrix: (Units=1/GPa)
#
#
# Indices 1 2 3 4 5 6 
#
# 1 0.007144 -0.001862 -0.001620 0.000000 0.000000 0.000000
# 2 -0.001862 0.008507 -0.001931 0.000000 0.000000 0.000000
# 3 -0.001620 -0.001931 0.006875 0.000000 0.000000 0.000000
# 4 0.000000 0.000000 0.000000 0.047182 0.000000 0.000000
# 5 0.000000 0.000000 0.000000 0.000000 0.015404 0.000000
# 6 0.000000 0.000000 0.000000 0.000000 0.000000 0.011870
#
#
# Mechanical properties :
#
#
# Convention : Reuss Voigt Hill
#
# Bulk Modulus (GPa) = 85.46527 86.24860 85.85693
# Shear Modulus (GPa) = 44.76063 55.75789 50.25926
#
# Velocity S-wave (km/s) = 4.31870 4.82012 4.57628
# Velocity P-wave (km/s) = 7.77692 8.18027 7.98114
#
# Compressibility (1/GPa) = 0.01170066
#
# Stress axis : x y z
#
# Youngs Moduli (GPa) = 139.97988 117.55433 145.46473
#
# Poissons Ratio (x) = 0.21885 0.23561
# Poissons Ratio (y) = 0.26060 0.28086
# Poissons Ratio (z) = 0.22673 0.22697
#
# Static dielectric constant tensor:
#      x y z
#    x 4.892350 0.000000 0.000000 
#    y 0.000000 4.633830 0.000000 
#    z 0.000000 0.000000 4.625470 
# 
# 
# High freq. dielectric constant tensor:
#      x y z
#    x 1.955390 0.000000 0.000000 
#    y 0.000000 1.977110 0.000000 
#    z 0.000000 0.000000 1.974100 
# 
# From -- ./inp_files/4461.got.cif
#   From: 2010.03.12/outbox.cif.g09.slc.cpg/sg17_3_cif.got.tgz:4461.got - 2010.04.10 18:46:23.
