data_PCOD8155555
_publ_section_title
;
Structure prediction by ZEFSAII (Michael W. Deem and Ramdas Pophale) SiO2 
 PCOD8155555
Probable space group: P 2 2 21
;
_chemical_formula_sum "Si O2"
_cell_formula_units_Z 16
_cell_length_a 6.270063
_cell_length_b 14.436306
_cell_length_c 7.272172
_cell_angle_alpha 90.000000
_cell_angle_beta 90.000000
_cell_angle_gamma 90.000000
_cell_volume 658.251907
_symmetry_space_group_name_H-M "P 2 2 21"
_symmetry_group_IT_number 17
_symmetry_cell_setting 'orthorhombic'
loop_
_space_group_symop_operation_xyz
x,y,z
-x,-y,1/2+z
x,-y,-z
-x,y,1/2-z
loop_
_atom_site_type_symbol
_atom_site_label
_atom_site_fract_x
_atom_site_fract_y
_atom_site_fract_z
Si Si1 0.000000 0.853032 0.750000
Si Si2 0.000000 0.325594 0.750000
Si Si3 0.331669 0.237852 0.018102
Si Si4 0.500000 0.908672 0.250000
Si Si5 0.385155 0.603080 0.438134
Si Si6 0.822889 0.000000 0.000000
O O1 0.207742 0.789149 0.793747
O O2 0.034789 0.913259 0.565227
O O3 0.839248 0.263174 0.637406
O O4 0.868983 0.386174 0.902196
O O5 0.455275 0.150719 0.933124
O O6 0.501026 0.320235 0.069446
O O7 0.692295 0.974285 0.184623
O O8 0.438966 0.500000 0.500000
O O9 0.500000 0.623783 0.250000
#
# Coordination Sequence:
#
# PCOD8155555 Si02
#       6
#     2   2   4   2   4   2
#     4  12  26  43  71 106 142 180 250 286 366 418
#     4  10  20  43  67 100 132 196 226 294 342 418
#     4  11  23  43  70 101 140 191 228 297 349 427
#     4  12  22  46  70  96 146 182 238 292 370 404
#     4  10  23  43  69 100 143 183 234 286 354 414
#     4  12  26  44  70 104 136 188 236 304 346 432
#
# _framework density 24.306804
#
# number of rings (size 3 to 8) (size 9 to 14) (size 15 to 20)
#    0.000    1.000    3.750    4.500    0.000    6.000 
#    0.000    1.250    0.000    0.000    0.000    0.000 
#    0.000    0.000    0.000    0.000    0.000    0.000 
#
# Total GULP energy -198360.753455 kJ/mol
# GULP energy per Si atom -12397.547091 kJ/mol
# Density = 2.425148 g / cm^3
# Si number density = 24.306804 Si / 1000 Ang^3
#
#
#
# Elastic Constant Matrix: (Units=GPa)
#
#
# Indices 1 2 3 4 5 6 
#
# 1 112.4370 50.9100 24.5236 0.0000 0.0000 0.0000
# 2 50.9100 130.8116 30.4479 0.0000 0.0000 0.0000
# 3 24.5236 30.4479 70.0923 0.0000 0.0000 0.0000
# 4 0.0000 0.0000 0.0000 36.3210 0.0000 0.0000
# 5 0.0000 0.0000 0.0000 0.0000 53.1644 0.0000
# 6 0.0000 0.0000 0.0000 0.0000 0.0000 8.7206
#
#
#
# Elastic Compliance Matrix: (Units=1/GPa)
#
#
# Indices 1 2 3 4 5 6 
#
# 1 0.011102 -0.003801 -0.002233 0.000000 0.000000 0.000000
# 2 -0.003801 0.009806 -0.002930 0.000000 0.000000 0.000000
# 3 -0.002233 -0.002930 0.016321 0.000000 0.000000 0.000000
# 4 0.000000 0.000000 0.000000 0.027532 0.000000 0.000000
# 5 0.000000 0.000000 0.000000 0.000000 0.018810 0.000000
# 6 0.000000 0.000000 0.000000 0.000000 0.000000 0.114671
#
#
# Mechanical properties :
#
#
# Convention : Reuss Voigt Hill
#
# Bulk Modulus (GPa) = 51.81101 58.34488 55.07795
# Shear Modulus (GPa) = 22.46147 33.47181 27.96664
#
# Velocity S-wave (km/s) = 3.04317 3.71490 3.39568
# Velocity P-wave (km/s) = 5.80599 6.51584 6.17113
#
# Compressibility (1/GPa) = 0.01930092
#
# Stress axis : x y z
#
# Youngs Moduli (GPa) = 90.07414 101.98066 61.27103
#
# Poissons Ratio (x) = 0.38762 0.13683
# Poissons Ratio (y) = 0.34236 0.17951
# Poissons Ratio (z) = 0.20115 0.29878
#
# Static dielectric constant tensor:
#      x y z
#    x 5.600550 0.000000 0.000000 
#    y 0.000000 4.777020 0.000000 
#    z 0.000000 0.000000 4.587950 
# 
# 
# High freq. dielectric constant tensor:
#      x y z
#    x 1.976810 0.000000 0.000000 
#    y 0.000000 1.964760 0.000000 
#    z 0.000000 0.000000 1.955430 
# 
# From -- ./inp_files/3399.got.cif
#   From: 2010.03.12/outbox.cif.g09.slc.cpg/sg17_2_cif.got.tgz:3399.got - 2010.04.10 18:46:23.
