data_PCOD8155786
_publ_section_title
;
Structure prediction by ZEFSAII (Michael W. Deem and Ramdas Pophale) SiO2 
 PCOD8155786
Probable space group: P 21 21 2
;
_chemical_formula_sum "Si O2"
_cell_formula_units_Z 30
_cell_length_a 5.472905
_cell_length_b 16.151235
_cell_length_c 15.409398
_cell_angle_alpha 90.000000
_cell_angle_beta 90.000000
_cell_angle_gamma 90.000000
_cell_volume 1362.101020
_symmetry_space_group_name_H-M "P 21 21 2"
_symmetry_group_IT_number 18
_symmetry_cell_setting 'orthorhombic'
loop_
_space_group_symop_operation_xyz
x,y,z
-x,-y,z
1/2+x,1/2-y,-z
1/2-x,1/2+y,-z
loop_
_atom_site_type_symbol
_atom_site_label
_atom_site_fract_x
_atom_site_fract_y
_atom_site_fract_z
Si Si1 0.452913 0.352048 0.339342
Si Si2 0.029299 0.837058 0.319860
Si Si3 0.000000 0.500000 0.093019
Si Si4 0.967341 0.337916 0.620753
Si Si5 0.260342 0.844766 0.973240
Si Si6 0.429399 0.267126 0.862741
Si Si7 0.043999 0.662695 0.415829
Si Si8 0.378680 0.610542 0.160188
O O1 0.449367 0.252465 0.334721
O O2 0.202654 0.384919 0.384485
O O3 0.441441 0.390490 0.242559
O O4 0.702140 0.383038 0.388114
O O5 0.783766 0.885808 0.351217
O O6 0.047591 0.753652 0.375917
O O7 0.287360 0.883561 0.341916
O O8 0.993340 0.824263 0.217190
O O9 0.045398 0.419518 0.033454
O O10 0.233361 0.522885 0.153483
O O11 0.975402 0.329372 0.518265
O O12 0.340395 0.763087 0.919733
O O13 0.008283 0.875678 0.932019
O O14 0.241948 0.821349 0.074053
O O15 0.304219 0.186430 0.821730
#
# Coordination Sequence:
#
# PCOD8155786 Si02
#       8
#     4   4   2   4   4   4   4   4
#     4  10  18  28  49  72 108 151 197 224 286 354
#     4  10  18  28  44  75 108 155 184 237 284 358
#     4  10  26  40  58  80 118 168 206 252 322 378
#     4  10  17  28  45  71 117 157 184 225 296 360
#     4  11  22  39  58  85 113 161 203 259 316 378
#     4  11  21  33  58  84 114 153 210 252 311 367
#     4  10  17  28  44  75 111 159 184 227 289 363
#     4  11  21  39  55  82 115 160 201 257 303 378
#
# _framework density 22.024797
#
# number of rings (size 3 to 8) (size 9 to 14) (size 15 to 20)
#    0.000    1.600    4.000    6.000    1.867    0.000 
#    0.000    0.000    0.000    0.000    0.000    0.000 
#    0.000    1.067    2.667    0.000    0.000    0.000 
#
# Total GULP energy -371811.204091 kJ/mol
# GULP energy per Si atom -12393.706803 kJ/mol
# Density = 2.197467 g / cm^3
# Si number density = 22.024797 Si / 1000 Ang^3
#
#
#
# Elastic Constant Matrix: (Units=GPa)
#
#
# Indices 1 2 3 4 5 6 
#
# 1 170.8005 -0.0539 30.5445 0.0000 0.0000 0.0000
# 2 -0.0539 27.3277 8.2632 0.0000 0.0000 0.0000
# 3 30.5445 8.2632 119.1791 0.0000 0.0000 0.0000
# 4 0.0000 0.0000 0.0000 10.2548 0.0000 0.0000
# 5 0.0000 0.0000 0.0000 0.0000 36.5474 0.0000
# 6 0.0000 0.0000 0.0000 0.0000 0.0000 15.5363
#
#
#
# Elastic Compliance Matrix: (Units=1/GPa)
#
#
# Indices 1 2 3 4 5 6 
#
# 1 0.006143 0.000499 -0.001609 0.000000 0.000000 0.000000
# 2 0.000499 0.037417 -0.002722 0.000000 0.000000 0.000000
# 3 -0.001609 -0.002722 0.008992 0.000000 0.000000 0.000000
# 4 0.000000 0.000000 0.000000 0.097516 0.000000 0.000000
# 5 0.000000 0.000000 0.000000 0.000000 0.027362 0.000000
# 6 0.000000 0.000000 0.000000 0.000000 0.000000 0.064365
#
#
# Mechanical properties :
#
#
# Convention : Reuss Voigt Hill
#
# Bulk Modulus (GPa) = 22.27827 43.86832 33.07329
# Shear Modulus (GPa) = 18.90924 31.03793 24.97359
#
# Velocity S-wave (km/s) = 2.93327 3.75804 3.37097
# Velocity P-wave (km/s) = 4.64856 6.22828 5.49548
#
# Compressibility (1/GPa) = 0.04488678
#
# Stress axis : x y z
#
# Youngs Moduli (GPa) = 162.79594 26.72583 111.21239
#
# Poissons Ratio (x) = -0.01333 0.17893
# Poissons Ratio (y) = -0.08117 0.30273
# Poissons Ratio (z) = 0.26192 0.07275
#
# Static dielectric constant tensor:
#      x y z
#    x 5.309530 0.000000 0.000000 
#    y 0.000000 3.299560 0.000000 
#    z 0.000000 0.000000 3.848420 
# 
# 
# High freq. dielectric constant tensor:
#      x y z
#    x 1.898350 0.000000 0.000000 
#    y 0.000000 1.785730 0.000000 
#    z 0.000000 0.000000 1.865130 
# 
# From -- ./inp_files/6536.got.cif
#   From: 2010.03.12/outbox.cif.g09.slc.cpg/sg18_4_cif.got.tgz:6536.got - 2010.04.10 18:53:55.
