data_PCOD8155040
_publ_section_title
;
Structure prediction by ZEFSAII (Michael W. Deem and Ramdas Pophale) SiO2 
 PCOD8155040
Probable space group: C 2/C
;
_chemical_formula_sum "Si O2"
_cell_formula_units_Z 44
_cell_length_a 15.486146
_cell_length_b 12.402888
_cell_length_c 10.621652
_cell_angle_alpha 90.000000
_cell_angle_beta 79.388269
_cell_angle_gamma 90.000000
_cell_volume 2005.240850
_symmetry_space_group_name_H-M "C 2/C"
_symmetry_group_IT_number 15
_symmetry_cell_setting 'monoclinic'
loop_
_space_group_symop_operation_xyz
x,y,z
-x,y,1/2-z
-x,-y,-z
x,-y,1/2+z
1/2+x,1/2+y,z
1/2-x,1/2+y,1/2-z
1/2-x,1/2-y,-z
1/2+x,1/2-y,1/2+z
loop_
_atom_site_type_symbol
_atom_site_label
_atom_site_fract_x
_atom_site_fract_y
_atom_site_fract_z
Si Si1 0.907967 0.442056 0.029008
Si Si2 0.980176 0.210953 0.017305
Si Si3 0.836160 0.242028 0.394858
Si Si4 0.180372 0.475250 0.193389
Si Si5 0.500000 0.610740 0.750000
Si Si6 0.136316 0.054157 0.296083
O O1 0.852655 0.501123 0.155301
O O2 0.920323 0.315768 0.054940
O O3 0.863161 0.452946 0.904319
O O4 0.000000 0.500000 0.000000
O O5 0.993513 0.191180 0.867650
O O6 0.932478 0.107334 0.089388
O O7 0.075747 0.224451 0.050690
O O8 0.750000 0.250000 0.500000
O O9 0.846128 0.351724 0.316202
O O10 0.821934 0.143371 0.304969
O O11 0.284277 0.496183 0.152128
O O12 0.413427 0.537031 0.769549
#
# Coordination Sequence:
#
# PCOD8155040 Si02
#       6
#     8   8   8   8   4   8
#     4  12  27  48  77 109 155 195 257 313 386 453
#     4  12  27  49  78 109 149 205 252 312 385 458
#     4  12  25  48  75 107 150 200 248 305 386 455
#     4  12  28  46  77 112 146 200 251 317 377 453
#     4  12  28  44  78 110 152 194 258 310 380 450
#     4  12  27  49  76 110 153 196 252 315 381 455
#
# _framework density 21.942502000000001
#
# number of rings (size 3 to 8) (size 9 to 14) (size 15 to 20)
#    0.000    0.000    5.455    3.273    7.636    2.182 
#    0.000    0.000    0.000    0.000    0.000    0.000 
#    0.000    0.000    0.000    0.000    0.000    0.000 
#
# Total GULP energy -272899.855465 kJ/mol
# GULP energy per Si atom -12404.538885 kJ/mol
# Density = 2.189256 g / cm^3
# Si number density = 21.942502 Si / 1000 Ang^3
#
#
#
# Elastic Constant Matrix: (Units=GPa)
#
#
# Indices 1 2 3 4 5 6 
#
# 1 168.9505 36.6188 46.2565 0.0000 6.6473 0.0000
# 2 36.6188 63.9006 22.3751 0.0000 3.7424 0.0000
# 3 46.2565 22.3751 131.7020 0.0000 -5.5601 0.0000
# 4 0.0000 0.0000 0.0000 33.2943 0.0000 29.2514
# 5 6.6473 3.7424 -5.5601 0.0000 39.3570 0.0000
# 6 0.0000 0.0000 0.0000 29.2514 0.0000 -63.4979
#
#
#
# Elastic Compliance Matrix: (Units=1/GPa)
#
#
# Indices 1 2 3 4 5 6 
#
# 1 0.007252 -0.003378 -0.002023 0.000000 -0.001189 0.000000
# 2 -0.003378 0.018369 -0.001996 0.000000 -0.001458 0.000000
# 3 -0.002023 -0.001996 0.008717 0.000000 0.001763 0.000000
# 4 0.000000 0.000000 0.000000 0.021381 0.000000 0.009850
# 5 -0.001189 -0.001458 0.001763 0.000000 0.025997 0.000000
# 6 0.000000 0.000000 0.000000 0.009850 0.000000 -0.011211
#
#
# Mechanical properties :
#
#
# Convention : Reuss Voigt Hill
#
# Bulk Modulus (GPa) = 51.16643 63.89488 57.53066
# Shear Modulus (GPa) = 54.45792 19.11752 36.78772
#
# Velocity S-wave (km/s) = 4.98722 2.95491 4.09901
# Velocity P-wave (km/s) = 7.51879 6.38940 6.97698
#
# Compressibility (1/GPa) = 0.01954407
#
# Stress axis : x y z
#
# Youngs Moduli (GPa) = 137.89844 54.43909 114.71713
#
# Poissons Ratio (x) = 0.18387 0.23211
# Poissons Ratio (y) = 0.46575 0.22898
# Poissons Ratio (z) = 0.27902 0.10866
#
# Static dielectric constant tensor:
#      x y z
#    x 4.109690 0.000000 0.075680 
#    y 0.000000 2.139010 0.000000 
#    z 0.075680 0.000000 4.097030 
# 
# 
# High freq. dielectric constant tensor:
#      x y z
#    x 1.875130 0.000000 -0.000550 
#    y 0.000000 1.873710 0.000000 
#    z -0.000550 0.000000 1.875920 
# 
# From -- ./inp_files/94956.got.cif
#   From: 2010.06.25/outbox.cif.g09.slc.cpg/sg15_48_cif.got.tgz:94956.got - 2010.06.28 07:06:18.
