data_PCOD8155853
_publ_section_title
;
Structure prediction by ZEFSAII (Michael W. Deem and Ramdas Pophale) SiO2 
 PCOD8155853
Probable space group: P 21 21 2
;
_chemical_formula_sum "Si O2"
_cell_formula_units_Z 24
_cell_length_a 9.187297
_cell_length_b 13.748119
_cell_length_c 9.501295
_cell_angle_alpha 90.000000
_cell_angle_beta 90.000000
_cell_angle_gamma 90.000000
_cell_volume 1200.090067
_symmetry_space_group_name_H-M "P 21 21 2"
_symmetry_group_IT_number 18
_symmetry_cell_setting 'orthorhombic'
loop_
_space_group_symop_operation_xyz
x,y,z
-x,-y,z
1/2+x,1/2-y,-z
1/2-x,1/2+y,-z
loop_
_atom_site_type_symbol
_atom_site_label
_atom_site_fract_x
_atom_site_fract_y
_atom_site_fract_z
Si Si1 0.350153 0.448899 0.667970
Si Si2 0.753045 0.849999 0.069820
Si Si3 0.224475 0.643695 0.602888
Si Si4 0.148343 0.452224 0.920798
Si Si5 0.004042 0.287478 0.096755
Si Si6 0.983492 0.245467 0.413774
O O1 0.500000 0.500000 0.724807
O O2 0.265318 0.529997 0.573717
O O3 0.248570 0.410580 0.795810
O O4 0.386576 0.352928 0.579296
O O5 0.699233 0.845726 0.230948
O O6 0.918620 0.814808 0.061408
O O7 0.739993 0.959179 0.008247
O O8 0.649947 0.779752 0.979836
O O9 0.076716 0.675697 0.524691
O O10 0.352077 0.715256 0.547483
O O11 0.000000 0.500000 0.858146
O O12 0.107660 0.373931 0.039562
O O13 0.979762 0.298294 0.262637
#
# Coordination Sequence:
#
# PCOD8155853 Si02
#       6
#     4   4   4   4   4   4
#     4   9  18  35  57  79 106 145 186 221 268 332
#     4   9  19  35  53  78 108 141 180 222 270 335
#     4   9  20  36  55  78 107 144 185 220 268 331
#     4   9  18  32  52  78 107 136 176 221 269 329
#     4  10  19  33  56  82 107 138 179 229 277 319
#     4  10  20  35  55  81 109 140 182 231 270 316
#
# _framework density 19.9985
#
# number of rings (size 3 to 8) (size 9 to 14) (size 15 to 20)
#    0.000    2.667    0.000    2.000    0.000    5.333 
#    0.000   10.000    0.000    4.000    0.000    3.500 
#    0.000    0.000    0.000    0.000    0.000    0.000 
#
# Total GULP energy -297405.038943 kJ/mol
# GULP energy per Si atom -12391.876623 kJ/mol
# Density = 1.995298 g / cm^3
# Si number density = 19.998500 Si / 1000 Ang^3
#
#
#
# Elastic Constant Matrix: (Units=GPa)
#
#
# Indices 1 2 3 4 5 6 
#
# 1 21.4676 4.0158 8.5423 0.0000 0.0000 0.0000
# 2 4.0158 67.8535 24.2240 0.0000 0.0000 0.0000
# 3 8.5423 24.2240 45.5696 0.0000 0.0000 0.0000
# 4 0.0000 0.0000 0.0000 26.3248 0.0000 0.0000
# 5 0.0000 0.0000 0.0000 0.0000 38.4402 0.0000
# 6 0.0000 0.0000 0.0000 0.0000 0.0000 40.2990
#
#
#
# Elastic Compliance Matrix: (Units=1/GPa)
#
#
# Indices 1 2 3 4 5 6 
#
# 1 0.050349 0.000481 -0.009694 0.000000 0.000000 0.000000
# 2 0.000481 0.018194 -0.009762 0.000000 0.000000 0.000000
# 3 -0.009694 -0.009762 0.028951 0.000000 0.000000 0.000000
# 4 0.000000 0.000000 0.000000 0.037987 0.000000 0.000000
# 5 0.000000 0.000000 0.000000 0.000000 0.026014 0.000000
# 6 0.000000 0.000000 0.000000 0.000000 0.000000 0.024815
#
#
# Mechanical properties :
#
#
# Convention : Reuss Voigt Hill
#
# Bulk Modulus (GPa) = 16.79415 23.16167 19.97791
# Shear Modulus (GPa) = 20.48272 27.55337 24.01805
#
# Velocity S-wave (km/s) = 3.20380 3.71586 3.46929
# Velocity P-wave (km/s) = 4.70125 5.47878 5.10484
#
# Compressibility (1/GPa) = 0.05954455
#
# Stress axis : x y z
#
# Youngs Moduli (GPa) = 19.86128 54.96257 34.54126
#
# Poissons Ratio (x) = -0.02643 0.33484
# Poissons Ratio (y) = -0.00955 0.33719
# Poissons Ratio (z) = 0.19253 0.53654
#
# Static dielectric constant tensor:
#      x y z
#    x 3.841000 0.000000 0.000000 
#    y 0.000000 3.931380 0.000000 
#    z 0.000000 0.000000 3.217130 
# 
# 
# High freq. dielectric constant tensor:
#      x y z
#    x 1.791550 0.000000 0.000000 
#    y 0.000000 1.786100 0.000000 
#    z 0.000000 0.000000 1.737310 
# 
# From -- ./inp_files/3136.got.cif
#   From: 2010.03.12/outbox.cif.g09.slc.cpg/sg18_2_cif.got.tgz:3136.got - 2010.04.10 18:53:55.
