data_PCOD8155343
_publ_section_title
;
Structure prediction by ZEFSAII (Michael W. Deem and Ramdas Pophale) SiO2 
 PCOD8155343
Probable space group: P 2 2 2
;
_chemical_formula_sum "Si O2"
_cell_formula_units_Z 19
_cell_length_a 8.949198
_cell_length_b 10.341810
_cell_length_c 9.780360
_cell_angle_alpha 90.000000
_cell_angle_beta 90.000000
_cell_angle_gamma 90.000000
_cell_volume 905.181173
_symmetry_space_group_name_H-M "P 2 2 2"
_symmetry_group_IT_number 16
_symmetry_cell_setting 'orthorhombic'
loop_
_space_group_symop_operation_xyz
x,y,z
-x,-y,z
x,-y,-z
-x,y,-z
loop_
_atom_site_type_symbol
_atom_site_label
_atom_site_fract_x
_atom_site_fract_y
_atom_site_fract_z
Si Si1 0.360592 0.143163 0.739627
Si Si2 0.276697 0.000000 0.000000
Si Si3 0.032524 0.150774 0.655761
Si Si4 0.443106 0.640710 0.853914
Si Si5 0.500000 0.000000 0.500000
Si Si6 0.872061 0.258500 0.899052
O O1 0.374367 0.041605 0.866782
O O2 0.192646 0.193333 0.717703
O O3 0.484230 0.256155 0.751011
O O4 0.388934 0.078434 0.594850
O O5 0.175837 0.876699 0.966532
O O6 0.000000 0.190704 0.500000
O O7 0.921430 0.235488 0.744749
O O8 0.000000 0.000000 0.679527
O O9 0.500000 0.500000 0.809164
O O10 0.264341 0.642739 0.872727
O O11 0.500000 0.684438 0.000000
O O12 0.000000 0.318222 0.000000
#
# Coordination Sequence:
#
# PCOD8155343 Si02
#       6
#     4   2   4   4   1   4
#     4  12  25  42  66 101 141 180 226 283 352 415
#     4  12  21  39  68 106 132 172 218 284 354 412
#     4  11  22  37  61  98 141 174 212 280 353 425
#     4  11  25  45  68  97 134 182 241 284 329 398
#     4  12  28  38  68 108 140 178 222 270 372 422
#     4  12  21  40  67 100 134 172 222 282 348 412
#
# _framework density 20.990273999999999
#
# number of rings (size 3 to 8) (size 9 to 14) (size 15 to 20)
#    0.000    0.421    6.316    2.842    2.947    0.842 
#    0.000    7.895    0.000    1.263    0.000    0.000 
#    0.000    0.000    0.000    0.000    0.000    0.000 
#
# Total GULP energy -235480.731969 kJ/mol
# GULP energy per Si atom -12393.722735 kJ/mol
# Density = 2.094250 g / cm^3
# Si number density = 20.990274 Si / 1000 Ang^3
#
#
#
# Elastic Constant Matrix: (Units=GPa)
#
#
# Indices 1 2 3 4 5 6 
#
# 1 154.1628 53.1699 49.3009 0.0000 0.0000 0.0000
# 2 53.1699 81.5859 37.1977 0.0000 0.0000 0.0000
# 3 49.3009 37.1977 159.8219 0.0000 0.0000 0.0000
# 4 0.0000 0.0000 0.0000 8.9789 0.0000 0.0000
# 5 0.0000 0.0000 0.0000 0.0000 41.8380 0.0000
# 6 0.0000 0.0000 0.0000 0.0000 0.0000 27.4579
#
#
#
# Elastic Compliance Matrix: (Units=1/GPa)
#
#
# Indices 1 2 3 4 5 6 
#
# 1 0.008687 -0.004967 -0.001524 0.000000 0.000000 0.000000
# 2 -0.004967 0.016552 -0.002320 0.000000 0.000000 0.000000
# 3 -0.001524 -0.002320 0.007267 0.000000 0.000000 0.000000
# 4 0.000000 0.000000 0.000000 0.111372 0.000000 0.000000
# 5 0.000000 0.000000 0.000000 0.000000 0.023902 0.000000
# 6 0.000000 0.000000 0.000000 0.000000 0.000000 0.036419
#
#
# Mechanical properties :
#
#
# Convention : Reuss Voigt Hill
#
# Bulk Modulus (GPa) = 67.18423 74.98973 71.08698
# Shear Modulus (GPa) = 22.04767 32.71510 27.38138
#
# Velocity S-wave (km/s) = 3.24447 3.95217 3.61568
# Velocity P-wave (km/s) = 6.79060 7.52527 7.16735
#
# Compressibility (1/GPa) = 0.01488444
#
# Stress axis : x y z
#
# Youngs Moduli (GPa) = 115.11618 60.41699 137.60796
#
# Poissons Ratio (x) = 0.30006 0.20968
# Poissons Ratio (y) = 0.57173 0.31928
# Poissons Ratio (z) = 0.17541 0.14018
#
# Static dielectric constant tensor:
#      x y z
#    x 4.235420 0.000000 0.000000 
#    y 0.000000 3.354370 0.000000 
#    z 0.000000 0.000000 3.904370 
# 
# 
# High freq. dielectric constant tensor:
#      x y z
#    x 1.846220 0.000000 0.000000 
#    y 0.000000 1.776700 0.000000 
#    z 0.000000 0.000000 1.831370 
# 
# From -- ./inp_files/3828.got.cif
#   From: 2010.03.12/outbox.cif.g09.slc.cpg/sg16_2_cif.got.tgz:3828.got - 2010.03.31 00:51:45.
