data_PCOD8155931
_publ_section_title
;
Structure prediction by ZEFSAII (Michael W. Deem and Ramdas Pophale) SiO2 
 PCOD8155931
Probable space group: P 21 21 2
;
_chemical_formula_sum "Si O2"
_cell_formula_units_Z 28
_cell_length_a 19.615586
_cell_length_b 6.885038
_cell_length_c 11.151232
_cell_angle_alpha 90.000000
_cell_angle_beta 90.000000
_cell_angle_gamma 90.000000
_cell_volume 1506.019100
_symmetry_space_group_name_H-M "P 21 21 2"
_symmetry_group_IT_number 18
_symmetry_cell_setting 'orthorhombic'
loop_
_space_group_symop_operation_xyz
x,y,z
-x,-y,z
1/2+x,1/2-y,-z
1/2-x,1/2+y,-z
loop_
_atom_site_type_symbol
_atom_site_label
_atom_site_fract_x
_atom_site_fract_y
_atom_site_fract_z
Si Si1 0.845006 0.903599 0.726159
Si Si2 0.316604 0.716609 0.012739
Si Si3 0.275171 0.356629 0.648430
Si Si4 0.816828 0.297182 0.601830
Si Si5 0.921692 0.454190 0.969815
Si Si6 0.171002 0.835723 0.096035
Si Si7 0.073267 0.448040 0.695553
O O1 0.840224 0.128286 0.692494
O O2 0.834888 0.896758 0.866959
O O3 0.789770 0.781362 0.653818
O O4 0.916185 0.786926 0.700394
O O5 0.366590 0.892825 0.982076
O O6 0.237678 0.777215 0.018672
O O7 0.331823 0.568310 0.906262
O O8 0.251781 0.585479 0.643707
O O9 0.313977 0.300883 0.527763
O O10 0.322571 0.297842 0.761494
O O11 0.875652 0.457493 0.600432
O O12 0.915696 0.450119 0.825781
O O13 0.000000 0.500000 0.007815
O O14 0.896982 0.256460 0.035781
O O15 0.000000 0.500000 0.644835
#
# Coordination Sequence:
#
# PCOD8155931 Si02
#       7
#     4   4   4   4   4   4   4
#     4   9  19  33  55  80 109 143 180 224 292 328
#     4  10  20  33  57  86 111 146 185 234 282 339
#     4  10  22  33  53  82 110 143 190 230 287 336
#     4  11  19  36  55  78 113 145 184 244 278 337
#     4  10  21  39  58  85 121 152 187 235 290 350
#     4  11  21  34  55  87 115 149 188 233 287 346
#     4   9  20  36  57  85 111 144 192 235 280 342
#
# _framework density 18.592063
#
# number of rings (size 3 to 8) (size 9 to 14) (size 15 to 20)
#    0.000    2.000    2.857    1.714    2.000    1.143 
#    0.000    5.000    0.000    1.714    0.000    0.000 
#    0.000    0.000    0.000    0.000    0.000    0.000 
#
# Total GULP energy -346902.553488 kJ/mol
# GULP energy per Si atom -12389.376910 kJ/mol
# Density = 1.854975 g / cm^3
# Si number density = 18.592063 Si / 1000 Ang^3
#
#
#
# Elastic Constant Matrix: (Units=GPa)
#
#
# Indices 1 2 3 4 5 6 
#
# 1 87.8079 20.7916 22.0696 0.0000 0.0000 0.0000
# 2 20.7916 83.0791 15.1494 0.0000 0.0000 0.0000
# 3 22.0696 15.1494 36.0987 0.0000 0.0000 0.0000
# 4 0.0000 0.0000 0.0000 29.3522 0.0000 0.0000
# 5 0.0000 0.0000 0.0000 0.0000 18.7759 0.0000
# 6 0.0000 0.0000 0.0000 0.0000 0.0000 30.5088
#
#
#
# Elastic Compliance Matrix: (Units=1/GPa)
#
#
# Indices 1 2 3 4 5 6 
#
# 1 0.013777 -0.002070 -0.007554 0.000000 0.000000 0.000000
# 2 -0.002070 0.013345 -0.004335 0.000000 0.000000 0.000000
# 3 -0.007554 -0.004335 0.034139 0.000000 0.000000 0.000000
# 4 0.000000 0.000000 0.000000 0.034069 0.000000 0.000000
# 5 0.000000 0.000000 0.000000 0.000000 0.053260 0.000000
# 6 0.000000 0.000000 0.000000 0.000000 0.000000 0.032777
#
#
# Mechanical properties :
#
#
# Convention : Reuss Voigt Hill
#
# Bulk Modulus (GPa) = 29.99103 35.88964 32.94033
# Shear Modulus (GPa) = 22.68589 25.65908 24.17248
#
# Velocity S-wave (km/s) = 3.49691 3.71901 3.60967
# Velocity P-wave (km/s) = 5.69830 6.14712 5.92696
#
# Compressibility (1/GPa) = 0.03334330
#
# Stress axis : x y z
#
# Youngs Moduli (GPa) = 72.58252 74.93263 29.29172
#
# Poissons Ratio (x) = 0.15515 0.22127
# Poissons Ratio (y) = 0.15028 0.12697
# Poissons Ratio (z) = 0.54830 0.32481
#
# Static dielectric constant tensor:
#      x y z
#    x 3.346740 0.000000 0.000000 
#    y 0.000000 3.550570 0.000000 
#    z 0.000000 0.000000 3.179110 
# 
# 
# High freq. dielectric constant tensor:
#      x y z
#    x 1.698070 0.000000 0.000000 
#    y 0.000000 1.732510 0.000000 
#    z 0.000000 0.000000 1.702210 
# 
# From -- ./inp_files/5213.got.cif
#   From: 2010.03.12/outbox.cif.g09.slc.cpg/sg18_3_cif.got.tgz:5213.got - 2010.04.10 18:53:55.
