data_PCOD8155748
_publ_section_title
;
Structure prediction by ZEFSAII (Michael W. Deem and Ramdas Pophale) SiO2 
 PCOD8155748
Probable space group: P 2 2 21
;
_chemical_formula_sum "Si O2"
_cell_formula_units_Z 16
_cell_length_a 8.647737
_cell_length_b 4.997412
_cell_length_c 16.952370
_cell_angle_alpha 90.000000
_cell_angle_beta 90.000000
_cell_angle_gamma 90.000000
_cell_volume 732.618787
_symmetry_space_group_name_H-M "P 2 2 21"
_symmetry_group_IT_number 17
_symmetry_cell_setting 'orthorhombic'
loop_
_space_group_symop_operation_xyz
x,y,z
-x,-y,1/2+z
x,-y,-z
-x,y,1/2-z
loop_
_atom_site_type_symbol
_atom_site_label
_atom_site_fract_x
_atom_site_fract_y
_atom_site_fract_z
Si Si1 0.919551 0.992348 0.822894
Si Si2 0.298725 0.254491 0.446691
Si Si3 0.577555 0.269306 0.334369
Si Si4 0.773948 0.771132 0.317123
O O1 0.792649 0.184474 0.778695
O O2 0.000000 0.819961 0.750000
O O3 0.059453 0.172191 0.859804
O O4 0.841067 0.804406 0.886587
O O5 0.242670 0.500000 0.500000
O O6 0.453862 0.336617 0.401551
O O7 0.332923 0.000000 0.500000
O O8 0.500000 0.300362 0.250000
O O9 0.720569 0.474647 0.338978
O O10 0.642934 0.973539 0.348691
#
# Coordination Sequence:
#
# PCOD8155748 Si02
#       4
#     4   4   4   4
#     4   8  21  45  68 106 127 182 238 279 332 417
#     4  12  27  43  66 105 147 176 220 296 364 400
#     4  12  21  41  68 101 130 183 228 278 332 414
#     4   9  22  37  72  96 129 164 247 275 312 394
#
# _framework density 21.839464
#
# number of rings (size 3 to 8) (size 9 to 14) (size 15 to 20)
#    1.500    0.000    2.500    2.250    3.500    6.000 
#    0.000    5.000    0.000    0.000    0.000    0.000 
#    0.000    0.000    0.000    0.000    0.000    0.000 
#
# Total GULP energy -198258.677394 kJ/mol
# GULP energy per Si atom -12391.167337 kJ/mol
# Density = 2.178976 g / cm^3
# Si number density = 21.839464 Si / 1000 Ang^3
#
#
#
# Elastic Constant Matrix: (Units=GPa)
#
#
# Indices 1 2 3 4 5 6 
#
# 1 114.9442 30.0785 45.7188 0.0000 0.0000 0.0000
# 2 30.0785 91.7616 34.8896 0.0000 0.0000 0.0000
# 3 45.7188 34.8896 104.9635 0.0000 0.0000 0.0000
# 4 0.0000 0.0000 0.0000 21.4185 0.0000 0.0000
# 5 0.0000 0.0000 0.0000 0.0000 162.2139 0.0000
# 6 0.0000 0.0000 0.0000 0.0000 0.0000 18.3517
#
#
#
# Elastic Compliance Matrix: (Units=1/GPa)
#
#
# Indices 1 2 3 4 5 6 
#
# 1 0.010838 -0.002012 -0.004052 0.000000 0.000000 0.000000
# 2 -0.002012 0.012848 -0.003394 0.000000 0.000000 0.000000
# 3 -0.004052 -0.003394 0.012420 0.000000 0.000000 0.000000
# 4 0.000000 0.000000 0.000000 0.046689 0.000000 0.000000
# 5 0.000000 0.000000 0.000000 0.000000 0.006165 0.000000
# 6 0.000000 0.000000 0.000000 0.000000 0.000000 0.054491
#
#
# Mechanical properties :
#
#
# Convention : Reuss Voigt Hill
#
# Bulk Modulus (GPa) = 58.17384 59.22699 58.70042
# Shear Modulus (GPa) = 29.74483 53.79565 41.77024
#
# Velocity S-wave (km/s) = 3.69450 4.96848 4.37808
# Velocity P-wave (km/s) = 6.70030 7.75194 7.24522
#
# Compressibility (1/GPa) = 0.01718986
#
# Stress axis : x y z
#
# Youngs Moduli (GPa) = 92.26792 77.83394 80.51369
#
# Poissons Ratio (x) = 0.15660 0.32624
# Poissons Ratio (y) = 0.18564 0.27328
# Poissons Ratio (z) = 0.37386 0.26419
#
# Static dielectric constant tensor:
#      x y z
#    x 4.047180 0.000000 0.000000 
#    y 0.000000 3.443240 0.000000 
#    z 0.000000 0.000000 3.734200 
# 
# 
# High freq. dielectric constant tensor:
#      x y z
#    x 1.873980 0.000000 0.000000 
#    y 0.000000 1.847720 0.000000 
#    z 0.000000 0.000000 1.825900 
# 
# From -- ./inp_files/9175.got.cif
#   From: 2010.03.12/outbox.cif.g09.slc.cpg/sg17_5_cif.got.tgz:9175.got - 2010.04.10 18:46:23.
