data_PCOD8155083
_publ_section_title
;
Structure prediction by ZEFSAII (Michael W. Deem and Ramdas Pophale) SiO2 
 PCOD8155083
Probable space group: C 2/C
;
_chemical_formula_sum "Si O2"
_cell_formula_units_Z 28
_cell_length_a 25.439142
_cell_length_b 9.256658
_cell_length_c 11.742467
_cell_angle_alpha 90.000000
_cell_angle_beta 26.795894
_cell_angle_gamma 90.000000
_cell_volume 1246.559493
_symmetry_space_group_name_H-M "C 2/C"
_symmetry_group_IT_number 15
_symmetry_cell_setting 'monoclinic'
loop_
_space_group_symop_operation_xyz
x,y,z
-x,y,1/2-z
-x,-y,-z
x,-y,1/2+z
1/2+x,1/2+y,z
1/2-x,1/2+y,1/2-z
1/2-x,1/2-y,-z
1/2+x,1/2-y,1/2+z
loop_
_atom_site_type_symbol
_atom_site_label
_atom_site_fract_x
_atom_site_fract_y
_atom_site_fract_z
Si Si1 0.877912 0.700667 0.434289
Si Si2 0.295410 0.507761 0.607511
Si Si3 0.000000 0.211037 0.250000
Si Si4 0.097841 0.607709 0.352563
O O1 0.783136 0.577017 0.641541
O O2 0.842931 0.852795 0.559089
O O3 0.881204 0.720013 0.291102
O O4 0.000000 0.646978 0.250000
O O5 0.404478 0.612116 0.370243
O O6 0.215301 0.484046 0.650600
O O7 0.937773 0.308146 0.464863
O O8 0.000000 0.500000 0.500000
#
# Coordination Sequence:
#
# PCOD8155083 Si02
#       4
#     8   8   4   8
#     4  12  26  48  73 108 146 191 242 297 359 429
#     4  12  26  46  74 106 147 188 240 294 361 430
#     4  12  28  46  74 110 144 192 242 294 364 432
#     4  12  26  47  75 107 149 189 240 301 361 426
#
# _framework density 22.461822999999999
#
# number of rings (size 3 to 8) (size 9 to 14) (size 15 to 20)
#    0.000    0.000    7.143    2.571    0.000    4.571 
#    0.000    0.000    0.000    0.000    0.000    0.000 
#    0.000    0.000    0.000    0.000    0.000    0.000 
#
# Total GULP energy -173624.978676 kJ/mol
# GULP energy per Si atom -12401.784191 kJ/mol
# Density = 2.241070 g / cm^3
# Si number density = 22.461823 Si / 1000 Ang^3
#
#
#
# Elastic Constant Matrix: (Units=GPa)
#
#
# Indices 1 2 3 4 5 6 
#
# 1 139.4833 46.1561 52.3746 0.0000 -17.3614 0.0000
# 2 46.1561 135.4433 58.3789 0.0000 -0.9595 0.0000
# 3 52.3746 58.3789 95.8581 0.0000 -12.9271 0.0000
# 4 0.0000 0.0000 0.0000 31.2814 0.0000 -10.0682
# 5 -17.3614 -0.9595 -12.9271 0.0000 56.2813 0.0000
# 6 0.0000 0.0000 0.0000 -10.0682 0.0000 36.2016
#
#
#
# Elastic Compliance Matrix: (Units=1/GPa)
#
#
# Indices 1 2 3 4 5 6 
#
# 1 0.009392 -0.001476 -0.003968 0.000000 0.001961 0.000000
# 2 -0.001476 0.010332 -0.005700 0.000000 -0.001588 0.000000
# 3 -0.003968 -0.005700 0.016401 0.000000 0.002446 0.000000
# 4 0.000000 0.000000 0.000000 0.035111 0.000000 0.009765
# 5 0.001961 -0.001588 0.002446 0.000000 0.018907 0.000000
# 6 0.000000 0.000000 0.000000 0.009765 0.000000 0.030339
#
#
# Mechanical properties :
#
#
# Convention : Reuss Voigt Hill
#
# Bulk Modulus (GPa) = 72.27199 76.06711 74.16955
# Shear Modulus (GPa) = 33.92543 39.01120 36.46832
#
# Velocity S-wave (km/s) = 3.89055 4.17199 4.03372
# Velocity P-wave (km/s) = 7.24066 7.55949 7.40179
#
# Compressibility (1/GPa) = 0.01383662
#
# Stress axis : x y z
#
# Youngs Moduli (GPa) = 106.47572 96.78920 60.97137
#
# Poissons Ratio (x) = 0.14290 0.24193
# Poissons Ratio (y) = 0.15720 0.34752
# Poissons Ratio (z) = 0.42249 0.55167
#
# Static dielectric constant tensor:
#      x y z
#    x 4.336320 0.000000 -0.210270 
#    y 0.000000 4.144010 0.000000 
#    z -0.210270 0.000000 4.342790 
# 
# 
# High freq. dielectric constant tensor:
#      x y z
#    x 1.885470 0.000000 -0.028220 
#    y 0.000000 1.893590 0.000000 
#    z -0.028220 0.000000 1.893780 
# 
# From -- ./inp_files/93098.got.cif
#   From: 2010.06.25/outbox.cif.g09.slc.cpg/sg15_47_cif.got.tgz:93098.got - 2010.06.28 07:06:18.
