data_PCOD8155147
_publ_section_title
;
Structure prediction by ZEFSAII (Michael W. Deem and Ramdas Pophale) SiO2 
 PCOD8155147
Probable space group: C 2/C
;
_chemical_formula_sum "Si O2"
_cell_formula_units_Z 32
_cell_length_a 6.506908
_cell_length_b 22.168989
_cell_length_c 8.672667
_cell_angle_alpha 90.000000
_cell_angle_beta 74.616388
_cell_angle_gamma 90.000000
_cell_volume 1206.222526
_symmetry_space_group_name_H-M "C 2/C"
_symmetry_group_IT_number 15
_symmetry_cell_setting 'monoclinic'
loop_
_space_group_symop_operation_xyz
x,y,z
-x,y,1/2-z
-x,-y,-z
x,-y,1/2+z
1/2+x,1/2+y,z
1/2-x,1/2+y,1/2-z
1/2-x,1/2-y,-z
1/2+x,1/2-y,1/2+z
loop_
_atom_site_type_symbol
_atom_site_label
_atom_site_fract_x
_atom_site_fract_y
_atom_site_fract_z
Si Si1 0.402331 0.304046 0.428022
Si Si2 0.381089 0.918956 0.996357
Si Si3 0.350338 0.385194 0.923973
Si Si4 0.207586 0.984027 0.308179
O O1 0.500000 0.282528 0.250000
O O2 0.250000 0.250000 0.500000
O O3 0.278186 0.365993 0.429146
O O4 0.587608 0.319390 0.517030
O O5 0.391206 0.961284 0.149012
O O6 0.875030 0.936484 0.050156
O O7 0.297841 0.954959 0.864873
O O8 0.500000 0.398243 0.750000
O O9 0.107088 0.387648 0.915491
O O10 0.000000 0.001281 0.250000
#
# Coordination Sequence:
#
# PCOD8155147 Si02
#       4
#     8   8   8   8
#     4  12  30  58  87 121 172 231 298 354 425 511
#     4  12  28  55  84 126 180 224 283 359 437 520
#     4  12  29  53  82 124 169 229 286 350 431 512
#     4  12  26  53  86 127 176 226 277 355 446 523
#
# _framework density 26.5291
#
# number of rings (size 3 to 8) (size 9 to 14) (size 15 to 20)
#    0.000    0.000    5.000    2.250    7.000    2.000 
#    4.500    1.250    0.000    0.000    0.000    0.000 
#    0.000    0.000    0.000    0.000    0.000    0.000 
#
# Total GULP energy -198423.599862 kJ/mol
# GULP energy per Si atom -12401.474991 kJ/mol
# Density = 2.646872 g / cm^3
# Si number density = 26.529100 Si / 1000 Ang^3
#
#
#
# Elastic Constant Matrix: (Units=GPa)
#
#
# Indices 1 2 3 4 5 6 
#
# 1 169.9346 45.4112 63.6994 0.0000 -20.2460 0.0000
# 2 45.4112 130.9099 45.7675 0.0000 -0.6199 0.0000
# 3 63.6994 45.7675 169.7106 0.0000 -34.0739 0.0000
# 4 0.0000 0.0000 0.0000 19.0667 0.0000 -1.0897
# 5 -20.2460 -0.6199 -34.0739 0.0000 59.2153 0.0000
# 6 0.0000 0.0000 0.0000 -1.0897 0.0000 61.2805
#
#
#
# Elastic Compliance Matrix: (Units=1/GPa)
#
#
# Indices 1 2 3 4 5 6 
#
# 1 0.007270 -0.001827 -0.001968 0.000000 0.001334 0.000000
# 2 -0.001827 0.008994 -0.002087 0.000000 -0.001732 0.000000
# 3 -0.001968 -0.002087 0.007976 0.000000 0.003895 0.000000
# 4 0.000000 0.000000 0.000000 0.052501 0.000000 0.000934
# 5 0.001334 -0.001732 0.003895 0.000000 0.019567 0.000000
# 6 0.000000 0.000000 0.000000 0.000934 0.000000 0.016335
#
#
# Mechanical properties :
#
#
# Convention : Reuss Voigt Hill
#
# Bulk Modulus (GPa) = 80.16416 86.70126 83.43271
# Shear Modulus (GPa) = 38.89058 48.95763 43.92410
#
# Velocity S-wave (km/s) = 3.83294 4.30051 4.07344
# Velocity P-wave (km/s) = 7.06198 7.57705 7.32405
#
# Compressibility (1/GPa) = 0.01247440
#
# Stress axis : x y z
#
# Youngs Moduli (GPa) = 137.56014 111.18130 125.37697
#
# Poissons Ratio (x) = 0.20317 0.24673
# Poissons Ratio (y) = 0.25138 0.26171
# Poissons Ratio (z) = 0.27071 0.23208
#
# Static dielectric constant tensor:
#      x y z
#    x 6.017620 0.000000 0.332210 
#    y 0.000000 4.909590 0.000000 
#    z 0.332210 0.000000 5.739020 
# 
# 
# High freq. dielectric constant tensor:
#      x y z
#    x 2.099800 0.000000 -0.005350 
#    y 0.000000 2.044670 0.000000 
#    z -0.005350 0.000000 2.093850 
# 
# From -- ./inp_files/22866.got.cif
#   From: 2010.06.25/outbox.cif.g09.slc.cpg/sg15_12_cif.got.tgz:22866.got - 2010.06.28 07:06:18.
