data_PCOD8155564
_publ_section_title
;
Structure prediction by ZEFSAII (Michael W. Deem and Ramdas Pophale) SiO2 
 PCOD8155564
Probable space group: P 2 2 21
;
_chemical_formula_sum "Si O2"
_cell_formula_units_Z 26
_cell_length_a 6.596779
_cell_length_b 8.616540
_cell_length_c 24.892298
_cell_angle_alpha 90.000000
_cell_angle_beta 90.000000
_cell_angle_gamma 90.000000
_cell_volume 1414.913320
_symmetry_space_group_name_H-M "P 2 2 21"
_symmetry_group_IT_number 17
_symmetry_cell_setting 'orthorhombic'
loop_
_space_group_symop_operation_xyz
x,y,z
-x,-y,1/2+z
x,-y,-z
-x,y,1/2-z
loop_
_atom_site_type_symbol
_atom_site_label
_atom_site_fract_x
_atom_site_fract_y
_atom_site_fract_z
Si Si1 0.595115 0.817316 0.005173
Si Si2 0.589277 0.614054 0.903919
Si Si3 0.000000 0.969024 0.750000
Si Si4 0.377811 0.117701 0.801695
Si Si5 0.377479 0.182669 0.301473
Si Si6 0.670599 0.677139 0.403598
Si Si7 0.926729 0.399317 0.951673
O O1 0.421202 0.775150 0.047474
O O2 0.806636 0.746928 0.024736
O O3 0.539179 0.746216 0.947350
O O4 0.617984 0.000000 0.000000
O O5 0.630099 0.686909 0.846218
O O6 0.397941 0.500808 0.902240
O O7 0.783245 0.512562 0.918413
O O8 0.854278 0.862046 0.786788
O O9 0.855196 0.076104 0.712869
O O10 0.500000 0.183053 0.750000
O O11 0.383498 0.246512 0.847119
O O12 0.498341 0.966574 0.822986
O O13 0.500000 0.248701 0.250000
O O14 0.910565 0.673137 0.411688
O O15 0.026402 0.500000 0.000000
#
# Coordination Sequence:
#
# PCOD8155564 Si02
#       7
#     4   4   2   4   4   4   4
#     4  10  21  37  57  80 106 139 178 223 267 311
#     4  10  21  36  54  79 112 140 172 220 267 315
#     4   8  18  36  56  78 106 138 180 226 262 302
#     4   9  20  36  56  79 105 140 180 220 262 311
#     4   9  19  37  58  80 106 140 182 221 263 313
#     4  11  21  36  56  79 110 144 176 215 267 322
#     4   9  20  36  53  78 110 142 175 214 265 321
#
# _framework density 18.375684
#
# number of rings (size 3 to 8) (size 9 to 14) (size 15 to 20)
#    0.000    2.769    0.000    3.231    0.000    9.846 
#    0.000    3.077    0.000    0.000    0.000    0.000 
#    0.000    0.000    0.000    0.000    0.000    0.000 
#
# Total GULP energy -322360.709392 kJ/mol
# GULP energy per Si atom -12398.488823 kJ/mol
# Density = 1.833386 g / cm^3
# Si number density = 18.375684 Si / 1000 Ang^3
#
#
#
# Elastic Constant Matrix: (Units=GPa)
#
#
# Indices 1 2 3 4 5 6 
#
# 1 101.0844 38.1459 36.0849 0.0000 0.0000 0.0000
# 2 38.1459 134.1703 69.1758 0.0000 0.0000 0.0000
# 3 36.0849 69.1758 121.0255 0.0000 0.0000 0.0000
# 4 0.0000 0.0000 0.0000 31.3384 0.0000 0.0000
# 5 0.0000 0.0000 0.0000 0.0000 19.3889 0.0000
# 6 0.0000 0.0000 0.0000 0.0000 0.0000 3.7392
#
#
#
# Elastic Compliance Matrix: (Units=1/GPa)
#
#
# Indices 1 2 3 4 5 6 
#
# 1 0.011483 -0.002126 -0.002209 0.000000 0.000000 0.000000
# 2 -0.002126 0.010961 -0.005631 0.000000 0.000000 0.000000
# 3 -0.002209 -0.005631 0.012140 0.000000 0.000000 0.000000
# 4 0.000000 0.000000 0.000000 0.031910 0.000000 0.000000
# 5 0.000000 0.000000 0.000000 0.000000 0.051576 0.000000
# 6 0.000000 0.000000 0.000000 0.000000 0.000000 0.267437
#
#
# Mechanical properties :
#
#
# Convention : Reuss Voigt Hill
#
# Bulk Modulus (GPa) = 68.24768 71.45482 69.85125
# Shear Modulus (GPa) = 12.18551 25.08488 18.63520
#
# Velocity S-wave (km/s) = 2.57793 3.69875 3.18798
# Velocity P-wave (km/s) = 6.78836 7.56379 7.18654
#
# Compressibility (1/GPa) = 0.01465251
#
# Stress axis : x y z
#
# Youngs Moduli (GPa) = 87.08152 91.23235 82.37277
#
# Poissons Ratio (x) = 0.19397 0.18193
# Poissons Ratio (y) = 0.18515 0.46386
# Poissons Ratio (z) = 0.19233 0.51375
#
# Static dielectric constant tensor:
#      x y z
#    x 3.352480 0.000000 0.000000 
#    y 0.000000 3.265520 0.000000 
#    z 0.000000 0.000000 3.370500 
# 
# 
# High freq. dielectric constant tensor:
#      x y z
#    x 1.715410 0.000000 0.000000 
#    y 0.000000 1.705930 0.000000 
#    z 0.000000 0.000000 1.716210 
# 
# From -- ./inp_files/10872.got.cif
#   From: 2010.03.12/outbox.cif.g09.slc.cpg/sg17_6_cif.got.tgz:10872.got - 2010.04.10 18:46:23.
