data_PCOD8155231
_publ_section_title
;
Structure prediction by ZEFSAII (Michael W. Deem and Ramdas Pophale) SiO2 
 PCOD8155231
Probable space group: P 2 2 2
;
_chemical_formula_sum "Si O2"
_cell_formula_units_Z 28
_cell_length_a 10.627040
_cell_length_b 14.163128
_cell_length_c 9.065997
_cell_angle_alpha 90.000000
_cell_angle_beta 90.000000
_cell_angle_gamma 90.000000
_cell_volume 1364.542499
_symmetry_space_group_name_H-M "P 2 2 2"
_symmetry_group_IT_number 16
_symmetry_cell_setting 'orthorhombic'
loop_
_space_group_symop_operation_xyz
x,y,z
-x,-y,z
x,-y,-z
-x,y,-z
loop_
_atom_site_type_symbol
_atom_site_label
_atom_site_fract_x
_atom_site_fract_y
_atom_site_fract_z
Si Si1 0.756350 0.800445 0.493071
Si Si2 0.256123 0.798223 0.008538
Si Si3 0.145940 0.478441 0.661405
Si Si4 0.407790 0.133886 0.741421
Si Si5 0.692955 0.070423 0.754553
Si Si6 0.088800 0.725999 0.257045
Si Si7 0.799075 0.669641 0.240942
O O1 0.631981 0.810901 0.594141
O O2 0.772665 0.891906 0.385925
O O3 0.879003 0.788556 0.598032
O O4 0.735813 0.707926 0.391212
O O5 0.243901 0.892511 0.906577
O O6 0.274014 0.708839 0.900777
O O7 0.378608 0.804922 0.112782
O O8 0.133713 0.781320 0.110891
O O9 0.204042 0.500000 0.500000
O O10 0.166461 0.372943 0.722737
O O11 0.207855 0.556234 0.770146
O O12 0.000000 0.500000 0.652661
O O13 0.553430 0.112821 0.737155
O O14 0.316879 0.041825 0.753661
O O15 0.941573 0.709600 0.242912
#
# Coordination Sequence:
#
# PCOD8155231 Si02
#       7
#     4   4   4   4   4   4   4
#     4  10  19  30  53  83 105 132 166 213 267 310
#     4  10  21  32  51  79 105 138 168 207 263 312
#     4   9  16  29  53  79 102 134 175 214 249 283
#     4  10  20  36  57  78  99 126 171 229 270 298
#     4  10  20  36  57  78  99 126 171 229 270 298
#     4  10  19  33  52  78 111 140 170 208 246 298
#     4  10  19  33  52  78 111 140 170 208 246 298
#
# _framework density 20.519698999999999
#
# number of rings (size 3 to 8) (size 9 to 14) (size 15 to 20)
#    0.000    2.143    1.429    2.571    0.000    2.857 
#    0.000    2.143    0.000   60.000    0.000   70.000 
#    0.000    0.000    0.000    0.000    0.000    0.000 
#
# Total GULP energy -346985.065731 kJ/mol
# GULP energy per Si atom -12392.323776 kJ/mol
# Density = 2.047300 g / cm^3
# Si number density = 20.519699 Si / 1000 Ang^3
#
#
#
# Elastic Constant Matrix: (Units=GPa)
#
#
# Indices 1 2 3 4 5 6 
#
# 1 39.4676 38.0863 23.3411 0.0000 0.0000 0.0000
# 2 38.0863 101.6464 41.1924 0.0000 0.0000 0.0000
# 3 23.3411 41.1924 137.9875 0.0000 0.0000 0.0000
# 4 0.0000 0.0000 0.0000 23.2262 0.0000 0.0000
# 5 0.0000 0.0000 0.0000 0.0000 22.1473 0.0000
# 6 0.0000 0.0000 0.0000 0.0000 0.0000 27.3431
#
#
#
# Elastic Compliance Matrix: (Units=1/GPa)
#
#
# Indices 1 2 3 4 5 6 
#
# 1 0.040516 -0.014111 -0.002641 0.000000 0.000000 0.000000
# 2 -0.014111 0.016106 -0.002421 0.000000 0.000000 0.000000
# 3 -0.002641 -0.002421 0.008417 0.000000 0.000000 0.000000
# 4 0.000000 0.000000 0.000000 0.043055 0.000000 0.000000
# 5 0.000000 0.000000 0.000000 0.000000 0.045152 0.000000
# 6 0.000000 0.000000 0.000000 0.000000 0.000000 0.036572
#
#
# Mechanical properties :
#
#
# Convention : Reuss Voigt Hill
#
# Bulk Modulus (GPa) = 37.46312 53.81569 45.63940
# Shear Modulus (GPa) = 21.09147 26.30876 23.70011
#
# Velocity S-wave (km/s) = 3.20951 3.58456 3.40221
# Velocity P-wave (km/s) = 5.65963 6.58903 6.14194
#
# Compressibility (1/GPa) = 0.02669292
#
# Stress axis : x y z
#
# Youngs Moduli (GPa) = 24.68148 62.08675 118.81314
#
# Poissons Ratio (x) = 0.87610 0.31379
# Poissons Ratio (y) = 0.34828 0.28768
# Poissons Ratio (z) = 0.06519 0.15033
#
# Static dielectric constant tensor:
#      x y z
#    x 3.302870 0.000000 0.000000 
#    y 0.000000 3.934780 0.000000 
#    z 0.000000 0.000000 4.013150 
# 
# 
# High freq. dielectric constant tensor:
#      x y z
#    x 1.753810 0.000000 0.000000 
#    y 0.000000 1.792840 0.000000 
#    z 0.000000 0.000000 1.823680 
# 
# From -- ./inp_files/4782.got.cif
#   From: 2010.03.12/outbox.cif.g09.slc.cpg/sg16_3_cif.got.tgz:4782.got - 2010.03.31 00:51:45.
