data_PCOD8155919
_publ_section_title
;
Structure prediction by ZEFSAII (Michael W. Deem and Ramdas Pophale) SiO2 
 PCOD8155919
Probable space group: P 21 21 2
;
_chemical_formula_sum "Si O2"
_cell_formula_units_Z 22
_cell_length_a 28.771893
_cell_length_b 4.952989
_cell_length_c 6.177709
_cell_angle_alpha 90.000000
_cell_angle_beta 90.000000
_cell_angle_gamma 90.000000
_cell_volume 880.365971
_symmetry_space_group_name_H-M "P 21 21 2"
_symmetry_group_IT_number 18
_symmetry_cell_setting 'orthorhombic'
loop_
_space_group_symop_operation_xyz
x,y,z
-x,-y,z
1/2+x,1/2-y,-z
1/2-x,1/2+y,-z
loop_
_atom_site_type_symbol
_atom_site_label
_atom_site_fract_x
_atom_site_fract_y
_atom_site_fract_z
Si Si1 0.000000 0.500000 0.509312
Si Si2 0.349436 0.342425 0.361773
Si Si3 0.941783 0.679489 0.134213
Si Si4 0.750782 0.275756 0.641134
Si Si5 0.347666 0.841635 0.659320
Si Si6 0.055330 0.816540 0.857605
O O1 0.965871 0.693587 0.369164
O O2 0.971856 0.277202 0.645053
O O3 0.299761 0.289489 0.238934
O O4 0.352195 0.644049 0.453641
O O5 0.354650 0.141999 0.567000
O O6 0.389790 0.303849 0.187885
O O7 0.886564 0.723112 0.161332
O O8 0.955353 0.382534 0.054708
O O9 0.959894 0.887865 0.948588
O O10 0.749373 0.590141 0.576990
O O11 0.703495 0.197634 0.771551
#
# Coordination Sequence:
#
# PCOD8155919 Si02
#       6
#     2   4   4   4   4   4
#     4  12  30  54  72 100 148 190 234 310 364 410
#     4  10  19  40  67  98 139 183 222 283 344 407
#     4  12  28  48  73 105 137 182 240 290 356 428
#     4   8  16  30  62  98 130 180 228 258 338 420
#     4  10  19  40  67  98 139 183 222 283 344 407
#     4  12  28  48  73 105 137 182 240 290 356 428
#
# _framework density 24.989605999999998
#
# number of rings (size 3 to 8) (size 9 to 14) (size 15 to 20)
#    0.000    1.455    1.818    2.727    0.000    4.364 
#    0.000    1.818    0.000    0.000    0.000    0.000 
#    0.000    0.000    0.000    0.000    0.000    0.000 
#
# Total GULP energy -272756.832064 kJ/mol
# GULP energy per Si atom -12398.037821 kJ/mol
# Density = 2.493273 g / cm^3
# Si number density = 24.989606 Si / 1000 Ang^3
#
#
#
# Elastic Constant Matrix: (Units=GPa)
#
#
# Indices 1 2 3 4 5 6 
#
# 1 149.3475 37.6399 54.0052 0.0000 0.0000 0.0000
# 2 37.6399 115.3491 29.4643 0.0000 0.0000 0.0000
# 3 54.0052 29.4643 84.3383 0.0000 0.0000 0.0000
# 4 0.0000 0.0000 0.0000 34.6017 0.0000 0.0000
# 5 0.0000 0.0000 0.0000 0.0000 33.1290 0.0000
# 6 0.0000 0.0000 0.0000 0.0000 0.0000 36.4530
#
#
#
# Elastic Compliance Matrix: (Units=1/GPa)
#
#
# Indices 1 2 3 4 5 6 
#
# 1 0.008976 -0.001604 -0.005187 0.000000 0.000000 0.000000
# 2 -0.001604 0.009805 -0.002399 0.000000 0.000000 0.000000
# 3 -0.005187 -0.002399 0.016017 0.000000 0.000000 0.000000
# 4 0.000000 0.000000 0.000000 0.028900 0.000000 0.000000
# 5 0.000000 0.000000 0.000000 0.000000 0.030185 0.000000
# 6 0.000000 0.000000 0.000000 0.000000 0.000000 0.027433
#
#
# Mechanical properties :
#
#
# Convention : Reuss Voigt Hill
#
# Bulk Modulus (GPa) = 60.90738 65.69484 63.30111
# Shear Modulus (GPa) = 34.44292 36.03177 35.23735
#
# Velocity S-wave (km/s) = 3.71656 3.80132 3.75918
# Velocity P-wave (km/s) = 6.54546 6.75371 6.65040
#
# Compressibility (1/GPa) = 0.01641837
#
# Stress axis : x y z
#
# Youngs Moduli (GPa) = 111.41127 101.98477 62.43554
#
# Poissons Ratio (x) = 0.16357 0.32387
# Poissons Ratio (y) = 0.17869 0.14975
# Poissons Ratio (z) = 0.57791 0.24461
#
# Static dielectric constant tensor:
#      x y z
#    x 5.334730 0.000000 0.000000 
#    y 0.000000 4.472880 0.000000 
#    z 0.000000 0.000000 3.733710 
# 
# 
# High freq. dielectric constant tensor:
#      x y z
#    x 2.038960 0.000000 0.000000 
#    y 0.000000 2.008740 0.000000 
#    z 0.000000 0.000000 1.933740 
# 
# From -- ./inp_files/2259.got.cif
#   From: 2010.03.12/outbox.cif.g09.slc.cpg/sg18_2_cif.got.tgz:2259.got - 2010.04.10 18:53:55.
