data_PCOD8155444
_publ_section_title
;
Structure prediction by ZEFSAII (Michael W. Deem and Ramdas Pophale) SiO2 
 PCOD8155444
Probable space group: P 2 2 21
;
_chemical_formula_sum "Si O2"
_cell_formula_units_Z 24
_cell_length_a 15.403093
_cell_length_b 5.040754
_cell_length_c 16.060053
_cell_angle_alpha 90.000000
_cell_angle_beta 90.000000
_cell_angle_gamma 90.000000
_cell_volume 1246.953950
_symmetry_space_group_name_H-M "P 2 2 21"
_symmetry_group_IT_number 17
_symmetry_cell_setting 'orthorhombic'
loop_
_space_group_symop_operation_xyz
x,y,z
-x,-y,1/2+z
x,-y,-z
-x,y,1/2-z
loop_
_atom_site_type_symbol
_atom_site_label
_atom_site_fract_x
_atom_site_fract_y
_atom_site_fract_z
Si Si1 0.499325 0.956900 0.848515
Si Si2 0.730528 0.566346 0.263480
Si Si3 0.126375 0.048500 0.406096
Si Si4 0.085551 0.451945 0.697570
Si Si5 0.397276 0.544334 0.095346
Si Si6 0.309647 0.933706 0.661642
O O1 0.500000 0.008536 0.750000
O O2 0.465519 0.664875 0.868698
O O3 0.598018 0.983765 0.882880
O O4 0.439327 0.166959 0.895204
O O5 0.834287 0.525635 0.262155
O O6 0.694009 0.521090 0.355926
O O7 0.686892 0.361163 0.199397
O O8 0.704561 0.862234 0.237166
O O9 0.094010 0.334426 0.376106
O O10 0.231373 0.031765 0.403891
O O11 0.095106 0.000000 0.500000
O O12 0.082847 0.834223 0.345395
O O13 0.000000 0.503815 0.750000
O O14 0.374016 0.500000 0.000000
#
# Coordination Sequence:
#
# PCOD8155444 Si02
#       6
#     4   4   4   4   4   4
#     4  12  21  37  60  79 112 157 196 230 272 338
#     4  10  19  37  56  80 107 149 184 228 275 341
#     4  10  21  37  58  87 120 143 180 242 289 321
#     4  10  21  38  63  86 111 150 192 222 279 357
#     4  12  24  36  53  83 116 148 191 242 280 317
#     4  10  20  34  59  80 106 151 192 217 278 343
#
# _framework density 19.246903
#
# number of rings (size 3 to 8) (size 9 to 14) (size 15 to 20)
#    0.000    1.333    3.333    3.000    0.000    1.333 
#    0.000    1.667    0.000    0.000    0.000    0.000 
#    0.000    0.000    0.000    0.000    0.000    0.000 
#
# Total GULP energy -297687.301417 kJ/mol
# GULP energy per Si atom -12403.637559 kJ/mol
# Density = 1.920310 g / cm^3
# Si number density = 19.246903 Si / 1000 Ang^3
#
#
#
# Elastic Constant Matrix: (Units=GPa)
#
#
# Indices 1 2 3 4 5 6 
#
# 1 120.2738 13.1887 36.0313 0.0000 0.0000 0.0000
# 2 13.1887 70.2821 -1.1102 0.0000 0.0000 0.0000
# 3 36.0313 -1.1102 84.1507 0.0000 0.0000 0.0000
# 4 0.0000 0.0000 0.0000 20.7988 0.0000 0.0000
# 5 0.0000 0.0000 0.0000 0.0000 18.5939 0.0000
# 6 0.0000 0.0000 0.0000 0.0000 0.0000 23.9349
#
#
#
# Elastic Compliance Matrix: (Units=1/GPa)
#
#
# Indices 1 2 3 4 5 6 
#
# 1 0.009786 -0.001903 -0.004215 0.000000 0.000000 0.000000
# 2 -0.001903 0.014601 0.001007 0.000000 0.000000 0.000000
# 3 -0.004215 0.001007 0.013702 0.000000 0.000000 0.000000
# 4 0.000000 0.000000 0.000000 0.048080 0.000000 0.000000
# 5 0.000000 0.000000 0.000000 0.000000 0.053781 0.000000
# 6 0.000000 0.000000 0.000000 0.000000 0.000000 0.041780
#
#
# Mechanical properties :
#
#
# Convention : Reuss Voigt Hill
#
# Bulk Modulus (GPa) = 35.88417 41.21402 38.54910
# Shear Modulus (GPa) = 24.84598 27.77198 26.30898
#
# Velocity S-wave (km/s) = 3.59682 3.80272 3.70120
# Velocity P-wave (km/s) = 5.99450 6.38284 6.19172
#
# Compressibility (1/GPa) = 0.02786744
#
# Stress axis : x y z
#
# Youngs Moduli (GPa) = 102.18902 68.48668 72.98439
#
# Poissons Ratio (x) = 0.13033 0.30764
# Poissons Ratio (y) = 0.19446 -0.07353
# Poissons Ratio (z) = 0.43074 -0.06900
#
# Static dielectric constant tensor:
#      x y z
#    x 3.555740 0.000000 0.000000 
#    y 0.000000 3.749570 0.000000 
#    z 0.000000 0.000000 3.262020 
# 
# 
# High freq. dielectric constant tensor:
#      x y z
#    x 1.741580 0.000000 0.000000 
#    y 0.000000 1.770890 0.000000 
#    z 0.000000 0.000000 1.724850 
# 
# From -- ./inp_files/8613.got.cif
#   From: 2010.03.12/outbox.cif.g09.slc.cpg/sg17_5_cif.got.tgz:8613.got - 2010.04.10 18:46:23.
