data_PCOD8155496
_publ_section_title
;
Structure prediction by ZEFSAII (Michael W. Deem and Ramdas Pophale) SiO2 
 PCOD8155496
Probable space group: P 2 2 21
;
_chemical_formula_sum "Si O2"
_cell_formula_units_Z 16
_cell_length_a 13.090105
_cell_length_b 13.619384
_cell_length_c 5.000726
_cell_angle_alpha 90.000000
_cell_angle_beta 90.000000
_cell_angle_gamma 90.000000
_cell_volume 891.525264
_symmetry_space_group_name_H-M "P 2 2 21"
_symmetry_group_IT_number 17
_symmetry_cell_setting 'orthorhombic'
loop_
_space_group_symop_operation_xyz
x,y,z
-x,-y,1/2+z
x,-y,-z
-x,y,1/2-z
loop_
_atom_site_type_symbol
_atom_site_label
_atom_site_fract_x
_atom_site_fract_y
_atom_site_fract_z
Si Si1 0.382120 0.704090 0.174704
Si Si2 0.883642 0.067708 0.249081
Si Si3 0.431660 0.000000 0.500000
Si Si4 0.694625 0.811719 0.836127
Si Si5 0.430853 0.500000 0.000000
O O1 0.500000 0.716000 0.250000
O O2 0.310874 0.730976 0.427724
O O3 0.360046 0.591179 0.090869
O O4 0.360672 0.774861 0.928567
O O5 0.812199 0.163898 0.235902
O O6 0.000000 0.106078 0.250000
O O7 0.856864 0.000000 0.500000
O O8 0.860978 0.000000 0.000000
O O9 0.360799 0.909413 0.570370
O O10 0.500000 0.032084 0.750000
O O11 0.500000 0.464618 0.250000
#
# Coordination Sequence:
#
# PCOD8155496 Si02
#       5
#     4   4   2   4   2
#     4  11  22  36  53  79 110 143 181 220 264 320
#     4  10  21  38  56  75 103 142 187 231 265 306
#     4  12  24  32  46  72 112 150 174 198 252 322
#     4  12  22  35  53  78 108 146 180 219 265 318
#     4  10  20  36  56  76 106 146 186 228 268 304
#
# _framework density 17.946771999999999
#
# number of rings (size 3 to 8) (size 9 to 14) (size 15 to 20)
#    0.000    1.000    1.250    9.000    1.750    0.000 
#    0.000    0.000    0.000    0.000    0.000    3.500 
#    0.000    2.000    0.000    0.000    0.000    0.000 
#
# Total GULP energy -198454.397167 kJ/mol
# GULP energy per Si atom -12403.399823 kJ/mol
# Density = 1.790592 g / cm^3
# Si number density = 17.946772 Si / 1000 Ang^3
#
#
#
# Elastic Constant Matrix: (Units=GPa)
#
#
# Indices 1 2 3 4 5 6 
#
# 1 98.7713 65.8590 46.4273 0.0000 0.0000 0.0000
# 2 65.8590 101.2557 43.8157 0.0000 0.0000 0.0000
# 3 46.4273 43.8157 141.4463 0.0000 0.0000 0.0000
# 4 0.0000 0.0000 0.0000 56.8812 0.0000 0.0000
# 5 0.0000 0.0000 0.0000 0.0000 21.1384 0.0000
# 6 0.0000 0.0000 0.0000 0.0000 0.0000 7.0958
#
#
#
# Elastic Compliance Matrix: (Units=1/GPa)
#
#
# Indices 1 2 3 4 5 6 
#
# 1 0.018758 -0.011012 -0.002746 0.000000 0.000000 0.000000
# 2 -0.011012 0.017870 -0.001921 0.000000 0.000000 0.000000
# 3 -0.002746 -0.001921 0.008566 0.000000 0.000000 0.000000
# 4 0.000000 0.000000 0.000000 0.017581 0.000000 0.000000
# 5 0.000000 0.000000 0.000000 0.000000 0.047307 0.000000
# 6 0.000000 0.000000 0.000000 0.000000 0.000000 0.140928
#
#
# Mechanical properties :
#
#
# Convention : Reuss Voigt Hill
#
# Bulk Modulus (GPa) = 72.27568 72.63080 72.45324
# Shear Modulus (GPa) = 17.42282 29.38117 23.40200
#
# Velocity S-wave (km/s) = 3.11916 4.05053 3.61497
# Velocity P-wave (km/s) = 7.30287 7.90150 7.60807
#
# Compressibility (1/GPa) = 0.01383591
#
# Stress axis : x y z
#
# Youngs Moduli (GPa) = 53.31091 55.95988 116.73966
#
# Poissons Ratio (x) = 0.61625 0.32052
# Poissons Ratio (y) = 0.58708 0.22425
# Poissons Ratio (z) = 0.14637 0.10749
#
# Static dielectric constant tensor:
#      x y z
#    x 2.611540 0.000000 0.000000 
#    y 0.000000 3.489890 0.000000 
#    z 0.000000 0.000000 3.700040 
# 
# 
# High freq. dielectric constant tensor:
#      x y z
#    x 1.663150 0.000000 0.000000 
#    y 0.000000 1.683840 0.000000 
#    z 0.000000 0.000000 1.728540 
# 
# From -- ./inp_files/1227.got.cif
#   From: 2010.03.12/outbox.cif.g09.slc.cpg/sg17_1_cif.got.tgz:1227.got - 2010.04.10 18:46:23.
