data_PCOD8155189
_publ_section_title
;
Structure prediction by ZEFSAII (Michael W. Deem and Ramdas Pophale) SiO2 
 PCOD8155189
Probable space group: C 2/C
;
_chemical_formula_sum "Si O2"
_cell_formula_units_Z 40
_cell_length_a 9.368971
_cell_length_b 9.389389
_cell_length_c 27.335374
_cell_angle_alpha 90.000000
_cell_angle_beta 89.961630
_cell_angle_gamma 90.000000
_cell_volume 2404.662605
_symmetry_space_group_name_H-M "C 2/C"
_symmetry_group_IT_number 15
_symmetry_cell_setting 'monoclinic'
loop_
_space_group_symop_operation_xyz
x,y,z
-x,y,1/2-z
-x,-y,-z
x,-y,1/2+z
1/2+x,1/2+y,z
1/2-x,1/2+y,1/2-z
1/2-x,1/2-y,-z
1/2+x,1/2-y,1/2+z
loop_
_atom_site_type_symbol
_atom_site_label
_atom_site_fract_x
_atom_site_fract_y
_atom_site_fract_z
Si Si1 0.183892 0.814573 0.875065
Si Si2 0.007228 0.257988 0.874745
Si Si3 0.997469 0.998461 0.307708
Si Si4 0.997635 0.998013 0.442295
Si Si5 0.759581 0.492568 0.624794
O O1 0.354311 0.836817 0.874393
O O2 0.111132 0.885298 0.827314
O O3 0.113422 0.887418 0.922893
O O4 0.160319 0.644642 0.875669
O O5 0.120215 0.378846 0.874963
O O6 0.033927 0.159800 0.827077
O O7 0.031429 0.160556 0.922704
O O8 0.000000 0.002456 0.250000
O O9 0.838094 0.030597 0.327187
O O10 0.838893 0.033297 0.422856
O O11 0.000000 0.000000 0.500000
#
# Coordination Sequence:
#
# PCOD8155189 Si02
#       5
#     8   8   8   8   8
#     4   8  18  34  50  70 100 130 160 202 244 286
#     4   9  19  34  51  73 100 128 162 203 243 288
#     4   9  19  35  52  72 100 131 163 201 244 290
#     4   9  19  35  52  72 100 131 163 201 244 290
#     4   9  19  33  50  74 100 129 165 201 242 290
#
# _framework density 16.634350000000001
#
# number of rings (size 3 to 8) (size 9 to 14) (size 15 to 20)
#    0.000    4.000    0.000    0.000    0.000   13.600 
#    0.000    3.000    0.000    0.000    0.000    0.000 
#    0.000    0.000    0.000    0.000    0.000    0.000 
#
# Total GULP energy -247797.020454 kJ/mol
# GULP energy per Si atom -12389.851023 kJ/mol
# Density = 1.659649 g / cm^3
# Si number density = 16.634350 Si / 1000 Ang^3
#
#
#
# Elastic Constant Matrix: (Units=GPa)
#
#
# Indices 1 2 3 4 5 6 
#
# 1 127.3609 114.8580 60.1591 0.0000 1.1985 0.0000
# 2 114.8580 131.9474 61.1740 0.0000 1.1662 0.0000
# 3 60.1591 61.1740 185.0512 0.0000 0.8089 0.0000
# 4 0.0000 0.0000 0.0000 10.6050 0.0000 0.3207
# 5 1.1985 1.1662 0.8089 0.0000 10.5928 0.0000
# 6 0.0000 0.0000 0.0000 0.3207 0.0000 53.5546
#
#
#
# Elastic Compliance Matrix: (Units=1/GPa)
#
#
# Indices 1 2 3 4 5 6 
#
# 1 0.036939 -0.031395 -0.001628 0.000000 -0.000599 0.000000
# 2 -0.031395 0.035640 -0.001574 0.000000 -0.000251 0.000000
# 3 -0.001628 -0.001574 0.006454 0.000000 -0.000135 0.000000
# 4 0.000000 0.000000 0.000000 0.094313 0.000000 -0.000565
# 5 -0.000599 -0.000251 -0.000135 0.000000 0.094510 0.000000
# 6 0.000000 0.000000 0.000000 -0.000565 0.000000 0.018676
#
#
# Mechanical properties :
#
#
# Convention : Reuss Voigt Hill
#
# Bulk Modulus (GPa) = 101.63487 101.86019 101.74753
# Shear Modulus (GPa) = 13.92740 28.82836 21.37788
#
# Velocity S-wave (km/s) = 2.89670 4.16752 3.58881
# Velocity P-wave (km/s) = 8.50998 9.19377 8.85848
#
# Compressibility (1/GPa) = 0.00983914
#
# Stress axis : x y z
#
# Youngs Moduli (GPa) = 27.07154 28.05855 154.94177
#
# Poissons Ratio (x) = 0.88090 0.25218
# Poissons Ratio (y) = 0.84991 0.24392
# Poissons Ratio (z) = 0.04406 0.04417
#
# Static dielectric constant tensor:
#      x y z
#    x 3.148690 0.000000 -0.000670 
#    y 0.000000 3.158070 0.000000 
#    z -0.000670 0.000000 2.937380 
# 
# 
# High freq. dielectric constant tensor:
#      x y z
#    x 1.645950 0.000000 -0.000060 
#    y 0.000000 1.646550 0.000000 
#    z -0.000060 0.000000 1.626220 
# 
# From -- ./inp_files/287054.got.cif
#   From: 2010.06.25/outbox.cif.g09.slc.cpg/sg15_144_cif.got.tgz:287054.got - 2010.06.28 07:06:18.
