data_PCOD8155822
_publ_section_title
;
Structure prediction by ZEFSAII (Michael W. Deem and Ramdas Pophale) SiO2 
 PCOD8155822
Probable space group: P 21 21 2
;
_chemical_formula_sum "Si O2"
_cell_formula_units_Z 22
_cell_length_a 7.927797
_cell_length_b 14.294229
_cell_length_c 9.023622
_cell_angle_alpha 90.000000
_cell_angle_beta 90.000000
_cell_angle_gamma 90.000000
_cell_volume 1022.572598
_symmetry_space_group_name_H-M "P 21 21 2"
_symmetry_group_IT_number 18
_symmetry_cell_setting 'orthorhombic'
loop_
_space_group_symop_operation_xyz
x,y,z
-x,-y,z
1/2+x,1/2-y,-z
1/2-x,1/2+y,-z
loop_
_atom_site_type_symbol
_atom_site_label
_atom_site_fract_x
_atom_site_fract_y
_atom_site_fract_z
Si Si1 0.000000 0.500000 0.423472
Si Si2 0.552621 0.211865 0.844728
Si Si3 0.886828 0.313053 0.468855
Si Si4 0.286267 0.459260 0.202329
Si Si5 0.958761 0.827321 0.671598
Si Si6 0.287222 0.648611 0.044793
O O1 0.990803 0.406245 0.521241
O O2 0.836205 0.490014 0.318787
O O3 0.477862 0.223462 0.680158
O O4 0.702861 0.135840 0.858721
O O5 0.409842 0.173561 0.956539
O O6 0.624466 0.313609 0.894626
O O7 0.689593 0.335497 0.450152
O O8 0.898946 0.240547 0.604309
O O9 0.458522 0.427847 0.287412
O O10 0.317622 0.536480 0.071649
O O11 0.874812 0.790551 0.823290
#
# Coordination Sequence:
#
# PCOD8155822 Si02
#       6
#     2   4   4   4   4   4
#     4  10  18  36  62  86 122 154 206 244 304 374
#     4  10  21  37  62  92 127 159 211 261 304 363
#     4  10  21  38  60  93 123 162 205 260 308 366
#     4  11  19  39  63  91 120 164 207 249 307 380
#     4  11  22  36  64  89 124 162 206 252 312 372
#     4  11  21  37  63  93 121 168 207 252 310 376
#
# _framework density 21.514362999999999
#
# number of rings (size 3 to 8) (size 9 to 14) (size 15 to 20)
#    0.000    1.455    5.455    3.818    0.000    0.000 
#    0.000    0.000   12.000    4.364    4.727    0.000 
#    0.000    0.000    0.000    0.000    0.000    0.000 
#
# Total GULP energy -272562.623113 kJ/mol
# GULP energy per Si atom -12389.210141 kJ/mol
# Density = 2.146540 g / cm^3
# Si number density = 21.514363 Si / 1000 Ang^3
#
#
#
# Elastic Constant Matrix: (Units=GPa)
#
#
# Indices 1 2 3 4 5 6 
#
# 1 95.7787 43.5215 26.9325 0.0000 0.0000 0.0000
# 2 43.5215 142.6924 44.1472 0.0000 0.0000 0.0000
# 3 26.9325 44.1472 40.5784 0.0000 0.0000 0.0000
# 4 0.0000 0.0000 0.0000 47.7877 0.0000 0.0000
# 5 0.0000 0.0000 0.0000 0.0000 33.2950 0.0000
# 6 0.0000 0.0000 0.0000 0.0000 0.0000 34.7792
#
#
#
# Elastic Compliance Matrix: (Units=1/GPa)
#
#
# Indices 1 2 3 4 5 6 
#
# 1 0.013198 -0.001983 -0.006603 0.000000 0.000000 0.000000
# 2 -0.001983 0.010862 -0.010501 0.000000 0.000000 0.000000
# 3 -0.006603 -0.010501 0.040451 0.000000 0.000000 0.000000
# 4 0.000000 0.000000 0.000000 0.020926 0.000000 0.000000
# 5 0.000000 0.000000 0.000000 0.000000 0.030035 0.000000
# 6 0.000000 0.000000 0.000000 0.000000 0.000000 0.028753
#
#
# Mechanical properties :
#
#
# Convention : Reuss Voigt Hill
#
# Bulk Modulus (GPa) = 37.96866 56.47243 47.22054
# Shear Modulus (GPa) = 26.15388 34.13561 30.14474
#
# Velocity S-wave (km/s) = 3.49040 3.98759 3.74725
# Velocity P-wave (km/s) = 5.82496 6.89252 6.38111
#
# Compressibility (1/GPa) = 0.02633751
#
# Stress axis : x y z
#
# Youngs Moduli (GPa) = 75.76704 92.06681 24.72149
#
# Poissons Ratio (x) = 0.18254 0.16323
# Poissons Ratio (y) = 0.15022 0.25960
# Poissons Ratio (z) = 0.50028 0.96679
#
# Static dielectric constant tensor:
#      x y z
#    x 4.316980 0.000000 0.000000 
#    y 0.000000 3.900510 0.000000 
#    z 0.000000 0.000000 3.422540 
# 
# 
# High freq. dielectric constant tensor:
#      x y z
#    x 1.877450 0.000000 0.000000 
#    y 0.000000 1.843520 0.000000 
#    z 0.000000 0.000000 1.788710 
# 
# From -- ./inp_files/3167.got.cif
#   From: 2010.03.12/outbox.cif.g09.slc.cpg/sg18_2_cif.got.tgz:3167.got - 2010.04.10 18:53:55.
