data_PCOD8155097
_publ_section_title
;
Structure prediction by ZEFSAII (Michael W. Deem and Ramdas Pophale) SiO2 
 PCOD8155097
Probable space group: C 2/C
;
_chemical_formula_sum "Si O2"
_cell_formula_units_Z 32
_cell_length_a 8.634375
_cell_length_b 4.700568
_cell_length_c 29.786876
_cell_angle_alpha 90.000000
_cell_angle_beta 111.281090
_cell_angle_gamma 90.000000
_cell_volume 1126.507447
_symmetry_space_group_name_H-M "C 2/C"
_symmetry_group_IT_number 15
_symmetry_cell_setting 'monoclinic'
loop_
_space_group_symop_operation_xyz
x,y,z
-x,y,1/2-z
-x,-y,-z
x,-y,1/2+z
1/2+x,1/2+y,z
1/2-x,1/2+y,1/2-z
1/2-x,1/2-y,-z
1/2+x,1/2-y,1/2+z
loop_
_atom_site_type_symbol
_atom_site_label
_atom_site_fract_x
_atom_site_fract_y
_atom_site_fract_z
Si Si1 0.130505 0.945804 0.340283
Si Si2 0.238518 0.941277 0.096175
Si Si3 0.727527 0.568182 0.218835
Si Si4 0.580140 0.127651 0.464885
O O1 0.231200 0.775532 0.389796
O O2 0.152066 0.778496 0.296100
O O3 0.953236 0.872007 0.433991
O O4 0.204170 0.264304 0.353261
O O5 0.066554 0.976940 0.172964
O O6 0.367102 0.894134 0.067767
O O7 0.820986 0.278799 0.244225
O O8 0.750000 0.250000 0.500000
O O9 0.500000 0.000000 0.500000
#
# Coordination Sequence:
#
# PCOD8155097 Si02
#       4
#     8   8   8   8
#     4  12  26  48  76 111 151 200 252 313 380 453
#     4  12  26  48  76 112 154 202 255 315 380 455
#     4  12  26  47  77 112 151 198 252 314 380 454
#     4  12  27  49  78 113 154 202 256 316 382 454
#
# _framework density 28.406381
#
# number of rings (size 3 to 8) (size 9 to 14) (size 15 to 20)
#    0.000    0.000    0.000    9.750    0.000    6.000 
#    0.000    0.000    0.000    0.000    0.000    0.000 
#    0.000    0.000    0.000    0.000    0.000    0.000 
#
# Total GULP energy -198310.650942 kJ/mol
# GULP energy per Si atom -12394.415684 kJ/mol
# Density = 2.834173 g / cm^3
# Si number density = 28.406381 Si / 1000 Ang^3
#
#
#
# Elastic Constant Matrix: (Units=GPa)
#
#
# Indices 1 2 3 4 5 6 
#
# 1 161.9484 52.7552 41.4837 0.0000 8.1924 0.0000
# 2 52.7552 133.6295 11.6799 0.0000 13.5319 0.0000
# 3 41.4837 11.6799 59.7080 0.0000 27.2961 0.0000
# 4 0.0000 0.0000 0.0000 30.2269 0.0000 -7.4608
# 5 8.1924 13.5319 27.2961 0.0000 32.0801 0.0000
# 6 0.0000 0.0000 0.0000 -7.4608 0.0000 47.0688
#
#
#
# Elastic Compliance Matrix: (Units=1/GPa)
#
#
# Indices 1 2 3 4 5 6 
#
# 1 0.009231 -0.003546 -0.008717 0.000000 0.006555 0.000000
# 2 -0.003546 0.009180 0.003313 0.000000 -0.005786 0.000000
# 3 -0.008717 0.003313 0.035641 0.000000 -0.029498 0.000000
# 4 0.000000 0.000000 0.000000 0.034430 0.000000 0.005457
# 5 0.006555 -0.005786 -0.029498 0.000000 0.057037 0.000000
# 6 0.000000 0.000000 0.000000 0.005457 0.000000 0.022111
#
#
# Mechanical properties :
#
#
# Convention : Reuss Voigt Hill
#
# Bulk Modulus (GPa) = 27.66059 63.01373 45.33716
# Shear Modulus (GPa) = 25.30605 38.49964 31.90284
#
# Velocity S-wave (km/s) = 2.98796 3.68546 3.35488
# Velocity P-wave (km/s) = 4.65430 6.35147 5.56793
#
# Compressibility (1/GPa) = 0.03615251
#
# Stress axis : x y z
#
# Youngs Moduli (GPa) = 108.32777 108.93594 28.05718
#
# Poissons Ratio (x) = 0.38632 0.24457
# Poissons Ratio (y) = 0.38416 -0.09296
# Poissons Ratio (z) = 0.94427 -0.36092
#
# Static dielectric constant tensor:
#      x y z
#    x 5.012540 0.000000 -0.210250 
#    y 0.000000 5.355290 0.000000 
#    z -0.210250 0.000000 5.774180 
# 
# 
# High freq. dielectric constant tensor:
#      x y z
#    x 2.149860 0.000000 -0.002730 
#    y 0.000000 2.157270 0.000000 
#    z -0.002730 0.000000 2.175170 
# 
# From -- ./inp_files/266940.got.cif
#   From: 2010.06.25/outbox.cif.g09.slc.cpg/sg15_134_cif.got.tgz:266940.got - 2010.06.28 07:06:18.
