data_PCOD8155288
_publ_section_title
;
Structure prediction by ZEFSAII (Michael W. Deem and Ramdas Pophale) SiO2 
 PCOD8155288
Probable space group: P 2 2 2
;
_chemical_formula_sum "Si O2"
_cell_formula_units_Z 32
_cell_length_a 17.278579
_cell_length_b 17.278603
_cell_length_c 6.543483
_cell_angle_alpha 90.000000
_cell_angle_beta 90.000000
_cell_angle_gamma 90.000000
_cell_volume 1953.554932
_symmetry_space_group_name_H-M "P 2 2 2"
_symmetry_group_IT_number 16
_symmetry_cell_setting 'orthorhombic'
loop_
_space_group_symop_operation_xyz
x,y,z
-x,-y,z
x,-y,-z
-x,y,-z
loop_
_atom_site_type_symbol
_atom_site_label
_atom_site_fract_x
_atom_site_fract_y
_atom_site_fract_z
Si Si1 0.411359 0.091874 0.028057
Si Si2 0.836443 0.721706 0.722600
Si Si3 0.721706 0.163557 0.222601
Si Si4 0.925506 0.683925 0.111182
Si Si5 0.683925 0.925506 0.388818
Si Si6 0.076086 0.822342 0.599757
Si Si7 0.091874 0.588641 0.528057
Si Si8 0.822342 0.076086 0.900243
O O1 0.385358 0.113780 0.258699
O O2 0.500000 0.114848 0.000000
O O3 0.362213 0.145246 0.872415
O O4 0.396623 0.000000 0.000000
O O5 0.744967 0.744967 0.750000
O O6 0.869781 0.791060 0.582148
O O7 0.854754 0.637787 0.627585
O O8 0.867447 0.722228 0.952979
O O9 0.722228 0.132553 0.452979
O O10 0.791060 0.130219 0.082149
O O11 0.954044 0.749516 0.268792
O O12 0.886220 0.614642 0.241301
O O13 0.000000 0.648044 0.000000
O O14 0.749516 0.954043 0.231208
O O15 0.648044 0.000000 0.500000
O O16 0.117436 0.882564 0.750000
O O17 0.000000 0.862042 0.500000
O O18 0.114848 0.500000 0.500000
O O19 0.000000 0.603377 0.500000
O O20 0.862042 0.000000 0.000000
#
# Coordination Sequence:
#
# PCOD8155288 Si02
#       8
#     4   4   4   4   4   4   4   4
#     4  10  21  34  48  77 109 134 170 217 266 321
#     4  11  20  33  54  74  94 134 179 211 260 320
#     4  11  20  33  54  74  94 134 179 211 260 320
#     4  11  18  33  54  71  98 133 172 214 262 314
#     4  11  18  33  54  71  98 133 172 214 262 314
#     4  11  21  32  51  72  94 126 178 233 267 314
#     4  10  21  34  48  77 109 134 170 217 266 321
#     4  11  21  32  51  72  94 126 178 233 267 314
#
# _framework density 16.380393000000002
#
# number of rings (size 3 to 8) (size 9 to 14) (size 15 to 20)
#    0.000    1.250    7.500    1.500    0.000    1.000 
#    0.000    0.000    0.000   15.000    0.000    0.000 
#    0.000    0.000    0.000   15.750    0.000    0.000 
#
# Total GULP energy -396534.661166 kJ/mol
# GULP energy per Si atom -12391.708161 kJ/mol
# Density = 1.634311 g / cm^3
# Si number density = 16.380393 Si / 1000 Ang^3
#
#
#
# Elastic Constant Matrix: (Units=GPa)
#
#
# Indices 1 2 3 4 5 6 
#
# 1 89.1748 50.2965 41.2396 0.0000 0.0000 0.0000
# 2 50.2965 89.1751 41.2397 0.0000 0.0000 0.0000
# 3 41.2396 41.2397 115.1268 0.0000 0.0000 0.0000
# 4 0.0000 0.0000 0.0000 17.7741 0.0000 0.0000
# 5 0.0000 0.0000 0.0000 0.0000 17.7739 0.0000
# 6 0.0000 0.0000 0.0000 0.0000 0.0000 13.0520
#
#
#
# Elastic Compliance Matrix: (Units=1/GPa)
#
#
# Indices 1 2 3 4 5 6 
#
# 1 0.017409 -0.008312 -0.003259 0.000000 0.000000 0.000000
# 2 -0.008312 0.017409 -0.003259 0.000000 0.000000 0.000000
# 3 -0.003259 -0.003259 0.011021 0.000000 0.000000 0.000000
# 4 0.000000 0.000000 0.000000 0.056262 0.000000 0.000000
# 5 0.000000 0.000000 0.000000 0.000000 0.056262 0.000000
# 6 0.000000 0.000000 0.000000 0.000000 0.000000 0.076616
#
#
# Mechanical properties :
#
#
# Convention : Reuss Voigt Hill
#
# Bulk Modulus (GPa) = 61.80447 62.11424 61.95936
# Shear Modulus (GPa) = 18.51637 20.43339 19.47488
#
# Velocity S-wave (km/s) = 3.36579 3.53573 3.45180
# Velocity P-wave (km/s) = 7.27443 7.39396 7.33444
#
# Compressibility (1/GPa) = 0.01618006
#
# Stress axis : x y z
#
# Youngs Moduli (GPa) = 57.44116 57.44139 90.73885
#
# Poissons Ratio (x) = 0.47746 0.29569
# Poissons Ratio (y) = 0.47746 0.29568
# Poissons Ratio (z) = 0.18718 0.18718
#
# Static dielectric constant tensor:
#      x y z
#    x 2.852690 0.000000 0.000000 
#    y 0.000000 2.852700 0.000000 
#    z 0.000000 0.000000 3.531360 
# 
# 
# High freq. dielectric constant tensor:
#      x y z
#    x 1.592740 0.000000 0.000000 
#    y 0.000000 1.592740 0.000000 
#    z 0.000000 0.000000 1.663160 
# 
# From -- ./inp_files/2515.got.cif
#   From: 2010.03.12/outbox.cif.g09.slc.cpg/sg16_2_cif.got.tgz:2515.got - 2010.03.31 00:51:45.
