data_PCOD8155522
_publ_section_title
;
Structure prediction by ZEFSAII (Michael W. Deem and Ramdas Pophale) SiO2 
 PCOD8155522
Probable space group: P 2 2 21
;
_chemical_formula_sum "Si O2"
_cell_formula_units_Z 20
_cell_length_a 7.073917
_cell_length_b 5.870159
_cell_length_c 22.883928
_cell_angle_alpha 90.000000
_cell_angle_beta 90.000000
_cell_angle_gamma 90.000000
_cell_volume 950.255512
_symmetry_space_group_name_H-M "P 2 2 21"
_symmetry_group_IT_number 17
_symmetry_cell_setting 'orthorhombic'
loop_
_space_group_symop_operation_xyz
x,y,z
-x,-y,1/2+z
x,-y,-z
-x,y,1/2-z
loop_
_atom_site_type_symbol
_atom_site_label
_atom_site_fract_x
_atom_site_fract_y
_atom_site_fract_z
Si Si1 0.432975 0.398820 0.857613
Si Si2 0.983075 0.739869 0.392378
Si Si3 0.116147 0.000000 0.500000
Si Si4 0.500000 0.723636 0.750000
Si Si5 0.733245 0.643482 0.923548
Si Si6 0.280149 0.020173 0.673253
O O1 0.227789 0.322848 0.876775
O O2 0.426196 0.578150 0.804550
O O3 0.539870 0.500500 0.914912
O O4 0.538556 0.178211 0.834647
O O5 0.987501 0.929877 0.444283
O O6 0.083984 0.511410 0.413762
O O7 0.087354 0.831525 0.332771
O O8 0.246737 0.775027 0.514067
O O9 0.317092 0.880686 0.733077
O O10 0.729859 0.844034 0.878151
#
# Coordination Sequence:
#
# PCOD8155522 Si02
#       6
#     4   4   2   2   4   4
#     4  10  21  40  62  87 121 157 202 251 298 358
#     4  10  21  40  61  87 120 156 201 250 295 357
#     4  10  20  38  60  86 124 160 194 242 306 360
#     4  10  20  38  60  86 122 160 194 244 308 360
#     4   9  20  39  59  84 120 156 194 245 293 351
#     4   9  20  39  59  83 118 154 194 243 292 353
#
# _framework density 21.046973000000001
#
# number of rings (size 3 to 8) (size 9 to 14) (size 15 to 20)
#    0.000    2.400    0.000    1.200    0.000    6.400 
#    0.000   48.000    0.000    0.000    0.000    0.000 
#    0.000    0.000    0.000    0.000    0.000    0.000 
#
# Total GULP energy -247773.437732 kJ/mol
# GULP energy per Si atom -12388.671887 kJ/mol
# Density = 2.099907 g / cm^3
# Si number density = 21.046973 Si / 1000 Ang^3
#
#
#
# Elastic Constant Matrix: (Units=GPa)
#
#
# Indices 1 2 3 4 5 6 
#
# 1 174.7697 59.3610 53.4456 0.0000 0.0000 0.0000
# 2 59.3610 109.2355 35.7158 0.0000 0.0000 0.0000
# 3 53.4456 35.7158 87.3853 0.0000 0.0000 0.0000
# 4 0.0000 0.0000 0.0000 54.1920 0.0000 0.0000
# 5 0.0000 0.0000 0.0000 0.0000 20.4556 0.0000
# 6 0.0000 0.0000 0.0000 0.0000 0.0000 30.1739
#
#
#
# Elastic Compliance Matrix: (Units=1/GPa)
#
#
# Indices 1 2 3 4 5 6 
#
# 1 0.007861 -0.003116 -0.003534 0.000000 0.000000 0.000000
# 2 -0.003116 0.011802 -0.002918 0.000000 0.000000 0.000000
# 3 -0.003534 -0.002918 0.014798 0.000000 0.000000 0.000000
# 4 0.000000 0.000000 0.000000 0.018453 0.000000 0.000000
# 5 0.000000 0.000000 0.000000 0.000000 0.048886 0.000000
# 6 0.000000 0.000000 0.000000 0.000000 0.000000 0.033141
#
#
# Mechanical properties :
#
#
# Convention : Reuss Voigt Hill
#
# Bulk Modulus (GPa) = 65.25611 74.27060 69.76336
# Shear Modulus (GPa) = 31.40985 35.82218 33.61601
#
# Velocity S-wave (km/s) = 3.86731 4.13002 4.00082
# Velocity P-wave (km/s) = 7.14239 7.62282 7.38651
#
# Compressibility (1/GPa) = 0.01532423
#
# Stress axis : x y z
#
# Youngs Moduli (GPa) = 127.20922 84.73150 67.57834
#
# Poissons Ratio (x) = 0.26405 0.23884
# Poissons Ratio (y) = 0.39643 0.19717
# Poissons Ratio (z) = 0.44958 0.24722
#
# Static dielectric constant tensor:
#      x y z
#    x 3.608470 0.000000 0.000000 
#    y 0.000000 4.684780 0.000000 
#    z 0.000000 0.000000 4.300300 
# 
# 
# High freq. dielectric constant tensor:
#      x y z
#    x 1.796620 0.000000 0.000000 
#    y 0.000000 1.859240 0.000000 
#    z 0.000000 0.000000 1.816940 
# 
# From -- ./inp_files/10760.got.cif
#   From: 2010.03.12/outbox.cif.g09.slc.cpg/sg17_6_cif.got.tgz:10760.got - 2010.04.10 18:46:23.
