data_PCOD8155281
_publ_section_title
;
Structure prediction by ZEFSAII (Michael W. Deem and Ramdas Pophale) SiO2 
 PCOD8155281
Probable space group: P 2 2 2
;
_chemical_formula_sum "Si O2"
_cell_formula_units_Z 32
_cell_length_a 8.967100
_cell_length_b 11.857098
_cell_length_c 13.808926
_cell_angle_alpha 90.000000
_cell_angle_beta 90.000000
_cell_angle_gamma 90.000000
_cell_volume 1468.217258
_symmetry_space_group_name_H-M "P 2 2 2"
_symmetry_group_IT_number 16
_symmetry_cell_setting 'orthorhombic'
loop_
_space_group_symop_operation_xyz
x,y,z
-x,-y,z
x,-y,-z
-x,y,-z
loop_
_atom_site_type_symbol
_atom_site_label
_atom_site_fract_x
_atom_site_fract_y
_atom_site_fract_z
Si Si1 0.416752 0.788308 0.595849
Si Si2 0.834166 0.299053 0.470609
Si Si3 0.123686 0.155565 0.708087
Si Si4 0.805934 0.739900 0.095049
Si Si5 0.148395 0.302718 0.887841
Si Si6 0.387323 0.583444 0.356130
Si Si7 0.662161 0.511144 0.145347
Si Si8 0.209423 0.095800 0.261435
O O1 0.500000 0.839457 0.500000
O O2 0.267892 0.721778 0.563792
O O3 0.532005 0.706087 0.651161
O O4 0.353665 0.881065 0.670573
O O5 0.826574 0.189480 0.399724
O O6 0.767908 0.406396 0.413396
O O7 0.000000 0.330835 0.500000
O O8 0.191183 0.245209 0.785497
O O9 0.944102 0.151935 0.701458
O O10 0.193078 0.037915 0.741857
O O11 0.701838 0.641746 0.136186
O O12 0.766501 0.854184 0.153402
O O13 0.971361 0.692630 0.110556
O O14 0.786626 0.766815 0.980420
O O15 0.216276 0.428055 0.902356
O O16 0.500000 0.500000 0.413168
O O17 0.349569 0.524808 0.256000
O O18 0.500000 0.500000 0.095081
#
# Coordination Sequence:
#
# PCOD8155281 Si02
#       8
#     4   4   4   4   4   4   4   4
#     4  10  22  39  63  87 132 166 213 267 318 382
#     4  11  21  40  65  92 122 167 219 266 322 376
#     4  10  21  38  65  93 128 165 208 275 313 376
#     4  10  22  38  65  95 127 165 204 263 317 396
#     4  10  21  40  62  95 129 160 212 257 323 383
#     4  10  22  41  62  88 130 172 206 264 319 383
#     4  11  21  37  65  91 124 166 208 257 316 376
#     4  10  20  39  62  94 129 165 212 262 325 376
#
# _framework density 21.79514
#
# number of rings (size 3 to 8) (size 9 to 14) (size 15 to 20)
#    0.000    1.750    2.500    2.250    0.000    5.250 
#    0.000    8.125    0.000    0.000    0.000    1.750 
#    0.000    0.000    0.000    0.000    0.000    0.000 
#
# Total GULP energy -396564.225503 kJ/mol
# GULP energy per Si atom -12392.632047 kJ/mol
# Density = 2.174553 g / cm^3
# Si number density = 21.795140 Si / 1000 Ang^3
#
#
#
# Elastic Constant Matrix: (Units=GPa)
#
#
# Indices 1 2 3 4 5 6 
#
# 1 104.2004 28.9454 33.9132 0.0000 0.0000 0.0000
# 2 28.9454 78.4372 15.5191 0.0000 0.0000 0.0000
# 3 33.9132 15.5191 92.9964 0.0000 0.0000 0.0000
# 4 0.0000 0.0000 0.0000 23.8759 0.0000 0.0000
# 5 0.0000 0.0000 0.0000 0.0000 20.9729 0.0000
# 6 0.0000 0.0000 0.0000 0.0000 0.0000 30.4062
#
#
#
# Elastic Compliance Matrix: (Units=1/GPa)
#
#
# Indices 1 2 3 4 5 6 
#
# 1 0.011809 -0.003625 -0.003701 0.000000 0.000000 0.000000
# 2 -0.003625 0.014297 -0.001064 0.000000 0.000000 0.000000
# 3 -0.003701 -0.001064 0.012280 0.000000 0.000000 0.000000
# 4 0.000000 0.000000 0.000000 0.041883 0.000000 0.000000
# 5 0.000000 0.000000 0.000000 0.000000 0.047681 0.000000
# 6 0.000000 0.000000 0.000000 0.000000 0.000000 0.032888
#
#
# Mechanical properties :
#
#
# Convention : Reuss Voigt Hill
#
# Bulk Modulus (GPa) = 46.28476 48.04326 47.16401
# Shear Modulus (GPa) = 27.05318 28.20141 27.62729
#
# Velocity S-wave (km/s) = 3.52696 3.60103 3.56419
# Velocity P-wave (km/s) = 6.15372 6.27541 6.21487
#
# Compressibility (1/GPa) = 0.02160539
#
# Stress axis : x y z
#
# Youngs Moduli (GPa) = 84.68417 69.94280 81.43067
#
# Poissons Ratio (x) = 0.25357 0.30140
# Poissons Ratio (y) = 0.30701 0.08663
# Poissons Ratio (z) = 0.31344 0.07441
#
# Static dielectric constant tensor:
#      x y z
#    x 4.341400 0.000000 0.000000 
#    y 0.000000 3.732290 0.000000 
#    z 0.000000 0.000000 4.082640 
# 
# 
# High freq. dielectric constant tensor:
#      x y z
#    x 1.864000 0.000000 0.000000 
#    y 0.000000 1.829920 0.000000 
#    z 0.000000 0.000000 1.862140 
# 
# From -- ./inp_files/7974.got.cif
#   From: 2010.03.12/outbox.cif.g09.slc.cpg/sg16_4_cif.got.tgz:7974.got - 2010.03.31 00:51:45.
