data_PCOD8155862
_publ_section_title
;
Structure prediction by ZEFSAII (Michael W. Deem and Ramdas Pophale) SiO2 
 PCOD8155862
Probable space group: P 21 21 2
;
_chemical_formula_sum "Si O2"
_cell_formula_units_Z 30
_cell_length_a 7.705720
_cell_length_b 12.975910
_cell_length_c 13.890354
_cell_angle_alpha 90.000000
_cell_angle_beta 90.000000
_cell_angle_gamma 90.000000
_cell_volume 1388.878845
_symmetry_space_group_name_H-M "P 21 21 2"
_symmetry_group_IT_number 18
_symmetry_cell_setting 'orthorhombic'
loop_
_space_group_symop_operation_xyz
x,y,z
-x,-y,z
1/2+x,1/2-y,-z
1/2-x,1/2+y,-z
loop_
_atom_site_type_symbol
_atom_site_label
_atom_site_fract_x
_atom_site_fract_y
_atom_site_fract_z
Si Si1 0.645423 0.412291 0.535381
Si Si2 0.529821 0.706345 0.141346
Si Si3 0.426235 0.795470 0.835944
Si Si4 0.948893 0.891073 0.043756
Si Si5 0.045546 0.609367 0.980269
Si Si6 0.485636 0.616415 0.332402
Si Si7 0.000000 0.500000 0.499334
Si Si8 0.870765 0.688203 0.372963
O O1 0.500000 0.500000 0.555745
O O2 0.647337 0.380124 0.421867
O O3 0.609313 0.307228 0.593269
O O4 0.831771 0.464695 0.562089
O O5 0.723060 0.726186 0.176763
O O6 0.418085 0.678476 0.237201
O O7 0.540861 0.617035 0.060414
O O8 0.449675 0.806548 0.087657
O O9 0.517276 0.693082 0.879635
O O10 0.473833 0.886799 0.910080
O O11 0.480793 0.821403 0.726935
O O12 0.748502 0.871676 0.022298
O O13 0.000000 0.000000 0.089507
O O14 0.000000 0.500000 0.934899
O O15 0.500000 0.500000 0.295149
O O16 0.668490 0.660806 0.368150
O O17 0.043487 0.396729 0.440666
#
# Coordination Sequence:
#
# PCOD8155862 Si02
#       8
#     4   4   4   4   4   4   2   4
#     4  11  24  45  69  98 132 173 214 276 336 398
#     4   9  19  35  59  83 112 160 199 251 311 360
#     4   9  21  37  58  86 117 157 203 261 302 372
#     4  10  19  34  56  80 119 164 200 248 312 370
#     4  10  20  34  55  84 120 155 207 250 304 373
#     4  10  19  40  64  90 123 164 208 267 323 383
#     4  12  24  40  72  98 124 172 220 264 338 390
#     4  11  23  42  67  94 134 164 222 277 328 400
#
# _framework density 21.600154
#
# number of rings (size 3 to 8) (size 9 to 14) (size 15 to 20)
#    0.000    1.867    2.667    2.000    0.933    3.733 
#    0.000    0.000   23.467    0.000    0.000    0.000 
#    0.000    0.000    0.000    0.000    0.000    0.000 
#
# Total GULP energy -371711.581511 kJ/mol
# GULP energy per Si atom -12390.386050 kJ/mol
# Density = 2.155099 g / cm^3
# Si number density = 21.600154 Si / 1000 Ang^3
#
#
#
# Elastic Constant Matrix: (Units=GPa)
#
#
# Indices 1 2 3 4 5 6 
#
# 1 57.2367 25.0876 10.1652 0.0000 0.0000 0.0000
# 2 25.0876 142.1991 29.8125 0.0000 0.0000 0.0000
# 3 10.1652 29.8125 70.4142 0.0000 0.0000 0.0000
# 4 0.0000 0.0000 0.0000 -42.2378 0.0000 0.0000
# 5 0.0000 0.0000 0.0000 0.0000 13.7986 0.0000
# 6 0.0000 0.0000 0.0000 0.0000 0.0000 32.6261
#
#
#
# Elastic Compliance Matrix: (Units=1/GPa)
#
#
# Indices 1 2 3 4 5 6 
#
# 1 0.019071 -0.003059 -0.001458 0.000000 0.000000 0.000000
# 2 -0.003059 0.008208 -0.003034 0.000000 0.000000 0.000000
# 3 -0.001458 -0.003034 0.015697 0.000000 0.000000 0.000000
# 4 0.000000 0.000000 0.000000 -0.023675 0.000000 0.000000
# 5 0.000000 0.000000 0.000000 0.000000 0.072471 0.000000
# 6 0.000000 0.000000 0.000000 0.000000 0.000000 0.030650
#
#
# Mechanical properties :
#
#
# Convention : Reuss Voigt Hill
#
# Bulk Modulus (GPa) = 35.87505 44.44229 40.15867
# Shear Modulus (GPa) = 34.05662 14.48969 24.27316
#
# Velocity S-wave (km/s) = 3.97506 2.59282 3.35587
# Velocity P-wave (km/s) = 6.14108 5.43905 5.80069
#
# Compressibility (1/GPa) = 0.02787452
#
# Stress axis : x y z
#
# Youngs Moduli (GPa) = 52.43550 121.83125 63.70825
#
# Poissons Ratio (x) = 0.37268 0.09289
# Poissons Ratio (y) = 0.16040 0.19327
# Poissons Ratio (z) = 0.07645 0.36959
#
# Static dielectric constant tensor:
#      x y z
#    x 3.968660 0.000000 0.000000 
#    y 0.000000 4.121530 0.000000 
#    z 0.000000 0.000000 3.963980 
# 
# 
# High freq. dielectric constant tensor:
#      x y z
#    x 1.836600 0.000000 0.000000 
#    y 0.000000 1.856950 0.000000 
#    z 0.000000 0.000000 1.830420 
# 
# From -- ./inp_files/6735.got.cif
#   From: 2010.03.12/outbox.cif.g09.slc.cpg/sg18_4_cif.got.tgz:6735.got - 2010.04.10 18:53:55.
