data_PCOD8155051
_publ_section_title
;
Structure prediction by ZEFSAII (Michael W. Deem and Ramdas Pophale) SiO2 
 PCOD8155051
Probable space group: C 2/C
;
_chemical_formula_sum "Si O2"
_cell_formula_units_Z 40
_cell_length_a 26.687122
_cell_length_b 11.805817
_cell_length_c 7.965657
_cell_angle_alpha 90.000000
_cell_angle_beta 40.103519
_cell_angle_gamma 90.000000
_cell_volume 1616.665965
_symmetry_space_group_name_H-M "C 2/C"
_symmetry_group_IT_number 15
_symmetry_cell_setting 'monoclinic'
loop_
_space_group_symop_operation_xyz
x,y,z
-x,y,1/2-z
-x,-y,-z
x,-y,1/2+z
1/2+x,1/2+y,z
1/2-x,1/2+y,1/2-z
1/2-x,1/2-y,-z
1/2+x,1/2-y,1/2+z
loop_
_atom_site_type_symbol
_atom_site_label
_atom_site_fract_x
_atom_site_fract_y
_atom_site_fract_z
Si Si1 0.571526 0.075395 0.876843
Si Si2 0.345179 0.107403 0.505013
Si Si3 0.674796 0.432730 0.468730
Si Si4 0.033523 0.819275 0.976467
Si Si5 0.627671 0.348212 0.226978
O O1 0.583532 0.099913 0.044787
O O2 0.648841 0.007140 0.621963
O O3 0.559449 0.198889 0.828649
O O4 0.500000 0.000000 0.000000
O O5 0.355492 0.218400 0.364464
O O6 0.260302 0.107829 0.808187
O O7 0.659512 0.376755 0.328575
O O8 0.669799 0.569749 0.482929
O O9 0.610649 0.395786 0.771427
O O10 0.000000 0.811032 0.250000
O O11 0.965356 0.869625 0.034391
#
# Coordination Sequence:
#
# PCOD8155051 Si02
#       5
#     8   8   8   8   8
#     4  12  25  48  79 110 154 204 262 320 390 462
#     4  12  28  48  79 115 160 204 264 326 398 466
#     4  12  29  47  79 112 161 207 262 327 396 468
#     4  12  25  49  78 109 154 207 265 322 386 468
#     4  12  26  51  73 115 157 207 267 317 393 473
#
# _framework density 24.742277999999999
#
# number of rings (size 3 to 8) (size 9 to 14) (size 15 to 20)
#    0.000    0.000    4.000    4.800    5.600    2.400 
#    0.000    0.000    0.000    0.000    0.000    0.000 
#    0.000    0.000    0.000    0.000    0.000    0.000 
#
# Total GULP energy -247925.446116 kJ/mol
# GULP energy per Si atom -12396.272306 kJ/mol
# Density = 2.468596 g / cm^3
# Si number density = 24.742278 Si / 1000 Ang^3
#
#
#
# Elastic Constant Matrix: (Units=GPa)
#
#
# Indices 1 2 3 4 5 6 
#
# 1 138.5404 51.4464 40.7901 0.0000 -2.0751 0.0000
# 2 51.4464 110.6015 46.4772 0.0000 1.5991 0.0000
# 3 40.7901 46.4772 125.1584 0.0000 -16.7180 0.0000
# 4 0.0000 0.0000 0.0000 44.3417 0.0000 2.7994
# 5 -2.0751 1.5991 -16.7180 0.0000 31.0645 0.0000
# 6 0.0000 0.0000 0.0000 2.7994 0.0000 31.2849
#
#
#
# Elastic Compliance Matrix: (Units=1/GPa)
#
#
# Indices 1 2 3 4 5 6 
#
# 1 0.008999 -0.003490 -0.001651 0.000000 -0.000108 0.000000
# 2 -0.003490 0.012315 -0.003827 0.000000 -0.002926 0.000000
# 3 -0.001651 -0.003827 0.010732 0.000000 0.005862 0.000000
# 4 0.000000 0.000000 0.000000 0.022680 0.000000 -0.002029
# 5 -0.000108 -0.002926 0.005862 0.000000 0.035489 0.000000
# 6 0.000000 0.000000 0.000000 -0.002029 0.000000 0.032146
#
#
# Mechanical properties :
#
#
# Convention : Reuss Voigt Hill
#
# Bulk Modulus (GPa) = 70.87149 72.41419 71.64284
# Shear Modulus (GPa) = 34.48248 37.04401 35.76324
#
# Velocity S-wave (km/s) = 3.73723 3.87356 3.80601
# Velocity P-wave (km/s) = 6.87958 7.02402 6.95218
#
# Compressibility (1/GPa) = 0.01411005
#
# Stress axis : x y z
#
# Youngs Moduli (GPa) = 111.12649 81.19918 93.17917
#
# Poissons Ratio (x) = 0.28342 0.15384
# Poissons Ratio (y) = 0.38788 0.35656
# Poissons Ratio (z) = 0.18347 0.31072
#
# Static dielectric constant tensor:
#      x y z
#    x 4.448470 0.000000 -0.317130 
#    y 0.000000 5.021290 0.000000 
#    z -0.317130 0.000000 4.493160 
# 
# 
# High freq. dielectric constant tensor:
#      x y z
#    x 1.988810 0.000000 -0.017010 
#    y 0.000000 2.003320 0.000000 
#    z -0.017010 0.000000 1.976970 
# 
# From -- ./inp_files/68943.got.cif
#   From: 2010.06.25/outbox.cif.g09.slc.cpg/sg15_35_cif.got.tgz:68943.got - 2010.06.28 07:06:18.
