data_PCOD8155559
_publ_section_title
;
Structure prediction by ZEFSAII (Michael W. Deem and Ramdas Pophale) SiO2 
 PCOD8155559
Probable space group: P 2 2 21
;
_chemical_formula_sum "Si O2"
_cell_formula_units_Z 32
_cell_length_a 12.691969
_cell_length_b 14.163154
_cell_length_c 8.977685
_cell_angle_alpha 90.000000
_cell_angle_beta 90.000000
_cell_angle_gamma 90.000000
_cell_volume 1613.813497
_symmetry_space_group_name_H-M "P 2 2 21"
_symmetry_group_IT_number 17
_symmetry_cell_setting 'orthorhombic'
loop_
_space_group_symop_operation_xyz
x,y,z
-x,-y,1/2+z
x,-y,-z
-x,y,1/2-z
loop_
_atom_site_type_symbol
_atom_site_label
_atom_site_fract_x
_atom_site_fract_y
_atom_site_fract_z
Si Si1 0.591608 0.647655 0.907748
Si Si2 0.286290 0.910088 0.421499
Si Si3 0.797549 0.287381 0.566618
Si Si4 0.785086 0.296561 0.911507
Si Si5 0.003655 0.602310 0.426368
Si Si6 0.510847 0.857132 0.911726
Si Si7 0.294384 0.903436 0.073787
Si Si8 0.628650 0.408296 0.421111
O O1 0.550675 0.752271 0.873857
O O2 0.490725 0.598174 0.984633
O O3 0.625438 0.591824 0.758309
O O4 0.689031 0.644872 0.019163
O O5 0.220140 0.814432 0.454035
O O6 0.401325 0.908704 0.493219
O O7 0.305449 0.924210 0.247703
O O8 0.227391 0.000000 0.500000
O O9 0.774692 0.313617 0.736823
O O10 0.906685 0.334279 0.514411
O O11 0.798247 0.173793 0.547354
O O12 0.701166 0.321249 0.466281
O O13 0.892571 0.340441 0.975510
O O14 0.000598 0.500000 0.500000
O O15 0.000000 0.589154 0.250000
O O16 0.500000 0.907631 0.750000
O O17 0.403239 0.864286 0.005309
O O18 0.256527 0.000000 0.000000
O O19 0.680278 0.500000 0.500000
#
# Coordination Sequence:
#
# PCOD8155559 Si02
#       8
#     4   4   4   4   4   4   4   4
#     4  10  21  38  54  83 119 154 192 238 287 344
#     4  10  21  35  53  85 117 153 194 235 288 348
#     4  10  21  40  59  86 117 150 194 244 293 344
#     4   9  22  38  62  82 114 154 193 242 293 342
#     4  10  22  42  64  88 113 148 196 247 294 344
#     4  11  18  34  56  79 115 155 194 238 283 335
#     4  11  21  35  57  85 116 154 194 236 288 350
#     4  11  22  36  56  84 118 157 192 236 295 348
#
# _framework density 19.828809
#
# number of rings (size 3 to 8) (size 9 to 14) (size 15 to 20)
#    0.000    1.750    2.500    1.875    0.000    7.000 
#    0.000    0.625    0.000    0.000    0.000    0.000 
#    0.000    0.000    0.000    0.000    0.000    0.000 
#
# Total GULP energy -396652.978174 kJ/mol
# GULP energy per Si atom -12395.405568 kJ/mol
# Density = 1.978368 g / cm^3
# Si number density = 19.828809 Si / 1000 Ang^3
#
#
#
# Elastic Constant Matrix: (Units=GPa)
#
#
# Indices 1 2 3 4 5 6 
#
# 1 126.6228 49.5625 43.0645 0.0000 0.0000 0.0000
# 2 49.5625 108.4709 40.5949 0.0000 0.0000 0.0000
# 3 43.0645 40.5949 79.7936 0.0000 0.0000 0.0000
# 4 0.0000 0.0000 0.0000 36.1298 0.0000 0.0000
# 5 0.0000 0.0000 0.0000 0.0000 14.6052 0.0000
# 6 0.0000 0.0000 0.0000 0.0000 0.0000 22.5951
#
#
#
# Elastic Compliance Matrix: (Units=1/GPa)
#
#
# Indices 1 2 3 4 5 6 
#
# 1 0.010563 -0.003326 -0.004009 0.000000 0.000000 0.000000
# 2 -0.003326 0.012435 -0.004531 0.000000 0.000000 0.000000
# 3 -0.004009 -0.004531 0.017001 0.000000 0.000000 0.000000
# 4 0.000000 0.000000 0.000000 0.027678 0.000000 0.000000
# 5 0.000000 0.000000 0.000000 0.000000 0.068469 0.000000
# 6 0.000000 0.000000 0.000000 0.000000 0.000000 0.044257
#
#
# Mechanical properties :
#
#
# Convention : Reuss Voigt Hill
#
# Bulk Modulus (GPa) = 61.47456 64.59234 63.03345
# Shear Modulus (GPa) = 23.86000 26.77704 25.31852
#
# Velocity S-wave (km/s) = 3.47262 3.67878 3.57719
# Velocity P-wave (km/s) = 6.86650 7.11971 6.99425
#
# Compressibility (1/GPa) = 0.01626689
#
# Stress axis : x y z
#
# Youngs Moduli (GPa) = 94.67294 80.42120 58.82060
#
# Poissons Ratio (x) = 0.26749 0.23578
# Poissons Ratio (y) = 0.31489 0.26651
# Poissons Ratio (z) = 0.37950 0.36438
#
# Static dielectric constant tensor:
#      x y z
#    x 3.568200 0.000000 0.000000 
#    y 0.000000 3.823790 0.000000 
#    z 0.000000 0.000000 3.598020 
# 
# 
# High freq. dielectric constant tensor:
#      x y z
#    x 1.752120 0.000000 0.000000 
#    y 0.000000 1.785300 0.000000 
#    z 0.000000 0.000000 1.773600 
# 
# From -- ./inp_files/4929.got.cif
#   From: 2010.03.12/outbox.cif.g09.slc.cpg/sg17_3_cif.got.tgz:4929.got - 2010.04.10 18:46:23.
