data_PCOD8155144
_publ_section_title
;
Structure prediction by ZEFSAII (Michael W. Deem and Ramdas Pophale) SiO2 
 PCOD8155144
Probable space group: C 2/C
;
_chemical_formula_sum "Si O2"
_cell_formula_units_Z 32
_cell_length_a 13.413423
_cell_length_b 4.859968
_cell_length_c 21.535735
_cell_angle_alpha 90.000000
_cell_angle_beta 121.659363
_cell_angle_gamma 90.000000
_cell_volume 1194.967156
_symmetry_space_group_name_H-M "C 2/C"
_symmetry_group_IT_number 15
_symmetry_cell_setting 'monoclinic'
loop_
_space_group_symop_operation_xyz
x,y,z
-x,y,1/2-z
-x,-y,-z
x,-y,1/2+z
1/2+x,1/2+y,z
1/2-x,1/2+y,1/2-z
1/2-x,1/2-y,-z
1/2+x,1/2-y,1/2+z
loop_
_atom_site_type_symbol
_atom_site_label
_atom_site_fract_x
_atom_site_fract_y
_atom_site_fract_z
Si Si1 0.931885 0.732011 0.785536
Si Si2 0.482977 0.543188 0.581936
Si Si3 0.810384 0.390658 0.849329
Si Si4 0.346740 0.933191 0.995991
O O1 0.899107 0.522674 0.828895
O O2 0.815575 0.877328 0.722335
O O3 0.000000 0.590542 0.750000
O O4 0.021611 0.948180 0.846863
O O5 0.621058 0.605121 0.614087
O O6 0.456274 0.282212 0.527262
O O7 0.388329 0.791636 0.545548
O O8 0.801759 0.534141 0.913944
O O9 0.250000 0.750000 0.000000
#
# Coordination Sequence:
#
# PCOD8155144 Si02
#       4
#     8   8   8   8
#     4  12  28  52  80 120 163 219 269 332 410 486
#     4  12  26  51  78 114 159 210 264 336 396 475
#     4  12  27  50  82 115 168 206 273 335 401 483
#     4  12  28  50  82 119 159 212 273 332 406 478
#
# _framework density 26.778976
#
# number of rings (size 3 to 8) (size 9 to 14) (size 15 to 20)
#    0.000    0.000    5.000    3.750    3.500    1.000 
#    4.500    0.000    0.000    0.000    0.000    0.000 
#    0.000    0.000    0.000    0.000    0.000    0.000 
#
# Total GULP energy -198235.048030 kJ/mol
# GULP energy per Si atom -12389.690502 kJ/mol
# Density = 2.671803 g / cm^3
# Si number density = 26.778976 Si / 1000 Ang^3
#
#
#
# Elastic Constant Matrix: (Units=GPa)
#
#
# Indices 1 2 3 4 5 6 
#
# 1 91.9831 18.3856 45.2408 0.0000 -29.3758 0.0000
# 2 18.3856 108.0459 65.6227 0.0002 -7.2348 0.0000
# 3 45.2408 65.6227 215.1881 0.0000 -13.2038 -0.0001
# 4 0.0000 0.0002 0.0000 29.5538 0.0000 4.3088
# 5 -29.3758 -7.2348 -13.2038 0.0000 49.2794 0.0000
# 6 0.0000 0.0000 -0.0001 4.3088 0.0000 37.5758
#
#
#
# Elastic Compliance Matrix: (Units=1/GPa)
#
#
# Indices 1 2 3 4 5 6 
#
# 1 0.014753 -0.000475 -0.002462 0.000000 0.008065 0.000000
# 2 -0.000475 0.011402 -0.003347 0.000000 0.000494 0.000000
# 3 -0.002462 -0.003347 0.006167 0.000000 -0.000307 0.000000
# 4 0.000000 0.000000 0.000000 0.034412 0.000000 -0.003946
# 5 0.008065 0.000494 -0.000307 0.000000 0.025090 0.000000
# 6 0.000000 0.000000 0.000000 -0.003946 0.000000 0.027065
#
#
# Mechanical properties :
#
#
# Convention : Reuss Voigt Hill
#
# Bulk Modulus (GPa) = 50.62344 74.85726 62.74035
# Shear Modulus (GPa) = 36.22091 42.34633 39.28362
#
# Velocity S-wave (km/s) = 3.68174 3.98090 3.83424
# Velocity P-wave (km/s) = 6.08431 7.01032 6.56367
#
# Compressibility (1/GPa) = 0.01975370
#
# Stress axis : x y z
#
# Youngs Moduli (GPa) = 67.78261 87.70365 162.16598
#
# Poissons Ratio (x) = 0.04167 0.39924
# Poissons Ratio (y) = 0.03221 0.54275
# Poissons Ratio (z) = 0.16687 0.29354
#
# Static dielectric constant tensor:
#      x y z
#    x 4.811530 0.000000 0.246930 
#    y 0.000000 4.918930 0.000000 
#    z 0.246930 0.000000 5.609700 
# 
# 
# High freq. dielectric constant tensor:
#      x y z
#    x 2.066780 0.000000 0.007100 
#    y 0.000000 2.059520 0.000000 
#    z 0.007100 0.000000 2.119400 
# 
# From -- ./inp_files/271519.got.cif
#   From: 2010.06.25/outbox.cif.g09.slc.cpg/sg15_136_cif.got.tgz:271519.got - 2010.06.28 07:06:18.
