data_PCOD8155911
_publ_section_title
;
Structure prediction by ZEFSAII (Michael W. Deem and Ramdas Pophale) SiO2 
 PCOD8155911
Probable space group: P 21 21 2
;
_chemical_formula_sum "Si O2"
_cell_formula_units_Z 28
_cell_length_a 12.651002
_cell_length_b 16.608164
_cell_length_c 7.637551
_cell_angle_alpha 90.000000
_cell_angle_beta 90.000000
_cell_angle_gamma 90.000000
_cell_volume 1604.725199
_symmetry_space_group_name_H-M "P 21 21 2"
_symmetry_group_IT_number 18
_symmetry_cell_setting 'orthorhombic'
loop_
_space_group_symop_operation_xyz
x,y,z
-x,-y,z
1/2+x,1/2-y,-z
1/2-x,1/2+y,-z
loop_
_atom_site_type_symbol
_atom_site_label
_atom_site_fract_x
_atom_site_fract_y
_atom_site_fract_z
Si Si1 0.381496 0.478009 0.047950
Si Si2 0.881496 0.021991 0.547950
Si Si3 0.288564 0.309704 0.440157
Si Si4 0.269625 0.019174 0.250000
Si Si5 0.398168 0.179252 0.250000
Si Si6 0.854598 0.658372 0.750001
Si Si7 0.288564 0.309704 0.059846
O O1 0.500000 0.500000 0.994158
O O2 0.301753 0.527297 0.924052
O O3 0.366504 0.383092 0.009554
O O4 0.358747 0.501015 0.250000
O O5 0.866504 0.116908 0.509552
O O6 0.801753 0.972703 0.424052
O O7 0.000000 0.000000 0.494158
O O8 0.358037 0.227848 0.423251
O O9 0.196467 0.299244 0.580778
O O10 0.235546 0.328638 0.250002
O O11 0.354488 0.089637 0.250000
O O12 0.335641 0.936843 0.250000
O O13 0.523220 0.177470 0.250000
O O14 0.358036 0.227848 0.076751
O O15 0.803535 0.700756 0.919226
#
# Coordination Sequence:
#
# PCOD8155911 Si02
#       7
#     4   4   4   4   4   4   4
#     4   9  17  33  55  77 103 140 175 219 264 302
#     4   9  17  33  55  77 103 140 175 219 264 302
#     4   8  19  37  50  79 110 130 179 222 256 316
#     4  10  20  34  52  77 109 138 179 211 252 328
#     4  10  21  37  52  84 106 136 187 213 258 326
#     4  10  19  39  59  69 111 150 160 222 275 296
#     4   8  19  37  50  79 110 130 179 222 256 316
#
# _framework density 17.448471000000001
#
# number of rings (size 3 to 8) (size 9 to 14) (size 15 to 20)
#    0.857    2.000    0.000    0.857    0.000    2.286 
#    5.143    0.000    0.000    6.857    0.000    0.000 
#    0.000    0.000    0.000    0.000    0.000    0.000 
#
# Total GULP energy -347021.984164 kJ/mol
# GULP energy per Si atom -12393.642292 kJ/mol
# Density = 1.740876 g / cm^3
# Si number density = 17.448471 Si / 1000 Ang^3
#
#
#
# Elastic Constant Matrix: (Units=GPa)
#
#
# Indices 1 2 3 4 5 6 
#
# 1 154.1795 62.8207 70.8761 0.0000 0.0000 0.0000
# 2 62.8207 78.2531 38.8710 0.0000 0.0000 0.0000
# 3 70.8761 38.8710 99.2319 0.0000 0.0000 0.0000
# 4 0.0000 0.0000 0.0000 20.5530 0.0000 0.0000
# 5 0.0000 0.0000 0.0000 0.0000 25.1061 0.0000
# 6 0.0000 0.0000 0.0000 0.0000 0.0000 24.4128
#
#
#
# Elastic Compliance Matrix: (Units=1/GPa)
#
#
# Indices 1 2 3 4 5 6 
#
# 1 0.011897 -0.006617 -0.005905 0.000000 0.000000 0.000000
# 2 -0.006617 0.019547 -0.002931 0.000000 0.000000 0.000000
# 3 -0.005905 -0.002931 0.015443 0.000000 0.000000 0.000000
# 4 0.000000 0.000000 0.000000 0.048655 0.000000 0.000000
# 5 0.000000 0.000000 0.000000 0.000000 0.039831 0.000000
# 6 0.000000 0.000000 0.000000 0.000000 0.000000 0.040962
#
#
# Mechanical properties :
#
#
# Convention : Reuss Voigt Hill
#
# Bulk Modulus (GPa) = 62.57455 75.20001 68.88728
# Shear Modulus (GPa) = 23.52195 24.62083 24.07139
#
# Velocity S-wave (km/s) = 3.67561 3.76048 3.71829
# Velocity P-wave (km/s) = 7.34532 7.87698 7.61579
#
# Compressibility (1/GPa) = 0.01598094
#
# Stress axis : x y z
#
# Youngs Moduli (GPa) = 84.05664 51.15859 64.75401
#
# Poissons Ratio (x) = 0.33853 0.38238
# Poissons Ratio (y) = 0.55623 0.18977
# Poissons Ratio (z) = 0.49636 0.14992
#
# Static dielectric constant tensor:
#      x y z
#    x 2.999640 0.000000 0.000000 
#    y 0.000000 3.144880 0.000000 
#    z 0.000000 0.000000 3.325780 
# 
# 
# High freq. dielectric constant tensor:
#      x y z
#    x 1.659980 0.000000 0.000000 
#    y 0.000000 1.667400 0.000000 
#    z 0.000000 0.000000 1.675150 
# 
# From -- ./inp_files/3992.got.cif
#   From: 2010.03.12/outbox.cif.g09.slc.cpg/sg18_2_cif.got.tgz:3992.got - 2010.04.10 18:53:55.
