data_PCOD8155149
_publ_section_title
;
Structure prediction by ZEFSAII (Michael W. Deem and Ramdas Pophale) SiO2 
 PCOD8155149
Probable space group: C 2/C
;
_chemical_formula_sum "Si O2"
_cell_formula_units_Z 32
_cell_length_a 10.602594
_cell_length_b 14.881144
_cell_length_c 7.504359
_cell_angle_alpha 90.000000
_cell_angle_beta 104.952922
_cell_angle_gamma 90.000000
_cell_volume 1143.934848
_symmetry_space_group_name_H-M "C 2/C"
_symmetry_group_IT_number 15
_symmetry_cell_setting 'monoclinic'
loop_
_space_group_symop_operation_xyz
x,y,z
-x,y,1/2-z
-x,-y,-z
x,-y,1/2+z
1/2+x,1/2+y,z
1/2-x,1/2+y,1/2-z
1/2-x,1/2-y,-z
1/2+x,1/2-y,1/2+z
loop_
_atom_site_type_symbol
_atom_site_label
_atom_site_fract_x
_atom_site_fract_y
_atom_site_fract_z
Si Si1 0.021454 0.720206 0.050290
Si Si2 0.291393 0.091348 0.879688
Si Si3 0.066296 0.093297 0.077688
Si Si4 0.245533 0.597269 0.036432
O O1 0.028294 0.820459 0.975584
O O2 0.000000 0.718248 0.250000
O O3 0.166010 0.684793 0.061502
O O4 0.911779 0.660028 0.914274
O O5 0.221494 0.093109 0.661359
O O6 0.187356 0.118555 0.992829
O O7 0.341165 0.990426 0.941304
O O8 0.882226 0.087464 0.197388
O O9 0.000000 0.000000 0.000000
#
# Coordination Sequence:
#
# PCOD8155149 Si02
#       4
#     8   8   8   8
#     4  12  27  52  85 118 165 213 273 341 406 485
#     4  12  26  55  83 119 160 218 274 333 410 485
#     4  12  31  54  81 121 165 215 270 339 408 487
#     4  12  27  53  84 118 162 214 277 336 406 483
#
# _framework density 27.97362
#
# number of rings (size 3 to 8) (size 9 to 14) (size 15 to 20)
#    0.000    0.000    5.000    2.250    3.500    2.000 
#   13.500    0.000    0.000    0.000    0.000    0.000 
#    0.000    0.000    0.000    0.000    0.000    0.000 
#
# Total GULP energy -198547.697479 kJ/mol
# GULP energy per Si atom -12409.231092 kJ/mol
# Density = 2.790995 g / cm^3
# Si number density = 27.973620 Si / 1000 Ang^3
#
#
#
# Elastic Constant Matrix: (Units=GPa)
#
#
# Indices 1 2 3 4 5 6 
#
# 1 119.6359 76.2655 50.1768 0.0000 21.2449 0.0000
# 2 76.2655 214.0006 56.2604 0.0000 20.3280 0.0000
# 3 50.1768 56.2604 243.3940 0.0000 4.0977 0.0000
# 4 0.0000 0.0000 0.0000 42.1659 0.0000 -2.3912
# 5 21.2449 20.3280 4.0977 0.0000 53.9025 0.0000
# 6 0.0000 0.0000 0.0000 -2.3912 0.0000 55.2927
#
#
#
# Elastic Compliance Matrix: (Units=1/GPa)
#
#
# Indices 1 2 3 4 5 6 
#
# 1 0.011817 -0.003491 -0.001575 0.000000 -0.003221 0.000000
# 2 -0.003491 0.006186 -0.000695 0.000000 -0.000904 0.000000
# 3 -0.001575 -0.000695 0.004585 0.000000 0.000534 0.000000
# 4 0.000000 0.000000 0.000000 0.023774 0.000000 0.001028
# 5 -0.003221 -0.000904 0.000534 0.000000 0.020122 0.000000
# 6 0.000000 0.000000 0.000000 0.001028 0.000000 0.018130
#
#
# Mechanical properties :
#
#
# Convention : Reuss Voigt Hill
#
# Bulk Modulus (GPa) = 90.37223 104.71512 97.54367
# Shear Modulus (GPa) = 50.08827 56.56074 53.32450
#
# Velocity S-wave (km/s) = 4.23608 4.50147 4.37079
# Velocity P-wave (km/s) = 7.50348 8.03321 7.77286
#
# Compressibility (1/GPa) = 0.01106535
#
# Stress axis : x y z
#
# Youngs Moduli (GPa) = 84.62506 161.66474 218.10971
#
# Poissons Ratio (x) = 0.56442 0.34349
# Poissons Ratio (y) = 0.29545 0.15155
# Poissons Ratio (z) = 0.13327 0.11233
#
# Static dielectric constant tensor:
#      x y z
#    x 5.570410 0.000000 -0.189160 
#    y 0.000000 5.615290 0.000000 
#    z -0.189160 0.000000 5.543320 
# 
# 
# High freq. dielectric constant tensor:
#      x y z
#    x 2.150140 0.000000 -0.014900 
#    y 0.000000 2.156580 0.000000 
#    z -0.014900 0.000000 2.161140 
# 
# From -- ./inp_files/27642.got.cif
#   From: 2010.06.25/outbox.cif.g09.slc.cpg/sg15_14_cif.got.tgz:27642.got - 2010.06.28 07:06:18.
