data_PCOD8155553
_publ_section_title
;
Structure prediction by ZEFSAII (Michael W. Deem and Ramdas Pophale) SiO2 
 PCOD8155553
Probable space group: P 2 2 21
;
_chemical_formula_sum "Si O2"
_cell_formula_units_Z 20
_cell_length_a 8.569634
_cell_length_b 12.373460
_cell_length_c 8.941062
_cell_angle_alpha 90.000000
_cell_angle_beta 90.000000
_cell_angle_gamma 90.000000
_cell_volume 948.074660
_symmetry_space_group_name_H-M "P 2 2 21"
_symmetry_group_IT_number 17
_symmetry_cell_setting 'orthorhombic'
loop_
_space_group_symop_operation_xyz
x,y,z
-x,-y,1/2+z
x,-y,-z
-x,y,1/2-z
loop_
_atom_site_type_symbol
_atom_site_label
_atom_site_fract_x
_atom_site_fract_y
_atom_site_fract_z
Si Si1 0.222337 0.735076 0.656338
Si Si2 0.859635 0.925377 0.355343
Si Si3 0.361771 0.954976 0.654817
Si Si4 0.500000 0.598532 0.750000
Si Si5 0.093882 0.705552 0.983573
Si Si6 0.711362 0.500000 0.500000
O O1 0.239743 0.860936 0.613571
O O2 0.385292 0.669911 0.644198
O O3 0.169566 0.735280 0.826854
O O4 0.092164 0.687131 0.542816
O O5 0.870214 0.799627 0.397962
O O6 0.000000 0.961068 0.250000
O O7 0.862473 0.000000 0.500000
O O8 0.705968 0.947903 0.256541
O O9 0.500000 0.900161 0.750000
O O10 0.428747 0.000000 0.500000
O O11 0.604443 0.524242 0.642949
O O12 0.174514 0.597953 0.046917
#
# Coordination Sequence:
#
# PCOD8155553 Si02
#       6
#     4   4   4   2   4   2
#     4  10  20  42  68  92 128 187 218 263 346 412
#     4  12  23  41  65  97 135 176 223 283 334 397
#     4  12  25  40  64  98 134 177 223 274 342 408
#     4  10  22  44  72  90 134 174 220 280 338 400
#     4  10  22  42  67  93 133 174 227 278 328 402
#     4  10  24  46  66 100 128 176 224 284 338 406
#
# _framework density 21.095383999999999
#
# number of rings (size 3 to 8) (size 9 to 14) (size 15 to 20)
#    0.000    1.200    3.000    3.600    0.000    0.800 
#   16.200    0.000    0.000    0.000    0.000    0.000 
#    0.000    0.000    0.000    0.000    0.000    0.000 
#
# Total GULP energy -248013.229182 kJ/mol
# GULP energy per Si atom -12400.661459 kJ/mol
# Density = 2.104737 g / cm^3
# Si number density = 21.095384 Si / 1000 Ang^3
#
#
#
# Elastic Constant Matrix: (Units=GPa)
#
#
# Indices 1 2 3 4 5 6 
#
# 1 132.2133 61.4328 43.3852 0.0000 0.0000 0.0000
# 2 61.4328 126.2071 50.3804 0.0000 0.0000 0.0000
# 3 43.3852 50.3804 102.2362 0.0000 0.0000 0.0000
# 4 0.0000 0.0000 0.0000 17.8294 0.0000 0.0000
# 5 0.0000 0.0000 0.0000 0.0000 34.4310 0.0000
# 6 0.0000 0.0000 0.0000 0.0000 0.0000 29.6000
#
#
#
# Elastic Compliance Matrix: (Units=1/GPa)
#
#
# Indices 1 2 3 4 5 6 
#
# 1 0.010206 -0.004032 -0.002344 0.000000 0.000000 0.000000
# 2 -0.004032 0.011457 -0.003935 0.000000 0.000000 0.000000
# 3 -0.002344 -0.003935 0.012715 0.000000 0.000000 0.000000
# 4 0.000000 0.000000 0.000000 0.056087 0.000000 0.000000
# 5 0.000000 0.000000 0.000000 0.000000 0.029044 0.000000
# 6 0.000000 0.000000 0.000000 0.000000 0.000000 0.033784
#
#
# Mechanical properties :
#
#
# Convention : Reuss Voigt Hill
#
# Bulk Modulus (GPa) = 72.69511 74.56148 73.62829
# Shear Modulus (GPa) = 28.01116 30.06928 29.04022
#
# Velocity S-wave (km/s) = 3.64790 3.77954 3.71430
# Velocity P-wave (km/s) = 7.23035 7.38026 7.30569
#
# Compressibility (1/GPa) = 0.01375608
#
# Stress axis : x y z
#
# Youngs Moduli (GPa) = 97.97805 87.28347 78.64748
#
# Poissons Ratio (x) = 0.35195 0.18436
# Poissons Ratio (y) = 0.39508 0.30945
# Poissons Ratio (z) = 0.22967 0.34343
#
# Static dielectric constant tensor:
#      x y z
#    x 4.347880 0.000000 0.000000 
#    y 0.000000 3.808030 0.000000 
#    z 0.000000 0.000000 3.663990 
# 
# 
# High freq. dielectric constant tensor:
#      x y z
#    x 1.841060 0.000000 0.000000 
#    y 0.000000 1.819790 0.000000 
#    z 0.000000 0.000000 1.818040 
# 
# From -- ./inp_files/4065.got.cif
#   From: 2010.03.12/outbox.cif.g09.slc.cpg/sg17_3_cif.got.tgz:4065.got - 2010.04.10 18:46:23.
