data_PCOD8155068
_publ_section_title
;
Structure prediction by ZEFSAII (Michael W. Deem and Ramdas Pophale) SiO2 
 PCOD8155068
Probable space group: C 2/C
;
_chemical_formula_sum "Si O2"
_cell_formula_units_Z 28
_cell_length_a 14.586500
_cell_length_b 10.461378
_cell_length_c 7.996313
_cell_angle_alpha 90.000000
_cell_angle_beta 60.544769
_cell_angle_gamma 90.000000
_cell_volume 1062.474140
_symmetry_space_group_name_H-M "C 2/C"
_symmetry_group_IT_number 15
_symmetry_cell_setting 'monoclinic'
loop_
_space_group_symop_operation_xyz
x,y,z
-x,y,1/2-z
-x,-y,-z
x,-y,1/2+z
1/2+x,1/2+y,z
1/2-x,1/2+y,1/2-z
1/2-x,1/2-y,-z
1/2+x,1/2-y,1/2+z
loop_
_atom_site_type_symbol
_atom_site_label
_atom_site_fract_x
_atom_site_fract_y
_atom_site_fract_z
Si Si1 0.115125 0.663963 0.669776
Si Si2 0.500000 0.815723 0.750000
Si Si3 0.921367 0.880878 0.574619
Si Si4 0.690975 0.934968 0.756408
O O1 0.105115 0.816843 0.719516
O O2 0.171183 0.589112 0.775905
O O3 0.179578 0.639568 0.441325
O O4 0.000000 0.602892 0.750000
O O5 0.516846 0.730789 0.572511
O O6 0.607415 0.892880 0.689286
O O7 0.810942 0.916118 0.584791
O O8 0.000000 0.000000 0.500000
#
# Coordination Sequence:
#
# PCOD8155068 Si02
#       4
#     8   4   8   8
#     4  12  25  51  81 114 155 206 265 325 392 471
#     4  12  26  50  76 112 164 212 266 320 396 472
#     4  12  31  47  78 119 162 204 263 332 394 465
#     4  12  27  49  83 114 156 211 265 324 395 464
#
# _framework density 26.353583
#
# number of rings (size 3 to 8) (size 9 to 14) (size 15 to 20)
#    0.000    0.000    4.286    4.286   10.000    0.000 
#    0.000    0.000    0.000    0.000    0.000    0.000 
#    0.000    0.000    0.000    0.000    0.000    0.000 
#
# Total GULP energy -173472.451077 kJ/mol
# GULP energy per Si atom -12390.889363 kJ/mol
# Density = 2.629360 g / cm^3
# Si number density = 26.353583 Si / 1000 Ang^3
#
#
#
# Elastic Constant Matrix: (Units=GPa)
#
#
# Indices 1 2 3 4 5 6 
#
# 1 180.2502 59.5341 39.3985 0.0000 -41.7152 0.0000
# 2 59.5341 139.8109 41.5357 0.0000 -5.9596 0.0000
# 3 39.3985 41.5357 85.6763 0.0000 -5.7458 0.0000
# 4 0.0000 0.0000 0.0000 31.3757 0.0000 8.9603
# 5 -41.7152 -5.9596 -5.7458 0.0000 53.7014 0.0000
# 6 0.0000 0.0000 0.0000 8.9603 0.0000 34.8765
#
#
#
# Elastic Compliance Matrix: (Units=1/GPa)
#
#
# Indices 1 2 3 4 5 6 
#
# 1 0.008241 -0.002628 -0.002121 0.000000 0.005883 0.000000
# 2 -0.002628 0.009207 -0.003348 0.000000 -0.001378 0.000000
# 3 -0.002121 -0.003348 0.014237 0.000000 -0.000496 0.000000
# 4 0.000000 0.000000 0.000000 0.034395 0.000000 -0.008837
# 5 0.005883 -0.001378 -0.000496 0.000000 0.022985 0.000000
# 6 0.000000 0.000000 0.000000 -0.008837 0.000000 0.030943
#
#
# Mechanical properties :
#
#
# Convention : Reuss Voigt Hill
#
# Bulk Modulus (GPa) = 64.55059 76.29710 70.42384
# Shear Modulus (GPa) = 35.36910 41.67533 38.52222
#
# Velocity S-wave (km/s) = 3.66744 3.98099 3.82742
# Velocity P-wave (km/s) = 6.51772 7.08133 6.80536
#
# Compressibility (1/GPa) = 0.01549173
#
# Stress axis : x y z
#
# Youngs Moduli (GPa) = 121.34416 108.60745 70.24056
#
# Poissons Ratio (x) = 0.28546 0.14897
# Poissons Ratio (y) = 0.31893 0.23513
# Poissons Ratio (z) = 0.25736 0.36357
#
# Static dielectric constant tensor:
#      x y z
#    x 4.832620 0.000000 -0.269080 
#    y 0.000000 5.019090 0.000000 
#    z -0.269080 0.000000 5.103520 
# 
# 
# High freq. dielectric constant tensor:
#      x y z
#    x 2.069780 0.000000 -0.019910 
#    y 0.000000 2.065060 0.000000 
#    z -0.019910 0.000000 2.045770 
# 
# From -- ./inp_files/36650.got.cif
#   From: 2010.06.25/outbox.cif.g09.slc.cpg/sg15_19_cif.got.tgz:36650.got - 2010.06.28 07:06:18.
