data_PCOD8155770
_publ_section_title
;
Structure prediction by ZEFSAII (Michael W. Deem and Ramdas Pophale) SiO2 
 PCOD8155770
Probable space group: P 2 2 21
;
_chemical_formula_sum "Si O2"
_cell_formula_units_Z 10
_cell_length_a 7.589591
_cell_length_b 4.813576
_cell_length_c 10.900328
_cell_angle_alpha 90.000000
_cell_angle_beta 90.000000
_cell_angle_gamma 90.000000
_cell_volume 398.222480
_symmetry_space_group_name_H-M "P 2 2 21"
_symmetry_group_IT_number 17
_symmetry_cell_setting 'orthorhombic'
loop_
_space_group_symop_operation_xyz
x,y,z
-x,-y,1/2+z
x,-y,-z
-x,y,1/2-z
loop_
_atom_site_type_symbol
_atom_site_label
_atom_site_fract_x
_atom_site_fract_y
_atom_site_fract_z
Si Si1 0.199000 0.684277 0.257996
Si Si2 0.683046 0.838598 0.612335
Si Si3 0.375515 0.500000 0.500000
O O1 0.212069 0.424582 0.164540
O O2 0.247886 0.618987 0.396795
O O3 0.000000 0.796575 0.250000
O O4 0.333214 0.928806 0.218034
O O5 0.493151 0.738455 0.563737
O O6 0.782836 0.000000 0.500000
#
# Coordination Sequence:
#
# PCOD8155770 Si02
#       3
#     4   4   2
#     4  12  30  52  79 118 161 203 267 330 397 460
#     4  12  27  50  79 112 157 208 267 317 391 473
#     4  12  30  46  90 110 160 216 266 318 396 470
#
# _framework density 25.111591000000001
#
# number of rings (size 3 to 8) (size 9 to 14) (size 15 to 20)
#    0.000    0.000    4.000    2.400   16.800    0.000 
#    0.000    0.000    0.000    0.000    0.000    0.000 
#    0.000    0.000    0.000    0.000    0.000    0.000 
#
# Total GULP energy -123970.127145 kJ/mol
# GULP energy per Si atom -12397.012714 kJ/mol
# Density = 2.505444 g / cm^3
# Si number density = 25.111591 Si / 1000 Ang^3
#
#
#
# Elastic Constant Matrix: (Units=GPa)
#
#
# Indices 1 2 3 4 5 6 
#
# 1 123.9055 49.7553 101.0128 0.0000 0.0000 0.0000
# 2 49.7553 168.8158 62.5166 0.0000 0.0000 0.0000
# 3 101.0128 62.5166 150.7283 0.0000 0.0000 0.0000
# 4 0.0000 0.0000 0.0000 58.3093 0.0000 0.0000
# 5 0.0000 0.0000 0.0000 0.0000 32.2478 0.0000
# 6 0.0000 0.0000 0.0000 0.0000 0.0000 11.0523
#
#
#
# Elastic Compliance Matrix: (Units=1/GPa)
#
#
# Indices 1 2 3 4 5 6 
#
# 1 0.017928 -0.000986 -0.011606 0.000000 0.000000 0.000000
# 2 -0.000986 0.007053 -0.002264 0.000000 0.000000 0.000000
# 3 -0.011606 -0.002264 0.015351 0.000000 0.000000 0.000000
# 4 0.000000 0.000000 0.000000 0.017150 0.000000 0.000000
# 5 0.000000 0.000000 0.000000 0.000000 0.031010 0.000000
# 6 0.000000 0.000000 0.000000 0.000000 0.000000 0.090479
#
#
# Mechanical properties :
#
#
# Convention : Reuss Voigt Hill
#
# Bulk Modulus (GPa) = 94.16374 96.66879 95.41626
# Shear Modulus (GPa) = 23.56000 35.66621 29.61310
#
# Velocity S-wave (km/s) = 3.06635 3.77279 3.43776
# Velocity P-wave (km/s) = 7.07928 7.58669 7.33737
#
# Compressibility (1/GPa) = 0.01061980
#
# Stress axis : x y z
#
# Youngs Moduli (GPa) = 55.77809 141.78740 65.14031
#
# Poissons Ratio (x) = 0.13981 0.75601
# Poissons Ratio (y) = 0.05500 0.14750
# Poissons Ratio (z) = 0.64735 0.32107
#
# Static dielectric constant tensor:
#      x y z
#    x 3.985910 0.000000 0.000000 
#    y 0.000000 4.843700 0.000000 
#    z 0.000000 0.000000 5.314890 
# 
# 
# High freq. dielectric constant tensor:
#      x y z
#    x 1.967700 0.000000 0.000000 
#    y 0.000000 2.020690 0.000000 
#    z 0.000000 0.000000 2.030230 
# 
# From -- ./inp_files/3302.got.cif
#   From: 2010.03.12/outbox.cif.g09.slc.cpg/sg17_2_cif.got.tgz:3302.got - 2010.04.10 18:46:23.
