data_PCOD8155651
_publ_section_title
;
Structure prediction by ZEFSAII (Michael W. Deem and Ramdas Pophale) SiO2 
 PCOD8155651
Probable space group: P 2 2 21
;
_chemical_formula_sum "Si O2"
_cell_formula_units_Z 24
_cell_length_a 6.153703
_cell_length_b 8.608015
_cell_length_c 20.010151
_cell_angle_alpha 90.000000
_cell_angle_beta 90.000000
_cell_angle_gamma 90.000000
_cell_volume 1059.961065
_symmetry_space_group_name_H-M "P 2 2 21"
_symmetry_group_IT_number 17
_symmetry_cell_setting 'orthorhombic'
loop_
_space_group_symop_operation_xyz
x,y,z
-x,-y,1/2+z
x,-y,-z
-x,y,1/2-z
loop_
_atom_site_type_symbol
_atom_site_label
_atom_site_fract_x
_atom_site_fract_y
_atom_site_fract_z
Si Si1 0.177887 0.500000 0.000000
Si Si2 0.507056 0.940593 0.930830
Si Si3 0.851156 0.306031 0.073993
Si Si4 0.215105 0.240251 0.163968
Si Si5 0.627875 0.168867 0.816356
Si Si6 0.000000 0.995932 0.250000
Si Si7 0.520442 0.511656 0.375009
O O1 0.311539 0.556514 0.065449
O O2 0.024382 0.353592 0.017618
O O3 0.734436 0.853929 0.946323
O O4 0.329233 0.823551 0.902667
O O5 0.538531 0.079526 0.879808
O O6 0.409789 0.000000 0.000000
O O7 0.677763 0.439974 0.084649
O O8 0.968615 0.284182 0.145670
O O9 0.360586 0.394833 0.179219
O O10 0.192595 0.108376 0.220895
O O11 0.500000 0.121567 0.750000
O O12 0.881065 0.118577 0.803507
O O13 0.581963 0.348432 0.832456
#
# Coordination Sequence:
#
# PCOD8155651 Si02
#       7
#     2   4   4   4   4   2   4
#     4  10  22  42  72 104 146 180 242 298 368 438
#     4  11  25  44  72 104 142 184 240 299 374 434
#     4  10  22  43  68 103 138 191 236 298 359 446
#     4  10  23  46  71 100 137 196 238 289 362 448
#     4  12  27  48  70 106 148 188 239 317 368 435
#     4  12  24  48  76 100 148 196 248 296 370 448
#     4  10  25  44  71 105 143 188 239 304 369 430
#
# _framework density 22.642340999999998
#
# number of rings (size 3 to 8) (size 9 to 14) (size 15 to 20)
#    0.000    1.333    3.333    0.500    9.333    4.667 
#    0.000    0.000    0.000    0.000    0.000    0.000 
#    0.000    0.000    0.000    0.000    0.000    0.000 
#
# Total GULP energy -297413.608363 kJ/mol
# GULP energy per Si atom -12392.233682 kJ/mol
# Density = 2.259081 g / cm^3
# Si number density = 22.642341 Si / 1000 Ang^3
#
#
#
# Elastic Constant Matrix: (Units=GPa)
#
#
# Indices 1 2 3 4 5 6 
#
# 1 94.6117 51.9041 30.6026 0.0000 0.0000 0.0000
# 2 51.9041 144.2140 52.3275 0.0000 0.0000 0.0000
# 3 30.6026 52.3275 101.0706 0.0000 0.0000 0.0000
# 4 0.0000 0.0000 0.0000 34.6095 0.0000 0.0000
# 5 0.0000 0.0000 0.0000 0.0000 32.7861 0.0000
# 6 0.0000 0.0000 0.0000 0.0000 0.0000 34.5276
#
#
#
# Elastic Compliance Matrix: (Units=1/GPa)
#
#
# Indices 1 2 3 4 5 6 
#
# 1 0.013469 -0.004147 -0.001931 0.000000 0.000000 0.000000
# 2 -0.004147 0.009815 -0.003826 0.000000 0.000000 0.000000
# 3 -0.001931 -0.003826 0.012460 0.000000 0.000000 0.000000
# 4 0.000000 0.000000 0.000000 0.028894 0.000000 0.000000
# 5 0.000000 0.000000 0.000000 0.000000 0.030501 0.000000
# 6 0.000000 0.000000 0.000000 0.000000 0.000000 0.028962
#
#
# Mechanical properties :
#
#
# Convention : Reuss Voigt Hill
#
# Bulk Modulus (GPa) = 62.75273 67.72943 65.24108
# Shear Modulus (GPa) = 33.50745 34.05544 33.78145
#
# Velocity S-wave (km/s) = 3.85107 3.88243 3.86678
# Velocity P-wave (km/s) = 6.89559 7.07639 6.98658
#
# Compressibility (1/GPa) = 0.01593556
#
# Stress axis : x y z
#
# Youngs Moduli (GPa) = 74.24338 101.88620 80.25943
#
# Poissons Ratio (x) = 0.42252 0.15500
# Poissons Ratio (y) = 0.30788 0.30706
# Poissons Ratio (z) = 0.14338 0.38980
#
# Static dielectric constant tensor:
#      x y z
#    x 4.255920 0.000000 0.000000 
#    y 0.000000 4.147000 0.000000 
#    z 0.000000 0.000000 3.907470 
# 
# 
# High freq. dielectric constant tensor:
#      x y z
#    x 1.902730 0.000000 0.000000 
#    y 0.000000 1.895570 0.000000 
#    z 0.000000 0.000000 1.878510 
# 
# From -- ./inp_files/10438.got.cif
#   From: 2010.03.12/outbox.cif.g09.slc.cpg/sg17_6_cif.got.tgz:10438.got - 2010.04.10 18:46:23.
