data_PCOD8155081
_publ_section_title
;
Structure prediction by ZEFSAII (Michael W. Deem and Ramdas Pophale) SiO2 
 PCOD8155081
Probable space group: C 2/C
;
_chemical_formula_sum "Si O2"
_cell_formula_units_Z 36
_cell_length_a 32.038687
_cell_length_b 6.840647
_cell_length_c 14.607921
_cell_angle_alpha 90.000000
_cell_angle_beta 31.666771
_cell_angle_gamma 90.000000
_cell_volume 1680.743781
_symmetry_space_group_name_H-M "C 2/C"
_symmetry_group_IT_number 15
_symmetry_cell_setting 'monoclinic'
loop_
_space_group_symop_operation_xyz
x,y,z
-x,y,1/2-z
-x,-y,-z
x,-y,1/2+z
1/2+x,1/2+y,z
1/2-x,1/2+y,1/2-z
1/2-x,1/2-y,-z
1/2+x,1/2-y,1/2+z
loop_
_atom_site_type_symbol
_atom_site_label
_atom_site_fract_x
_atom_site_fract_y
_atom_site_fract_z
Si Si1 0.563875 0.048860 0.955969
Si Si2 0.673019 0.628453 0.169087
Si Si3 0.190072 0.225992 0.771796
Si Si4 0.000000 0.729215 0.250000
Si Si5 0.151943 0.022710 0.513987
O O1 0.611262 0.243278 0.840954
O O2 0.622807 0.868829 0.859597
O O3 0.513522 0.085847 0.140501
O O4 0.500000 0.000000 0.000000
O O5 0.699609 0.449944 0.182936
O O6 0.750000 0.750000 0.000000
O O7 0.632124 0.558077 0.151710
O O8 0.273605 0.333685 0.621283
O O9 0.169127 0.155125 0.912867
O O10 0.923920 0.863271 0.379259
#
# Coordination Sequence:
#
# PCOD8155081 Si02
#       5
#     8   8   8   4   8
#     4  12  29  48  75 109 150 190 242 300 364 432
#     4  12  26  49  77 109 141 195 244 295 361 431
#     4  12  26  51  72 110 145 196 243 293 362 436
#     4  12  28  48  70 114 144 194 238 302 366 420
#     4  12  26  45  79 101 151 189 244 301 358 432
#
# _framework density 21.419089
#
# number of rings (size 3 to 8) (size 9 to 14) (size 15 to 20)
#    0.000    0.000    4.444    4.667    9.333    1.778 
#    0.000    0.000    0.000    0.000    0.000    0.000 
#    0.000    0.000    0.000    0.000    0.000    0.000 
#
# Total GULP energy -223353.380861 kJ/mol
# GULP energy per Si atom -12408.521159 kJ/mol
# Density = 2.137034 g / cm^3
# Si number density = 21.419089 Si / 1000 Ang^3
#
#
#
# Elastic Constant Matrix: (Units=GPa)
#
#
# Indices 1 2 3 4 5 6 
#
# 1 153.4831 67.3431 61.1807 0.0001 3.1500 0.0000
# 2 67.3431 125.1078 61.0203 0.0003 -13.7394 0.0000
# 3 61.1807 61.0203 127.0409 0.0002 6.0325 0.0000
# 4 0.0001 0.0003 0.0002 -31.7795 -0.0003 50.2441
# 5 3.1500 -13.7394 6.0325 -0.0003 39.2221 0.0001
# 6 0.0000 0.0000 0.0000 50.2441 0.0001 32.8709
#
#
#
# Elastic Compliance Matrix: (Units=1/GPa)
#
#
# Indices 1 2 3 4 5 6 
#
# 1 0.009286 -0.003985 -0.002474 0.000000 -0.001761 0.000000
# 2 -0.003985 0.012986 -0.004583 0.000000 0.005574 0.000000
# 3 -0.002474 -0.004583 0.011414 0.000000 -0.003162 0.000000
# 4 0.000000 0.000000 0.000000 -0.009210 0.000000 0.014078
# 5 -0.001761 0.005574 -0.003162 0.000000 0.028076 0.000000
# 6 0.000000 0.000000 0.000000 0.014078 0.000000 0.008904
#
#
# Mechanical properties :
#
#
# Convention : Reuss Voigt Hill
#
# Bulk Modulus (GPa) = 86.19337 87.19111 86.69224
# Shear Modulus (GPa) = 57.20266 22.46856 39.83561
#
# Velocity S-wave (km/s) = 5.17343 3.24234 4.31724
# Velocity P-wave (km/s) = 8.71863 7.40355 8.08787
#
# Compressibility (1/GPa) = 0.01160182
#
# Stress axis : x y z
#
# Youngs Moduli (GPa) = 107.68379 77.00851 87.60886
#
# Poissons Ratio (x) = 0.30690 0.21677
# Poissons Ratio (y) = 0.42915 0.40148
# Poissons Ratio (z) = 0.26645 0.35290
#
# Static dielectric constant tensor:
#      x y z
#    x 4.325020 0.000000 0.349800 
#    y 0.000000 3.885100 0.000000 
#    z 0.349800 0.000000 4.204590 
# 
# 
# High freq. dielectric constant tensor:
#      x y z
#    x 1.866520 0.000000 0.006580 
#    y 0.000000 1.855150 0.000000 
#    z 0.006580 0.000000 1.856170 
# 
# From -- ./inp_files/165121.got.cif
#   From: 2010.06.25/outbox.cif.g09.slc.cpg/sg15_83_cif.got.tgz:165121.got - 2010.06.28 07:06:18.
