data_PCOD8155402
_publ_section_title
;
Structure prediction by ZEFSAII (Michael W. Deem and Ramdas Pophale) SiO2 
 PCOD8155402
Probable space group: P 2 2 21
;
_chemical_formula_sum "Si O2"
_cell_formula_units_Z 18
_cell_length_a 8.619940
_cell_length_b 8.172194
_cell_length_c 12.303150
_cell_angle_alpha 90.000000
_cell_angle_beta 90.000000
_cell_angle_gamma 90.000000
_cell_volume 866.680908
_symmetry_space_group_name_H-M "P 2 2 21"
_symmetry_group_IT_number 17
_symmetry_cell_setting 'orthorhombic'
loop_
_space_group_symop_operation_xyz
x,y,z
-x,-y,1/2+z
x,-y,-z
-x,y,1/2-z
loop_
_atom_site_type_symbol
_atom_site_label
_atom_site_fract_x
_atom_site_fract_y
_atom_site_fract_z
Si Si1 0.893372 0.500000 0.000000
Si Si2 0.881456 0.601113 0.669552
Si Si3 0.319657 0.682549 0.234631
Si Si4 0.171756 0.162826 0.561474
Si Si5 0.813500 0.826126 0.474694
O O1 0.792158 0.667687 0.993540
O O2 0.009468 0.525953 0.102484
O O3 0.760921 0.496522 0.742566
O O4 0.801839 0.725540 0.587111
O O5 0.000000 0.698322 0.750000
O O6 0.500000 0.656066 0.250000
O O7 0.250976 0.814318 0.320664
O O8 0.296334 0.743566 0.112849
O O9 0.986714 0.146425 0.571290
O O10 0.238063 0.000000 0.500000
O O11 0.737160 0.000000 0.500000
#
# Coordination Sequence:
#
# PCOD8155402 Si02
#       5
#     2   4   4   4   4
#     4  10  18  36  68  92 118 152 212 282 308 366
#     4  11  19  39  66  91 123 164 216 273 325 379
#     4  12  23  39  59  88 132 174 207 260 332 397
#     4  10  21  39  66  91 119 161 218 268 324 377
#     4  10  22  40  65  93 121 162 216 279 326 383
#
# _framework density 20.768889000000001
#
# number of rings (size 3 to 8) (size 9 to 14) (size 15 to 20)
#    0.000    1.333    6.667    0.667    0.000    6.222 
#    4.000    1.111    0.000    0.000    0.000    0.000 
#    0.000    0.000    0.000    0.000    0.000    0.000 
#
# Total GULP energy -223036.226179 kJ/mol
# GULP energy per Si atom -12390.901454 kJ/mol
# Density = 2.072162 g / cm^3
# Si number density = 20.768889 Si / 1000 Ang^3
#
#
#
# Elastic Constant Matrix: (Units=GPa)
#
#
# Indices 1 2 3 4 5 6 
#
# 1 82.4230 32.9325 51.4701 0.0000 0.0000 0.0000
# 2 32.9325 159.1757 51.9043 0.0000 0.0000 0.0000
# 3 51.4701 51.9043 114.6603 0.0000 0.0000 0.0000
# 4 0.0000 0.0000 0.0000 44.6153 0.0000 0.0000
# 5 0.0000 0.0000 0.0000 0.0000 23.0448 0.0000
# 6 0.0000 0.0000 0.0000 0.0000 0.0000 12.5447
#
#
#
# Elastic Compliance Matrix: (Units=1/GPa)
#
#
# Indices 1 2 3 4 5 6 
#
# 1 0.017055 -0.001211 -0.007108 0.000000 0.000000 0.000000
# 2 -0.001211 0.007456 -0.002832 0.000000 0.000000 0.000000
# 3 -0.007108 -0.002832 0.013194 0.000000 0.000000 0.000000
# 4 0.000000 0.000000 0.000000 0.022414 0.000000 0.000000
# 5 0.000000 0.000000 0.000000 0.000000 0.043394 0.000000
# 6 0.000000 0.000000 0.000000 0.000000 0.000000 0.079715
#
#
# Mechanical properties :
#
#
# Convention : Reuss Voigt Hill
#
# Bulk Modulus (GPa) = 64.91641 69.87475 67.39558
# Shear Modulus (GPa) = 23.73463 30.70445 27.21954
#
# Velocity S-wave (km/s) = 3.38420 3.84915 3.62414
# Velocity P-wave (km/s) = 6.82604 7.31243 7.07342
#
# Compressibility (1/GPa) = 0.01540442
#
# Stress axis : x y z
#
# Youngs Moduli (GPa) = 58.63456 134.11540 75.79293
#
# Poissons Ratio (x) = 0.16240 0.53871
# Poissons Ratio (y) = 0.07100 0.21463
# Poissons Ratio (z) = 0.41675 0.37978
#
# Static dielectric constant tensor:
#      x y z
#    x 3.270360 0.000000 0.000000 
#    y 0.000000 3.953870 0.000000 
#    z 0.000000 0.000000 3.992520 
# 
# 
# High freq. dielectric constant tensor:
#      x y z
#    x 1.761340 0.000000 0.000000 
#    y 0.000000 1.816280 0.000000 
#    z 0.000000 0.000000 1.822230 
# 
# From -- ./inp_files/6316.got.cif
#   From: 2010.03.12/outbox.cif.g09.slc.cpg/sg17_4_cif.got.tgz:6316.got - 2010.04.10 18:46:23.
