data_PCOD8155471
_publ_section_title
;
Structure prediction by ZEFSAII (Michael W. Deem and Ramdas Pophale) SiO2 
 PCOD8155471
Probable space group: P 2 2 21
;
_chemical_formula_sum "Si O2"
_cell_formula_units_Z 24
_cell_length_a 6.331316
_cell_length_b 13.279205
_cell_length_c 14.095664
_cell_angle_alpha 90.000000
_cell_angle_beta 90.000000
_cell_angle_gamma 90.000000
_cell_volume 1185.090739
_symmetry_space_group_name_H-M "P 2 2 21"
_symmetry_group_IT_number 17
_symmetry_cell_setting 'orthorhombic'
loop_
_space_group_symop_operation_xyz
x,y,z
-x,-y,1/2+z
x,-y,-z
-x,y,1/2-z
loop_
_atom_site_type_symbol
_atom_site_label
_atom_site_fract_x
_atom_site_fract_y
_atom_site_fract_z
Si Si1 0.381566 0.003459 0.847447
Si Si2 0.127723 0.500000 0.500000
Si Si3 0.815919 0.334079 0.538055
Si Si4 0.000000 0.062651 0.750000
Si Si5 0.187262 0.774210 0.375924
Si Si6 0.525723 0.161375 0.493084
Si Si7 0.558506 0.581730 0.149379
O O1 0.500000 0.021591 0.750000
O O2 0.393526 0.099087 0.916284
O O3 0.474058 0.904137 0.897803
O O4 0.132404 0.992237 0.822177
O O5 0.273951 0.486545 0.592595
O O6 0.981817 0.402272 0.478920
O O7 0.677997 0.257468 0.474074
O O8 0.658866 0.409498 0.591795
O O9 0.951488 0.268589 0.612397
O O10 0.829471 0.129773 0.807550
O O11 0.287974 0.803821 0.479093
O O12 0.341416 0.691417 0.329336
O O13 0.500000 0.530425 0.250000
#
# Coordination Sequence:
#
# PCOD8155471 Si02
#       7
#     4   2   4   2   4   4   4
#     4  11  23  38  57  88 128 164 207 255 308 369
#     4  10  22  38  62  96 124 160 202 262 318 382
#     4  10  20  39  63  89 124 158 206 251 316 375
#     4  12  20  34  60  90 120 152 208 254 308 370
#     4  10  20  33  60  90 119 156 200 252 315 364
#     4  10  22  39  58  86 126 168 200 257 311 363
#     4  10  21  36  62  92 125 154 196 261 321 363
#
# _framework density 20.251614
#
# number of rings (size 3 to 8) (size 9 to 14) (size 15 to 20)
#    0.000    1.667    3.333    1.500    2.333    3.333 
#    0.000    0.000    0.000   32.000    0.000    0.000 
#    0.000    0.000    0.000    0.000    0.000    0.000 
#
# Total GULP energy -297497.364955 kJ/mol
# GULP energy per Si atom -12395.723540 kJ/mol
# Density = 2.020552 g / cm^3
# Si number density = 20.251614 Si / 1000 Ang^3
#
#
#
# Elastic Constant Matrix: (Units=GPa)
#
#
# Indices 1 2 3 4 5 6 
#
# 1 117.0442 35.4129 36.7808 0.0000 0.0000 0.0000
# 2 35.4129 75.6089 40.2310 0.0000 0.0000 0.0000
# 3 36.7808 40.2310 79.0460 0.0000 0.0000 0.0000
# 4 0.0000 0.0000 0.0000 25.8671 0.0000 0.0000
# 5 0.0000 0.0000 0.0000 0.0000 26.0555 0.0000
# 6 0.0000 0.0000 0.0000 0.0000 0.0000 20.2263
#
#
#
# Elastic Compliance Matrix: (Units=1/GPa)
#
#
# Indices 1 2 3 4 5 6 
#
# 1 0.010540 -0.003191 -0.003280 0.000000 0.000000 0.000000
# 2 -0.003191 0.019104 -0.008238 0.000000 0.000000 0.000000
# 3 -0.003280 -0.008238 0.018370 0.000000 0.000000 0.000000
# 4 0.000000 0.000000 0.000000 0.038659 0.000000 0.000000
# 5 0.000000 0.000000 0.000000 0.000000 0.038380 0.000000
# 6 0.000000 0.000000 0.000000 0.000000 0.000000 0.049441
#
#
# Mechanical properties :
#
#
# Convention : Reuss Voigt Hill
#
# Bulk Modulus (GPa) = 53.77821 55.17207 54.47514
# Shear Modulus (GPa) = 23.79690 25.04809 24.42249
#
# Velocity S-wave (km/s) = 3.43164 3.52069 3.47645
# Velocity P-wave (km/s) = 6.50493 6.62038 6.56291
#
# Compressibility (1/GPa) = 0.01859489
#
# Stress axis : x y z
#
# Youngs Moduli (GPa) = 94.87542 52.34451 54.43635
#
# Poissons Ratio (x) = 0.16705 0.17856
# Poissons Ratio (y) = 0.30278 0.44846
# Poissons Ratio (z) = 0.31121 0.43123
#
# Static dielectric constant tensor:
#      x y z
#    x 3.982290 0.000000 0.000000 
#    y 0.000000 3.568070 0.000000 
#    z 0.000000 0.000000 3.451530 
# 
# 
# High freq. dielectric constant tensor:
#      x y z
#    x 1.815040 0.000000 0.000000 
#    y 0.000000 1.771960 0.000000 
#    z 0.000000 0.000000 1.756900 
# 
# From -- ./inp_files/7759.got.cif
#   From: 2010.03.12/outbox.cif.g09.slc.cpg/sg17_4_cif.got.tgz:7759.got - 2010.04.10 18:46:23.
