data_PCOD8155617
_publ_section_title
;
Structure prediction by ZEFSAII (Michael W. Deem and Ramdas Pophale) SiO2 
 PCOD8155617
Probable space group: P 2 2 21
;
_chemical_formula_sum "Si O2"
_cell_formula_units_Z 20
_cell_length_a 11.285825
_cell_length_b 11.285817
_cell_length_c 8.644843
_cell_angle_alpha 90.000000
_cell_angle_beta 90.000000
_cell_angle_gamma 90.000000
_cell_volume 1101.091540
_symmetry_space_group_name_H-M "P 2 2 21"
_symmetry_group_IT_number 17
_symmetry_cell_setting 'orthorhombic'
loop_
_space_group_symop_operation_xyz
x,y,z
-x,-y,1/2+z
x,-y,-z
-x,y,1/2-z
loop_
_atom_site_type_symbol
_atom_site_label
_atom_site_fract_x
_atom_site_fract_y
_atom_site_fract_z
Si Si1 0.363416 0.818464 0.710915
Si Si2 0.681536 0.863416 0.460915
Si Si3 0.696842 0.633802 0.042624
Si Si4 0.133802 0.196842 0.707376
Si Si5 0.500000 0.269573 0.750000
Si Si6 0.230428 0.000000 0.500000
O O1 0.500000 0.839915 0.750000
O O2 0.338945 0.701452 0.612978
O O3 0.315394 0.933992 0.621542
O O4 0.298231 0.798231 0.875000
O O5 0.798549 0.838947 0.362979
O O6 0.566009 0.815393 0.371541
O O7 0.660083 0.000000 0.500000
O O8 0.812642 0.687358 0.125001
O O9 0.588715 0.643154 0.162129
O O10 0.725280 0.500000 0.000000
O O11 0.000000 0.225279 0.750000
O O12 0.143155 0.088716 0.587870
#
# Coordination Sequence:
#
# PCOD8155617 Si02
#       6
#     4   4   4   4   2   2
#     4  11  22  34  57  89 122 153 186 232 303 364
#     4  11  22  34  57  89 122 153 186 232 303 364
#     4  10  23  41  59  85 118 156 202 244 288 343
#     4  10  23  41  59  85 118 156 202 244 288 343
#     4  10  22  34  56  90 118 154 192 238 296 358
#     4  10  22  34  56  90 118 154 192 238 296 358
#
# _framework density 18.163795
#
# number of rings (size 3 to 8) (size 9 to 14) (size 15 to 20)
#    0.000    1.600    4.000    0.000    5.600    0.000 
#    0.000    8.000    0.000    0.000    0.000    0.000 
#    0.000    0.000    0.000    0.000    0.000    0.000 
#
# Total GULP energy -248027.457594 kJ/mol
# GULP energy per Si atom -12401.372880 kJ/mol
# Density = 1.812245 g / cm^3
# Si number density = 18.163795 Si / 1000 Ang^3
#
#
#
# Elastic Constant Matrix: (Units=GPa)
#
#
# Indices 1 2 3 4 5 6 
#
# 1 133.6824 58.2166 58.3794 0.0000 0.0000 0.0000
# 2 58.2166 133.6799 58.3783 0.0000 0.0000 0.0000
# 3 58.3794 58.3783 150.8851 0.0000 0.0000 0.0000
# 4 0.0000 0.0000 0.0000 19.4955 0.0000 0.0000
# 5 0.0000 0.0000 0.0000 0.0000 19.4953 0.0000
# 6 0.0000 0.0000 0.0000 0.0000 0.0000 14.0971
#
#
#
# Elastic Compliance Matrix: (Units=1/GPa)
#
#
# Indices 1 2 3 4 5 6 
#
# 1 0.010033 -0.003218 -0.002637 0.000000 0.000000 0.000000
# 2 -0.003218 0.010033 -0.002637 0.000000 0.000000 0.000000
# 3 -0.002637 -0.002637 0.008668 0.000000 0.000000 0.000000
# 4 0.000000 0.000000 0.000000 0.051294 0.000000 0.000000
# 5 0.000000 0.000000 0.000000 0.000000 0.051294 0.000000
# 6 0.000000 0.000000 0.000000 0.000000 0.000000 0.070937
#
#
# Mechanical properties :
#
#
# Convention : Reuss Voigt Hill
#
# Bulk Modulus (GPa) = 85.09749 85.35510 85.22630
# Shear Modulus (GPa) = 22.40537 26.83577 24.62057
#
# Velocity S-wave (km/s) = 3.51596 3.84791 3.68567
# Velocity P-wave (km/s) = 7.96457 8.17531 8.07063
#
# Compressibility (1/GPa) = 0.01175123
#
# Stress axis : x y z
#
# Youngs Moduli (GPa) = 99.66771 99.66630 115.36530
#
# Poissons Ratio (x) = 0.32071 0.30422
# Poissons Ratio (y) = 0.32072 0.30422
# Poissons Ratio (z) = 0.26283 0.26282
#
# Static dielectric constant tensor:
#      x y z
#    x 3.218990 0.000000 0.000000 
#    y 0.000000 3.218990 0.000000 
#    z 0.000000 0.000000 3.983570 
# 
# 
# High freq. dielectric constant tensor:
#      x y z
#    x 1.688080 0.000000 0.000000 
#    y 0.000000 1.688080 0.000000 
#    z 0.000000 0.000000 1.732800 
# 
# From -- ./inp_files/4728.got.cif
#   From: 2010.03.12/outbox.cif.g09.slc.cpg/sg17_3_cif.got.tgz:4728.got - 2010.04.10 18:46:23.
