data_PCOD8155606
_publ_section_title
;
Structure prediction by ZEFSAII (Michael W. Deem and Ramdas Pophale) SiO2 
 PCOD8155606
Probable space group: P 2 2 21
;
_chemical_formula_sum "Si O2"
_cell_formula_units_Z 18
_cell_length_a 7.681509
_cell_length_b 9.422704
_cell_length_c 11.393370
_cell_angle_alpha 90.000000
_cell_angle_beta 90.000000
_cell_angle_gamma 90.000000
_cell_volume 824.658792
_symmetry_space_group_name_H-M "P 2 2 21"
_symmetry_group_IT_number 17
_symmetry_cell_setting 'orthorhombic'
loop_
_space_group_symop_operation_xyz
x,y,z
-x,-y,1/2+z
x,-y,-z
-x,y,1/2-z
loop_
_atom_site_type_symbol
_atom_site_label
_atom_site_fract_x
_atom_site_fract_y
_atom_site_fract_z
Si Si1 0.823934 0.812836 0.396243
Si Si2 0.500000 0.728981 0.250000
Si Si3 0.683375 0.483340 0.129273
Si Si4 0.000000 0.421021 0.750000
Si Si5 0.850414 0.873665 0.662273
Si Si6 0.500000 0.242902 0.250000
O O1 0.635817 0.817286 0.330119
O O2 0.826822 0.793934 0.537314
O O3 0.941567 0.681687 0.355358
O O4 0.905799 0.963981 0.361974
O O5 0.592688 0.632115 0.154355
O O6 0.555123 0.348981 0.143792
O O7 0.847856 0.469975 0.215521
O O8 0.755843 0.500000 0.000000
O O9 0.661206 0.858811 0.721675
O O10 0.000000 0.811083 0.750000
#
# Coordination Sequence:
#
# PCOD8155606 Si02
#       6
#     4   2   4   2   4   2
#     4  10  21  42  63  96 125 169 216 261 328 380
#     4   9  19  40  66  86 131 169 218 266 308 393
#     4  10  22  38  60  92 123 169 213 258 316 376
#     4  10  22  38  64  90 124 168 212 262 316 380
#     4  11  24  41  65  95 132 164 211 273 318 389
#     4  11  25  40  60  96 125 167 212 254 326 371
#
# _framework density 21.827210000000001
#
# number of rings (size 3 to 8) (size 9 to 14) (size 15 to 20)
#    0.000    1.778    1.111    2.000    4.667    0.000 
#    0.000    4.444    0.000    0.000    0.000    0.000 
#    0.000    0.000    0.000    0.000    0.000    0.000 
#
# Total GULP energy -223034.028942 kJ/mol
# GULP energy per Si atom -12390.779386 kJ/mol
# Density = 2.177753 g / cm^3
# Si number density = 21.827210 Si / 1000 Ang^3
#
#
#
# Elastic Constant Matrix: (Units=GPa)
#
#
# Indices 1 2 3 4 5 6 
#
# 1 121.8318 17.1941 43.2819 0.0000 0.0000 0.0000
# 2 17.1941 45.5456 20.1409 0.0000 0.0000 0.0000
# 3 43.2819 20.1409 131.5643 0.0000 0.0000 0.0000
# 4 0.0000 0.0000 0.0000 -17.4825 0.0000 0.0000
# 5 0.0000 0.0000 0.0000 0.0000 20.3069 0.0000
# 6 0.0000 0.0000 0.0000 0.0000 0.0000 14.8578
#
#
#
# Elastic Compliance Matrix: (Units=1/GPa)
#
#
# Indices 1 2 3 4 5 6 
#
# 1 0.009527 -0.002371 -0.002771 0.000000 0.000000 0.000000
# 2 -0.002371 0.024140 -0.002916 0.000000 0.000000 0.000000
# 3 -0.002771 -0.002916 0.008959 0.000000 0.000000 0.000000
# 4 0.000000 0.000000 0.000000 -0.057200 0.000000 0.000000
# 5 0.000000 0.000000 0.000000 0.000000 0.049244 0.000000
# 6 0.000000 0.000000 0.000000 0.000000 0.000000 0.067304
#
#
# Mechanical properties :
#
#
# Convention : Reuss Voigt Hill
#
# Bulk Modulus (GPa) = 37.72077 51.13062 44.42570
# Shear Modulus (GPa) = 39.39239 18.09143 28.74191
#
# Velocity S-wave (km/s) = 4.25283 2.88209 3.63270
# Velocity P-wave (km/s) = 6.43696 5.87804 6.16384
#
# Compressibility (1/GPa) = 0.02651059
#
# Stress axis : x y z
#
# Youngs Moduli (GPa) = 104.96267 41.42421 111.62120
#
# Poissons Ratio (x) = 0.09822 0.30933
# Poissons Ratio (y) = 0.24888 0.32544
# Poissons Ratio (z) = 0.29088 0.12077
#
# Static dielectric constant tensor:
#      x y z
#    x 4.053650 0.000000 0.000000 
#    y 0.000000 3.669370 0.000000 
#    z 0.000000 0.000000 3.839990 
# 
# 
# High freq. dielectric constant tensor:
#      x y z
#    x 1.860140 0.000000 0.000000 
#    y 0.000000 1.853320 0.000000 
#    z 0.000000 0.000000 1.857190 
# 
# From -- ./inp_files/4585.got.cif
#   From: 2010.03.12/outbox.cif.g09.slc.cpg/sg17_3_cif.got.tgz:4585.got - 2010.04.10 18:46:23.
