data_PCOD8155123
_publ_section_title
;
Structure prediction by ZEFSAII (Michael W. Deem and Ramdas Pophale) SiO2 
 PCOD8155123
Probable space group: C 2/C
;
_chemical_formula_sum "Si O2"
_cell_formula_units_Z 28
_cell_length_a 10.334895
_cell_length_b 18.068458
_cell_length_c 9.850801
_cell_angle_alpha 90.000000
_cell_angle_beta 139.423123
_cell_angle_gamma 90.000000
_cell_volume 1196.532418
_symmetry_space_group_name_H-M "C 2/C"
_symmetry_group_IT_number 15
_symmetry_cell_setting 'monoclinic'
loop_
_space_group_symop_operation_xyz
x,y,z
-x,y,1/2-z
-x,-y,-z
x,-y,1/2+z
1/2+x,1/2+y,z
1/2-x,1/2+y,1/2-z
1/2-x,1/2-y,-z
1/2+x,1/2-y,1/2+z
loop_
_atom_site_type_symbol
_atom_site_label
_atom_site_fract_x
_atom_site_fract_y
_atom_site_fract_z
Si Si1 0.780999 0.321059 0.117130
Si Si2 0.624239 0.976932 0.974353
Si Si3 0.784556 0.179080 0.620715
Si Si4 0.500000 0.430683 0.750000
O O1 0.752553 0.298389 0.251706
O O2 0.000000 0.352520 0.250000
O O3 0.750000 0.250000 0.000000
O O4 0.606708 0.380505 0.949403
O O5 0.637780 0.888312 0.970457
O O6 0.500000 0.009080 0.750000
O O7 0.833593 0.015139 0.175709
O O8 0.500000 0.000000 0.000000
O O9 0.750000 0.250000 0.500000
O O10 0.000000 0.149308 0.750000
#
# Coordination Sequence:
#
# PCOD8155123 Si02
#       4
#     8   8   8   4
#     4  12  26  49  77 112 157 210 259 317 392 482
#     4  12  28  50  78 113 154 206 261 323 397 472
#     4  12  27  48  77 116 158 198 257 334 399 460
#     4  12  26  48  82 110 154 200 272 312 388 482
#
# _framework density 23.400953999999999
#
# number of rings (size 3 to 8) (size 9 to 14) (size 15 to 20)
#    0.000    0.000    2.857    6.857    4.000    2.286 
#    0.000    0.000    0.000    0.000    0.000    0.000 
#    0.000    0.000    0.000    0.000    0.000    0.000 
#
# Total GULP energy -173513.095287 kJ/mol
# GULP energy per Si atom -12393.792520 kJ/mol
# Density = 2.334769 g / cm^3
# Si number density = 23.400954 Si / 1000 Ang^3
#
#
#
# Elastic Constant Matrix: (Units=GPa)
#
#
# Indices 1 2 3 4 5 6 
#
# 1 215.9150 65.9408 93.4289 0.0000 -11.9663 0.0000
# 2 65.9408 172.0309 70.2291 0.0000 0.7837 0.0000
# 3 93.4289 70.2291 153.7872 0.0000 -1.2490 0.0000
# 4 0.0000 0.0000 0.0000 34.5156 0.0000 9.1032
# 5 -11.9663 0.7837 -1.2490 0.0000 54.1991 0.0000
# 6 0.0000 0.0000 0.0000 9.1032 0.0000 37.8922
#
#
#
# Elastic Compliance Matrix: (Units=1/GPa)
#
#
# Indices 1 2 3 4 5 6 
#
# 1 0.006541 -0.001101 -0.003460 0.000000 0.001380 0.000000
# 2 -0.001101 0.007332 -0.002683 0.000000 -0.000411 0.000000
# 3 -0.003460 -0.002683 0.009825 0.000000 -0.000499 0.000000
# 4 0.000000 0.000000 0.000000 0.030932 0.000000 -0.007431
# 5 0.001380 -0.000411 -0.000499 0.000000 0.018750 0.000000
# 6 0.000000 0.000000 0.000000 -0.007431 0.000000 0.028176
#
#
# Mechanical properties :
#
#
# Convention : Reuss Voigt Hill
#
# Bulk Modulus (GPa) = 108.56110 111.21453 109.88782
# Shear Modulus (GPa) = 41.97632 46.13036 44.05334
#
# Velocity S-wave (km/s) = 4.23991 4.44475 4.34354
# Velocity P-wave (km/s) = 8.39414 8.60058 8.49798
#
# Compressibility (1/GPa) = 0.00921140
#
# Stress axis : x y z
#
# Youngs Moduli (GPa) = 152.87174 136.38824 101.77603
#
# Poissons Ratio (x) = 0.15019 0.35214
# Poissons Ratio (y) = 0.16834 0.27303
# Poissons Ratio (z) = 0.52893 0.36588
#
# Static dielectric constant tensor:
#      x y z
#    x 6.191430 0.000000 1.644400 
#    y 0.000000 4.098260 0.000000 
#    z 1.644400 0.000000 5.353820 
# 
# 
# High freq. dielectric constant tensor:
#      x y z
#    x 1.937140 0.000000 0.011260 
#    y 0.000000 1.949000 0.000000 
#    z 0.011260 0.000000 1.933700 
# 
# From -- ./inp_files/22617.got.cif
#   From: 2010.06.25/outbox.cif.g09.slc.cpg/sg15_12_cif.got.tgz:22617.got - 2010.06.28 07:06:18.
