data_PCOD8155183
_publ_section_title
;
Structure prediction by ZEFSAII (Michael W. Deem and Ramdas Pophale) SiO2 
 PCOD8155183
Probable space group: C 2/C
;
_chemical_formula_sum "Si O2"
_cell_formula_units_Z 56
_cell_length_a 28.492795
_cell_length_b 12.212227
_cell_length_c 8.631729
_cell_angle_alpha 90.000000
_cell_angle_beta 107.203785
_cell_angle_gamma 90.000000
_cell_volume 2869.120426
_symmetry_space_group_name_H-M "C 2/C"
_symmetry_group_IT_number 15
_symmetry_cell_setting 'monoclinic'
loop_
_space_group_symop_operation_xyz
x,y,z
-x,y,1/2-z
-x,-y,-z
x,-y,1/2+z
1/2+x,1/2+y,z
1/2-x,1/2+y,1/2-z
1/2-x,1/2-y,-z
1/2+x,1/2-y,1/2+z
loop_
_atom_site_type_symbol
_atom_site_label
_atom_site_fract_x
_atom_site_fract_y
_atom_site_fract_z
Si Si1 0.820254 0.810709 0.980467
Si Si2 0.337899 0.043871 0.526158
Si Si3 0.025212 0.252177 0.928847
Si Si4 0.117568 0.638283 0.636270
Si Si5 0.040702 0.911594 0.999975
Si Si6 0.409449 0.562483 0.652230
Si Si7 0.288758 0.866306 0.684951
O O1 0.852897 0.918018 0.050241
O O2 0.812948 0.740648 0.130578
O O3 0.846976 0.737222 0.877974
O O4 0.769567 0.852946 0.860924
O O5 0.372348 0.115505 0.672874
O O6 0.308255 0.122282 0.379497
O O7 0.372913 0.967637 0.458823
O O8 0.300023 0.973728 0.593179
O O9 0.056834 0.150073 0.902014
O O10 0.000000 0.305685 0.750000
O O11 0.983716 0.209063 0.010990
O O12 0.059983 0.336385 0.053390
O O13 0.086337 0.921906 0.161735
O O14 0.067913 0.941074 0.864829
O O15 0.000000 0.000000 0.000000
#
# Coordination Sequence:
#
# PCOD8155183 Si02
#       7
#     8   8   8   8   8   8   8
#     4   9  18  32  49  70  99 132 163 198 245 299
#     4   9  18  32  51  71  95 128 165 209 249 288
#     4   8  15  29  49  68  92 128 162 199 246 292
#     4   9  17  32  51  71  96 128 165 204 250 296
#     4   9  16  29  47  67  95 129 160 191 237 290
#     4   9  17  29  46  69  96 129 160 192 235 287
#     4   9  18  33  50  70  98 130 164 203 248 291
#
# _framework density 19.518177000000001
#
# number of rings (size 3 to 8) (size 9 to 14) (size 15 to 20)
#    0.000    3.143    0.000    1.286    0.000    1.714 
#    0.000    6.429    0.000    3.429    0.000    0.000 
#    0.000    0.000    0.000    0.000    0.000    0.000 
#
# Total GULP energy -346961.508268 kJ/mol
# GULP energy per Si atom -12391.482438 kJ/mol
# Density = 1.947375 g / cm^3
# Si number density = 19.518177 Si / 1000 Ang^3
#
#
#
# Elastic Constant Matrix: (Units=GPa)
#
#
# Indices 1 2 3 4 5 6 
#
# 1 88.7182 38.4005 58.5664 0.0000 23.1035 0.0000
# 2 38.4005 52.3406 46.9877 0.0000 16.7201 0.0000
# 3 58.5664 46.9877 150.7048 0.0000 26.4765 0.0000
# 4 0.0000 0.0000 0.0000 29.5876 0.0000 11.3092
# 5 23.1035 16.7201 26.4765 0.0000 27.7069 0.0000
# 6 0.0000 0.0000 0.0000 11.3092 0.0000 23.5783
#
#
#
# Elastic Compliance Matrix: (Units=1/GPa)
#
#
# Indices 1 2 3 4 5 6 
#
# 1 0.019251 -0.008592 -0.003477 0.000000 -0.007545 0.000000
# 2 -0.008592 0.032751 -0.005599 0.000000 -0.007250 0.000000
# 3 -0.003477 -0.005599 0.010370 0.000000 -0.003632 0.000000
# 4 0.000000 0.000000 0.000000 0.041385 0.000000 -0.019850
# 5 -0.007545 -0.007250 -0.003632 0.000000 0.050229 0.000000
# 6 0.000000 0.000000 0.000000 -0.019850 0.000000 0.051933
#
#
# Mechanical properties :
#
#
# Convention : Reuss Voigt Hill
#
# Bulk Modulus (GPa) = 36.98621 64.40808 50.69714
# Shear Modulus (GPa) = 19.97868 26.02850 23.00359
#
# Velocity S-wave (km/s) = 3.20284 3.65574 3.43676
# Velocity P-wave (km/s) = 5.71562 7.13372 6.46368
#
# Compressibility (1/GPa) = 0.02703711
#
# Stress axis : x y z
#
# Youngs Moduli (GPa) = 51.94670 30.53297 96.42931
#
# Poissons Ratio (x) = 0.26234 0.33525
# Poissons Ratio (y) = 0.44633 0.53989
# Poissons Ratio (z) = 0.18060 0.17095
#
# Static dielectric constant tensor:
#      x y z
#    x 3.621390 0.000000 0.098170 
#    y 0.000000 3.621700 0.000000 
#    z 0.098170 0.000000 3.826880 
# 
# 
# High freq. dielectric constant tensor:
#      x y z
#    x 1.746850 0.000000 0.012400 
#    y 0.000000 1.727760 0.000000 
#    z 0.012400 0.000000 1.764350 
# 
# From -- ./inp_files/69149.got.cif
#   From: 2010.06.25/outbox.cif.g09.slc.cpg/sg15_35_cif.got.tgz:69149.got - 2010.06.28 07:06:18.
