data_PCOD8155182
_publ_section_title
;
Structure prediction by ZEFSAII (Michael W. Deem and Ramdas Pophale) SiO2 
 PCOD8155182
Probable space group: C 2/C
;
_chemical_formula_sum "Si O2"
_cell_formula_units_Z 52
_cell_length_a 13.066840
_cell_length_b 13.010961
_cell_length_c 20.633289
_cell_angle_alpha 90.000000
_cell_angle_beta 74.203364
_cell_angle_gamma 90.000000
_cell_volume 3375.429939
_symmetry_space_group_name_H-M "C 2/C"
_symmetry_group_IT_number 15
_symmetry_cell_setting 'monoclinic'
loop_
_space_group_symop_operation_xyz
x,y,z
-x,y,1/2-z
-x,-y,-z
x,-y,1/2+z
1/2+x,1/2+y,z
1/2-x,1/2+y,1/2-z
1/2-x,1/2-y,-z
1/2+x,1/2-y,1/2+z
loop_
_atom_site_type_symbol
_atom_site_label
_atom_site_fract_x
_atom_site_fract_y
_atom_site_fract_z
Si Si1 0.408728 0.217715 0.434508
Si Si2 0.419015 0.744551 0.495253
Si Si3 0.404278 0.990357 0.875869
Si Si4 0.000000 0.601763 0.750000
Si Si5 0.250176 0.081911 0.998808
Si Si6 0.243302 0.621733 0.931755
Si Si7 0.062716 0.347413 0.372509
O O1 0.520055 0.252433 0.446548
O O2 0.423481 0.131836 0.376215
O O3 0.353690 0.316716 0.412123
O O4 0.336804 0.165769 0.501421
O O5 0.331872 0.834030 0.511356
O O6 0.362662 0.634233 0.497796
O O7 0.502746 0.756012 0.421364
O O8 0.411261 0.028520 0.799830
O O9 0.292200 0.026352 0.926106
O O10 0.499537 0.046422 0.899727
O O11 0.943325 0.672500 0.704563
O O12 0.232526 0.997423 0.058064
O O13 0.185028 0.637796 0.872649
#
# Coordination Sequence:
#
# PCOD8155182 Si02
#       7
#     8   8   8   4   8   8   8
#     4   9  16  26  43  66  89 109 139 173 219 255
#     4   9  16  26  43  68  91 109 137 178 222 258
#     4   8  15  28  46  60  86 106 145 181 208 248
#     4   8  16  28  48  60  78 112 156 174 208 244
#     4   9  16  26  43  68  90 111 134 177 224 255
#     4   9  16  26  43  66  87 113 136 172 218 260
#     4   8  15  28  46  60  84 111 145 181 208 253
#
# _framework density 15.405445
#
# number of rings (size 3 to 8) (size 9 to 14) (size 15 to 20)
#    0.923    2.462    0.000    0.923    0.000    4.308 
#    0.000    0.000    6.769    0.000    0.000    1.077 
#    0.000    0.000    0.000    0.000    0.000    0.000 
#
# Total GULP energy -322120.250076 kJ/mol
# GULP energy per Si atom -12389.240388 kJ/mol
# Density = 1.537038 g / cm^3
# Si number density = 15.405445 Si / 1000 Ang^3
#
#
#
# Elastic Constant Matrix: (Units=GPa)
#
#
# Indices 1 2 3 4 5 6 
#
# 1 87.7297 51.6452 30.8184 0.0000 12.2984 0.0000
# 2 51.6452 76.0917 26.2943 0.0000 10.5396 0.0000
# 3 30.8184 26.2943 74.0164 0.0000 11.8955 0.0000
# 4 0.0000 0.0000 0.0000 11.1534 0.0000 0.6564
# 5 12.2984 10.5396 11.8955 0.0000 14.1887 0.0000
# 6 0.0000 0.0000 0.0000 0.6564 0.0000 20.6180
#
#
#
# Elastic Compliance Matrix: (Units=1/GPa)
#
#
# Indices 1 2 3 4 5 6 
#
# 1 0.020392 -0.011855 -0.003298 0.000000 -0.006104 0.000000
# 2 -0.011855 0.022640 -0.002375 0.000000 -0.004550 0.000000
# 3 -0.003298 -0.002375 0.017318 0.000000 -0.009896 0.000000
# 4 0.000000 0.000000 0.000000 0.089827 0.000000 -0.002860
# 5 -0.006104 -0.004550 -0.009896 0.000000 0.087445 0.000000
# 6 0.000000 0.000000 0.000000 -0.002860 0.000000 0.048592
#
#
# Mechanical properties :
#
#
# Convention : Reuss Voigt Hill
#
# Bulk Modulus (GPa) = 39.53793 50.59483 45.06638
# Shear Modulus (GPa) = 15.16519 17.79734 16.48127
#
# Velocity S-wave (km/s) = 3.14093 3.40260 3.27438
# Velocity P-wave (km/s) = 6.23494 6.95345 6.60397
#
# Compressibility (1/GPa) = 0.02529217
#
# Stress axis : x y z
#
# Youngs Moduli (GPa) = 49.03882 44.17048 57.74339
#
# Poissons Ratio (x) = 0.52366 0.19044
# Poissons Ratio (y) = 0.58138 0.13715
# Poissons Ratio (z) = 0.16173 0.10491
#
# Static dielectric constant tensor:
#      x y z
#    x 2.898950 0.000000 0.080050 
#    y 0.000000 2.887280 0.000000 
#    z 0.080050 0.000000 2.649020 
# 
# 
# High freq. dielectric constant tensor:
#      x y z
#    x 1.579990 0.000000 0.011940 
#    y 0.000000 1.579650 0.000000 
#    z 0.011940 0.000000 1.552290 
# 
# From -- ./inp_files/273345.got.cif
#   From: 2010.06.25/outbox.cif.g09.slc.cpg/sg15_137_cif.got.tgz:273345.got - 2010.06.28 07:06:18.
