data_PCOD8155821
_publ_section_title
;
Structure prediction by ZEFSAII (Michael W. Deem and Ramdas Pophale) SiO2 
 PCOD8155821
Probable space group: P 21 21 2
;
_chemical_formula_sum "Si O2"
_cell_formula_units_Z 24
_cell_length_a 16.384869
_cell_length_b 9.450402
_cell_length_c 8.246168
_cell_angle_alpha 90.000000
_cell_angle_beta 90.000000
_cell_angle_gamma 90.000000
_cell_volume 1276.866329
_symmetry_space_group_name_H-M "P 21 21 2"
_symmetry_group_IT_number 18
_symmetry_cell_setting 'orthorhombic'
loop_
_space_group_symop_operation_xyz
x,y,z
-x,-y,z
1/2+x,1/2-y,-z
1/2-x,1/2+y,-z
loop_
_atom_site_type_symbol
_atom_site_label
_atom_site_fract_x
_atom_site_fract_y
_atom_site_fract_z
Si Si1 0.069953 0.907597 0.228578
Si Si2 0.571145 0.886525 0.622437
Si Si3 0.557605 0.754707 0.291268
Si Si4 0.000000 0.000000 0.530941
Si Si5 0.188322 0.816560 0.966699
Si Si6 0.167798 0.518360 0.103918
Si Si7 0.000000 0.500000 0.923404
O O1 0.041598 0.745052 0.263238
O O2 0.079182 0.983064 0.408062
O O3 0.150567 0.904944 0.118354
O O4 0.000000 0.000000 0.134684
O O5 0.597741 0.836761 0.443315
O O6 0.500000 0.000000 0.608256
O O7 0.652257 0.953088 0.704978
O O8 0.493444 0.637844 0.356510
O O9 0.627793 0.679212 0.186611
O O10 0.504397 0.860161 0.184662
O O11 0.273074 0.886113 0.916729
O O12 0.206525 0.655352 0.016930
O O13 0.079568 0.481644 0.031892
#
# Coordination Sequence:
#
# PCOD8155821 Si02
#       7
#     4   4   4   2   4   4   2
#     4   8  18  35  57  84 115 152 194 237 290 362
#     4  10  18  36  62  81 116 153 194 239 297 357
#     4  10  20  35  59  90 116 145 198 254 285 353
#     4   8  18  34  56  86 120 152 190 232 304 352
#     4  10  22  38  58  87 123 150 202 254 287 347
#     4  10  22  40  59  86 119 159 199 243 299 357
#     4  10  20  38  62  86 114 154 206 240 284 362
#
# _framework density 18.796016999999999
#
# number of rings (size 3 to 8) (size 9 to 14) (size 15 to 20)
#    0.500    2.000    1.667    0.000    1.167    2.667 
#    0.000   10.000    0.000    0.000    0.000    0.000 
#    0.000    0.000    0.000    0.000    0.000    0.000 
#
# Total GULP energy -297334.320072 kJ/mol
# GULP energy per Si atom -12388.930003 kJ/mol
# Density = 1.875324 g / cm^3
# Si number density = 18.796017 Si / 1000 Ang^3
#
#
#
# Elastic Constant Matrix: (Units=GPa)
#
#
# Indices 1 2 3 4 5 6 
#
# 1 83.2200 60.5907 34.4589 0.0000 0.0000 0.0000
# 2 60.5907 88.9535 45.3162 0.0000 0.0000 0.0000
# 3 34.4589 45.3162 102.6190 0.0000 0.0000 0.0000
# 4 0.0000 0.0000 0.0000 28.5410 0.0000 0.0000
# 5 0.0000 0.0000 0.0000 0.0000 9.4235 0.0000
# 6 0.0000 0.0000 0.0000 0.0000 0.0000 38.5461
#
#
#
# Elastic Compliance Matrix: (Units=1/GPa)
#
#
# Indices 1 2 3 4 5 6 
#
# 1 0.023931 -0.015750 -0.001081 0.000000 0.000000 0.000000
# 2 -0.015750 0.024871 -0.005694 0.000000 0.000000 0.000000
# 3 -0.001081 -0.005694 0.012622 0.000000 0.000000 0.000000
# 4 0.000000 0.000000 0.000000 0.035037 0.000000 0.000000
# 5 0.000000 0.000000 0.000000 0.000000 0.106118 0.000000
# 6 0.000000 0.000000 0.000000 0.000000 0.000000 0.025943
#
#
# Mechanical properties :
#
#
# Convention : Reuss Voigt Hill
#
# Bulk Modulus (GPa) = 61.07147 61.72490 61.39819
# Shear Modulus (GPa) = 17.91916 24.26387 21.09152
#
# Velocity S-wave (km/s) = 3.09098 3.59681 3.35345
# Velocity P-wave (km/s) = 6.73061 7.08238 6.90873
#
# Compressibility (1/GPa) = 0.01637426
#
# Stress axis : x y z
#
# Youngs Moduli (GPa) = 41.78633 40.20766 79.22566
#
# Poissons Ratio (x) = 0.63328 0.08562
# Poissons Ratio (y) = 0.65814 0.45112
# Poissons Ratio (z) = 0.04516 0.22894
#
# Static dielectric constant tensor:
#      x y z
#    x 3.037450 0.000000 0.000000 
#    y 0.000000 3.641260 0.000000 
#    z 0.000000 0.000000 3.766560 
# 
# 
# High freq. dielectric constant tensor:
#      x y z
#    x 1.677880 0.000000 0.000000 
#    y 0.000000 1.743340 0.000000 
#    z 0.000000 0.000000 1.745610 
# 
# From -- ./inp_files/4491.got.cif
#   From: 2010.03.12/outbox.cif.g09.slc.cpg/sg18_3_cif.got.tgz:4491.got - 2010.04.10 18:53:55.
