data_PCOD8155352
_publ_section_title
;
Structure prediction by ZEFSAII (Michael W. Deem and Ramdas Pophale) SiO2 
 PCOD8155352
Probable space group: P 2 2 2
;
_chemical_formula_sum "Si O2"
_cell_formula_units_Z 13
_cell_length_a 10.878494
_cell_length_b 5.615890
_cell_length_c 8.158708
_cell_angle_alpha 90.000000
_cell_angle_beta 90.000000
_cell_angle_gamma 90.000000
_cell_volume 498.435262
_symmetry_space_group_name_H-M "P 2 2 2"
_symmetry_group_IT_number 16
_symmetry_cell_setting 'orthorhombic'
loop_
_space_group_symop_operation_xyz
x,y,z
-x,-y,z
x,-y,-z
-x,y,-z
loop_
_atom_site_type_symbol
_atom_site_label
_atom_site_fract_x
_atom_site_fract_y
_atom_site_fract_z
Si Si1 0.672079 0.727675 0.746582
Si Si2 0.881419 0.343973 0.747023
Si Si3 0.000000 0.000000 0.500000
Si Si4 0.500000 0.000000 0.500000
Si Si5 0.186198 0.000000 0.000000
Si Si6 0.500000 0.500000 0.000000
O O1 0.759643 0.501296 0.704453
O O2 0.745959 0.943855 0.828737
O O3 0.590227 0.822460 0.597296
O O4 0.581165 0.667855 0.891036
O O5 0.000000 0.500000 0.734231
O O6 0.901499 0.145976 0.607424
O O7 0.885423 0.232420 0.933035
#
# Coordination Sequence:
#
# PCOD8155352 Si02
#       6
#     4   4   1   1   2   1
#     4  12  28  55  85 123 169 222 283 356 420 515
#     4  12  29  54  85 120 168 218 284 357 428 510
#     4  12  30  52  80 124 176 216 274 360 446 496
#     4  12  32  54  88 132 176 224 290 354 444 496
#     4  12  26  54  84 120 160 221 279 342 430 508
#     4  12  24  60  78 116 170 222 276 344 416 510
#
# _framework density 26.081624000000001
#
# number of rings (size 3 to 8) (size 9 to 14) (size 15 to 20)
#    0.000    0.000    3.077    4.154    0.000   17.231 
#    5.538    0.000    0.000    0.000    0.000    0.000 
#    0.000    0.000    0.000    0.000    0.000    0.000 
#
# Total GULP energy -161095.160100 kJ/mol
# GULP energy per Si atom -12391.935392 kJ/mol
# Density = 2.602226 g / cm^3
# Si number density = 26.081624 Si / 1000 Ang^3
#
#
#
# Elastic Constant Matrix: (Units=GPa)
#
#
# Indices 1 2 3 4 5 6 
#
# 1 161.2283 79.1674 88.9796 0.0000 0.0000 0.0000
# 2 79.1674 152.7097 81.7824 0.0000 0.0000 0.0000
# 3 88.9796 81.7824 169.2005 0.0000 0.0000 0.0000
# 4 0.0000 0.0000 0.0000 51.6025 0.0000 0.0000
# 5 0.0000 0.0000 0.0000 0.0000 64.6036 0.0000
# 6 0.0000 0.0000 0.0000 0.0000 0.0000 33.2803
#
#
#
# Elastic Compliance Matrix: (Units=1/GPa)
#
#
# Indices 1 2 3 4 5 6 
#
# 1 0.009720 -0.003105 -0.003611 0.000000 0.000000 0.000000
# 2 -0.003105 0.009828 -0.003117 0.000000 0.000000 0.000000
# 3 -0.003611 -0.003117 0.009315 0.000000 0.000000 0.000000
# 4 0.000000 0.000000 0.000000 0.019379 0.000000 0.000000
# 5 0.000000 0.000000 0.000000 0.000000 0.015479 0.000000
# 6 0.000000 0.000000 0.000000 0.000000 0.000000 0.030048
#
#
# Mechanical properties :
#
#
# Convention : Reuss Voigt Hill
#
# Bulk Modulus (GPa) = 108.73130 109.22192 108.97661
# Shear Modulus (GPa) = 42.91845 45.44456 44.18150
#
# Velocity S-wave (km/s) = 4.06093 4.17873 4.12025
# Velocity P-wave (km/s) = 7.98546 8.07776 8.03174
#
# Compressibility (1/GPa) = 0.00919698
#
# Stress axis : x y z
#
# Youngs Moduli (GPa) = 102.88314 101.75477 107.34821
#
# Poissons Ratio (x) = 0.31598 0.38758
# Poissons Ratio (y) = 0.31948 0.33461
# Poissons Ratio (z) = 0.37146 0.31718
#
# Static dielectric constant tensor:
#      x y z
#    x 7.773210 0.000000 0.000000 
#    y 0.000000 3.889640 0.000000 
#    z 0.000000 0.000000 4.764620 
# 
# 
# High freq. dielectric constant tensor:
#      x y z
#    x 2.058090 0.000000 0.000000 
#    y 0.000000 2.065480 0.000000 
#    z 0.000000 0.000000 2.061060 
# 
# From -- ./inp_files/4308.got.cif
#   From: 2010.03.12/outbox.cif.g09.slc.cpg/sg16_3_cif.got.tgz:4308.got - 2010.03.31 00:51:45.
