data_PCOD8155399
_publ_section_title
;
Structure prediction by ZEFSAII (Michael W. Deem and Ramdas Pophale) SiO2 
 PCOD8155399
Probable space group: P 2 2 21
;
_chemical_formula_sum "Si O2"
_cell_formula_units_Z 26
_cell_length_a 7.085245
_cell_length_b 5.174466
_cell_length_c 28.244528
_cell_angle_alpha 90.000000
_cell_angle_beta 90.000000
_cell_angle_gamma 90.000000
_cell_volume 1035.511035
_symmetry_space_group_name_H-M "P 2 2 21"
_symmetry_group_IT_number 17
_symmetry_cell_setting 'orthorhombic'
loop_
_space_group_symop_operation_xyz
x,y,z
-x,-y,1/2+z
x,-y,-z
-x,y,1/2-z
loop_
_atom_site_type_symbol
_atom_site_label
_atom_site_fract_x
_atom_site_fract_y
_atom_site_fract_z
Si Si1 0.217784 0.131798 0.312146
Si Si2 0.991898 0.500000 0.500000
Si Si3 0.244251 0.000000 0.500000
Si Si4 0.175511 0.848165 0.847547
Si Si5 0.907852 0.655068 0.404365
Si Si6 0.674527 0.808453 0.097634
Si Si7 0.509560 0.487424 0.331287
Si Si8 0.500000 0.150923 0.750000
O O1 0.010214 0.112808 0.191291
O O2 0.292497 0.428616 0.314731
O O3 0.285264 0.020236 0.362527
O O4 0.314616 0.003472 0.266722
O O5 0.847759 0.578251 0.457530
O O6 0.117392 0.248442 0.486284
O O7 0.373977 0.063485 0.546463
O O8 0.158632 0.556137 0.867343
O O9 0.385784 0.798091 0.826586
O O10 0.173033 0.066122 0.887866
O O11 0.134495 0.645536 0.408661
O O12 0.502727 0.621470 0.116189
O O13 0.593076 0.684637 0.292895
#
# Coordination Sequence:
#
# PCOD8155399 Si02
#       8
#     4   2   2   4   4   4   4   2
#     4  10  21  44  67  96 136 183 225 292 349 430
#     4  10  18  34  64  98 142 182 242 288 342 404
#     4  10  20  32  64 110 134 188 246 286 338 422
#     4  11  24  40  71  99 137 179 232 278 361 414
#     4  10  20  39  64 103 132 186 230 286 339 417
#     4   9  20  37  67  96 141 181 236 281 351 404
#     4  11  23  43  70  99 135 187 227 297 351 429
#     4  10  24  44  70  98 140 182 242 288 368 422
#
# _framework density 25.108373
#
# number of rings (size 3 to 8) (size 9 to 14) (size 15 to 20)
#    0.000    1.846    1.538    3.231    6.462    0.000 
#    0.000    4.615    3.385    0.923    0.000    0.000 
#    0.000    0.000    0.000    0.000    0.000    0.000 
#
# Total GULP energy -322122.783277 kJ/mol
# GULP energy per Si atom -12389.337818 kJ/mol
# Density = 2.505123 g / cm^3
# Si number density = 25.108373 Si / 1000 Ang^3
#
#
#
# Elastic Constant Matrix: (Units=GPa)
#
#
# Indices 1 2 3 4 5 6 
#
# 1 64.3568 13.0642 1.5902 0.0000 0.0000 0.0000
# 2 13.0642 115.9951 11.9853 0.0000 0.0000 0.0000
# 3 1.5902 11.9853 81.0974 0.0000 0.0000 0.0000
# 4 0.0000 0.0000 0.0000 42.5682 0.0000 0.0000
# 5 0.0000 0.0000 0.0000 0.0000 16.1912 0.0000
# 6 0.0000 0.0000 0.0000 0.0000 0.0000 42.6125
#
#
#
# Elastic Compliance Matrix: (Units=1/GPa)
#
#
# Indices 1 2 3 4 5 6 
#
# 1 0.015902 -0.001786 -0.000048 0.000000 0.000000 0.000000
# 2 -0.001786 0.008955 -0.001288 0.000000 0.000000 0.000000
# 3 -0.000048 -0.001288 0.012522 0.000000 0.000000 0.000000
# 4 0.000000 0.000000 0.000000 0.023492 0.000000 0.000000
# 5 0.000000 0.000000 0.000000 0.000000 0.061762 0.000000
# 6 0.000000 0.000000 0.000000 0.000000 0.000000 0.023467
#
#
# Mechanical properties :
#
#
# Convention : Reuss Voigt Hill
#
# Bulk Modulus (GPa) = 32.11833 34.96986 33.54409
# Shear Modulus (GPa) = 30.72690 35.92834 33.32762
#
# Velocity S-wave (km/s) = 3.50204 3.78687 3.64723
# Velocity P-wave (km/s) = 5.40111 5.75137 5.57899
#
# Compressibility (1/GPa) = 0.03113487
#
# Stress axis : x y z
#
# Youngs Moduli (GPa) = 62.88467 111.66508 79.85807
#
# Poissons Ratio (x) = 0.19944 0.00382
# Poissons Ratio (y) = 0.11232 0.10290
# Poissons Ratio (z) = 0.00301 0.14388
#
# Static dielectric constant tensor:
#      x y z
#    x 4.767400 0.000000 0.000000 
#    y 0.000000 4.640150 0.000000 
#    z 0.000000 0.000000 4.810630 
# 
# 
# High freq. dielectric constant tensor:
#      x y z
#    x 1.981480 0.000000 0.000000 
#    y 0.000000 2.015530 0.000000 
#    z 0.000000 0.000000 1.999810 
# 
# From -- ./inp_files/10583.got.cif
#   From: 2010.03.12/outbox.cif.g09.slc.cpg/sg17_6_cif.got.tgz:10583.got - 2010.04.10 18:46:23.
