data_PCOD8155649
_publ_section_title
;
Structure prediction by ZEFSAII (Michael W. Deem and Ramdas Pophale) SiO2 
 PCOD8155649
Probable space group: P 2 2 21
;
_chemical_formula_sum "Si O2"
_cell_formula_units_Z 16
_cell_length_a 7.393729
_cell_length_b 5.079414
_cell_length_c 16.558467
_cell_angle_alpha 90.000000
_cell_angle_beta 90.000000
_cell_angle_gamma 90.000000
_cell_volume 621.866650
_symmetry_space_group_name_H-M "P 2 2 21"
_symmetry_group_IT_number 17
_symmetry_cell_setting 'orthorhombic'
loop_
_space_group_symop_operation_xyz
x,y,z
-x,-y,1/2+z
x,-y,-z
-x,y,1/2-z
loop_
_atom_site_type_symbol
_atom_site_label
_atom_site_fract_x
_atom_site_fract_y
_atom_site_fract_z
Si Si1 0.583910 0.939416 0.411909
Si Si2 0.764254 0.188230 0.808823
Si Si3 0.956222 0.254289 0.552573
Si Si4 0.303208 0.697210 0.782424
O O1 0.430953 0.813740 0.354365
O O2 0.745180 0.728185 0.422410
O O3 0.498084 0.000000 0.500000
O O4 0.681960 0.206051 0.376003
O O5 0.922279 0.266824 0.868223
O O6 0.764212 0.401855 0.735357
O O7 0.814976 0.909086 0.768766
O O8 0.015123 0.500000 0.500000
O O9 0.001028 0.000000 0.500000
O O10 0.500000 0.737549 0.750000
#
# Coordination Sequence:
#
# PCOD8155649 Si02
#       4
#     4   4   4   4
#     4  10  24  45  70  99 135 177 221 280 339 393
#     4  11  23  44  68  94 134 175 216 273 331 389
#     4  11  25  43  67 103 136 174 230 273 326 407
#     4  10  22  42  67  97 130 170 223 269 325 402
#
# _framework density 25.728987
#
# number of rings (size 3 to 8) (size 9 to 14) (size 15 to 20)
#    0.000    1.500    0.000    4.500    0.000   16.000 
#    0.000    7.500    0.000    0.000    0.000    0.000 
#    0.000    0.000    0.000    0.000    0.000    0.000 
#
# Total GULP energy -198309.701717 kJ/mol
# GULP energy per Si atom -12394.356357 kJ/mol
# Density = 2.567043 g / cm^3
# Si number density = 25.728987 Si / 1000 Ang^3
#
#
#
# Elastic Constant Matrix: (Units=GPa)
#
#
# Indices 1 2 3 4 5 6 
#
# 1 78.5301 16.8436 18.1422 0.0000 0.0000 0.0000
# 2 16.8436 142.4825 41.5130 0.0000 0.0000 0.0000
# 3 18.1422 41.5130 131.4101 0.0000 0.0000 0.0000
# 4 0.0000 0.0000 0.0000 41.2170 0.0000 0.0000
# 5 0.0000 0.0000 0.0000 0.0000 42.8242 0.0000
# 6 0.0000 0.0000 0.0000 0.0000 0.0000 -10.6353
#
#
#
# Elastic Compliance Matrix: (Units=1/GPa)
#
#
# Indices 1 2 3 4 5 6 
#
# 1 0.013321 -0.001144 -0.001478 0.000000 0.000000 0.000000
# 2 -0.001144 0.007828 -0.002315 0.000000 0.000000 0.000000
# 3 -0.001478 -0.002315 0.008545 0.000000 0.000000 0.000000
# 4 0.000000 0.000000 0.000000 0.024262 0.000000 0.000000
# 5 0.000000 0.000000 0.000000 0.000000 0.023351 0.000000
# 6 0.000000 0.000000 0.000000 0.000000 0.000000 -0.094026
#
#
# Mechanical properties :
#
#
# Convention : Reuss Voigt Hill
#
# Bulk Modulus (GPa) = 50.45300 56.15781 53.30540
# Shear Modulus (GPa) = -20929.31289 33.07610 -10448.11839
#
# Velocity S-wave (km/s) = -90.28946 3.58936 -63.79382
# Velocity P-wave (km/s) = 104.16299 6.24916 73.52169
#
# Compressibility (1/GPa) = 0.01982043
#
# Stress axis : x y z
#
# Youngs Moduli (GPa) = 75.07090 127.74412 117.02662
#
# Poissons Ratio (x) = 0.14617 0.17292
# Poissons Ratio (y) = 0.08590 0.27091
# Poissons Ratio (z) = 0.11092 0.29572
#
# Static dielectric constant tensor:
#      x y z
#    x 4.756040 0.000000 0.000000 
#    y 0.000000 5.252300 0.000000 
#    z 0.000000 0.000000 6.553650 
# 
# 
# High freq. dielectric constant tensor:
#      x y z
#    x 2.022440 0.000000 0.000000 
#    y 0.000000 2.026950 0.000000 
#    z 0.000000 0.000000 2.050940 
# 
# From -- ./inp_files/9978.got.cif
#   From: 2010.03.12/outbox.cif.g09.slc.cpg/sg17_5_cif.got.tgz:9978.got - 2010.04.10 18:46:23.
