data_PCOD8155517
_publ_section_title
;
Structure prediction by ZEFSAII (Michael W. Deem and Ramdas Pophale) SiO2 
 PCOD8155517
Probable space group: P 2 2 21
;
_chemical_formula_sum "Si O2"
_cell_formula_units_Z 18
_cell_length_a 12.722813
_cell_length_b 13.973170
_cell_length_c 5.069803
_cell_angle_alpha 90.000000
_cell_angle_beta 90.000000
_cell_angle_gamma 90.000000
_cell_volume 901.299584
_symmetry_space_group_name_H-M "P 2 2 21"
_symmetry_group_IT_number 17
_symmetry_cell_setting 'orthorhombic'
loop_
_space_group_symop_operation_xyz
x,y,z
-x,-y,1/2+z
x,-y,-z
-x,y,1/2-z
loop_
_atom_site_type_symbol
_atom_site_label
_atom_site_fract_x
_atom_site_fract_y
_atom_site_fract_z
Si Si1 0.122281 0.562191 0.249541
Si Si2 0.433636 0.500000 0.000000
Si Si3 0.380746 0.700930 0.828835
Si Si4 0.121613 0.063226 0.748047
Si Si5 0.258176 0.251312 0.691125
O O1 0.154894 0.500000 0.500000
O O2 0.185411 0.659822 0.237108
O O3 0.000000 0.589335 0.250000
O O4 0.153789 0.500000 0.000000
O O5 0.500000 0.458903 0.750000
O O6 0.365136 0.587080 0.883404
O O7 0.500000 0.723663 0.750000
O O8 0.302739 0.736996 0.602183
O O9 0.352974 0.755978 0.098224
O O10 0.190220 0.157238 0.724586
O O11 0.000000 0.094306 0.750000
O O12 0.149829 0.000000 0.500000
O O13 0.151713 0.000000 0.000000
#
# Coordination Sequence:
#
# PCOD8155517 Si02
#       5
#     4   2   4   4   4
#     4  10  22  38  55  84 124 158 192 236 292 370
#     4  10  20  38  56  80 118 166 216 256 298 336
#     4  11  24  39  58  87 124 165 208 261 293 348
#     4  10  22  42  68  96 123 151 199 263 318 369
#     4  12  23  38  65  89 119 163 205 250 305 374
#
# _framework density 19.971160999999999
#
# number of rings (size 3 to 8) (size 9 to 14) (size 15 to 20)
#    0.000    1.333    0.000    6.667    4.667    0.000 
#    0.000    8.889    0.000   13.333    0.000    0.000 
#    0.000    0.000    0.000    0.000    0.000    0.000 
#
# Total GULP energy -223217.632870 kJ/mol
# GULP energy per Si atom -12400.979604 kJ/mol
# Density = 1.992571 g / cm^3
# Si number density = 19.971161 Si / 1000 Ang^3
#
#
#
# Elastic Constant Matrix: (Units=GPa)
#
#
# Indices 1 2 3 4 5 6 
#
# 1 83.9143 70.0521 38.3348 0.0000 0.0000 0.0000
# 2 70.0521 135.2322 56.8546 0.0000 0.0000 0.0000
# 3 38.3348 56.8546 158.1950 0.0000 0.0000 0.0000
# 4 0.0000 0.0000 0.0000 70.5818 0.0000 0.0000
# 5 0.0000 0.0000 0.0000 0.0000 47.2277 0.0000
# 6 0.0000 0.0000 0.0000 0.0000 0.0000 44.3639
#
#
#
# Elastic Compliance Matrix: (Units=1/GPa)
#
#
# Indices 1 2 3 4 5 6 
#
# 1 0.021259 -0.010421 -0.001406 0.000000 0.000000 0.000000
# 2 -0.010421 0.013819 -0.002441 0.000000 0.000000 0.000000
# 3 -0.001406 -0.002441 0.007539 0.000000 0.000000 0.000000
# 4 0.000000 0.000000 0.000000 0.014168 0.000000 0.000000
# 5 0.000000 0.000000 0.000000 0.000000 0.021174 0.000000
# 6 0.000000 0.000000 0.000000 0.000000 0.000000 0.022541
#
#
# Mechanical properties :
#
#
# Convention : Reuss Voigt Hill
#
# Bulk Modulus (GPa) = 71.02113 78.64715 74.83414
# Shear Modulus (GPa) = 37.38825 46.57467 41.98146
#
# Velocity S-wave (km/s) = 4.33148 4.83442 4.58984
# Velocity P-wave (km/s) = 7.78811 8.40405 8.10193
#
# Compressibility (1/GPa) = 0.01408032
#
# Stress axis : x y z
#
# Youngs Moduli (GPa) = 47.03877 72.36201 132.63514
#
# Poissons Ratio (x) = 0.75410 0.18652
# Poissons Ratio (y) = 0.49020 0.32380
# Poissons Ratio (z) = 0.06615 0.17666
#
# Static dielectric constant tensor:
#      x y z
#    x 3.534660 0.000000 0.000000 
#    y 0.000000 3.407960 0.000000 
#    z 0.000000 0.000000 4.024260 
# 
# 
# High freq. dielectric constant tensor:
#      x y z
#    x 1.782290 0.000000 0.000000 
#    y 0.000000 1.761020 0.000000 
#    z 0.000000 0.000000 1.807540 
# 
# From -- ./inp_files/1342.got.cif
#   From: 2010.03.12/outbox.cif.g09.slc.cpg/sg17_1_cif.got.tgz:1342.got - 2010.04.10 18:46:23.
