data_PCOD8155538
_publ_section_title
;
Structure prediction by ZEFSAII (Michael W. Deem and Ramdas Pophale) SiO2 
 PCOD8155538
Probable space group: P 2 2 21
;
_chemical_formula_sum "Si O2"
_cell_formula_units_Z 24
_cell_length_a 12.838811
_cell_length_b 10.501837
_cell_length_c 8.772397
_cell_angle_alpha 90.000000
_cell_angle_beta 90.000000
_cell_angle_gamma 90.000000
_cell_volume 1182.791941
_symmetry_space_group_name_H-M "P 2 2 21"
_symmetry_group_IT_number 17
_symmetry_cell_setting 'orthorhombic'
loop_
_space_group_symop_operation_xyz
x,y,z
-x,-y,1/2+z
x,-y,-z
-x,y,1/2-z
loop_
_atom_site_type_symbol
_atom_site_label
_atom_site_fract_x
_atom_site_fract_y
_atom_site_fract_z
Si Si1 0.253812 0.397064 0.617599
Si Si2 0.109961 0.202507 0.076435
Si Si3 0.265993 0.000000 0.000000
Si Si4 0.272815 0.000000 0.500000
Si Si5 0.098631 0.415411 0.855754
Si Si6 0.125431 0.782670 0.592297
Si Si7 0.622315 0.163002 0.753954
O O1 0.306139 0.500000 0.500000
O O2 0.193684 0.470660 0.754368
O O3 0.163352 0.322140 0.527258
O O4 0.335487 0.302580 0.697264
O O5 0.121198 0.278510 0.237282
O O6 0.989159 0.165341 0.049384
O O7 0.185979 0.082666 0.100590
O O8 0.142689 0.284023 0.928604
O O9 0.335276 0.899434 0.096632
O O10 0.202515 0.098697 0.409038
O O11 0.350475 0.064737 0.616105
O O12 0.000000 0.391329 0.750000
O O13 0.065446 0.500000 0.000000
O O14 0.500000 0.180134 0.750000
#
# Coordination Sequence:
#
# PCOD8155538 Si02
#       7
#     4   4   2   2   4   4   4
#     4  11  23  43  65  89 126 172 217 265 325 383
#     4  11  22  36  59  96 130 168 209 250 308 386
#     4  12  22  42  64  96 134 162 212 274 324 386
#     4  10  20  40  60  92 126 170 204 258 334 386
#     4  12  24  38  61  92 129 172 215 261 312 388
#     4  10  21  36  60  90 135 171 209 246 309 394
#     4  11  24  43  69  92 123 163 221 282 335 388
#
# _framework density 20.290973999999999
#
# number of rings (size 3 to 8) (size 9 to 14) (size 15 to 20)
#    0.000    1.000    5.000    2.500    2.333    0.000 
#    3.000    0.833    0.000    0.000    0.000    0.000 
#    0.000    0.000    0.000    0.000    0.000    0.000 
#
# Total GULP energy -297349.787168 kJ/mol
# GULP energy per Si atom -12389.574465 kJ/mol
# Density = 2.024479 g / cm^3
# Si number density = 20.290974 Si / 1000 Ang^3
#
#
#
# Elastic Constant Matrix: (Units=GPa)
#
#
# Indices 1 2 3 4 5 6 
#
# 1 127.6860 42.6990 56.5736 0.0000 0.0000 0.0000
# 2 42.6990 88.1163 43.3152 0.0000 0.0000 0.0000
# 3 56.5736 43.3152 115.8365 0.0000 0.0000 0.0000
# 4 0.0000 0.0000 0.0000 39.7334 0.0000 0.0000
# 5 0.0000 0.0000 0.0000 0.0000 0.5663 0.0000
# 6 0.0000 0.0000 0.0000 0.0000 0.0000 13.0913
#
#
#
# Elastic Compliance Matrix: (Units=1/GPa)
#
#
# Indices 1 2 3 4 5 6 
#
# 1 0.010684 -0.003200 -0.004021 0.000000 0.000000 0.000000
# 2 -0.003200 0.014863 -0.003995 0.000000 0.000000 0.000000
# 3 -0.004021 -0.003995 0.012090 0.000000 0.000000 0.000000
# 4 0.000000 0.000000 0.000000 0.025168 0.000000 0.000000
# 5 0.000000 0.000000 0.000000 0.000000 1.765846 0.000000
# 6 0.000000 0.000000 0.000000 0.000000 0.000000 0.076387
#
#
# Mechanical properties :
#
#
# Convention : Reuss Voigt Hill
#
# Bulk Modulus (GPa) = 65.76877 68.53494 67.15186
# Shear Modulus (GPa) = 2.58727 23.28160 12.93443
#
# Velocity S-wave (km/s) = 1.13042 3.39098 2.52751
# Velocity P-wave (km/s) = 5.84696 7.01292 6.45632
#
# Compressibility (1/GPa) = 0.01520478
#
# Stress axis : x y z
#
# Youngs Moduli (GPa) = 93.60210 67.28033 82.70968
#
# Poissons Ratio (x) = 0.21532 0.33258
# Poissons Ratio (y) = 0.29956 0.33041
# Poissons Ratio (z) = 0.37638 0.26877
#
# Static dielectric constant tensor:
#      x y z
#    x 3.382940 0.000000 0.000000 
#    y 0.000000 3.753710 0.000000 
#    z 0.000000 0.000000 3.938560 
# 
# 
# High freq. dielectric constant tensor:
#      x y z
#    x 1.767180 0.000000 0.000000 
#    y 0.000000 1.786150 0.000000 
#    z 0.000000 0.000000 1.815900 
# 
# From -- ./inp_files/4826.got.cif
#   From: 2010.03.12/outbox.cif.g09.slc.cpg/sg17_3_cif.got.tgz:4826.got - 2010.04.10 18:46:23.
