data_PCOD8155355
_publ_section_title
;
Structure prediction by ZEFSAII (Michael W. Deem and Ramdas Pophale) SiO2 
 PCOD8155355
Probable space group: P 2 2 21
;
_chemical_formula_sum "Si O2"
_cell_formula_units_Z 22
_cell_length_a 12.306293
_cell_length_b 5.103857
_cell_length_c 20.054396
_cell_angle_alpha 90.000000
_cell_angle_beta 90.000000
_cell_angle_gamma 90.000000
_cell_volume 1259.607782
_symmetry_space_group_name_H-M "P 2 2 21"
_symmetry_group_IT_number 17
_symmetry_cell_setting 'orthorhombic'
loop_
_space_group_symop_operation_xyz
x,y,z
-x,-y,1/2+z
x,-y,-z
-x,y,1/2-z
loop_
_atom_site_type_symbol
_atom_site_label
_atom_site_fract_x
_atom_site_fract_y
_atom_site_fract_z
Si Si1 0.123920 0.078965 0.267423
Si Si2 0.677958 0.082573 0.702337
Si Si3 0.500000 0.703650 0.750000
Si Si4 0.230888 0.411972 0.691804
Si Si5 0.570049 0.555728 0.885131
Si Si6 0.458211 0.068263 0.928486
O O1 0.140305 0.367736 0.296375
O O2 0.000000 0.030257 0.250000
O O3 0.200046 0.042670 0.201356
O O4 0.164963 0.859038 0.321217
O O5 0.689301 0.362609 0.742619
O O6 0.635805 0.099249 0.626682
O O7 0.604824 0.894336 0.748761
O O8 0.505234 0.520652 0.815221
O O9 0.302646 0.498842 0.627963
O O10 0.522585 0.341199 0.935826
O O11 0.548139 0.848949 0.910786
O O12 0.404286 0.000000 0.000000
#
# Coordination Sequence:
#
# PCOD8155355 Si02
#       6
#     4   4   2   4   4   4
#     4  10  20  32  49  79 110 130 169 216 269 320
#     4   9  20  31  52  75 109 138 169 211 266 326
#     4  10  16  32  50  82 100 136 166 210 264 330
#     4  10  18  33  51  78 100 138 167 214 270 311
#     4  11  19  33  50  74 105 135 174 207 257 322
#     4  11  23  33  48  74 109 144 176 209 254 315
#
# _framework density 17.465755999999999
#
# number of rings (size 3 to 8) (size 9 to 14) (size 15 to 20)
#    1.091    0.727    1.818    5.455    2.545    0.727 
#    0.000    0.000    0.000    0.000    0.000    7.636 
#    0.000    0.000    0.000    0.000    0.000    0.000 
#
# Total GULP energy -272543.375291 kJ/mol
# GULP energy per Si atom -12388.335241 kJ/mol
# Density = 1.742600 g / cm^3
# Si number density = 17.465756 Si / 1000 Ang^3
#
#
#
# Elastic Constant Matrix: (Units=GPa)
#
#
# Indices 1 2 3 4 5 6 
#
# 1 108.0546 21.3188 12.4492 0.0000 0.0000 0.0000
# 2 21.3188 99.0039 5.2669 0.0000 0.0000 0.0000
# 3 12.4492 5.2669 51.7626 0.0000 0.0000 0.0000
# 4 0.0000 0.0000 0.0000 19.7918 0.0000 0.0000
# 5 0.0000 0.0000 0.0000 0.0000 11.1614 0.0000
# 6 0.0000 0.0000 0.0000 0.0000 0.0000 27.4864
#
#
#
# Elastic Compliance Matrix: (Units=1/GPa)
#
#
# Indices 1 2 3 4 5 6 
#
# 1 0.009903 -0.002017 -0.002177 0.000000 0.000000 0.000000
# 2 -0.002017 0.010566 -0.000590 0.000000 0.000000 0.000000
# 3 -0.002177 -0.000590 0.019902 0.000000 0.000000 0.000000
# 4 0.000000 0.000000 0.000000 0.050526 0.000000 0.000000
# 5 0.000000 0.000000 0.000000 0.000000 0.089594 0.000000
# 6 0.000000 0.000000 0.000000 0.000000 0.000000 0.036382
#
#
# Mechanical properties :
#
#
# Convention : Reuss Voigt Hill
#
# Bulk Modulus (GPa) = 32.46203 37.43232 34.94718
# Shear Modulus (GPa) = 21.12297 26.34034 23.73166
#
# Velocity S-wave (km/s) = 3.48141 3.88766 3.69013
# Velocity P-wave (km/s) = 5.89803 6.45215 6.18130
#
# Compressibility (1/GPa) = 0.03080522
#
# Stress axis : x y z
#
# Youngs Moduli (GPa) = 100.97711 94.64077 50.24501
#
# Poissons Ratio (x) = 0.19086 0.10936
# Poissons Ratio (y) = 0.20364 0.02965
# Poissons Ratio (z) = 0.21979 0.05585
#
# Static dielectric constant tensor:
#      x y z
#    x 3.002110 0.000000 0.000000 
#    y 0.000000 3.409100 0.000000 
#    z 0.000000 0.000000 2.923750 
# 
# 
# High freq. dielectric constant tensor:
#      x y z
#    x 1.650930 0.000000 0.000000 
#    y 0.000000 1.702410 0.000000 
#    z 0.000000 0.000000 1.625080 
# 
# From -- ./inp_files/10165.got.cif
#   From: 2010.03.12/outbox.cif.g09.slc.cpg/sg17_6_cif.got.tgz:10165.got - 2010.04.10 18:46:23.
