data_PCOD8155304
_publ_section_title
;
Structure prediction by ZEFSAII (Michael W. Deem and Ramdas Pophale) SiO2 
 PCOD8155304
Probable space group: P 2 2 2
;
_chemical_formula_sum "Si O2"
_cell_formula_units_Z 32
_cell_length_a 10.978841
_cell_length_b 11.874401
_cell_length_c 12.378523
_cell_angle_alpha 90.000000
_cell_angle_beta 90.000000
_cell_angle_gamma 90.000000
_cell_volume 1613.752895
_symmetry_space_group_name_H-M "P 2 2 2"
_symmetry_group_IT_number 16
_symmetry_cell_setting 'orthorhombic'
loop_
_space_group_symop_operation_xyz
x,y,z
-x,-y,z
x,-y,-z
-x,y,-z
loop_
_atom_site_type_symbol
_atom_site_label
_atom_site_fract_x
_atom_site_fract_y
_atom_site_fract_z
Si Si1 0.728230 0.168607 0.695871
Si Si2 0.867139 0.706415 0.119128
Si Si3 0.133118 0.867034 0.487464
Si Si4 0.530500 0.209903 0.377998
Si Si5 0.857451 0.743340 0.879406
Si Si6 0.373307 0.543950 0.378661
Si Si7 0.259199 0.093406 0.722532
Si Si8 0.864332 0.485726 0.242574
O O1 0.788406 0.241258 0.787304
O O2 0.783191 0.191913 0.577045
O O3 0.592302 0.216369 0.690970
O O4 0.752675 0.040227 0.730350
O O5 0.870815 0.573295 0.143096
O O6 0.998490 0.766794 0.120640
O O7 0.808584 0.723265 0.001036
O O8 0.175868 0.843151 0.366436
O O9 0.000000 0.814295 0.500000
O O10 0.134335 0.000000 0.500000
O O11 0.500000 0.171297 0.500000
O O12 0.614252 0.321203 0.376862
O O13 0.602820 0.113013 0.314842
O O14 0.781023 0.850330 0.835319
O O15 0.834170 0.635431 0.805811
O O16 0.500000 0.500000 0.324084
O O17 0.367252 0.500000 0.500000
O O18 0.250291 0.495017 0.323101
O O19 0.000000 0.500000 0.299322
#
# Coordination Sequence:
#
# PCOD8155304 Si02
#       8
#     4   4   4   4   4   4   4   4
#     4  11  23  37  59  91 122 165 214 258 305 371
#     4  10  22  39  65  91 123 160 210 259 318 377
#     4   9  18  32  52  81 118 155 196 250 306 363
#     4  12  22  39  62  88 126 169 210 248 307 374
#     4  10  21  41  64  91 121 165 206 260 318 378
#     4  11  22  37  62  95 127 165 203 253 316 378
#     4  11  22  37  60  88 123 166 213 254 309 368
#     4  10  21  40  65  92 124 163 208 258 317 385
#
# _framework density 19.829554000000002
#
# number of rings (size 3 to 8) (size 9 to 14) (size 15 to 20)
#    0.000    1.500    3.750    2.250    0.000    4.250 
#    0.000    1.875    0.000    2.250    0.000    0.000 
#    0.000    0.000    0.000    0.000    0.000    0.000 
#
# Total GULP energy -396605.420875 kJ/mol
# GULP energy per Si atom -12393.919402 kJ/mol
# Density = 1.978442 g / cm^3
# Si number density = 19.829554 Si / 1000 Ang^3
#
#
#
# Elastic Constant Matrix: (Units=GPa)
#
#
# Indices 1 2 3 4 5 6 
#
# 1 102.3925 5.6649 30.6122 0.0000 0.0000 0.0000
# 2 5.6649 57.4458 10.9164 0.0000 0.0000 0.0000
# 3 30.6122 10.9164 79.8121 0.0000 0.0000 0.0000
# 4 0.0000 0.0000 0.0000 19.3142 0.0000 0.0000
# 5 0.0000 0.0000 0.0000 0.0000 8.8655 0.0000
# 6 0.0000 0.0000 0.0000 0.0000 0.0000 23.7188
#
#
#
# Elastic Compliance Matrix: (Units=1/GPa)
#
#
# Indices 1 2 3 4 5 6 
#
# 1 0.011036 -0.000291 -0.004193 0.000000 0.000000 0.000000
# 2 -0.000291 0.017880 -0.002334 0.000000 0.000000 0.000000
# 3 -0.004193 -0.002334 0.014457 0.000000 0.000000 0.000000
# 4 0.000000 0.000000 0.000000 0.051775 0.000000 0.000000
# 5 0.000000 0.000000 0.000000 0.000000 0.112796 0.000000
# 6 0.000000 0.000000 0.000000 0.000000 0.000000 0.042161
#
#
# Mechanical properties :
#
#
# Convention : Reuss Voigt Hill
#
# Bulk Modulus (GPa) = 33.62894 37.11527 35.37211
# Shear Modulus (GPa) = 18.27125 23.21016 20.74071
#
# Velocity S-wave (km/s) = 3.03878 3.42494 3.23762
# Velocity P-wave (km/s) = 5.41369 5.86499 5.64385
#
# Compressibility (1/GPa) = 0.02973629
#
# Stress axis : x y z
#
# Youngs Moduli (GPa) = 90.61204 55.92859 69.17121
#
# Poissons Ratio (x) = 0.01630 0.29004
# Poissons Ratio (y) = 0.02641 0.16143
# Poissons Ratio (z) = 0.37994 0.13052
#
# Static dielectric constant tensor:
#      x y z
#    x 3.824330 0.000000 0.000000 
#    y 0.000000 3.556110 0.000000 
#    z 0.000000 0.000000 3.533500 
# 
# 
# High freq. dielectric constant tensor:
#      x y z
#    x 1.779740 0.000000 0.000000 
#    y 0.000000 1.772880 0.000000 
#    z 0.000000 0.000000 1.756160 
# 
# From -- ./inp_files/6943.got.cif
#   From: 2010.03.12/outbox.cif.g09.slc.cpg/sg16_4_cif.got.tgz:6943.got - 2010.03.31 00:51:45.
