data_PCOD8155409
_publ_section_title
;
Structure prediction by ZEFSAII (Michael W. Deem and Ramdas Pophale) SiO2 
 PCOD8155409
Probable space group: P 2 2 21
;
_chemical_formula_sum "Si O2"
_cell_formula_units_Z 20
_cell_length_a 15.985265
_cell_length_b 13.069793
_cell_length_c 4.911533
_cell_angle_alpha 90.000000
_cell_angle_beta 90.000000
_cell_angle_gamma 90.000000
_cell_volume 1026.137634
_symmetry_space_group_name_H-M "P 2 2 21"
_symmetry_group_IT_number 17
_symmetry_cell_setting 'orthorhombic'
loop_
_space_group_symop_operation_xyz
x,y,z
-x,-y,1/2+z
x,-y,-z
-x,y,1/2-z
loop_
_atom_site_type_symbol
_atom_site_label
_atom_site_fract_x
_atom_site_fract_y
_atom_site_fract_z
Si Si1 0.056721 0.381051 0.999662
Si Si2 0.670323 0.386699 0.936893
Si Si3 0.664527 0.883130 0.536306
Si Si4 0.576969 0.808774 0.045859
Si Si5 0.236871 0.690447 0.919884
O O1 0.000000 0.349674 0.750000
O O2 0.082357 0.500000 0.000000
O O3 0.140934 0.314946 0.992385
O O4 0.000000 0.350291 0.250000
O O5 0.591249 0.312253 0.006606
O O6 0.701504 0.367765 0.630225
O O7 0.636793 0.500000 0.000000
O O8 0.749779 0.366304 0.132792
O O9 0.652885 0.849732 0.224528
O O10 0.739721 0.809829 0.633833
O O11 0.691175 0.000000 0.500000
O O12 0.583785 0.865557 0.746465
O O13 0.500000 0.832943 0.250000
#
# Coordination Sequence:
#
# PCOD8155409 Si02
#       5
#     4   4   4   4   4
#     4  10  19  30  48  76 107 138 170 209 261 311
#     4  10  19  33  53  76 104 142 177 208 256 315
#     4  10  21  37  57  77 100 136 178 220 267 309
#     4  10  21  36  53  79 107 131 170 219 265 316
#     4  10  20  34  53  76 106 139 178 220 255 311
#
# _framework density 19.490561
#
# number of rings (size 3 to 8) (size 9 to 14) (size 15 to 20)
#    0.000    2.000    0.000    4.200    0.000    3.200 
#    0.000    6.000    0.000    1.200    0.000    0.000 
#    0.000    0.000    0.000    0.000    0.000    0.000 
#
# Total GULP energy -247776.156984 kJ/mol
# GULP energy per Si atom -12388.807849 kJ/mol
# Density = 1.944620 g / cm^3
# Si number density = 19.490561 Si / 1000 Ang^3
#
#
#
# Elastic Constant Matrix: (Units=GPa)
#
#
# Indices 1 2 3 4 5 6 
#
# 1 48.9076 24.7773 6.8461 0.0000 0.0000 0.0000
# 2 24.7773 136.1767 26.7878 0.0000 0.0000 0.0000
# 3 6.8461 26.7878 113.5769 0.0000 0.0000 0.0000
# 4 0.0000 0.0000 0.0000 22.7986 0.0000 0.0000
# 5 0.0000 0.0000 0.0000 0.0000 41.4847 0.0000
# 6 0.0000 0.0000 0.0000 0.0000 0.0000 13.2753
#
#
#
# Elastic Compliance Matrix: (Units=1/GPa)
#
#
# Indices 1 2 3 4 5 6 
#
# 1 0.022541 -0.004021 -0.000410 0.000000 0.000000 0.000000
# 2 -0.004021 0.008418 -0.001743 0.000000 0.000000 0.000000
# 3 -0.000410 -0.001743 0.009240 0.000000 0.000000 0.000000
# 4 0.000000 0.000000 0.000000 0.043862 0.000000 0.000000
# 5 0.000000 0.000000 0.000000 0.000000 0.024105 0.000000
# 6 0.000000 0.000000 0.000000 0.000000 0.000000 0.075328
#
#
# Mechanical properties :
#
#
# Convention : Reuss Voigt Hill
#
# Bulk Modulus (GPa) = 35.90510 46.16484 41.03497
# Shear Modulus (GPa) = 24.37521 31.52840 27.95180
#
# Velocity S-wave (km/s) = 3.54024 4.02633 3.79109
# Velocity P-wave (km/s) = 5.93067 6.73441 6.34528
#
# Compressibility (1/GPa) = 0.02785119
#
# Stress axis : x y z
#
# Youngs Moduli (GPa) = 44.36349 118.79551 108.21981
#
# Poissons Ratio (x) = 0.47763 0.04442
# Poissons Ratio (y) = 0.17837 0.18863
# Poissons Ratio (z) = 0.01821 0.20707
#
# Static dielectric constant tensor:
#      x y z
#    x 3.217960 0.000000 0.000000 
#    y 0.000000 3.545280 0.000000 
#    z 0.000000 0.000000 3.995610 
# 
# 
# High freq. dielectric constant tensor:
#      x y z
#    x 1.722750 0.000000 0.000000 
#    y 0.000000 1.740130 0.000000 
#    z 0.000000 0.000000 1.790420 
# 
# From -- ./inp_files/1450.got.cif
#   From: 2010.03.12/outbox.cif.g09.slc.cpg/sg17_1_cif.got.tgz:1450.got - 2010.04.10 18:46:23.
