data_PCOD8155459
_publ_section_title
;
Structure prediction by ZEFSAII (Michael W. Deem and Ramdas Pophale) SiO2 
 PCOD8155459
Probable space group: P 2 2 21
;
_chemical_formula_sum "Si O2"
_cell_formula_units_Z 14
_cell_length_a 13.928186
_cell_length_b 11.005103
_cell_length_c 5.154534
_cell_angle_alpha 90.000000
_cell_angle_beta 90.000000
_cell_angle_gamma 90.000000
_cell_volume 790.092753
_symmetry_space_group_name_H-M "P 2 2 21"
_symmetry_group_IT_number 17
_symmetry_cell_setting 'orthorhombic'
loop_
_space_group_symop_operation_xyz
x,y,z
-x,-y,1/2+z
x,-y,-z
-x,y,1/2-z
loop_
_atom_site_type_symbol
_atom_site_label
_atom_site_fract_x
_atom_site_fract_y
_atom_site_fract_z
Si Si1 0.110426 0.078860 0.250372
Si Si2 0.724236 0.262695 0.269380
Si Si3 0.677632 0.500000 0.500000
Si Si4 0.609136 0.273160 0.747948
O O1 0.172679 0.200905 0.257840
O O2 0.000000 0.120679 0.250000
O O3 0.135845 0.000000 0.500000
O O4 0.135717 0.000000 0.000000
O O5 0.741972 0.407171 0.325631
O O6 0.665599 0.205391 0.513174
O O7 0.660403 0.240935 0.015909
O O8 0.611362 0.418897 0.691903
O O9 0.500000 0.226929 0.750000
#
# Coordination Sequence:
#
# PCOD8155459 Si02
#       4
#     4   4   2   4
#     4  10  21  39  63  81  98 137 189 230 268 316
#     4  10  20  33  54  81 112 135 181 225 266 312
#     4   8  22  28  56  78 118 136 188 200 282 300
#     4  10  20  31  53  81 112 146 180 211 257 322
#
# _framework density 17.719438
#
# number of rings (size 3 to 8) (size 9 to 14) (size 15 to 20)
#    1.714    0.571    0.000    3.429    4.000    0.000 
#    0.000    0.000    6.286   17.143    0.000    0.000 
#    0.000    0.000    0.000    0.000    0.000    0.000 
#
# Total GULP energy -173452.500225 kJ/mol
# GULP energy per Si atom -12389.464302 kJ/mol
# Density = 1.767911 g / cm^3
# Si number density = 17.719438 Si / 1000 Ang^3
#
#
#
# Elastic Constant Matrix: (Units=GPa)
#
#
# Indices 1 2 3 4 5 6 
#
# 1 118.8556 52.4330 52.8012 0.0000 0.0000 0.0000
# 2 52.4330 40.7520 27.4833 0.0000 0.0000 0.0000
# 3 52.8012 27.4833 155.0565 0.0000 0.0000 0.0000
# 4 0.0000 0.0000 0.0000 10.5261 0.0000 0.0000
# 5 0.0000 0.0000 0.0000 0.0000 39.6451 0.0000
# 6 0.0000 0.0000 0.0000 0.0000 0.0000 29.8795
#
#
#
# Elastic Compliance Matrix: (Units=1/GPa)
#
#
# Indices 1 2 3 4 5 6 
#
# 1 0.020340 -0.024417 -0.002598 0.000000 0.000000 0.000000
# 2 -0.024417 0.057183 -0.001821 0.000000 0.000000 0.000000
# 3 -0.002598 -0.001821 0.007657 0.000000 0.000000 0.000000
# 4 0.000000 0.000000 0.000000 0.095002 0.000000 0.000000
# 5 0.000000 0.000000 0.000000 0.000000 0.025224 0.000000
# 6 0.000000 0.000000 0.000000 0.000000 0.000000 0.033468
#
#
# Mechanical properties :
#
#
# Convention : Reuss Voigt Hill
#
# Bulk Modulus (GPa) = 36.35501 64.45544 50.40523
# Shear Modulus (GPa) = 16.35515 28.13992 22.24753
#
# Velocity S-wave (km/s) = 3.04140 3.98940 3.54721
# Velocity P-wave (km/s) = 5.73542 7.59440 6.72941
#
# Compressibility (1/GPa) = 0.02750652
#
# Stress axis : x y z
#
# Youngs Moduli (GPa) = 49.16531 17.48776 130.60339
#
# Poissons Ratio (x) = 0.42700 0.33935
# Poissons Ratio (y) = 1.20049 0.23779
# Poissons Ratio (z) = 0.12775 0.03184
#
# Static dielectric constant tensor:
#      x y z
#    x 3.052890 0.000000 0.000000 
#    y 0.000000 2.945050 0.000000 
#    z 0.000000 0.000000 3.448960 
# 
# 
# High freq. dielectric constant tensor:
#      x y z
#    x 1.667680 0.000000 0.000000 
#    y 0.000000 1.653220 0.000000 
#    z 0.000000 0.000000 1.708810 
# 
# From -- ./inp_files/1198.got.cif
#   From: 2010.03.12/outbox.cif.g09.slc.cpg/sg17_1_cif.got.tgz:1198.got - 2010.04.10 18:46:23.
