data_PCOD8155533
_publ_section_title
;
Structure prediction by ZEFSAII (Michael W. Deem and Ramdas Pophale) SiO2 
 PCOD8155533
Probable space group: P 2 2 21
;
_chemical_formula_sum "Si O2"
_cell_formula_units_Z 28
_cell_length_a 17.225912
_cell_length_b 9.433197
_cell_length_c 8.817320
_cell_angle_alpha 90.000000
_cell_angle_beta 90.000000
_cell_angle_gamma 90.000000
_cell_volume 1432.774129
_symmetry_space_group_name_H-M "P 2 2 21"
_symmetry_group_IT_number 17
_symmetry_cell_setting 'orthorhombic'
loop_
_space_group_symop_operation_xyz
x,y,z
-x,-y,1/2+z
x,-y,-z
-x,y,1/2-z
loop_
_atom_site_type_symbol
_atom_site_label
_atom_site_fract_x
_atom_site_fract_y
_atom_site_fract_z
Si Si1 0.314158 0.523681 0.841503
Si Si2 0.435029 0.403146 0.630399
Si Si3 0.575552 0.910989 0.144825
Si Si4 0.193661 0.252502 0.172541
Si Si5 0.747438 0.026301 0.821587
Si Si6 0.180153 0.704698 0.167714
Si Si7 0.082088 0.477549 0.320090
O O1 0.365727 0.497401 0.695594
O O2 0.280180 0.681255 0.828794
O O3 0.244954 0.413136 0.849683
O O4 0.361494 0.500000 0.000000
O O5 0.471397 0.500000 0.500000
O O6 0.500000 0.371570 0.750000
O O7 0.405911 0.247734 0.582775
O O8 0.500000 0.921716 0.250000
O O9 0.655480 0.966202 0.224273
O O10 0.552673 0.000000 0.000000
O O11 0.205480 0.095339 0.235031
O O12 0.139329 0.346852 0.281561
O O13 0.158527 0.241940 0.001966
O O14 0.790277 0.170691 0.776087
O O15 0.754198 0.000000 0.000000
O O16 0.106898 0.627000 0.244111
O O17 0.078321 0.500000 0.500000
O O18 0.000000 0.434368 0.250000
#
# Coordination Sequence:
#
# PCOD8155533 Si02
#       7
#     4   4   4   4   4   4   4
#     4   9  19  36  56  82 111 148 192 244 297 353
#     4  11  23  38  57  81 113 150 199 255 307 360
#     4  10  24  42  57  83 118 161 205 255 312 375
#     4  10  22  37  62  90 120 161 201 244 299 357
#     4  11  22  38  59  91 121 160 207 254 306 365
#     4  10  20  39  60  88 123 155 203 245 295 364
#     4  11  22  40  66  95 127 163 199 247 300 360
#
# _framework density 19.542507000000001
#
# number of rings (size 3 to 8) (size 9 to 14) (size 15 to 20)
#    0.000    1.714    1.429    3.857    4.000    4.000 
#    2.571    0.714    0.000    0.000    0.000    0.000 
#    0.000    0.000    0.000    0.000    0.000    0.000 
#
# Total GULP energy -347082.952852 kJ/mol
# GULP energy per Si atom -12395.819745 kJ/mol
# Density = 1.949803 g / cm^3
# Si number density = 19.542507 Si / 1000 Ang^3
#
#
#
# Elastic Constant Matrix: (Units=GPa)
#
#
# Indices 1 2 3 4 5 6 
#
# 1 71.9947 28.2169 28.2896 0.0000 0.0000 0.0000
# 2 28.2169 98.0097 40.4007 0.0000 0.0000 0.0000
# 3 28.2896 40.4007 110.6573 0.0000 0.0000 0.0000
# 4 0.0000 0.0000 0.0000 37.5130 0.0000 0.0000
# 5 0.0000 0.0000 0.0000 0.0000 14.7551 0.0000
# 6 0.0000 0.0000 0.0000 0.0000 0.0000 11.6863
#
#
#
# Elastic Compliance Matrix: (Units=1/GPa)
#
#
# Indices 1 2 3 4 5 6 
#
# 1 0.016415 -0.003527 -0.002909 0.000000 0.000000 0.000000
# 2 -0.003527 0.012768 -0.003760 0.000000 0.000000 0.000000
# 3 -0.002909 -0.003760 0.011153 0.000000 0.000000 0.000000
# 4 0.000000 0.000000 0.000000 0.026657 0.000000 0.000000
# 5 0.000000 0.000000 0.000000 0.000000 0.067773 0.000000
# 6 0.000000 0.000000 0.000000 0.000000 0.000000 0.085570
#
#
# Mechanical properties :
#
#
# Convention : Reuss Voigt Hill
#
# Bulk Modulus (GPa) = 50.13706 52.71956 51.42831
# Shear Modulus (GPa) = 20.21200 25.04118 22.62659
#
# Velocity S-wave (km/s) = 3.21948 3.58351 3.40636
# Velocity P-wave (km/s) = 6.28738 6.64511 6.46872
#
# Compressibility (1/GPa) = 0.01994533
#
# Stress axis : x y z
#
# Youngs Moduli (GPa) = 60.91908 78.31840 89.65899
#
# Poissons Ratio (x) = 0.27622 0.26081
# Poissons Ratio (y) = 0.21485 0.33712
# Poissons Ratio (z) = 0.17721 0.29448
#
# Static dielectric constant tensor:
#      x y z
#    x 3.447630 0.000000 0.000000 
#    y 0.000000 4.083700 0.000000 
#    z 0.000000 0.000000 3.744710 
# 
# 
# High freq. dielectric constant tensor:
#      x y z
#    x 1.746340 0.000000 0.000000 
#    y 0.000000 1.766970 0.000000 
#    z 0.000000 0.000000 1.769790 
# 
# From -- ./inp_files/5477.got.cif
#   From: 2010.03.12/outbox.cif.g09.slc.cpg/sg17_3_cif.got.tgz:5477.got - 2010.04.10 18:46:23.
