data_PCOD8155992
_publ_section_title
;
Structure prediction by ZEFSAII (Michael W. Deem and Ramdas Pophale) SiO2 
 PCOD8155992
Probable space group: P 21 21 2
;
_chemical_formula_sum "Si O2"
_cell_formula_units_Z 26
_cell_length_a 8.730701
_cell_length_b 9.299976
_cell_length_c 15.983919
_cell_angle_alpha 90.000000
_cell_angle_beta 90.000000
_cell_angle_gamma 90.000000
_cell_volume 1297.819254
_symmetry_space_group_name_H-M "P 21 21 2"
_symmetry_group_IT_number 18
_symmetry_cell_setting 'orthorhombic'
loop_
_space_group_symop_operation_xyz
x,y,z
-x,-y,z
1/2+x,1/2-y,-z
1/2-x,1/2+y,-z
loop_
_atom_site_type_symbol
_atom_site_label
_atom_site_fract_x
_atom_site_fract_y
_atom_site_fract_z
Si Si1 0.922203 0.654967 0.040380
Si Si2 0.562993 0.343989 0.812253
Si Si3 0.500000 0.000000 0.529039
Si Si4 0.251253 0.019634 0.392869
Si Si5 0.609800 0.875341 0.224468
Si Si6 0.484248 0.283431 0.633014
Si Si7 0.069002 0.843113 0.902418
O O1 0.005208 0.750856 0.112549
O O2 0.740707 0.646425 0.059321
O O3 0.000000 0.500000 0.040869
O O4 0.960239 0.735874 0.954734
O O5 0.500000 0.500000 0.797954
O O6 0.738209 0.383526 0.831121
O O7 0.542403 0.253290 0.726954
O O8 0.350389 0.977434 0.472829
O O9 0.461875 0.134422 0.586847
O O10 0.357341 0.099794 0.323255
O O11 0.113151 0.126474 0.417608
O O12 0.176585 0.870381 0.360464
O O13 0.552312 0.716704 0.194257
O O14 0.500000 0.000000 0.191313
O O15 0.000000 0.000000 0.903966
#
# Coordination Sequence:
#
# PCOD8155992 Si02
#       7
#     4   4   2   4   4   4   4
#     4  11  24  40  63  92 124 161 210 258 310 374
#     4  10  20  39  62  83 117 163 202 242 301 373
#     4  12  22  34  64  92 118 152 202 258 308 364
#     4  10  20  41  60  86 120 161 200 243 310 374
#     4  10  20  38  63  84 117 160 202 245 304 361
#     4  10  21  39  60  87 122 159 201 253 303 373
#     4  11  24  42  61  92 126 162 207 262 314 370
#
# _framework density 20.033605999999999
#
# number of rings (size 3 to 8) (size 9 to 14) (size 15 to 20)
#    0.000    1.538    3.846    2.769    1.077    4.923 
#    0.000    0.000    3.385    0.000    0.000    0.000 
#    0.000    0.000    0.000    0.000    0.000    0.000 
#
# Total GULP energy -322100.684939 kJ/mol
# GULP energy per Si atom -12388.487882 kJ/mol
# Density = 1.998801 g / cm^3
# Si number density = 20.033606 Si / 1000 Ang^3
#
#
#
# Elastic Constant Matrix: (Units=GPa)
#
#
# Indices 1 2 3 4 5 6 
#
# 1 80.5619 43.6093 37.0476 0.0000 0.0000 0.0000
# 2 43.6093 131.1342 63.7948 0.0000 0.0000 0.0000
# 3 37.0476 63.7948 98.2910 0.0000 0.0000 0.0000
# 4 0.0000 0.0000 0.0000 54.8618 0.0000 0.0000
# 5 0.0000 0.0000 0.0000 0.0000 18.8604 0.0000
# 6 0.0000 0.0000 0.0000 0.0000 0.0000 30.2157
#
#
#
# Elastic Compliance Matrix: (Units=1/GPa)
#
#
# Indices 1 2 3 4 5 6 
#
# 1 0.016043 -0.003498 -0.003777 0.000000 0.000000 0.000000
# 2 -0.003498 0.011907 -0.006410 0.000000 0.000000 0.000000
# 3 -0.003777 -0.006410 0.015758 0.000000 0.000000 0.000000
# 4 0.000000 0.000000 0.000000 0.018228 0.000000 0.000000
# 5 0.000000 0.000000 0.000000 0.000000 0.053021 0.000000
# 6 0.000000 0.000000 0.000000 0.000000 0.000000 0.033095
#
#
# Mechanical properties :
#
#
# Convention : Reuss Voigt Hill
#
# Bulk Modulus (GPa) = 61.20283 66.54339 63.87311
# Shear Modulus (GPa) = 27.64458 31.82329 29.73393
#
# Velocity S-wave (km/s) = 3.71874 3.98992 3.85671
# Velocity P-wave (km/s) = 7.00394 7.38335 7.19615
#
# Compressibility (1/GPa) = 0.01633911
#
# Stress axis : x y z
#
# Youngs Moduli (GPa) = 62.33240 83.98166 63.46134
#
# Poissons Ratio (x) = 0.29376 0.23967
# Poissons Ratio (y) = 0.21803 0.40678
# Poissons Ratio (z) = 0.23540 0.53832
#
# Static dielectric constant tensor:
#      x y z
#    x 3.848050 0.000000 0.000000 
#    y 0.000000 1.515830 0.000000 
#    z 0.000000 0.000000 3.647370 
# 
# 
# High freq. dielectric constant tensor:
#      x y z
#    x 1.790080 0.000000 0.000000 
#    y 0.000000 1.780360 0.000000 
#    z 0.000000 0.000000 1.774620 
# 
# From -- ./inp_files/7324.got.cif
#   From: 2010.03.12/outbox.cif.g09.slc.cpg/sg18_4_cif.got.tgz:7324.got - 2010.04.10 18:53:55.
