data_PCOD8155847
_publ_section_title
;
Structure prediction by ZEFSAII (Michael W. Deem and Ramdas Pophale) SiO2 
 PCOD8155847
Probable space group: P 21 21 2
;
_chemical_formula_sum "Si O2"
_cell_formula_units_Z 32
_cell_length_a 21.375562
_cell_length_b 10.092191
_cell_length_c 8.105515
_cell_angle_alpha 90.000000
_cell_angle_beta 90.000000
_cell_angle_gamma 90.000000
_cell_volume 1748.572391
_symmetry_space_group_name_H-M "P 21 21 2"
_symmetry_group_IT_number 18
_symmetry_cell_setting 'orthorhombic'
loop_
_space_group_symop_operation_xyz
x,y,z
-x,-y,z
1/2+x,1/2-y,-z
1/2-x,1/2+y,-z
loop_
_atom_site_type_symbol
_atom_site_label
_atom_site_fract_x
_atom_site_fract_y
_atom_site_fract_z
Si Si1 0.277324 0.780431 0.827377
Si Si2 0.183459 0.065391 0.401841
Si Si3 0.768576 0.444008 0.295094
Si Si4 0.860731 0.212348 0.304586
Si Si5 0.862873 0.168253 0.940527
Si Si6 0.577680 0.363131 0.385645
Si Si7 0.560163 0.671770 0.376247
Si Si8 0.659065 0.370466 0.090522
O O1 0.270270 0.664035 0.692675
O O2 0.210025 0.798956 0.911972
O O3 0.301925 0.916884 0.746523
O O4 0.335230 0.734937 0.943218
O O5 0.215322 0.021816 0.571779
O O6 0.117846 0.142044 0.444058
O O7 0.174209 0.929557 0.300976
O O8 0.816423 0.333633 0.355755
O O9 0.731804 0.391456 0.136247
O O10 0.912585 0.216298 0.447235
O O11 0.885472 0.232905 0.115562
O O12 0.903830 0.228326 0.787036
O O13 0.872245 0.009956 0.960280
O O14 0.564218 0.516131 0.353800
O O15 0.512460 0.282541 0.387602
O O16 0.618751 0.303223 0.236034
#
# Coordination Sequence:
#
# PCOD8155847 Si02
#       8
#     4   4   4   4   4   4   4   4
#     4  11  19  32  51  80 109 137 177 211 263 327
#     4  10  19  33  54  77 106 140 172 219 264 312
#     4  10  20  32  49  77 110 141 168 211 267 317
#     4  11  19  33  53  77 109 136 172 217 263 314
#     4  10  19  32  51  80 108 138 173 214 269 314
#     4   8  17  34  52  76 105 133 176 224 267 304
#     4   9  18  34  52  78 108 135 172 227 267 309
#     4   9  17  32  50  73 109 136 168 222 257 308
#
# _framework density 18.300643999999998
#
# number of rings (size 3 to 8) (size 9 to 14) (size 15 to 20)
#    0.000    2.250    2.500    3.750    0.000    0.000 
#    2.250    2.500    0.000    0.750    0.000    0.000 
#    0.000    0.000    0.000    0.000    0.000    0.000 
#
# Total GULP energy -396478.912894 kJ/mol
# GULP energy per Si atom -12389.966028 kJ/mol
# Density = 1.825899 g / cm^3
# Si number density = 18.300644 Si / 1000 Ang^3
#
#
#
# Elastic Constant Matrix: (Units=GPa)
#
#
# Indices 1 2 3 4 5 6 
#
# 1 67.0048 32.1361 36.2069 0.0000 0.0000 0.0000
# 2 32.1361 66.8367 27.4188 0.0000 0.0000 0.0000
# 3 36.2069 27.4188 111.4040 0.0000 0.0000 0.0000
# 4 0.0000 0.0000 0.0000 23.2596 0.0000 0.0000
# 5 0.0000 0.0000 0.0000 0.0000 20.4044 0.0000
# 6 0.0000 0.0000 0.0000 0.0000 0.0000 14.8243
#
#
#
# Elastic Compliance Matrix: (Units=1/GPa)
#
#
# Indices 1 2 3 4 5 6 
#
# 1 0.021617 -0.008355 -0.004969 0.000000 0.000000 0.000000
# 2 -0.008355 0.019872 -0.002175 0.000000 0.000000 0.000000
# 3 -0.004969 -0.002175 0.011127 0.000000 0.000000 0.000000
# 4 0.000000 0.000000 0.000000 0.042993 0.000000 0.000000
# 5 0.000000 0.000000 0.000000 0.000000 0.049009 0.000000
# 6 0.000000 0.000000 0.000000 0.000000 0.000000 0.067457
#
#
# Mechanical properties :
#
#
# Convention : Reuss Voigt Hill
#
# Bulk Modulus (GPa) = 46.26268 48.52991 47.39629
# Shear Modulus (GPa) = 19.97775 21.66322 20.82049
#
# Velocity S-wave (km/s) = 3.30759 3.44429 3.37663
# Velocity P-wave (km/s) = 6.31830 6.51101 6.41538
#
# Compressibility (1/GPa) = 0.02161570
#
# Stress axis : x y z
#
# Youngs Moduli (GPa) = 46.26068 50.32330 89.87367
#
# Poissons Ratio (x) = 0.42046 0.44660
# Poissons Ratio (y) = 0.38651 0.19551
# Poissons Ratio (z) = 0.22988 0.10947
#
# Static dielectric constant tensor:
#      x y z
#    x 3.432260 0.000000 0.000000 
#    y 0.000000 3.074670 0.000000 
#    z 0.000000 0.000000 3.528230 
# 
# 
# High freq. dielectric constant tensor:
#      x y z
#    x 1.682180 0.000000 0.000000 
#    y 0.000000 1.671060 0.000000 
#    z 0.000000 0.000000 1.724680 
# 
# From -- ./inp_files/4771.got.cif
#   From: 2010.03.12/outbox.cif.g09.slc.cpg/sg18_3_cif.got.tgz:4771.got - 2010.04.10 18:53:55.
