data_PCOD8155767
_publ_section_title
;
Structure prediction by ZEFSAII (Michael W. Deem and Ramdas Pophale) SiO2 
 PCOD8155767
Probable space group: P 2 2 21
;
_chemical_formula_sum "Si O2"
_cell_formula_units_Z 22
_cell_length_a 11.411801
_cell_length_b 6.089164
_cell_length_c 13.675198
_cell_angle_alpha 90.000000
_cell_angle_beta 90.000000
_cell_angle_gamma 90.000000
_cell_volume 950.266642
_symmetry_space_group_name_H-M "P 2 2 21"
_symmetry_group_IT_number 17
_symmetry_cell_setting 'orthorhombic'
loop_
_space_group_symop_operation_xyz
x,y,z
-x,-y,1/2+z
x,-y,-z
-x,y,1/2-z
loop_
_atom_site_type_symbol
_atom_site_label
_atom_site_fract_x
_atom_site_fract_y
_atom_site_fract_z
Si Si1 0.879850 0.939501 0.341160
Si Si2 0.620730 0.025311 0.609694
Si Si3 0.500000 0.682124 0.750000
Si Si4 0.000000 0.442206 0.750000
Si Si5 0.894227 0.825308 0.855391
Si Si6 0.556431 0.638729 0.096355
Si Si7 0.283759 0.000000 0.500000
O O1 0.759781 0.949473 0.399872
O O2 0.930102 0.693822 0.332537
O O3 0.854917 0.009578 0.229581
O O4 0.976241 0.097387 0.392984
O O5 0.561916 0.254164 0.642525
O O6 0.569335 0.000000 0.500000
O O7 0.583616 0.827311 0.680624
O O8 0.411080 0.537309 0.681552
O O9 0.094770 0.582539 0.688805
O O10 0.797670 0.830881 0.940007
O O11 0.530199 0.500000 0.000000
O O12 0.645380 0.841778 0.074780
#
# Coordination Sequence:
#
# PCOD8155767 Si02
#       7
#     4   4   2   2   4   4   2
#     4   9  22  42  71 100 139 183 233 300 363 426
#     4  12  26  50  74 108 148 187 250 302 365 448
#     4  12  28  50  74 106 152 200 242 310 376 428
#     4   8  18  48  68 102 132 188 246 272 388 426
#     4   9  22  43  68  98 140 189 231 300 361 428
#     4  12  27  48  72 108 142 199 253 295 375 445
#     4  12  26  46  70 104 148 182 254 308 342 454
#
# _framework density 23.151395000000001
#
# number of rings (size 3 to 8) (size 9 to 14) (size 15 to 20)
#    0.000    1.818    2.727    0.545    8.909    5.818 
#    3.273    0.000    0.000    0.000    0.000    0.000 
#    0.000    0.000    0.000    0.000    0.000    0.000 
#
# Total GULP energy -272635.686723 kJ/mol
# GULP energy per Si atom -12392.531215 kJ/mol
# Density = 2.309870 g / cm^3
# Si number density = 23.151395 Si / 1000 Ang^3
#
#
#
# Elastic Constant Matrix: (Units=GPa)
#
#
# Indices 1 2 3 4 5 6 
#
# 1 114.0923 39.8578 30.4446 0.0000 0.0000 0.0000
# 2 39.8578 132.5840 46.3034 0.0000 0.0000 0.0000
# 3 30.4446 46.3034 99.7553 0.0000 0.0000 0.0000
# 4 0.0000 0.0000 0.0000 46.0393 0.0000 0.0000
# 5 0.0000 0.0000 0.0000 0.0000 35.8005 0.0000
# 6 0.0000 0.0000 0.0000 0.0000 0.0000 16.2373
#
#
#
# Elastic Compliance Matrix: (Units=1/GPa)
#
#
# Indices 1 2 3 4 5 6 
#
# 1 0.010117 -0.002343 -0.002000 0.000000 0.000000 0.000000
# 2 -0.002343 0.009544 -0.003715 0.000000 0.000000 0.000000
# 3 -0.002000 -0.003715 0.012359 0.000000 0.000000 0.000000
# 4 0.000000 0.000000 0.000000 0.021721 0.000000 0.000000
# 5 0.000000 0.000000 0.000000 0.000000 0.027933 0.000000
# 6 0.000000 0.000000 0.000000 0.000000 0.000000 0.061587
#
#
# Mechanical properties :
#
#
# Convention : Reuss Voigt Hill
#
# Bulk Modulus (GPa) = 62.87585 64.40479 63.64032
# Shear Modulus (GPa) = 30.36227 34.93714 32.64970
#
# Velocity S-wave (km/s) = 3.62535 3.88889 3.75943
# Velocity P-wave (km/s) = 6.68892 6.93138 6.81123
#
# Compressibility (1/GPa) = 0.01590436
#
# Stress axis : x y z
#
# Youngs Moduli (GPa) = 98.84316 104.77605 80.91012
#
# Poissons Ratio (x) = 0.24548 0.16183
# Poissons Ratio (y) = 0.23158 0.30059
# Poissons Ratio (z) = 0.19770 0.38925
#
# Static dielectric constant tensor:
#      x y z
#    x 4.018450 0.000000 0.000000 
#    y 0.000000 4.355190 0.000000 
#    z 0.000000 0.000000 4.050380 
# 
# 
# High freq. dielectric constant tensor:
#      x y z
#    x 1.904340 0.000000 0.000000 
#    y 0.000000 1.923310 0.000000 
#    z 0.000000 0.000000 1.909340 
# 
# From -- ./inp_files/8423.got.cif
#   From: 2010.03.12/outbox.cif.g09.slc.cpg/sg17_5_cif.got.tgz:8423.got - 2010.04.10 18:46:23.
