data_PCOD8155806
_publ_section_title
;
Structure prediction by ZEFSAII (Michael W. Deem and Ramdas Pophale) SiO2 
 PCOD8155806
Probable space group: P 21 21 2
;
_chemical_formula_sum "Si O2"
_cell_formula_units_Z 26
_cell_length_a 8.472275
_cell_length_b 15.124870
_cell_length_c 9.813603
_cell_angle_alpha 90.000000
_cell_angle_beta 90.000000
_cell_angle_gamma 90.000000
_cell_volume 1257.535285
_symmetry_space_group_name_H-M "P 21 21 2"
_symmetry_group_IT_number 18
_symmetry_cell_setting 'orthorhombic'
loop_
_space_group_symop_operation_xyz
x,y,z
-x,-y,z
1/2+x,1/2-y,-z
1/2-x,1/2+y,-z
loop_
_atom_site_type_symbol
_atom_site_label
_atom_site_fract_x
_atom_site_fract_y
_atom_site_fract_z
Si Si1 0.500000 0.000000 0.470245
Si Si2 0.828847 0.305066 0.869165
Si Si3 0.223902 0.774337 0.367146
Si Si4 0.939457 0.311901 0.590593
Si Si5 0.666715 0.534971 0.539643
Si Si6 0.679513 0.489781 0.852275
Si Si7 0.303845 0.826359 0.079852
O O1 0.496975 0.087788 0.376928
O O2 0.673313 0.006124 0.547423
O O3 0.812084 0.285784 0.706502
O O4 0.742814 0.396334 0.909190
O O5 0.012379 0.310009 0.903372
O O6 0.751409 0.221699 0.943233
O O7 0.128218 0.693858 0.436548
O O8 0.405652 0.752001 0.397012
O O9 0.158327 0.859582 0.449018
O O10 0.200240 0.784671 0.205074
O O11 0.500000 0.500000 0.475937
O O12 0.693730 0.491894 0.688614
O O13 0.500000 0.500000 0.899240
O O14 0.775799 0.568606 0.925063
#
# Coordination Sequence:
#
# PCOD8155806 Si02
#       7
#     2   4   4   4   4   4   4
#     4  10  18  34  54  84 114 150 194 252 284 352
#     4  11  21  37  62  86 120 160 197 257 296 363
#     4   9  21  35  55  86 117 148 191 249 297 358
#     4  10  21  35  61  85 119 151 200 245 304 349
#     4   9  18  31  54  83 109 146 197 238 289 347
#     4  10  19  33  58  85 112 153 202 242 294 365
#     4  10  22  37  58  88 119 153 202 248 310 360
#
# _framework density 20.675363999999998
#
# number of rings (size 3 to 8) (size 9 to 14) (size 15 to 20)
#    0.000    2.154    1.538    2.308    2.154    2.462 
#    0.000    0.000   10.154    0.923    0.000    0.000 
#    0.000    0.000    0.000    0.000    0.000    0.000 
#
# Total GULP energy -322096.579756 kJ/mol
# GULP energy per Si atom -12388.329991 kJ/mol
# Density = 2.062831 g / cm^3
# Si number density = 20.675364 Si / 1000 Ang^3
#
#
#
# Elastic Constant Matrix: (Units=GPa)
#
#
# Indices 1 2 3 4 5 6 
#
# 1 116.7820 22.5205 12.2010 0.0000 0.0000 0.0000
# 2 22.5205 64.7942 20.1402 0.0000 0.0000 0.0000
# 3 12.2010 20.1402 49.7213 0.0000 0.0000 0.0000
# 4 0.0000 0.0000 0.0000 19.1193 0.0000 0.0000
# 5 0.0000 0.0000 0.0000 0.0000 23.3821 0.0000
# 6 0.0000 0.0000 0.0000 0.0000 0.0000 37.1892
#
#
#
# Elastic Compliance Matrix: (Units=1/GPa)
#
#
# Indices 1 2 3 4 5 6 
#
# 1 0.009231 -0.002865 -0.001105 0.000000 0.000000 0.000000
# 2 -0.002865 0.018546 -0.006809 0.000000 0.000000 0.000000
# 3 -0.001105 -0.006809 0.023141 0.000000 0.000000 0.000000
# 4 0.000000 0.000000 0.000000 0.052303 0.000000 0.000000
# 5 0.000000 0.000000 0.000000 0.000000 0.042768 0.000000
# 6 0.000000 0.000000 0.000000 0.000000 0.000000 0.026890
#
#
# Mechanical properties :
#
#
# Convention : Reuss Voigt Hill
#
# Bulk Modulus (GPa) = 34.05955 37.89122 35.97538
# Shear Modulus (GPa) = 24.48307 27.70051 26.09179
#
# Velocity S-wave (km/s) = 3.44491 3.66428 3.55628
# Velocity P-wave (km/s) = 5.68616 6.02238 5.85668
#
# Compressibility (1/GPa) = 0.02936034
#
# Stress axis : x y z
#
# Youngs Moduli (GPa) = 108.33220 53.92060 43.21280
#
# Poissons Ratio (x) = 0.15448 0.04773
# Poissons Ratio (y) = 0.31037 0.29424
# Poissons Ratio (z) = 0.11967 0.36715
#
# Static dielectric constant tensor:
#      x y z
#    x 4.094220 0.000000 0.000000 
#    y 0.000000 3.718300 0.000000 
#    z 0.000000 0.000000 3.341800 
# 
# 
# High freq. dielectric constant tensor:
#      x y z
#    x 1.832980 0.000000 0.000000 
#    y 0.000000 1.807350 0.000000 
#    z 0.000000 0.000000 1.742990 
# 
# From -- ./inp_files/4517.got.cif
#   From: 2010.03.12/outbox.cif.g09.slc.cpg/sg18_3_cif.got.tgz:4517.got - 2010.04.10 18:53:55.
