data_PCOD8155634
_publ_section_title
;
Structure prediction by ZEFSAII (Michael W. Deem and Ramdas Pophale) SiO2 
 PCOD8155634
Probable space group: P 2 2 21
;
_chemical_formula_sum "Si O2"
_cell_formula_units_Z 32
_cell_length_a 11.810700
_cell_length_b 9.021513
_cell_length_c 14.946404
_cell_angle_alpha 90.000000
_cell_angle_beta 90.000000
_cell_angle_gamma 90.000000
_cell_volume 1592.545079
_symmetry_space_group_name_H-M "P 2 2 21"
_symmetry_group_IT_number 17
_symmetry_cell_setting 'orthorhombic'
loop_
_space_group_symop_operation_xyz
x,y,z
-x,-y,1/2+z
x,-y,-z
-x,y,1/2-z
loop_
_atom_site_type_symbol
_atom_site_label
_atom_site_fract_x
_atom_site_fract_y
_atom_site_fract_z
Si Si1 0.454752 0.167706 0.349177
Si Si2 0.241605 0.333798 0.602223
Si Si3 0.595563 0.324244 0.500000
Si Si4 0.166411 0.829406 0.000000
Si Si5 0.241605 0.666202 0.602223
Si Si6 0.017456 0.171057 0.353113
Si Si7 0.545249 0.832294 0.150823
Si Si8 0.017456 0.828943 0.353113
O O1 0.500000 0.172798 0.250000
O O2 0.534877 0.265110 0.411496
O O3 0.327987 0.231578 0.343447
O O4 0.451320 0.000000 0.386102
O O5 0.243478 0.500000 0.641633
O O6 0.282364 0.334555 0.500000
O O7 0.327987 0.231577 0.656552
O O8 0.115965 0.271211 0.607725
O O9 0.588251 0.500000 0.500000
O O10 0.725806 0.275926 0.500000
O O11 0.534877 0.265110 0.588504
O O12 0.094940 0.795165 0.910303
O O13 0.094940 0.795165 0.089697
O O14 0.206852 0.000000 0.000000
O O15 0.115966 0.728788 0.607725
O O16 0.000000 0.213317 0.250000
O O17 0.052585 0.000000 0.364029
O O18 0.500000 0.827201 0.250000
O O19 0.000000 0.786683 0.250000
#
# Coordination Sequence:
#
# PCOD8155634 Si02
#       8
#     4   4   4   4   4   4   4   4
#     4  11  25  44  68  94 123 166 217 262 309 372
#     4  11  23  40  64  94 127 161 203 259 321 375
#     4  12  26  43  64  93 132 169 205 257 321 380
#     4  10  22  41  62  87 126 167 207 257 305 362
#     4  11  23  40  64  94 127 161 203 259 321 375
#     4  10  22  40  64  92 121 162 213 257 304 367
#     4  11  25  44  68  94 123 166 217 262 309 372
#     4  10  22  40  64  92 121 162 213 257 304 367
#
# _framework density 20.093622
#
# number of rings (size 3 to 8) (size 9 to 14) (size 15 to 20)
#    0.000    1.250    2.500    2.625    3.500    4.500 
#    0.000    0.000    0.000    0.000    0.000    0.000 
#    0.000    0.000    0.000    0.000    0.000    0.000 
#
# Total GULP energy -396980.022941 kJ/mol
# GULP energy per Si atom -12405.625717 kJ/mol
# Density = 2.004789 g / cm^3
# Si number density = 20.093622 Si / 1000 Ang^3
#
#
#
# Elastic Constant Matrix: (Units=GPa)
#
#
# Indices 1 2 3 4 5 6 
#
# 1 112.3587 72.5877 24.9634 0.0000 0.0000 0.0000
# 2 72.5877 159.1409 40.9261 0.0000 0.0000 0.0000
# 3 24.9634 40.9261 88.7704 0.0000 0.0000 0.0000
# 4 0.0000 0.0000 0.0000 14.5832 0.0000 0.0000
# 5 0.0000 0.0000 0.0000 0.0000 26.7062 0.0000
# 6 0.0000 0.0000 0.0000 0.0000 0.0000 5.3948
#
#
#
# Elastic Compliance Matrix: (Units=1/GPa)
#
#
# Indices 1 2 3 4 5 6 
#
# 1 0.012700 -0.005530 -0.001022 0.000000 0.000000 0.000000
# 2 -0.005530 0.009537 -0.002842 0.000000 0.000000 0.000000
# 3 -0.001022 -0.002842 0.012863 0.000000 0.000000 0.000000
# 4 0.000000 0.000000 0.000000 0.068572 0.000000 0.000000
# 5 0.000000 0.000000 0.000000 0.000000 0.037444 0.000000
# 6 0.000000 0.000000 0.000000 0.000000 0.000000 0.185363
#
#
# Mechanical properties :
#
#
# Convention : Reuss Voigt Hill
#
# Bulk Modulus (GPa) = 61.30414 70.80271 66.05343
# Shear Modulus (GPa) = 14.25711 24.12305 19.19008
#
# Velocity S-wave (km/s) = 2.66660 3.46863 3.09371
# Velocity P-wave (km/s) = 6.32902 7.16622 6.76059
#
# Compressibility (1/GPa) = 0.01631211
#
# Stress axis : x y z
#
# Youngs Moduli (GPa) = 78.74323 104.85722 77.74527
#
# Poissons Ratio (x) = 0.57983 0.07945
# Poissons Ratio (y) = 0.43543 0.22093
# Poissons Ratio (z) = 0.08047 0.29798
#
# Static dielectric constant tensor:
#      x y z
#    x 3.607170 0.000000 0.000000 
#    y 0.000000 3.808900 0.000000 
#    z 0.000000 0.000000 3.641180 
# 
# 
# High freq. dielectric constant tensor:
#      x y z
#    x 1.793000 0.000000 0.000000 
#    y 0.000000 1.790830 0.000000 
#    z 0.000000 0.000000 1.788720 
# 
# From -- ./inp_files/8541.got.cif
#   From: 2010.03.12/outbox.cif.g09.slc.cpg/sg17_5_cif.got.tgz:8541.got - 2010.04.10 18:46:23.
