data_PCOD8155111
_publ_section_title
;
Structure prediction by ZEFSAII (Michael W. Deem and Ramdas Pophale) SiO2 
 PCOD8155111
Probable space group: C 2/C
;
_chemical_formula_sum "Si O2"
_cell_formula_units_Z 28
_cell_length_a 8.187437
_cell_length_b 5.020575
_cell_length_c 28.289877
_cell_angle_alpha 90.000000
_cell_angle_beta 117.929488
_cell_angle_gamma 90.000000
_cell_volume 1027.427483
_symmetry_space_group_name_H-M "C 2/C"
_symmetry_group_IT_number 15
_symmetry_cell_setting 'monoclinic'
loop_
_space_group_symop_operation_xyz
x,y,z
-x,y,1/2-z
-x,-y,-z
x,-y,1/2+z
1/2+x,1/2+y,z
1/2-x,1/2+y,1/2-z
1/2-x,1/2-y,-z
1/2+x,1/2-y,1/2+z
loop_
_atom_site_type_symbol
_atom_site_label
_atom_site_fract_x
_atom_site_fract_y
_atom_site_fract_z
Si Si1 0.690486 0.623876 0.540196
Si Si2 0.224675 0.864911 0.389902
Si Si3 0.000000 0.517248 0.250000
Si Si4 0.102885 0.183649 0.179410
O O1 0.500000 0.500000 0.500000
O O2 0.750000 0.750000 0.500000
O O3 0.805027 0.374138 0.576795
O O4 0.691895 0.862903 0.577927
O O5 0.378769 0.790900 0.371472
O O6 0.017354 0.910371 0.340170
O O7 0.976651 0.354823 0.198085
O O8 0.191562 0.676977 0.270366
#
# Coordination Sequence:
#
# PCOD8155111 Si02
#       4
#     8   8   4   8
#     4  12  28  50  78 113 154 202 256 316 382 454
#     4  12  28  51  80 115 156 204 257 317 382 457
#     4  12  26  48  76 112 152 200 252 314 380 454
#     4  12  27  48  78 114 154 202 255 315 382 455
#
# _framework density 27.252535000000002
#
# number of rings (size 3 to 8) (size 9 to 14) (size 15 to 20)
#    0.000    0.000    0.000    8.571    0.000   16.000 
#    0.000    0.000    0.000    0.000    0.000    0.000 
#    0.000    0.000    0.000    0.000    0.000    0.000 
#
# Total GULP energy -173498.511516 kJ/mol
# GULP energy per Si atom -12392.750823 kJ/mol
# Density = 2.719051 g / cm^3
# Si number density = 27.252535 Si / 1000 Ang^3
#
#
#
# Elastic Constant Matrix: (Units=GPa)
#
#
# Indices 1 2 3 4 5 6 
#
# 1 115.8812 16.8145 6.3982 0.0000 -12.3489 0.0000
# 2 16.8145 136.0733 20.1791 0.0000 -6.2395 0.0000
# 3 6.3982 20.1791 91.7443 0.0000 -8.9658 0.0000
# 4 0.0000 0.0000 0.0000 45.2035 0.0000 15.5942
# 5 -12.3489 -6.2395 -8.9658 0.0000 21.5502 0.0000
# 6 0.0000 0.0000 0.0000 15.5942 0.0000 44.6210
#
#
#
# Elastic Compliance Matrix: (Units=1/GPa)
#
#
# Indices 1 2 3 4 5 6 
#
# 1 0.009303 -0.000924 0.000051 0.000000 0.005085 0.000000
# 2 -0.000924 0.007740 -0.001533 0.000000 0.001074 0.000000
# 3 0.000051 -0.001533 0.011667 0.000000 0.004440 0.000000
# 4 0.000000 0.000000 0.000000 0.025155 0.000000 -0.008791
# 5 0.005085 0.001074 0.004440 0.000000 0.051475 0.000000
# 6 0.000000 0.000000 0.000000 -0.008791 0.000000 0.025483
#
#
# Mechanical properties :
#
#
# Convention : Reuss Voigt Hill
#
# Bulk Modulus (GPa) = 41.84372 47.83137 44.83755
# Shear Modulus (GPa) = 34.81890 42.29541 38.55716
#
# Velocity S-wave (km/s) = 3.57829 3.94379 3.76548
# Velocity P-wave (km/s) = 5.69733 6.19090 5.94924
#
# Compressibility (1/GPa) = 0.02389845
#
# Stress axis : x y z
#
# Youngs Moduli (GPa) = 107.49688 129.20362 85.70935
#
# Poissons Ratio (x) = 0.11938 -0.00440
# Poissons Ratio (y) = 0.09933 0.13139
# Poissons Ratio (z) = -0.00552 0.19807
#
# Static dielectric constant tensor:
#      x y z
#    x 4.838680 0.000000 -0.153610 
#    y 0.000000 5.096880 0.000000 
#    z -0.153610 0.000000 5.576900 
# 
# 
# High freq. dielectric constant tensor:
#      x y z
#    x 2.107240 0.000000 -0.001570 
#    y 0.000000 2.100500 0.000000 
#    z -0.001570 0.000000 2.128050 
# 
# From -- ./inp_files/286809.got.cif
#   From: 2010.06.25/outbox.cif.g09.slc.cpg/sg15_144_cif.got.tgz:286809.got - 2010.06.28 07:06:18.
