data_PCOD8155322
_publ_section_title
;
Structure prediction by ZEFSAII (Michael W. Deem and Ramdas Pophale) SiO2 
 PCOD8155322
Probable space group: P 2 2 2
;
_chemical_formula_sum "Si O2"
_cell_formula_units_Z 17
_cell_length_a 7.064389
_cell_length_b 19.618222
_cell_length_c 5.312131
_cell_angle_alpha 90.000000
_cell_angle_beta 90.000000
_cell_angle_gamma 90.000000
_cell_volume 736.212228
_symmetry_space_group_name_H-M "P 2 2 2"
_symmetry_group_IT_number 16
_symmetry_cell_setting 'orthorhombic'
loop_
_space_group_symop_operation_xyz
x,y,z
-x,-y,z
x,-y,-z
-x,y,-z
loop_
_atom_site_type_symbol
_atom_site_label
_atom_site_fract_x
_atom_site_fract_y
_atom_site_fract_z
Si Si1 0.712263 0.471112 0.751072
Si Si2 0.500000 0.000000 0.000000
Si Si3 0.123000 0.670509 0.746126
Si Si4 0.278742 0.181009 0.268938
Si Si5 0.309781 0.875758 0.228705
O O1 0.500000 0.500000 0.751383
O O2 0.815097 0.500000 0.500000
O O3 0.720338 0.389148 0.762735
O O4 0.817961 0.500000 0.000000
O O5 0.630704 0.045637 0.184188
O O6 0.234321 0.740148 0.702158
O O7 0.000000 0.655749 0.500000
O O8 0.000000 0.673517 0.000000
O O9 0.503639 0.171137 0.250032
O O10 0.197502 0.137550 0.509894
O O11 0.187431 0.150471 0.011073
#
# Coordination Sequence:
#
# PCOD8155322 Si02
#       5
#     4   1   4   4   4
#     4  10  23  41  62  86 112 149 193 246 299 356
#     4   8  16  30  52  94 122 142 182 238 312 352
#     4  12  25  39  59  83 115 157 198 242 296 356
#     4   9  19  34  51  82 113 146 187 234 284 344
#     4   9  18  31  57  84 115 145 183 238 292 345
#
# _framework density 23.091170000000002
#
# number of rings (size 3 to 8) (size 9 to 14) (size 15 to 20)
#    0.000    2.353    0.000    2.824    0.000   17.882 
#    0.000    0.000    0.000    0.000    0.000   85.647 
#    0.000    0.000    0.000    0.000    0.000    0.000 
#
# Total GULP energy -210607.156594 kJ/mol
# GULP energy per Si atom -12388.656270 kJ/mol
# Density = 2.303861 g / cm^3
# Si number density = 23.091170 Si / 1000 Ang^3
#
#
#
# Elastic Constant Matrix: (Units=GPa)
#
#
# Indices 1 2 3 4 5 6 
#
# 1 56.0853 42.9764 8.1883 0.0000 0.0000 0.0000
# 2 42.9764 228.1917 76.9930 0.0000 0.0000 0.0000
# 3 8.1883 76.9930 268.0636 0.0000 0.0000 0.0000
# 4 0.0000 0.0000 0.0000 58.7708 0.0000 0.0000
# 5 0.0000 0.0000 0.0000 0.0000 -0.4294 0.0000
# 6 0.0000 0.0000 0.0000 0.0000 0.0000 18.3927
#
#
#
# Elastic Compliance Matrix: (Units=1/GPa)
#
#
# Indices 1 2 3 4 5 6 
#
# 1 0.020909 -0.004122 0.000545 0.000000 0.000000 0.000000
# 2 -0.004122 0.005665 -0.001501 0.000000 0.000000 0.000000
# 3 0.000545 -0.001501 0.004145 0.000000 0.000000 0.000000
# 4 0.000000 0.000000 0.000000 0.017015 0.000000 0.000000
# 5 0.000000 0.000000 0.000000 0.000000 -2.328893 0.000000
# 6 0.000000 0.000000 0.000000 0.000000 0.000000 0.054370
#
#
# Mechanical properties :
#
#
# Convention : Reuss Voigt Hill
#
# Bulk Modulus (GPa) = 48.63057 89.85068 69.24062
# Shear Modulus (GPa) = -2.26267 43.62567 20.68150
#
# Velocity S-wave (km/s) = -0.99097 4.35130 2.99598
# Velocity P-wave (km/s) = 4.44934 8.01504 6.48218
#
# Compressibility (1/GPa) = 0.02056320
#
# Stress axis : x y z
#
# Youngs Moduli (GPa) = 47.82671 176.52015 241.25553
#
# Poissons Ratio (x) = 0.72758 -0.13153
# Poissons Ratio (y) = 0.19713 0.36218
# Poissons Ratio (z) = -0.02607 0.26499
#
# Static dielectric constant tensor:
#      x y z
#    x 3.727310 0.000000 0.000000 
#    y 0.000000 4.071310 0.000000 
#    z 0.000000 0.000000 7.420860 
# 
# 
# High freq. dielectric constant tensor:
#      x y z
#    x 1.868330 0.000000 0.000000 
#    y 0.000000 1.909830 0.000000 
#    z 0.000000 0.000000 1.958410 
# 
# From -- ./inp_files/759.got.cif
#   From: 2010.03.12/outbox.cif.g09.slc.cpg/sg16_1_cif.got.tgz:759.got - 2010.03.31 00:51:45.
