data_PCOD8155434
_publ_section_title
;
Structure prediction by ZEFSAII (Michael W. Deem and Ramdas Pophale) SiO2 
 PCOD8155434
Probable space group: P 2 2 21
;
_chemical_formula_sum "Si O2"
_cell_formula_units_Z 32
_cell_length_a 12.288835
_cell_length_b 11.776939
_cell_length_c 11.993791
_cell_angle_alpha 90.000000
_cell_angle_beta 90.000000
_cell_angle_gamma 90.000000
_cell_volume 1735.799725
_symmetry_space_group_name_H-M "P 2 2 21"
_symmetry_group_IT_number 17
_symmetry_cell_setting 'orthorhombic'
loop_
_space_group_symop_operation_xyz
x,y,z
-x,-y,1/2+z
x,-y,-z
-x,y,1/2-z
loop_
_atom_site_type_symbol
_atom_site_label
_atom_site_fract_x
_atom_site_fract_y
_atom_site_fract_z
Si Si1 0.336116 0.371205 0.964579
Si Si2 0.575592 0.634384 0.999527
Si Si3 0.071622 0.243979 0.435961
Si Si4 0.889691 0.183971 0.815605
Si Si5 0.707163 0.362999 0.788756
Si Si6 0.177533 0.749293 0.881681
Si Si7 0.873742 0.940001 0.764623
Si Si8 0.756020 0.618919 0.835541
O O1 0.349954 0.367723 0.831367
O O2 0.306283 0.500000 0.000000
O O3 0.450552 0.326980 0.015671
O O4 0.243764 0.282022 0.006395
O O5 0.647649 0.673257 0.893204
O O6 0.575938 0.500000 0.000000
O O7 0.624134 0.682275 0.116318
O O8 0.073355 0.193552 0.557717
O O9 0.136208 0.151318 0.362437
O O10 0.142581 0.357686 0.419031
O O11 0.950384 0.275068 0.396828
O O12 0.809818 0.282002 0.778091
O O13 0.000000 0.199427 0.750000
O O14 0.825903 0.064083 0.793469
O O15 0.750113 0.484870 0.825453
O O16 0.184234 0.883121 0.844900
O O17 0.227868 0.669816 0.786649
O O18 0.000000 0.965483 0.750000
#
# Coordination Sequence:
#
# PCOD8155434 Si02
#       8
#     4   4   4   4   4   4   4   4
#     4  11  21  37  55  83 114 150 194 238 289 343
#     4   9  20  35  57  79 111 151 192 237 281 342
#     4  10  19  35  56  81 116 152 185 227 287 347
#     4  11  21  33  53  85 115 149 192 232 279 339
#     4  11  21  36  52  85 115 148 194 235 291 345
#     4  10  20  36  56  86 117 147 190 234 290 340
#     4   8  18  35  56  79 109 149 189 228 274 334
#     4  10  19  36  55  83 115 151 187 227 291 352
#
# _framework density 18.435307000000002
#
# number of rings (size 3 to 8) (size 9 to 14) (size 15 to 20)
#    0.000    2.000    2.500    2.625    0.000    1.500 
#    2.250    1.875    0.000    0.000   19.500    0.000 
#    0.000    0.000    0.000    0.000    0.000    0.000 
#
# Total GULP energy -396587.277941 kJ/mol
# GULP energy per Si atom -12393.352436 kJ/mol
# Density = 1.839335 g / cm^3
# Si number density = 18.435307 Si / 1000 Ang^3
#
#
#
# Elastic Constant Matrix: (Units=GPa)
#
#
# Indices 1 2 3 4 5 6 
#
# 1 99.4247 41.8522 27.1795 0.0000 0.0000 0.0000
# 2 41.8522 78.9042 31.9052 0.0000 0.0000 0.0000
# 3 27.1795 31.9052 82.3735 0.0000 0.0000 0.0000
# 4 0.0000 0.0000 0.0000 -7.3422 0.0000 0.0000
# 5 0.0000 0.0000 0.0000 0.0000 31.5434 0.0000
# 6 0.0000 0.0000 0.0000 0.0000 0.0000 8.6330
#
#
#
# Elastic Compliance Matrix: (Units=1/GPa)
#
#
# Indices 1 2 3 4 5 6 
#
# 1 0.013208 -0.006217 -0.001950 0.000000 0.000000 0.000000
# 2 -0.006217 0.017954 -0.004902 0.000000 0.000000 0.000000
# 3 -0.001950 -0.004902 0.014682 0.000000 0.000000 0.000000
# 4 0.000000 0.000000 0.000000 -0.136198 0.000000 0.000000
# 5 0.000000 0.000000 0.000000 0.000000 0.031702 0.000000
# 6 0.000000 0.000000 0.000000 0.000000 0.000000 0.115834
#
#
# Mechanical properties :
#
#
# Convention : Reuss Voigt Hill
#
# Bulk Modulus (GPa) = 50.75016 51.39735 51.07375
# Shear Modulus (GPa) = 55.62364 17.21788 36.42076
#
# Velocity S-wave (km/s) = 5.49889 3.05939 4.44959
# Velocity P-wave (km/s) = 8.24049 6.35769 7.35955
#
# Compressibility (1/GPa) = 0.01970437
#
# Stress axis : x y z
#
# Youngs Moduli (GPa) = 75.71147 55.69887 68.11033
#
# Poissons Ratio (x) = 0.34630 0.13281
# Poissons Ratio (y) = 0.47072 0.33391
# Poissons Ratio (z) = 0.14763 0.27306
#
# Static dielectric constant tensor:
#      x y z
#    x 3.489250 0.000000 0.000000 
#    y 0.000000 3.435060 0.000000 
#    z 0.000000 0.000000 3.677850 
# 
# 
# High freq. dielectric constant tensor:
#      x y z
#    x 1.702290 0.000000 0.000000 
#    y 0.000000 1.692820 0.000000 
#    z 0.000000 0.000000 1.729170 
# 
# From -- ./inp_files/7092.got.cif
#   From: 2010.03.12/outbox.cif.g09.slc.cpg/sg17_4_cif.got.tgz:7092.got - 2010.04.10 18:46:23.
