data_PCOD8155758
_publ_section_title
;
Structure prediction by ZEFSAII (Michael W. Deem and Ramdas Pophale) SiO2 
 PCOD8155758
Probable space group: P 2 2 21
;
_chemical_formula_sum "Si O2"
_cell_formula_units_Z 32
_cell_length_a 4.852548
_cell_length_b 11.422599
_cell_length_c 24.186011
_cell_angle_alpha 90.000000
_cell_angle_beta 90.000000
_cell_angle_gamma 90.000000
_cell_volume 1340.599388
_symmetry_space_group_name_H-M "P 2 2 21"
_symmetry_group_IT_number 17
_symmetry_cell_setting 'orthorhombic'
loop_
_space_group_symop_operation_xyz
x,y,z
-x,-y,1/2+z
x,-y,-z
-x,y,1/2-z
loop_
_atom_site_type_symbol
_atom_site_label
_atom_site_fract_x
_atom_site_fract_y
_atom_site_fract_z
Si Si1 0.994723 0.883587 0.847252
Si Si2 0.527252 0.745998 0.811739
Si Si3 0.240621 0.118666 0.469783
Si Si4 0.786005 0.460639 0.558666
Si Si5 0.222002 0.795985 0.029844
Si Si6 0.308124 0.482903 0.373608
Si Si7 0.130273 0.858818 0.147445
Si Si8 0.616688 0.280555 0.811683
O O1 0.754718 0.848080 0.804863
O O2 0.818322 0.885310 0.904661
O O3 0.250314 0.791894 0.842735
O O4 0.096848 0.011109 0.828534
O O5 0.500000 0.697215 0.750000
O O6 0.676511 0.642099 0.844885
O O7 0.552346 0.145604 0.489170
O O8 0.046821 0.223422 0.492017
O O9 0.143648 0.000000 0.500000
O O10 0.905691 0.500000 0.500000
O O11 0.690841 0.326053 0.556775
O O12 0.506972 0.528900 0.573294
O O13 0.001180 0.486998 0.607185
O O14 0.113273 0.875091 0.081045
O O15 0.411100 0.587003 0.333559
O O16 0.926723 0.767748 0.178765
O O17 0.438626 0.812784 0.154813
O O18 0.500000 0.280135 0.750000
#
# Coordination Sequence:
#
# PCOD8155758 Si02
#       8
#     4   4   4   4   4   4   4   4
#     4  12  28  47  73 107 148 192 249 298 358 439
#     4  12  29  51  75 102 145 200 253 309 360 425
#     4  12  26  42  71 107 142 194 236 284 354 443
#     4  12  27  44  71 107 144 183 226 296 370 436
#     4  12  24  44  69 102 150 184 234 289 366 437
#     4  12  25  50  71 104 142 184 240 292 364 435
#     4  12  25  46  70 107 145 185 232 300 369 432
#     4  12  25  45  75 104 133 181 241 304 366 424
#
# _framework density 23.86992
#
# number of rings (size 3 to 8) (size 9 to 14) (size 15 to 20)
#    0.000    0.000    3.750    5.625    7.000    3.000 
#    0.000    3.750    0.000    0.000    0.000    0.000 
#    0.000    0.000    0.000    0.000    0.000    0.000 
#
# Total GULP energy -396634.769828 kJ/mol
# GULP energy per Si atom -12394.836557 kJ/mol
# Density = 2.381559 g / cm^3
# Si number density = 23.869920 Si / 1000 Ang^3
#
#
#
# Elastic Constant Matrix: (Units=GPa)
#
#
# Indices 1 2 3 4 5 6 
#
# 1 102.8507 23.6836 11.4210 0.0000 0.0000 0.0000
# 2 23.6836 103.1744 26.8297 0.0000 0.0000 0.0000
# 3 11.4210 26.8297 77.8306 0.0000 0.0000 0.0000
# 4 0.0000 0.0000 0.0000 29.2462 0.0000 0.0000
# 5 0.0000 0.0000 0.0000 0.0000 38.5601 0.0000
# 6 0.0000 0.0000 0.0000 0.0000 0.0000 31.9375
#
#
#
# Elastic Compliance Matrix: (Units=1/GPa)
#
#
# Indices 1 2 3 4 5 6 
#
# 1 0.010307 -0.002167 -0.000765 0.000000 0.000000 0.000000
# 2 -0.002167 0.011102 -0.003509 0.000000 0.000000 0.000000
# 3 -0.000765 -0.003509 0.014170 0.000000 0.000000 0.000000
# 4 0.000000 0.000000 0.000000 0.034192 0.000000 0.000000
# 5 0.000000 0.000000 0.000000 0.000000 0.025934 0.000000
# 6 0.000000 0.000000 0.000000 0.000000 0.000000 0.031311
#
#
# Mechanical properties :
#
#
# Convention : Reuss Voigt Hill
#
# Bulk Modulus (GPa) = 44.05979 45.30270 44.68125
# Shear Modulus (GPa) = 33.90629 34.74351 34.32490
#
# Velocity S-wave (km/s) = 3.77299 3.81929 3.79621
# Velocity P-wave (km/s) = 6.12201 6.20238 6.16232
#
# Compressibility (1/GPa) = 0.02269643
#
# Stress axis : x y z
#
# Youngs Moduli (GPa) = 97.02328 90.07168 70.56943
#
# Poissons Ratio (x) = 0.19517 0.05402
# Poissons Ratio (y) = 0.21024 0.24764
# Poissons Ratio (z) = 0.07427 0.31608
#
# Static dielectric constant tensor:
#      x y z
#    x 4.291840 0.000000 0.000000 
#    y 0.000000 4.250800 0.000000 
#    z 0.000000 0.000000 4.410870 
# 
# 
# High freq. dielectric constant tensor:
#      x y z
#    x 1.958530 0.000000 0.000000 
#    y 0.000000 1.950380 0.000000 
#    z 0.000000 0.000000 1.950440 
# 
# From -- ./inp_files/10506.got.cif
#   From: 2010.03.12/outbox.cif.g09.slc.cpg/sg17_6_cif.got.tgz:10506.got - 2010.04.10 18:46:23.
