data_PCOD8155705
_publ_section_title
;
Structure prediction by ZEFSAII (Michael W. Deem and Ramdas Pophale) SiO2 
 PCOD8155705
Probable space group: P 2 2 21
;
_chemical_formula_sum "Si O2"
_cell_formula_units_Z 20
_cell_length_a 4.975005
_cell_length_b 10.357693
_cell_length_c 18.964272
_cell_angle_alpha 90.000000
_cell_angle_beta 90.000000
_cell_angle_gamma 90.000000
_cell_volume 977.220866
_symmetry_space_group_name_H-M "P 2 2 21"
_symmetry_group_IT_number 17
_symmetry_cell_setting 'orthorhombic'
loop_
_space_group_symop_operation_xyz
x,y,z
-x,-y,1/2+z
x,-y,-z
-x,y,1/2-z
loop_
_atom_site_type_symbol
_atom_site_label
_atom_site_fract_x
_atom_site_fract_y
_atom_site_fract_z
Si Si1 0.837664 0.876161 0.544662
Si Si2 0.652668 0.286807 0.010087
Si Si3 0.824253 0.545472 0.685875
Si Si4 0.754590 0.848067 0.704480
Si Si5 0.670804 0.480996 0.893123
O O1 0.572473 0.822308 0.507282
O O2 0.767022 0.909871 0.626267
O O3 0.074310 0.771825 0.541212
O O4 0.929774 0.000000 0.500000
O O5 0.549945 0.403742 0.059210
O O6 0.687507 0.342762 0.931346
O O7 0.757150 0.694104 0.698450
O O8 0.536702 0.473445 0.673407
O O9 0.000000 0.486183 0.750000
O O10 0.022471 0.522214 0.620608
O O11 0.500000 0.893498 0.750000
O O12 0.000000 0.901048 0.750000
#
# Coordination Sequence:
#
# PCOD8155705 Si02
#       5
#     4   4   4   4   4
#     4  12  24  41  62  89 123 160 212 259 299 371
#     4  11  22  38  59  88 119 159 195 242 316 356
#     4  11  20  33  57  90 125 154 194 245 310 366
#     4  11  21  36  59  87 119 151 196 257 309 355
#     4  11  20  36  59  86 126 151 189 247 299 383
#
# _framework density 20.466204000000001
#
# number of rings (size 3 to 8) (size 9 to 14) (size 15 to 20)
#    0.000    0.800    4.000    6.000    0.000    3.200 
#    0.000    0.000    0.000   12.000    0.000    0.000 
#    0.000    0.000    0.000    0.000    0.000    0.000 
#
# Total GULP energy -247949.762434 kJ/mol
# GULP energy per Si atom -12397.488122 kJ/mol
# Density = 2.041962 g / cm^3
# Si number density = 20.466204 Si / 1000 Ang^3
#
#
#
# Elastic Constant Matrix: (Units=GPa)
#
#
# Indices 1 2 3 4 5 6 
#
# 1 133.7104 20.4272 29.6092 0.0000 0.0000 0.0000
# 2 20.4272 50.7436 45.3582 0.0000 0.0000 0.0000
# 3 29.6092 45.3582 105.0201 0.0000 0.0000 0.0000
# 4 0.0000 0.0000 0.0000 30.0880 0.0000 0.0000
# 5 0.0000 0.0000 0.0000 0.0000 36.7246 0.0000
# 6 0.0000 0.0000 0.0000 0.0000 0.0000 -3.9526
#
#
#
# Elastic Compliance Matrix: (Units=1/GPa)
#
#
# Indices 1 2 3 4 5 6 
#
# 1 0.008098 -0.001986 -0.001426 0.000000 0.000000 0.000000
# 2 -0.001986 0.032586 -0.013514 0.000000 0.000000 0.000000
# 3 -0.001426 -0.013514 0.015761 0.000000 0.000000 0.000000
# 4 0.000000 0.000000 0.000000 0.033236 0.000000 0.000000
# 5 0.000000 0.000000 0.000000 0.000000 0.027230 0.000000
# 6 0.000000 0.000000 0.000000 0.000000 0.000000 -0.252996
#
#
# Mechanical properties :
#
#
# Convention : Reuss Voigt Hill
#
# Bulk Modulus (GPa) = 44.25930 53.36258 48.81094
# Shear Modulus (GPa) = -52.79595 25.51063 -13.64266
#
# Velocity S-wave (km/s) = -5.08455 3.53438 -2.58465
# Velocity P-wave (km/s) = 3.57739 6.54109 3.87222
#
# Compressibility (1/GPa) = 0.02259412
#
# Stress axis : x y z
#
# Youngs Moduli (GPa) = 123.48933 30.68788 63.44919
#
# Poissons Ratio (x) = 0.06093 0.09045
# Poissons Ratio (y) = 0.24520 0.85746
# Poissons Ratio (z) = 0.17603 0.41472
#
# Static dielectric constant tensor:
#      x y z
#    x 3.981350 0.000000 0.000000 
#    y 0.000000 3.178680 0.000000 
#    z 0.000000 0.000000 3.964190 
# 
# 
# High freq. dielectric constant tensor:
#      x y z
#    x 1.824330 0.000000 0.000000 
#    y 0.000000 1.740680 0.000000 
#    z 0.000000 0.000000 1.807140 
# 
# From -- ./inp_files/8929.got.cif
#   From: 2010.03.12/outbox.cif.g09.slc.cpg/sg17_5_cif.got.tgz:8929.got - 2010.04.10 18:46:23.
