data_PCOD8155833
_publ_section_title
;
Structure prediction by ZEFSAII (Michael W. Deem and Ramdas Pophale) SiO2 
 PCOD8155833
Probable space group: P 21 21 2
;
_chemical_formula_sum "Si O2"
_cell_formula_units_Z 24
_cell_length_a 14.267678
_cell_length_b 9.839696
_cell_length_c 8.606439
_cell_angle_alpha 90.000000
_cell_angle_beta 90.000000
_cell_angle_gamma 90.000000
_cell_volume 1208.254650
_symmetry_space_group_name_H-M "P 21 21 2"
_symmetry_group_IT_number 18
_symmetry_cell_setting 'orthorhombic'
loop_
_space_group_symop_operation_xyz
x,y,z
-x,-y,z
1/2+x,1/2-y,-z
1/2-x,1/2+y,-z
loop_
_atom_site_type_symbol
_atom_site_label
_atom_site_fract_x
_atom_site_fract_y
_atom_site_fract_z
Si Si1 0.831038 0.163496 0.944086
Si Si2 0.708097 0.394995 0.907721
Si Si3 0.000000 0.500000 0.764181
Si Si4 0.500000 0.500000 0.348693
Si Si5 0.306988 0.077513 0.404657
Si Si6 0.964723 0.788976 0.910405
Si Si7 0.682042 0.625914 0.421796
O O1 0.789247 0.308519 0.991877
O O2 0.814005 0.137469 0.763208
O O3 0.939200 0.163427 0.989847
O O4 0.778639 0.048027 0.038305
O O5 0.725629 0.399689 0.723742
O O6 0.611607 0.322574 0.958144
O O7 0.909461 0.460694 0.661574
O O8 0.969201 0.628956 0.868747
O O9 0.451469 0.618822 0.243985
O O10 0.581623 0.557181 0.461300
O O11 0.315488 0.222043 0.494813
O O12 0.270751 0.960445 0.519368
#
# Coordination Sequence:
#
# PCOD8155833 Si02
#       7
#     4   4   2   2   4   4   4
#     4  10  21  39  61  92 120 163 210 248 327 379
#     4  11  20  38  63  95 120 160 208 264 308 382
#     4  12  22  42  64 100 120 176 208 260 322 396
#     4  10  18  42  64  82 118 172 204 246 318 388
#     4  11  25  39  66  93 127 162 223 259 318 377
#     4  11  20  38  67  86 123 166 209 251 313 388
#     4  10  22  41  61  91 120 170 210 258 313 386
#
# _framework density 19.863361999999999
#
# number of rings (size 3 to 8) (size 9 to 14) (size 15 to 20)
#    0.000    1.333    8.333    1.000    2.333    1.333 
#    3.000    0.000    7.333    0.000    0.000    0.000 
#    0.000    0.000    0.000    0.000    0.000    0.000 
#
# Total GULP energy -297428.308822 kJ/mol
# GULP energy per Si atom -12392.846201 kJ/mol
# Density = 1.981815 g / cm^3
# Si number density = 19.863362 Si / 1000 Ang^3
#
#
#
# Elastic Constant Matrix: (Units=GPa)
#
#
# Indices 1 2 3 4 5 6 
#
# 1 115.5967 27.8327 38.0235 0.0000 0.0000 0.0000
# 2 27.8327 133.9648 14.0907 0.0000 0.0000 0.0000
# 3 38.0235 14.0907 23.7446 0.0000 0.0000 0.0000
# 4 0.0000 0.0000 0.0000 29.3540 0.0000 0.0000
# 5 0.0000 0.0000 0.0000 0.0000 33.6774 0.0000
# 6 0.0000 0.0000 0.0000 0.0000 0.0000 41.2330
#
#
#
# Elastic Compliance Matrix: (Units=1/GPa)
#
#
# Indices 1 2 3 4 5 6 
#
# 1 0.018353 -0.000770 -0.028933 0.000000 0.000000 0.000000
# 2 -0.000770 0.007994 -0.003511 0.000000 0.000000 0.000000
# 3 -0.028933 -0.003511 0.090531 0.000000 0.000000 0.000000
# 4 0.000000 0.000000 0.000000 0.034067 0.000000 0.000000
# 5 0.000000 0.000000 0.000000 0.000000 0.029694 0.000000
# 6 0.000000 0.000000 0.000000 0.000000 0.000000 0.024252
#
#
# Mechanical properties :
#
#
# Convention : Reuss Voigt Hill
#
# Bulk Modulus (GPa) = 19.82171 48.13332 33.97751
# Shear Modulus (GPa) = 17.35298 33.74348 25.54823
#
# Velocity S-wave (km/s) = 2.95891 4.12610 3.59025
# Velocity P-wave (km/s) = 4.65556 6.85452 5.85912
#
# Compressibility (1/GPa) = 0.05044974
#
# Stress axis : x y z
#
# Youngs Moduli (GPa) = 54.48655 125.09557 11.04599
#
# Poissons Ratio (x) = 0.09630 0.31959
# Poissons Ratio (y) = 0.04195 0.03878
# Poissons Ratio (z) = 1.57646 0.43921
#
# Static dielectric constant tensor:
#      x y z
#    x 3.914450 0.000000 0.000000 
#    y 0.000000 4.268610 0.000000 
#    z 0.000000 0.000000 3.145390 
# 
# 
# High freq. dielectric constant tensor:
#      x y z
#    x 1.783970 0.000000 0.000000 
#    y 0.000000 1.806540 0.000000 
#    z 0.000000 0.000000 1.722710 
# 
# From -- ./inp_files/3204.got.cif
#   From: 2010.03.12/outbox.cif.g09.slc.cpg/sg18_2_cif.got.tgz:3204.got - 2010.04.10 18:53:55.
