data_PCOD8155871
_publ_section_title
;
Structure prediction by ZEFSAII (Michael W. Deem and Ramdas Pophale) SiO2 
 PCOD8155871
Probable space group: P 21 21 2
;
_chemical_formula_sum "Si O2"
_cell_formula_units_Z 32
_cell_length_a 7.851869
_cell_length_b 13.225106
_cell_length_c 13.137384
_cell_angle_alpha 90.000000
_cell_angle_beta 90.000000
_cell_angle_gamma 90.000000
_cell_volume 1364.209600
_symmetry_space_group_name_H-M "P 21 21 2"
_symmetry_group_IT_number 18
_symmetry_cell_setting 'orthorhombic'
loop_
_space_group_symop_operation_xyz
x,y,z
-x,-y,z
1/2+x,1/2-y,-z
1/2-x,1/2+y,-z
loop_
_atom_site_type_symbol
_atom_site_label
_atom_site_fract_x
_atom_site_fract_y
_atom_site_fract_z
Si Si1 0.045557 0.256635 0.470962
Si Si2 0.852292 0.925942 0.324179
Si Si3 0.721143 0.358711 0.381545
Si Si4 0.864900 0.420847 0.180411
Si Si5 0.688805 0.526051 0.010520
Si Si6 0.701505 0.860470 0.116786
Si Si7 0.312615 0.963617 0.505913
Si Si8 0.578059 0.202589 0.982769
O O1 0.074789 0.169062 0.387403
O O2 0.053057 0.203911 0.584285
O O3 0.195463 0.343281 0.473099
O O4 0.866193 0.310653 0.455448
O O5 0.736664 0.874413 0.236297
O O6 0.741563 0.002784 0.392417
O O7 0.000000 0.000000 0.278939
O O8 0.774562 0.349888 0.264242
O O9 0.695076 0.476725 0.411794
O O10 0.718050 0.484438 0.124719
O O11 0.000000 0.500000 0.230101
O O12 0.959556 0.348048 0.102283
O O13 0.500000 0.500000 0.975141
O O14 0.741594 0.643366 0.003867
O O15 0.818901 0.471015 0.932766
O O16 0.866026 0.811928 0.057814
O O17 0.528349 0.796613 0.089934
O O18 0.500000 0.000000 0.528031
#
# Coordination Sequence:
#
# PCOD8155871 Si02
#       8
#     4   4   4   4   4   4   4   4
#     4  10  20  37  58  83 121 161 203 258 317 378
#     4  11  23  38  62  93 124 164 215 268 326 386
#     4  10  19  35  57  82 114 156 202 252 311 378
#     4   9  18  35  58  82 113 155 200 247 309 373
#     4  10  21  40  61  87 123 157 201 263 319 381
#     4  11  22  39  61  90 124 167 212 260 323 387
#     4   9  20  37  56  83 120 161 205 255 313 381
#     4  10  22  39  62  90 123 163 206 257 319 384
#
# _framework density 23.456806
#
# number of rings (size 3 to 8) (size 9 to 14) (size 15 to 20)
#    0.000    2.000    0.000    4.875    0.000    2.000 
#    0.000   18.750    0.000    0.000    0.000    0.000 
#    0.000    0.000    0.000    0.000    0.000    0.000 
#
# Total GULP energy -396426.310981 kJ/mol
# GULP energy per Si atom -12388.322218 kJ/mol
# Density = 2.340342 g / cm^3
# Si number density = 23.456806 Si / 1000 Ang^3
#
#
#
# Elastic Constant Matrix: (Units=GPa)
#
#
# Indices 1 2 3 4 5 6 
#
# 1 42.4847 7.8239 17.1883 0.0000 0.0000 0.0000
# 2 7.8239 109.9265 17.5407 0.0000 0.0000 0.0000
# 3 17.1883 17.5407 91.3106 0.0000 0.0000 0.0000
# 4 0.0000 0.0000 0.0000 21.6955 0.0000 0.0000
# 5 0.0000 0.0000 0.0000 0.0000 27.5328 0.0000
# 6 0.0000 0.0000 0.0000 0.0000 0.0000 33.4634
#
#
#
# Elastic Compliance Matrix: (Units=1/GPa)
#
#
# Indices 1 2 3 4 5 6 
#
# 1 0.025603 -0.001087 -0.004611 0.000000 0.000000 0.000000
# 2 -0.001087 0.009431 -0.001607 0.000000 0.000000 0.000000
# 3 -0.004611 -0.001607 0.012128 0.000000 0.000000 0.000000
# 4 0.000000 0.000000 0.000000 0.046093 0.000000 0.000000
# 5 0.000000 0.000000 0.000000 0.000000 0.036320 0.000000
# 6 0.000000 0.000000 0.000000 0.000000 0.000000 0.029883
#
#
# Mechanical properties :
#
#
# Convention : Reuss Voigt Hill
#
# Bulk Modulus (GPa) = 30.71870 36.53640 33.62755
# Shear Modulus (GPa) = 27.03885 29.94958 28.49422
#
# Velocity S-wave (km/s) = 3.39884 3.57711 3.48911
# Velocity P-wave (km/s) = 5.34108 5.71583 5.53163
#
# Compressibility (1/GPa) = 0.03255346
#
# Stress axis : x y z
#
# Youngs Moduli (GPa) = 39.05724 106.03592 82.45174
#
# Poissons Ratio (x) = 0.11521 0.38017
# Poissons Ratio (y) = 0.04244 0.13251
# Poissons Ratio (z) = 0.18009 0.17041
#
# Static dielectric constant tensor:
#      x y z
#    x 4.106330 0.000000 0.000000 
#    y 0.000000 4.766260 0.000000 
#    z 0.000000 0.000000 3.932500 
# 
# 
# High freq. dielectric constant tensor:
#      x y z
#    x 1.918940 0.000000 0.000000 
#    y 0.000000 1.946530 0.000000 
#    z 0.000000 0.000000 1.901170 
# 
# From -- ./inp_files/6794.got.cif
#   From: 2010.03.12/outbox.cif.g09.slc.cpg/sg18_4_cif.got.tgz:6794.got - 2010.04.10 18:53:55.
