data_PCOD8155607
_publ_section_title
;
Structure prediction by ZEFSAII (Michael W. Deem and Ramdas Pophale) SiO2 
 PCOD8155607
Probable space group: P 2 2 21
;
_chemical_formula_sum "Si O2"
_cell_formula_units_Z 18
_cell_length_a 7.737343
_cell_length_b 12.528261
_cell_length_c 9.278934
_cell_angle_alpha 90.000000
_cell_angle_beta 90.000000
_cell_angle_gamma 90.000000
_cell_volume 899.457666
_symmetry_space_group_name_H-M "P 2 2 21"
_symmetry_group_IT_number 17
_symmetry_cell_setting 'orthorhombic'
loop_
_space_group_symop_operation_xyz
x,y,z
-x,-y,1/2+z
x,-y,-z
-x,y,1/2-z
loop_
_atom_site_type_symbol
_atom_site_label
_atom_site_fract_x
_atom_site_fract_y
_atom_site_fract_z
Si Si1 0.263897 0.500000 0.000000
Si Si2 0.748800 0.752341 0.199715
Si Si3 0.335431 0.005377 0.663213
Si Si4 0.000000 0.869085 0.750000
Si Si5 0.500000 0.581782 0.250000
Si Si6 0.917108 0.283649 0.512284
O O1 0.383309 0.511209 0.142367
O O2 0.134357 0.597415 0.962899
O O3 0.683562 0.870295 0.184687
O O4 0.614364 0.661313 0.151757
O O5 0.773579 0.748380 0.372064
O O6 0.905709 0.723104 0.097703
O O7 0.500000 0.958635 0.750000
O O8 0.388943 0.000000 0.500000
O O9 0.157600 0.943232 0.697486
O O10 0.924725 0.795871 0.622879
#
# Coordination Sequence:
#
# PCOD8155607 Si02
#       6
#     2   4   4   2   2   4
#     4  10  24  42  66  96 128 176 224 278 340 394
#     4  10  21  42  67  88 133 179 218 262 345 406
#     4  12  27  43  69 102 136 184 221 278 338 414
#     4  12  26  42  68 104 140 170 230 284 336 390
#     4  10  22  42  66  96 128 170 220 282 328 400
#     4  10  23  42  65  94 130 177 222 276 329 403
#
# _framework density 20.012059000000001
#
# number of rings (size 3 to 8) (size 9 to 14) (size 15 to 20)
#    0.000    1.333    3.333    1.333    3.111    6.222 
#    2.000    0.000    0.000    0.000    0.000    0.000 
#    0.000    0.000    0.000    0.000    0.000    0.000 
#
# Total GULP energy -223022.725773 kJ/mol
# GULP energy per Si atom -12390.151432 kJ/mol
# Density = 1.996651 g / cm^3
# Si number density = 20.012059 Si / 1000 Ang^3
#
#
#
# Elastic Constant Matrix: (Units=GPa)
#
#
# Indices 1 2 3 4 5 6 
#
# 1 94.1114 32.2831 36.7655 0.0000 0.0000 0.0000
# 2 32.2831 105.0441 46.8031 0.0000 0.0000 0.0000
# 3 36.7655 46.8031 113.4155 0.0000 0.0000 0.0000
# 4 0.0000 0.0000 0.0000 1.7991 0.0000 0.0000
# 5 0.0000 0.0000 0.0000 0.0000 25.7461 0.0000
# 6 0.0000 0.0000 0.0000 0.0000 0.0000 36.3054
#
#
#
# Elastic Compliance Matrix: (Units=1/GPa)
#
#
# Indices 1 2 3 4 5 6 
#
# 1 0.012694 -0.002534 -0.003069 0.000000 0.000000 0.000000
# 2 -0.002534 0.012170 -0.004201 0.000000 0.000000 0.000000
# 3 -0.003069 -0.004201 0.011546 0.000000 0.000000 0.000000
# 4 0.000000 0.000000 0.000000 0.555829 0.000000 0.000000
# 5 0.000000 0.000000 0.000000 0.000000 0.038841 0.000000
# 6 0.000000 0.000000 0.000000 0.000000 0.000000 0.027544
#
#
# Mechanical properties :
#
#
# Convention : Reuss Voigt Hill
#
# Bulk Modulus (GPa) = 59.51703 60.47497 59.99600
# Shear Modulus (GPa) = 7.31174 25.88473 16.59823
#
# Velocity S-wave (km/s) = 1.91353 3.60037 2.88308
# Velocity P-wave (km/s) = 5.88959 6.89698 6.41310
#
# Compressibility (1/GPa) = 0.01680191
#
# Stress axis : x y z
#
# Youngs Moduli (GPa) = 78.77800 82.16768 86.61201
#
# Poissons Ratio (x) = 0.20818 0.26585
# Poissons Ratio (y) = 0.19959 0.36385
# Poissons Ratio (z) = 0.24180 0.34518
#
# Static dielectric constant tensor:
#      x y z
#    x 4.296720 0.000000 0.000000 
#    y 0.000000 3.653280 0.000000 
#    z 0.000000 0.000000 3.746490 
# 
# 
# High freq. dielectric constant tensor:
#      x y z
#    x 1.796530 0.000000 0.000000 
#    y 0.000000 1.791140 0.000000 
#    z 0.000000 0.000000 1.783600 
# 
# From -- ./inp_files/4059.got.cif
#   From: 2010.03.12/outbox.cif.g09.slc.cpg/sg17_3_cif.got.tgz:4059.got - 2010.04.10 18:46:23.
