data_PCOD8155047
_publ_section_title
;
Structure prediction by ZEFSAII (Michael W. Deem and Ramdas Pophale) SiO2 
 PCOD8155047
Probable space group: C 2/C
;
_chemical_formula_sum "Si O2"
_cell_formula_units_Z 40
_cell_length_a 14.375512
_cell_length_b 14.140470
_cell_length_c 17.195907
_cell_angle_alpha 90.000000
_cell_angle_beta 29.035122
_cell_angle_gamma 90.000000
_cell_volume 1696.537290
_symmetry_space_group_name_H-M "C 2/C"
_symmetry_group_IT_number 15
_symmetry_cell_setting 'monoclinic'
loop_
_space_group_symop_operation_xyz
x,y,z
-x,y,1/2-z
-x,-y,-z
x,-y,1/2+z
1/2+x,1/2+y,z
1/2-x,1/2+y,1/2-z
1/2-x,1/2-y,-z
1/2+x,1/2-y,1/2+z
loop_
_atom_site_type_symbol
_atom_site_label
_atom_site_fract_x
_atom_site_fract_y
_atom_site_fract_z
Si Si1 0.653264 0.934399 0.427068
Si Si2 0.200534 0.500454 0.566340
Si Si3 0.485485 0.321910 0.849041
Si Si4 0.508384 0.420161 0.429942
Si Si5 0.899577 0.723939 0.060287
O O1 0.582515 0.827792 0.463265
O O2 0.858943 0.950811 0.239010
O O3 0.500000 0.000000 0.500000
O O4 0.664320 0.958397 0.508831
O O5 0.354270 0.585757 0.453004
O O6 0.293489 0.415667 0.550496
O O7 0.000000 0.534640 0.750000
O O8 0.500000 0.285678 0.750000
O O9 0.405184 0.236725 0.961868
O O10 0.705401 0.335920 0.719711
O O11 0.500000 0.500000 0.500000
O O12 0.594503 0.326669 0.405068
#
# Coordination Sequence:
#
# PCOD8155047 Si02
#       5
#     8   8   8   8   8
#     4  12  27  48  74 112 156 202 255 323 390 458
#     4  12  28  47  80 113 154 207 262 317 388 462
#     4  12  26  48  76 115 152 201 259 321 384 455
#     4  12  25  48  76 108 156 205 256 313 390 465
#     4  12  27  48  77 112 157 202 256 322 388 464
#
# _framework density 23.577435999999999
#
# number of rings (size 3 to 8) (size 9 to 14) (size 15 to 20)
#    0.000    0.000    4.000    6.000    2.800    3.200 
#    0.000    0.000    0.000    0.000    0.000    0.000 
#    0.000    0.000    0.000    0.000    0.000    0.000 
#
# Total GULP energy -247939.573308 kJ/mol
# GULP energy per Si atom -12396.978665 kJ/mol
# Density = 2.352377 g / cm^3
# Si number density = 23.577436 Si / 1000 Ang^3
#
#
#
# Elastic Constant Matrix: (Units=GPa)
#
#
# Indices 1 2 3 4 5 6 
#
# 1 178.4821 66.5184 67.0806 -0.0010 7.7650 -0.0010
# 2 66.5184 106.1728 55.8279 -0.0273 1.0907 0.0087
# 3 67.0806 55.8279 171.6793 -0.0210 -1.8125 0.0097
# 4 -0.0010 -0.0273 -0.0210 33.8330 0.0063 -11.6640
# 5 7.7650 1.0907 -1.8125 0.0063 50.3596 -0.0015
# 6 -0.0010 0.0087 0.0097 -11.6640 -0.0015 46.4105
#
#
#
# Elastic Compliance Matrix: (Units=1/GPa)
#
#
# Indices 1 2 3 4 5 6 
#
# 1 0.007787 -0.003933 -0.001776 -0.000004 -0.001180 0.000000
# 2 -0.003933 0.013355 -0.002804 0.000009 0.000216 0.000000
# 3 -0.001776 -0.002804 0.007437 0.000002 0.000602 -0.000001
# 4 -0.000004 0.000009 0.000002 0.032361 -0.000003 0.008133
# 5 -0.001180 0.000216 0.000602 -0.000003 0.020056 0.000000
# 6 0.000000 0.000000 -0.000001 0.008133 0.000000 0.023591
#
#
# Mechanical properties :
#
#
# Convention : Reuss Voigt Hill
#
# Bulk Modulus (GPa) = 86.55612 92.79869 89.67741
# Shear Modulus (GPa) = 39.85215 43.91443 41.88329
#
# Velocity S-wave (km/s) = 4.11575 4.32042 4.21933
# Velocity P-wave (km/s) = 7.70564 8.02076 7.86478
#
# Compressibility (1/GPa) = 0.01155320
#
# Stress axis : x y z
#
# Youngs Moduli (GPa) = 128.41183 74.88055 134.46236
#
# Poissons Ratio (x) = 0.29449 0.23886
# Poissons Ratio (y) = 0.50501 0.37701
# Poissons Ratio (z) = 0.22811 0.20995
#
# Static dielectric constant tensor:
#      x y z
#    x 2.051790 -0.001790 1.494960 
#    y -0.001790 4.635940 0.000990 
#    z 1.494960 0.000990 3.844000 
# 
# 
# High freq. dielectric constant tensor:
#      x y z
#    x 1.951330 0.000000 -0.002510 
#    y 0.000000 1.918900 0.000000 
#    z -0.002510 0.000000 1.957770 
# 
# From -- ./inp_files/205602.got.cif
#   From: 2010.06.25/outbox.cif.g09.slc.cpg/sg15_103_cif.got.tgz:205602.got - 2010.06.28 07:06:18.
