data_PCOD8155667
_publ_section_title
;
Structure prediction by ZEFSAII (Michael W. Deem and Ramdas Pophale) SiO2 
 PCOD8155667
Probable space group: P 2 2 21
;
_chemical_formula_sum "Si O2"
_cell_formula_units_Z 32
_cell_length_a 11.575381
_cell_length_b 8.795028
_cell_length_c 15.307000
_cell_angle_alpha 90.000000
_cell_angle_beta 90.000000
_cell_angle_gamma 90.000000
_cell_volume 1558.341381
_symmetry_space_group_name_H-M "P 2 2 21"
_symmetry_group_IT_number 17
_symmetry_cell_setting 'orthorhombic'
loop_
_space_group_symop_operation_xyz
x,y,z
-x,-y,1/2+z
x,-y,-z
-x,y,1/2-z
loop_
_atom_site_type_symbol
_atom_site_label
_atom_site_fract_x
_atom_site_fract_y
_atom_site_fract_z
Si Si1 0.752415 0.399822 0.916369
Si Si2 0.618236 0.726492 0.446864
Si Si3 0.314724 0.645548 0.700569
Si Si4 0.093200 0.118083 0.577497
Si Si5 0.758785 0.975334 0.775160
Si Si6 0.824793 0.088321 0.588315
Si Si7 0.436734 0.397328 0.122285
Si Si8 0.563638 0.811974 0.166850
O O1 0.774584 0.517988 0.836502
O O2 0.858730 0.288375 0.940329
O O3 0.645464 0.300590 0.885327
O O4 0.718443 0.500000 0.000000
O O5 0.748805 0.757743 0.414681
O O6 0.608771 0.723884 0.551162
O O7 0.569915 0.568532 0.410522
O O8 0.535520 0.857170 0.403792
O O9 0.245087 0.802115 0.694479
O O10 0.431922 0.646803 0.643844
O O11 0.346813 0.615350 0.799631
O O12 0.957307 0.136204 0.588510
O O13 0.125827 0.000000 0.500000
O O14 0.144357 0.059781 0.668423
O O15 0.793302 0.989932 0.673743
O O16 0.631860 0.043401 0.795402
O O17 0.792014 0.000000 0.500000
O O18 0.500000 0.730809 0.250000
#
# Coordination Sequence:
#
# PCOD8155667 Si02
#       8
#     4   4   4   4   4   4   4   4
#     4  11  22  40  67  94 129 171 221 273 330 395
#     4  11  21  39  61  93 131 174 210 259 329 401
#     4  11  22  38  63  93 132 173 206 265 327 391
#     4  10  24  46  69  95 123 171 227 286 331 385
#     4  11  24  40  67  95 132 168 221 275 327 390
#     4  11  24  43  69  90 130 174 223 277 334 387
#     4  10  23  36  58  94 139 164 206 260 328 397
#     4  11  21  36  62  95 129 171 212 262 320 398
#
# _framework density 20.534654
#
# number of rings (size 3 to 8) (size 9 to 14) (size 15 to 20)
#    0.000    1.250    2.500    3.375    3.500    2.000 
#    2.250    0.625    5.500    0.000    0.000    0.000 
#    0.000    0.000    0.000    0.000    0.000    0.000 
#
# Total GULP energy -396669.873116 kJ/mol
# GULP energy per Si atom -12395.933535 kJ/mol
# Density = 2.048792 g / cm^3
# Si number density = 20.534654 Si / 1000 Ang^3
#
#
#
# Elastic Constant Matrix: (Units=GPa)
#
#
# Indices 1 2 3 4 5 6 
#
# 1 109.8082 45.9630 49.4054 0.0000 0.0000 0.0000
# 2 45.9630 96.5718 44.2292 0.0000 0.0000 0.0000
# 3 49.4054 44.2292 137.9671 0.0000 0.0000 0.0000
# 4 0.0000 0.0000 0.0000 25.0239 0.0000 0.0000
# 5 0.0000 0.0000 0.0000 0.0000 23.4455 0.0000
# 6 0.0000 0.0000 0.0000 0.0000 0.0000 18.1409
#
#
#
# Elastic Compliance Matrix: (Units=1/GPa)
#
#
# Indices 1 2 3 4 5 6 
#
# 1 0.012330 -0.004508 -0.002970 0.000000 0.000000 0.000000
# 2 -0.004508 0.013785 -0.002805 0.000000 0.000000 0.000000
# 3 -0.002970 -0.002805 0.009211 0.000000 0.000000 0.000000
# 4 0.000000 0.000000 0.000000 0.039962 0.000000 0.000000
# 5 0.000000 0.000000 0.000000 0.000000 0.042652 0.000000
# 6 0.000000 0.000000 0.000000 0.000000 0.000000 0.055124
#
#
# Mechanical properties :
#
#
# Convention : Reuss Voigt Hill
#
# Bulk Modulus (GPa) = 67.75133 69.28247 68.51690
# Shear Modulus (GPa) = 25.18250 26.97204 26.07727
#
# Velocity S-wave (km/s) = 3.50572 3.62814 3.56745
# Velocity P-wave (km/s) = 7.03221 7.16685 7.09985
#
# Compressibility (1/GPa) = 0.01475986
#
# Stress axis : x y z
#
# Youngs Moduli (GPa) = 81.10208 72.54130 108.56722
#
# Poissons Ratio (x) = 0.32703 0.32246
# Poissons Ratio (y) = 0.36562 0.30452
# Poissons Ratio (z) = 0.24089 0.20347
#
# Static dielectric constant tensor:
#      x y z
#    x 3.660340 0.000000 0.000000 
#    y 0.000000 3.784690 0.000000 
#    z 0.000000 0.000000 4.118840 
# 
# 
# High freq. dielectric constant tensor:
#      x y z
#    x 1.788890 0.000000 0.000000 
#    y 0.000000 1.793260 0.000000 
#    z 0.000000 0.000000 1.826970 
# 
# From -- ./inp_files/8567.got.cif
#   From: 2010.03.12/outbox.cif.g09.slc.cpg/sg17_5_cif.got.tgz:8567.got - 2010.04.10 18:46:23.
